#------------------------------------------------------------------------------
#$Date: 2021-05-05 11:24:38 +0300 (Wed, 05 May 2021) $
#$Revision: 264892 $
#$URL: file:///home/coder/svn-repositories/cod/cif/1/56/10/1561087.cif $
#------------------------------------------------------------------------------
#
# This file is available in the Crystallography Open Database (COD),
# http://www.crystallography.net/
#
# All data on this site have been placed in the public domain by the
# contributors.
#
data_1561087
loop_
_publ_author_name
'Ouadoudi, Omar'
'Kaehler, Tanja'
'Bolte, Michael'
'Lerner, Hans-Wolfram'
'Wagner, Matthias'
_publ_section_title
;
 One tool to bring them all: Au-catalyzed synthesis of B,O- and B,N-doped
 PAHs from boronic and borinic acids
;
_journal_issue                   16
_journal_name_full               'Chemical Science'
_journal_page_first              5898
_journal_page_last               5909
_journal_paper_doi               10.1039/D1SC00543J
_journal_volume                  12
_journal_year                    2021
_chemical_formula_moiety         'C16 H10 B2 O2'
_chemical_formula_sum            'C16 H10 B2 O2'
_chemical_formula_weight         255.86
_space_group_crystal_system      monoclinic
_space_group_IT_number           14
_space_group_name_Hall           '-P 2yn'
_space_group_name_H-M_alt        'P 1 21/n 1'
_atom_sites_solution_hydrogens   geom
_atom_sites_solution_primary     direct
_audit_creation_method           SHELXL-2018/3
_audit_update_record
;
2021-03-05 deposited with the CCDC.	2021-03-17 downloaded from the CCDC.
;
_cell_angle_alpha                90
_cell_angle_beta                 101.395(12)
_cell_angle_gamma                90
_cell_formula_units_Z            2
_cell_length_a                   7.9871(13)
_cell_length_b                   4.6704(5)
_cell_length_c                   16.324(3)
_cell_measurement_reflns_used    3067
_cell_measurement_temperature    173(2)
_cell_measurement_theta_max      25.97
_cell_measurement_theta_min      4.16
_cell_volume                     596.93(16)
_computing_cell_refinement       'X-Area (Stoe & Cie, 2001)'
_computing_data_collection       'X-Area (Stoe & Cie, 2001)'
_computing_data_reduction        'X-Area (Stoe & Cie, 2001)'
_computing_molecular_graphics    'XP in SHELXTL-Plus (Sheldrick, 2008)'
_computing_publication_material  SHELXL
_computing_structure_refinement  'SHELXL (Sheldrick, 2008)'
_computing_structure_solution    'SHELXS (Sheldrick, 2008)'
_diffrn_ambient_temperature      173(2)
_diffrn_measured_fraction_theta_full 0.997
_diffrn_measured_fraction_theta_max 0.997
_diffrn_measurement_device_type  'STOE IPDS II two-circle-diffractometer'
_diffrn_measurement_method       \w
_diffrn_radiation_type           MoK\a
_diffrn_radiation_wavelength     0.71073
_diffrn_reflns_av_R_equivalents  0.0497
_diffrn_reflns_av_unetI/netI     0.0513
_diffrn_reflns_Laue_measured_fraction_full 0.997
_diffrn_reflns_Laue_measured_fraction_max 0.997
_diffrn_reflns_limit_h_max       8
_diffrn_reflns_limit_h_min       -9
_diffrn_reflns_limit_k_max       5
_diffrn_reflns_limit_k_min       -5
_diffrn_reflns_limit_l_max       19
_diffrn_reflns_limit_l_min       -19
_diffrn_reflns_number            3067
_diffrn_reflns_point_group_measured_fraction_full 0.997
_diffrn_reflns_point_group_measured_fraction_max 0.997
_diffrn_reflns_theta_full        25.000
_diffrn_reflns_theta_max         25.016
_diffrn_reflns_theta_min         4.176
_diffrn_source                   'Genix 3D I\mS microfocus X-ray source'
_exptl_absorpt_coefficient_mu    0.090
_exptl_absorpt_correction_T_max  1.000
_exptl_absorpt_correction_T_min  0.540
_exptl_absorpt_correction_type   multi-scan
_exptl_absorpt_process_details   'X-Area (Stoe & Cie, 2001)'
_exptl_crystal_colour            colourless
_exptl_crystal_density_diffrn    1.423
_exptl_crystal_description       needle
_exptl_crystal_F_000             264
_exptl_crystal_size_max          0.110
_exptl_crystal_size_mid          0.030
_exptl_crystal_size_min          0.010
_refine_diff_density_max         0.226
_refine_diff_density_min         -0.196
_refine_diff_density_rms         0.054
_refine_ls_extinction_method     none
_refine_ls_goodness_of_fit_ref   1.342
_refine_ls_hydrogen_treatment    constr
_refine_ls_matrix_type           full
_refine_ls_number_parameters     91
_refine_ls_number_reflns         1050
_refine_ls_number_restraints     0
_refine_ls_restrained_S_all      1.342
_refine_ls_R_factor_all          0.1371
_refine_ls_R_factor_gt           0.1063
_refine_ls_shift/su_max          0.000
_refine_ls_shift/su_mean         0.000
_refine_ls_structure_factor_coef Fsqd
_refine_ls_weighting_details
'w=1/[\s^2^(Fo^2^)+1.6103P] where P=(Fo^2^+2Fc^2^)/3'
_refine_ls_weighting_scheme      calc
_refine_ls_wR_factor_gt          0.1676
_refine_ls_wR_factor_ref         0.1783
_reflns_Friedel_coverage         0.000
_reflns_number_gt                775
_reflns_number_total             1050
_reflns_threshold_expression     'I > 2\s(I)'
_cod_data_source_file            d1sc00543j2.cif
_cod_data_source_block           wa2899
_cod_depositor_comments
'Adding full bibliography for 1561085--1561097.cif.'
_cod_original_sg_symbol_H-M      'P 21/n'
_cod_database_code               1561087
_shelx_shelxl_version_number     2018/3
_shelx_space_group_comment
; 
The symmetry employed for this shelxl refinement is uniquely defined 
by the following loop, which should always be used as a source of 
symmetry information in preference to the above space-group names. 
They are only intended as comments. 
;
_shelx_estimated_absorpt_t_min   0.990
_shelx_estimated_absorpt_t_max   0.999
_shelx_res_file
; 
TITL wa2899 in P21/n 
    wa2899.res 
    created by SHELXL-2018/3 at 10:34:20 on 05-Feb-2020 
CELL .71073    7.9871   4.6704  16.324   90.000 101.395  90.000 
ZERR 2         0.0013   0.0005   0.003    0.000   0.012   0.000 
LATT 1 
SYMM x+.5,-y+.5,z+.5 
SFAC C H B O 
UNIT 32 20 4 4 
TEMP-100 
SIZE.11 .03 .01 
REM colourless needle 
SHEL999. .84 
ACTA50 
L.S. 8 
BOND$H 
CONF 
FMAP 2 
PLAN 10 
EQIV $1 1-x,2-y,1-z 
MPLA B1 > C8 = 
     B1_$1 O1_$1 C1_$1 C2_$1 C3_$1 C4_$1 C5_$1 C6_$1 C7_$1 C8_$1 
WGHT    0.000000    1.610300 
FVAR       1.16825 
B1    3    0.334677    0.852874    0.487328    11.00000    0.02854    0.02602 = 
         0.03238    0.00989    0.00752    0.00116 
O1    4    0.178972    0.713109    0.475433    11.00000    0.03877    0.03527 = 
         0.04984   -0.00081    0.01043   -0.00225 
C1    1    0.457820    0.786873    0.429853    11.00000    0.03545    0.02071 = 
         0.02281    0.00348    0.00277    0.00315 
C2    1    0.620770    0.924162    0.439987    11.00000    0.03769    0.02741 = 
         0.03096    0.00519    0.00654    0.00482 
C3    1    0.728749    0.851579    0.385947    11.00000    0.03301    0.02901 = 
         0.03749    0.00875    0.01267    0.00666 
AFIX  43 
H3    2    0.837927    0.938898    0.391975    11.00000   -1.20000 
AFIX   0 
C4    1    0.676299    0.650062    0.322812    11.00000    0.05443    0.04014 = 
         0.03165    0.00671    0.02193    0.01502 
AFIX  43 
H4    2    0.750810    0.603786    0.286034    11.00000   -1.20000 
AFIX   0 
C5    1    0.520125    0.516897    0.312369    11.00000    0.05983    0.03252 = 
         0.02357   -0.00354    0.00503    0.01017 
AFIX  43 
H5    2    0.487668    0.379974    0.269109    11.00000   -1.20000 
AFIX   0 
C6    1    0.409579    0.584671    0.365921    11.00000    0.03834    0.02090 = 
         0.02920    0.00544   -0.00118    0.00969 
C7    1    0.243181    0.450858    0.359254    11.00000    0.04717    0.03593 = 
         0.03836   -0.00423   -0.00874    0.00069 
AFIX  43 
H7    2    0.206534    0.314579    0.316245    11.00000   -1.20000 
AFIX   0 
C8    1    0.140813    0.514318    0.411854    11.00000    0.03510    0.03146 = 
         0.05127   -0.00078    0.00021   -0.00358 
AFIX  43 
H8    2    0.034672    0.416593    0.405240    11.00000   -1.20000 
AFIX   0 
HKLF 4 
  
  
  
  
REM  wa2899 in P21/n 
REM wR2 = 0.1783, GooF = S = 1.342, Restrained GooF = 1.342 for all data 
REM R1 = 0.1063 for 775 Fo > 4sig(Fo) and 0.1371 for all 1050 data 
REM 91 parameters refined using 0 restraints 
  
END 
  
WGHT      0.0000      1.6099 
  
REM Highest difference peak  0.226,  deepest hole -0.196,  1-sigma level  0.054 
Q1    1   0.4189  0.7685  0.4767  11.00000  0.05    0.23 
Q2    1   0.1742  0.7020  0.3076  11.00000  0.05    0.20 
Q3    1   0.3535  0.9067  0.4430  11.00000  0.05    0.19 
Q4    1   0.6782  0.9527  0.4942  11.00000  0.05    0.18 
Q5    1   0.3710  0.7492  0.3684  11.00000  0.05    0.17 
Q6    1   0.8395  0.4213  0.3233  11.00000  0.05    0.17 
Q7    1   0.0309  0.4532  0.4442  11.00000  0.05    0.16 
Q8    1   0.2319  0.4261  0.3098  11.00000  0.05    0.16 
Q9    1   0.5156  0.4079  0.2053  11.00000  0.05    0.16 
Q10   1   0.4271  0.2204  0.2524  11.00000  0.05    0.16 
;
_shelx_res_checksum              92290
_shelx_hkl_file
; 
  -8  -1  10   -2.80    6.73   0 
  -7  -2   3   63.70    6.17   0 
  -7   0  15   52.68    6.72   0 
  -7   0  16   -0.86    5.97   0 
  -6   0   9   -2.84    7.01   0 
  -5  -2  -1    1.12    5.80   0 
  -4   1  14   -5.92    6.92   0 
  -4   1  15   92.52    6.17   0 
  -4   1  16   25.87    5.87   0 
  -4   1  18  -10.85    6.60   0 
  -3   1  10   20.16    6.30   0 
  -2   1   8  236.82    9.56   0 
   1  -2  -6   28.26    9.87   0 
   3  -2  -6    5.82    7.48   0 
   3   1   8    6.49   10.94   0 
   4   0   1    0.75    8.56   0 
   5  -2  -5   44.50    7.43   0 
   6  -4  -7   -0.10    6.86   0 
   6  -3  -6    6.97    5.59   0 
   6  -1  -1   21.74    7.62   0 
   7  -2  -3   60.83    5.97   0 
   7   0  10    4.57    5.77   0 
   8  -2  -1   25.15    5.67   0 
  -8  -2   5   23.05    7.64   0 
  -7  -1   6   28.13    6.27   0 
  -7   0  13    2.51    5.36   0 
  -7   0  14   -1.12    6.33   0 
  -5  -4  -4  108.10   10.26   0 
  -5  -3  -3    1.18    8.48   0 
  -5   0   6    2.20    6.62   0 
  -4   0   4   15.01    7.23   0 
  -4   1  19    1.61    6.76   0 
   0  -4  -8   87.98   11.37   0 
   2  -2  -6  201.59   10.07   0 
   5  -1  -2   26.56    8.14   0 
   6  -2  -4   -5.69    6.22   0 
   6   0   5    8.84    7.51   0 
   7  -1   1  104.53    6.68   0 
   8  -3  -3   17.79    5.28   0 
   8  -1   5   20.04    6.95   0 
  -7   0  12  -11.35    5.93   0 
  -6  -1   3   -6.90    7.47   0 
  -6   0   8  335.16    8.65   0 
  -4   1  12    4.59    6.61   0 
   2   0   0 1415.75   22.76   0 
   5   0   3  149.13    9.13   0 
   7  -3  -4   53.19    6.17   0 
   7  -2  -2   -8.09    5.33   0 
   8  -2   0  184.67    7.15   0 
   8  -1   6   51.45    7.12   0 
  -7  -3   0   16.96    7.59   0 
  -7  -2   2   20.49    5.66   0 
  -7  -1   5   13.44    6.36   0 
  -7   0  11   20.84    5.71   0 
  -6  -2   0   34.70    8.04   0 
  -5  -1   1  104.44    7.89   0 
  -5   0   5   36.63    8.68   0 
  -3   0   2   22.27   10.45   0 
  -2   1   7   75.75   10.32   0 
   0  -3  -7    9.63    9.77   0 
   3  -4  -8   73.22    7.99   0 
   4  -2  -5   -1.04    7.91   0 
   5  -4  -7   60.87    5.83   0 
   5  -3  -6    0.86    5.99   0 
   6  -4  -6   48.29    8.16   0 
   6  -1   0   -8.17    5.87   0 
   6   0   6   -9.54    6.17   0 
   7  -1   2   51.44    6.25   0 
   8  -3  -2   29.52    5.41   0 
   8  -1   7   20.54    7.33   0 
  -7   0  10   15.86    6.09   0 
  -6  -4  -3    6.94    9.40   0 
  -6  -3  -2   27.15    7.31   0 
  -6   0   7    9.23    6.24   0 
  -5   1  15   73.41    6.59   0 
  -5   1  16   15.48    5.52   0 
  -5   1  18   18.73    6.54   0 
  -4  -2  -3   15.70    9.14   0 
  -3  -2  -4   75.32   12.26   0 
  -3   1   8   40.76    8.64   0 
  -2   0   1    0.99   10.61   0 
  -1   1   6   12.38   10.80   0 
   2  -4  -8   48.54    7.88   0 
   3   1   9   31.24   10.33   0 
   4   0   2 3029.51   23.94   0 
   5  -2  -4   12.99    6.69   0 
   6   0   7  -13.57    6.70   0 
   7  -1   3   54.08    6.65   0 
   8  -3  -1   26.49    7.00   0 
  -8  -1   7   -6.07    6.19   0 
  -8   0  14   15.60    6.37   0 
  -5   1  13    2.46    6.08   0 
  -4   0   3    2.19    7.45   0 
   0  -5  -8   -5.98    9.22   0 
   1  -3  -7   19.00    9.18   0 
   2  -3  -7   36.29    8.08   0 
   2   1   7    0.88   12.89   0 
   3   0   1   16.99    8.69   0 
   4  -1  -2  206.95    8.74   0 
   5   0   4   10.49    6.89   0 
   6   0   8   13.24    7.05   0 
   7  -3  -3   27.78    5.89   0 
   8  -2   2  115.98    7.22   0 
  -9  -1  10   17.29    6.02   0 
  -8  -2   3   40.22    7.94   0 
  -8   0  13   26.00    6.03   0 
  -7  -2   1   51.54    7.66   0 
  -7  -1   4    8.13    6.52   0 
  -7   0   9   -0.17    5.80   0 
  -6  -1   2  -12.44    6.41   0 
  -6   0   6  316.66    9.15   0 
  -5  -2  -2   28.56    8.10   0 
  -5   0   4   -2.30    8.96   0 
  -5   1  12   35.58    6.54   0 
  -4   1   9   11.20    7.05   0 
   1  -5  -8  -11.65    9.08   0 
   3  -2  -5    6.17    8.54   0 
   4  -4  -7   41.28    6.66   0 
   4  -3  -6    5.43    8.37   0 
   6  -4  -5   22.47    7.79   0 
   6  -3  -4   30.19    6.49   0 
   6  -2  -2   22.59    6.17   0 
   6  -1   1   15.29    6.27   0 
   6   0   9   -0.27    7.29   0 
   7  -2   0  125.12    7.22   0 
   7  -1   4   18.35    5.64   0 
   8  -3   0    5.98    6.08   0 
  -9  -1   9   49.37    6.64   0 
  -8  -3   1   29.88    6.81   0 
  -8  -1   6   -2.70    6.32   0 
  -8   0  12   37.32    6.59   0 
  -7   0   8   -5.79    5.35   0 
  -6   1  16   -4.20    6.06   0 
  -6   1  17    7.16    6.28   0 
  -5   1  11   23.75    6.53   0 
  -4  -1  -1   17.66    9.41   0 
  -3   1   7    4.00    7.50   0 
  -2   1   6   21.74   10.19   0 
   2  -1  -3    6.57    9.67   0 
   3   1  10   94.72   12.43   0 
   5  -3  -5   15.33    6.39   0 
   5   0   5   70.70    9.02   0 
   6   0  12  229.86   10.57   0 
   7  -3  -2    3.42    5.69   0 
   7  -1   5    5.73    6.33   0 
   8  -2   4   12.99    7.96   0 
  -9  -2   5   -0.05    6.99   0 
  -9  -1   8   20.21    7.96   0 
  -8   0  11    0.41    5.86   0 
  -7  -1   3  297.12   10.46   0 
  -6  -2  -1    2.15    6.40   0 
  -6   1  13   -4.12    7.81   0 
  -6   1  14   15.97    6.46   0 
  -5  -1   0    1.34    6.85   0 
  -5   1  10  129.38    7.79   0 
  -4   1   8   30.24    7.78   0 
  -3  -1  -2  170.83   12.56   0 
  -2  -5  -7    1.71   16.06   0 
   3  -4  -7    6.37    7.00   0 
   4  -2  -4   10.61    7.12   0 
   4   0   3    9.27    9.05   0 
   5  -1   0    5.54    7.03   0 
   6  -1   2   14.72    6.56   0 
   7  -2   1   46.48    6.67   0 
   7  -1   6    6.68    7.60   0 
   8  -2   5    7.36    8.02   0 
  -8  -1   5    4.08    6.49   0 
  -8   0  10    0.82    6.39   0 
  -7   0   7   22.69    6.24   0 
  -6   0   5   -6.74    7.26   0 
  -6   1  12   25.45    7.83   0 
  -4   0   2   97.12    8.45   0 
   2  -2  -5   28.90    9.64   0 
   3  -5  -7   14.10    8.06   0 
   3  -3  -6   47.71    9.26   0 
   3   1  11    5.27   10.99   0 
   3   1  15   68.46   13.69   0 
   5   0   6    1.41    8.11   0 
   6  -4  -4    7.95    6.92   0 
   6  -3  -3   46.16    6.25   0 
   6  -2  -1   70.33    6.92   0 
   7  -3  -1    5.83    6.37   0 
   7  -1   7    8.96    7.65   0 
  -9  -2   4    7.05    6.77   0 
  -9  -1   7    2.56    6.30   0 
  -8  -3   0   16.62    8.42   0 
  -8   0   9  -15.63    6.59   0 
  -7  -2   0  126.93    8.50   0 
  -6  -3  -3   -0.97    9.04   0 
  -6  -1   1   22.36    6.87   0 
  -6   1  11  207.57    9.70   0 
  -5   0   3  158.40    8.66   0 
  -5   1   9   25.26    7.18   0 
  -4  -3  -5    2.23   11.73   0 
  -3   0   1  947.66   17.01   0 
  -3   1   6   19.02    8.38   0 
   1  -1  -3 1025.95   24.46   0 
   2  -4  -7   24.63    7.65   0 
   3  -1  -2  221.44   10.34   0 
   3   1  12   37.15   13.19   0 
   4  -3  -5    5.72    8.84   0 
   4  -1  -1  131.12    8.98   0 
   5  -4  -5    0.48    6.15   0 
   5  -3  -4   26.90    6.95   0 
   6  -1   3    1.80    6.68   0 
   7  -2   2   24.08    6.65   0 
   7  -1   8    3.60    6.27   0 
  -7   0   6   -4.72    6.29   0 
  -7   1  14   15.14    8.55   0 
  -7   1  15   -0.26    6.90   0 
  -6   0   4 1743.39   17.58   0 
  -5  -4  -5    6.22   12.15   0 
  -1   1   5  417.45   17.29   0 
   2  -5  -7    8.72    8.22   0 
   2   0   1    4.29   16.00   0 
   3   0   2   -0.66    8.91   0 
   3   1  14    2.39   11.99   0 
   5  -2  -2    6.45    7.14   0 
   5  -1   1   10.85    7.28   0 
   5   0   7   59.54    8.60   0 
   6  -3  -2   22.70    8.24   0 
   7  -3   0    7.33    6.31   0 
   7  -1   9    5.96    6.32   0 
   7  -1  10    5.30    8.40   0 
  -9  -1   6    7.12    6.59   0 
  -8  -2   1   28.90    8.31   0 
  -8   0   8   23.66    6.50   0 
  -7  -3  -2    1.53    8.27   0 
  -7   1  13   -6.47    7.13   0 
  -6  -4  -4   48.22   10.77   0 
  -6   1  10   36.77    7.15   0 
  -5   1   8  125.66    8.04   0 
  -2   1   5    0.03    9.30   0 
  -1  -4  -7   26.02   13.30   0 
   1  -4  -7   49.01   10.26   0 
   1  -2  -5   29.50   10.54   0 
   2  -3  -6  277.03   11.50   0 
   4  -2  -3  110.81    8.50   0 
   4   0   4  417.99   11.61   0 
   5   0   8    7.39    7.92   0 
   6  -4  -3   15.56    6.52   0 
   6  -1   4   -6.42    7.24   0 
   7  -2   3   15.38    6.90   0 
  -9   0  10    0.89    6.32   0 
  -8   0   7    9.08    8.50   0 
  -7   0   5 1413.84   15.47   0 
  -7   1  12   -8.36    6.66   0 
  -6  -2  -2   38.27    8.37   0 
  -6   1   9   23.95    7.44   0 
  -5  -2  -3   31.07    8.91   0 
  -5  -1  -1   13.53    8.96   0 
  -4   1   6   60.24    8.45   0 
  -1  -2  -5 2598.21   62.33   0 
   0  -4  -7   75.93   10.97   0 
   0   1   5  172.26   19.65   0 
   1  -5  -7    0.33    8.39   0 
   2   1   8    3.95   13.99   0 
   3  -4  -6   44.04    8.20   0 
   5  -4  -4   10.26    6.98   0 
   7  -3   1   20.03    6.46   0 
   7  -2   4   14.08    6.63   0 
  -9  -1   5   -5.65    7.31   0 
  -8  -1   3   85.88    7.36   0 
  -7  -2  -1   54.84    8.55   0 
  -7   1  11  -12.65    7.13   0 
  -6  -1   0   12.01    7.76   0 
  -6   0   3   -0.37    8.95   0 
  -5   0   2   10.39    8.10   0 
  -5   1   7   96.72    8.29   0 
  -4  -2  -4   96.27   11.92   0 
  -4  -1  -2   67.03   10.55   0 
  -4   0   1    0.63    8.04   0 
  -3   1   5 1434.65   18.25   0 
  -2  -1  -3   29.33   16.83   0 
  -2   0   0 1478.18   25.43   0 
  -1  -5  -7    6.01   11.48   0 
   0  -5  -7   20.55   10.43   0 
   0  -1  -3 5381.93   70.31   0 
   3  -5  -6   10.81    7.11   0 
   4  -5  -5   42.61    8.83   0 
   4  -4  -5  434.70   10.56   0 
   4  -1   0 1017.10   15.18   0 
   5  -2  -1    7.94    7.18   0 
   5  -1   2   12.73    7.68   0 
   5   0   9   11.25    6.37   0 
   5   0  10    1.27    7.78   0 
   6  -4  -2   27.16    6.94   0 
   6  -3  -1    8.14    6.59   0 
   6  -2   1   14.31    6.69   0 
   7  -2   5    5.44    6.84   0 
  -9   0   9   16.78    6.74   0 
  -8   0   6  114.85    9.20   0 
  -7  -1   1  326.66   10.11   0 
  -6   1   8  448.18   10.71   0 
  -4  -4  -6   10.99   20.51   0 
   1  -3  -6   80.04   10.20   0 
   2  -1  -2    0.11   13.47   0 
   3  -1  -1  684.10   15.47   0 
   5   0  12   -3.11    8.99   0 
   5   0  13  129.95   11.37   0 
   5   0  14    9.59    8.48   0 
   6  -1   6   12.21    6.71   0 
   7  -2   6   -0.51    7.58   0 
  -9  -1   4   47.73   10.33   0 
  -9   0   8    8.78    6.63   0 
  -8  -2   0  180.51   10.68   0 
  -8   1  12   39.50    8.84   0 
  -8   1  13   16.46    7.27   0 
  -7   0   4  -15.41    7.94   0 
   2  -4  -6    9.65    8.44   0 
   2  -2  -4    1.47   10.47   0 
   3   0   3  131.46   11.21   0 
   4  -2  -2  429.12   11.08   0 
   5  -4  -3    8.58    6.84   0 
   5  -3  -2   -3.54    7.36   0 
   5  -1   3   75.70    8.23   0 
   6  -4  -1   -0.32    6.98   0 
   6  -3   0    9.51    6.48   0 
   6  -2   2   43.25    7.67   0 
   6  -1   7   15.11    6.78   0 
   7  -3   3   -4.77    6.70   0 
   7  -2   7   16.30    7.34   0 
  -8  -1   2   66.64    7.58   0 
  -8   1  11   20.51    8.24   0 
  -7   1   9    6.39    6.75   0 
  -6   1   7  516.69   11.32   0 
  -3   0   0    3.26   10.06   0 
  -3   2  15   -3.52   10.04   0 
  -3   2  16   -3.72    8.68   0 
  -3   2  17    1.54    9.94   0 
  -2   1   4  185.66   14.53   0 
   0  -3  -6   37.77   12.47   0 
   3  -2  -3  982.77   14.98   0 
   4  -4  -4  212.84   10.08   0 
   4  -1   1   11.18    7.92   0 
   4   0   6   51.99    9.64   0 
   5  -2   0    3.69    7.26   0 
   6  -2   3   -7.05    9.14   0 
   6  -1   8   -8.69    7.10   0 
   7  -3   4    3.55    6.70   0 
   7  -2   8   18.75    7.19   0 
  -9   0   7   19.79    6.81   0 
  -8   0   5   17.95    7.07   0 
  -7  -3  -3   11.93    8.56   0 
  -7   1   8   16.38    6.96   0 
  -6  -3  -4    0.33    8.55   0 
  -6  -1  -1   20.91   10.20   0 
  -6   0   2  109.03    8.61   0 
  -5   0   1   24.29    8.08   0 
  -4   2  14    9.72    8.97   0 
  -4   2  15   26.26    9.18   0 
  -4   2  16   -1.32    6.97   0 
  -3   1   4  409.62   12.41   0 
  -3   2  14   25.70    9.10   0 
  -2   2  15   56.26   11.03   0 
  -2   2  16   -3.63   10.26   0 
  -2   2  17    3.21    9.86   0 
   2  -3  -5  384.44   12.77   0 
   3  -5  -5  -11.65    6.93   0 
   4  -3  -3   16.54    7.66   0 
   5  -1   4  201.80   10.66   0 
   6  -4   0    9.40    6.65   0 
  -8   1  10    0.93    6.89   0 
  -7  -2  -2   34.14    8.63   0 
  -7  -1   0   19.64    7.61   0 
  -7   0   3  316.22   10.48   0 
  -6  -2  -3   -7.67    7.61   0 
  -6   1   6  460.86   10.79   0 
  -5  -3  -5   31.15   12.46   0 
  -5  -1  -2   25.57    9.64   0 
  -5   1   5   11.86    8.19   0 
  -5   2  15   33.02    8.61   0 
  -5   2  16   35.16    7.90   0 
  -5   2  17   41.15    7.96   0 
  -3  -1  -3   47.09   12.20   0 
  -3   2  13   17.82    8.21   0 
  -2   2  14  134.80   10.86   0 
  -1   1   4  389.52   19.29   0 
   1  -5  -6   43.88    8.92   0 
   2   1   9   19.42   15.66   0 
   3  -3  -4   14.11    7.71   0 
   4   0   7    0.76    9.39   0 
   5  -3  -1    4.55    7.65   0 
   6  -2   4   32.42    7.61   0 
   6  -1  12   60.48    7.98   0 
  -9   0   6    9.07    6.96   0 
  -8  -2  -1  218.17   10.84   0 
  -8  -1   1   53.81    7.65   0 
  -8   0   4   45.88    7.16   0 
  -8   1   9   15.63    6.68   0 
  -6   2  16    5.26    9.04   0 
  -5   2  14   19.44    7.21   0 
  -4   0   0   12.90    8.89   0 
  -4   2  12   73.12    9.41   0 
  -3   2  12   56.28    9.13   0 
  -2   2  13    1.10    8.96   0 
   1  -4  -6    8.02    8.41   0 
   2   0   2  163.73   15.34   0 
   3   0   4    1.62   11.68   0 
   4  -5  -3   66.36    9.03   0 
   4  -2  -1  573.23   12.23   0 
   6  -3   2   -8.96    6.65   0 
   6  -2   5   14.11    8.32   0 
  -6   0   1  -25.33    9.33   0 
  -6   2  14    2.92    8.56   0 
  -6   2  15   22.18    7.20   0 
  -5  -2  -4    4.23    8.93   0 
  -5   2  12   21.16    8.99   0 
  -3   2  11  336.93   12.26   0 
  -2   2  12    1.66    8.30   0 
   3  -5  -4   24.74    8.61   0 
   3  -1   0 1228.75   18.00   0 
   4  -1   2   62.35    8.55   0 
   4   0   8   11.43    9.80   0 
   5  -4  -1   15.14    7.58   0 
   6  -3   3    5.29    8.40   0 
  -9  -1   2   37.86    7.43   0 
  -9   0   5   56.73    7.20   0 
  -9   1  10    3.84    7.45   0 
  -8   1   8   43.39    7.27   0 
  -7   0   2   38.62    7.56   0 
  -7   1   6   28.16    6.96   0 
  -6   1   5    1.02    7.58   0 
  -5   0   0  -13.46   10.36   0 
  -5   1   4   37.20    8.48   0 
  -4  -1  -3   57.00   10.77   0 
  -3  -2  -5    6.63   14.74   0 
  -1   2  16    2.58   12.73   0 
   0  -5  -6   18.28    9.64   0 
   2  -4  -5   21.42    7.65   0 
   3  -4  -4   60.52    7.86   0 
   3  -2  -2   17.54    8.01   0 
   4  -3  -2    3.24    8.09   0 
   5  -1   6   56.60    9.00   0 
   6  -4   2   12.89    6.58   0 
   6  -2   6   54.22    7.80   0 
  -8  -1   0    8.42    8.84   0 
  -8   0   3    2.99    7.41   0 
  -7  -1  -1   85.37    8.34   0 
  -7   2  14   -2.10    9.64   0 
  -6  -1  -2   19.49    9.64   0 
  -6   2  12   38.18    7.65   0 
  -5   2  11  153.06    8.85   0 
  -3   1   3 1158.45   18.02   0 
  -3   2  10  593.06   14.74   0 
  -2   1   3   14.99   14.51   0 
  -2   2  11  636.62   15.82   0 
  -1   2  17    9.25   12.85   0 
   0  -4  -6    5.81   10.55   0 
   1  -3  -5   22.39    9.58   0 
   2  -1  -1   36.77   12.23   0 
   3  -3  -3   -2.88    9.87   0 
   4  -2   0   28.44    8.62   0 
   4   0   9   16.91    9.14   0 
   5  -4   0   28.58    7.62   0 
   6  -2   7   62.96    7.00   0 
  -9  -1   1   28.08    8.15   0 
  -9   0   4    0.71    8.18   0 
  -7  -3  -4    0.97   10.59   0 
  -7  -2  -3   25.85    9.58   0 
  -7   2  13   10.84    7.22   0 
  -6   1   4   -5.45    7.89   0 
  -6   2  11  -17.28    7.25   0 
  -5   2  10  505.68   11.70   0 
  -4   1   3   64.75    8.78   0 
  -3   0  -1   33.18   13.04   0 
  -1  -5  -6    3.33   10.42   0 
  -1   2  13  239.24   17.00   0 
  -1   2  18   13.32   15.42   0 
   1  -1  -2   50.16   15.64   0 
   2  -3  -4   80.39   10.40   0 
   2   1  10  154.33   16.91   0 
   3   0   5   16.42   11.44   0 
   4  -1   3   57.96    9.07   0 
   5  -3   1   60.31    7.09   0 
   5  -2   3   25.85    8.07   0 
   5  -1   7  240.63   10.01   0 
   6  -3   5   15.14    6.98   0 
   6  -2   8   23.39    7.82   0 
   6  -2   9   -2.82    8.89   0 
  -9   1   8   18.62    6.32   0 
  -8   0   2   32.03    7.68   0 
  -8   1   6    0.26    7.10   0 
  -7   0   1   74.57    8.60   0 
  -6   0   0  103.13   10.64   0 
  -5   1   3   14.96    8.83   0 
  -4   0  -1   -0.88   11.05   0 
  -2   0  -1    2.12   15.19   0 
  -1   2  12  187.66   15.91   0 
   1  -5  -5   22.27    9.00   0 
   2  -5  -4   29.55    9.37   0 
   3  -5  -3   17.26    6.95   0 
   3  -1   1   60.97    9.58   0 
   4   0  11    2.57    8.39   0 
   4   0  12   16.42    9.23   0 
   4   0  13  -27.33   11.03   0 
   4   0  14   -4.86    8.82   0 
   4   0  15   -2.42    9.22   0 
   5  -1   8  530.94   12.25   0 
   6  -2  10   -3.24    7.83   0 
  -9   0   3  -13.58    7.74   0 
  -7   2  11   61.06    8.10   0 
  -6  -3  -5   10.86   11.21   0 
  -6  -2  -4   44.89    9.55   0 
  -5  -1  -3   69.15    8.73   0 
  -5   2   9  405.78   11.23   0 
  -4  -2  -5  535.89   19.35   0 
  -2  -5  -6   18.30   12.87   0 
  -1  -4  -6   32.18   13.48   0 
   1  -4  -5   24.02    8.68   0 
   2  -4  -4   49.84    9.72   0 
   2   1  17   43.83   14.45   0 
   4  -4  -1    2.45    7.25   0 
   5  -3   2  148.73    8.26   0 
   5  -2   4    0.18    8.65   0 
   5  -1   9  262.28   10.39   0 
  -8  -1  -1   49.09    8.03   0 
  -8   1   5   11.40    7.03   0 
  -7  -1  -2   59.24    9.79   0 
  -7   2  10   -9.62    7.33   0 
  -6   2   9  142.76    8.65   0 
  -5   0  -1  135.53   12.25   0 
  -5   2   8  152.56   11.01   0 
  -4   2   8   -0.57    7.92   0 
   2   1  11  160.58   17.39   0 
   3  -3  -2   77.43   10.81   0 
   3  -2  -1  309.59   11.25   0 
   5  -4   2   21.65    7.30   0 
   5  -2   5  166.32   11.23   0 
   5  -1  11    8.40    7.60   0 
   5  -1  12    0.52    9.87   0 
   5  -1  13   51.04    9.47   0 
   5  -1  14   24.37    7.64   0 
   6  -3   8   47.22    7.40   0 
  -9   1   6    9.84    7.34   0 
  -8   0   1    3.46    8.19   0 
  -8   2  11   56.81    7.81   0 
  -7   0   0   -9.87   10.45   0 
  -4  -3  -6    5.37   17.85   0 
  -3   1   2  219.14   11.76   0 
  -3   2   8   25.16    8.17   0 
  -1   2  11  103.58   13.17   0 
   2   0   3    2.26   12.46   0 
   2   1  16   50.45   13.99   0 
   3  -5  -2   58.23    7.60   0 
   3   0   6   -6.67   10.87   0 
   4  -5   0   17.43    8.08   0 
   4  -3   0   81.32    9.06   0 
   5  -3   3   -8.96    6.45   0 
  -9   0   2  -24.18    8.73   0 
  -8  -2  -3   20.66    9.52   0 
  -8   1   4   26.69    9.00   0 
  -8   2  10   11.59    7.95   0 
  -7   1   3  298.72   11.39   0 
  -7   2   9   46.21    7.89   0 
  -6  -1  -3   -0.23    8.22   0 
  -6   2   8   23.27    8.27   0 
  -5   1   2   32.19    9.48   0 
  -5   2   7   22.11    9.87   0 
  -4   2   7   11.62   10.35   0 
   0  -5  -5   42.55    9.32   0 
   0  -3  -5  242.00   14.49   0 
   2   1  12  217.39   16.72   0 
   2   1  15   24.07   14.18   0 
   4  -4   0   -3.17    7.77   0 
   4  -1   5  305.04   11.43   0 
   5  -4   3   31.79    7.18   0 
  -7  -2  -4   -4.10    9.69   0 
  -7   2   8   26.94    8.21   0 
  -6   0  -1    0.51    8.30   0 
  -6   1   2  -15.72    8.53   0 
  -6   2   7   34.04    9.86   0 
  -5  -2  -5  135.89   12.46   0 
  -2  -4  -6   10.61   14.51   0 
  -2   1   2    0.55   12.68   0 
  -2   2   8  193.88   12.52   0 
   1  -5  -4   22.44    8.09   0 
   2  -3  -3   27.53    8.74   0 
   2  -2  -2  128.40   11.54   0 
   2  -1   0  236.37   13.53   0 
   2   1  14   19.13   13.51   0 
   3  -1   2  182.08   10.90   0 
   4  -5   1   31.84    7.63   0 
   5  -4   4  102.05    8.87   0 
  -8  -1  -2   -4.41    7.81   0 
  -8   0   0   33.14    9.65   0 
  -8   2   9   -4.61    7.70   0 
  -4  -1  -4   13.71   10.71   0 
  -3  -1  -4   36.07   14.14   0 
  -1   2  10    2.23   11.53   0 
   1  -2  -3   31.38   13.21   0 
   2  -4  -3    2.38    8.16   0 
   3  -3  -1   80.80    9.11   0 
   3  -2   0   71.85    9.49   0 
   3   0   7   66.73   11.41   0 
   4  -5   2  -18.01   10.17   0 
   4  -4   1    6.68    7.29   0 
   5  -4   5   28.58    7.27   0 
   5  -3   5   31.02    7.54   0 
   5  -2   8   27.61    7.68   0 
  -9   0   1    9.25    8.16   0 
  -8   1   3  101.14    8.73   0 
  -7  -3  -5   10.46   10.91   0 
  -7   0  -1   -4.81    7.88   0 
  -7   1   2  469.53   11.93   0 
  -7   2   7   15.26    7.84   0 
  -5  -1  -4  210.14   12.50   0 
  -5   0  -2  -13.19   11.67   0 
  -5   2   6    7.72    8.45   0 
  -4   0  -2 3092.89   27.51   0 
  -4   1   1  126.10   10.44   0 
  -4   2   6   23.59    9.17   0 
  -3   0  -2   -4.97   13.16   0 
   2  -5  -2  303.81   12.41   0 
   3  -4  -1  174.08    9.30   0 
   4  -3   2  518.50   13.49   0 
   4  -1   7   -5.86   10.29   0 
   5  -4   6   24.84    7.35   0 
   5  -3   6   11.27    7.78   0 
   5  -2   9  186.90    9.42   0 
   5  -2  10    3.59    7.86   0 
   5  -2  11   -5.85   10.07   0 
  -6  -2  -5   13.76    9.66   0 
  -5  -3  -6    6.91   14.56   0 
  -3  -4  -6   17.98   17.71   0 
  -3   2   6   12.73   10.71   0 
   3  -5   0    8.48    8.02   0 
   3  -1   3   61.19    9.98   0 
   3   0   8    6.77   10.08   0 
   4  -4   2    5.28    7.71   0 
   4  -2   4  117.86   11.57   0 
   5  -3   7   52.11    7.76   0 
  -8  -2  -4   12.83   10.07   0 
  -8   2   7    5.28    7.47   0 
  -6   0  -2   76.70    9.54   0 
  -2   2   7  117.72   10.20   0 
  -1   2   9   33.50   13.05   0 
   2  -3  -2   20.36   11.37   0 
   3  -3   0   44.10   10.79   0 
   3  -2   1   -6.05    8.51   0 
   3   0  17  103.29   13.50   0 
   4  -1   8  141.40   10.16   0 
   5  -3   8   26.26    8.86   0 
   5  -3   9   14.74    8.07   0 
  -9  -1  -2  -13.13    8.61   0 
  -8  -1  -3   22.86    9.44   0 
  -8   0  -1   25.60    7.74   0 
  -8   2   6  -23.80    8.84   0 
  -6  -1  -4   -3.56    8.01   0 
  -4   2   5   12.99    9.48   0 
   1  -1  -1  118.44   19.39   0 
   2  -5  -1  153.94   10.49   0 
   2  -4  -2   25.19    8.52   0 
   2  -2  -1  136.96   11.41   0 
   3  -5   1   40.37    8.37   0 
   3  -4   0  283.06   10.46   0 
   3   0   9   19.15   10.76   0 
   4  -4   3    6.36    7.82   0 
   4  -2   5  558.19   12.65   0 
   4  -1   9  253.81   11.32   0 
   4  -1  10   26.65   10.58   0 
   5  -3  10   15.40    8.26   0 
  -7   0  -2   -3.09    8.12   0 
  -7   2   5   -1.55    7.67   0 
  -5   1   0   19.98    8.96   0 
  -5   3  14   10.87   10.00   0 
  -5   3  15   23.94    9.97   0 
  -3   2   5    9.14   11.12   0 
  -2  -5  -5   76.26   12.96   0 
   2  -1   1   70.06   12.46   0 
   3  -1   4   35.31   10.95   0 
   3   0  10   -4.92   10.08   0 
   3   0  15   16.66   11.73   0 
   3   0  16   19.23   10.39   0 
   4  -4   4   34.64    8.02   0 
   4  -3   4  180.20    9.14   0 
   4  -1  11   27.21    8.19   0 
   4  -1  12  -25.06   10.07   0 
   4  -1  14    7.94    7.70   0 
  -9   1   2   41.03    8.97   0 
  -8   1   1   66.78    8.55   0 
  -8   2   5   26.98    7.72   0 
  -6  -3  -6   10.02   12.49   0 
  -6   1   0   -7.56    8.84   0 
  -6   2   4   -0.87    8.18   0 
  -5   2   4   17.29    8.74   0 
  -5   3  13  166.04   11.51   0 
  -4   1   0 1014.64   16.80   0 
  -2  -1  -4   48.54   18.57   0 
  -2   0  -2  166.79   17.31   0 
  -2   1   1   46.90   13.64   0 
  -1  -4  -5    6.27   10.96   0 
  -1  -3  -5   37.97   12.94   0 
   3  -5   2   28.55    8.21   0 
   3  -3   1    7.17    8.89   0 
   3   0  11   19.17    9.81   0 
   3   0  13   -7.89    9.61   0 
   3   0  14   10.03    9.04   0 
   4  -4   5   24.22    9.55   0 
  -9   0  -1  -20.06    8.07   0 
  -8   0  -2  -15.78    9.92   0 
  -7   1   0   22.26    8.70   0 
  -7   2   4   19.35    7.78   0 
  -6   3  11   -6.98    9.17   0 
  -5   0  -3  129.28   11.07   0 
  -5   3  12  138.05    9.40   0 
  -4   2   4   12.86    9.10   0 
  -4   3  15   32.99   10.46   0 
  -1   1   2   45.32   16.97   0 
  -1   2   8   27.67   13.11   0 
   0  -3  -4   53.99   12.92   0 
   1  -5  -2   22.63    7.91   0 
   1   1   7  129.98   27.74   0 
   2  -5   0   36.98    8.21   0 
   2  -4  -1   21.09    9.12   0 
   4  -4   6   13.17   10.04   0 
   4  -3   5    1.06    7.80   0 
   4  -2   7  327.47   11.72   0 
  -9   1   1   30.61   10.17   0 
  -6   0  -3  -11.14    9.73   0 
  -5   3  11  102.37    8.98   0 
  -4   3  12  187.44   11.72   0 
  -3   1   0 1256.66   19.41   0 
  -1  -5  -4   35.60    9.80   0 
   1  -2  -2  204.11   15.51   0 
   2   0   5    3.27   14.16   0 
   3  -4   2   79.83    8.89   0 
   3  -1   5    8.98    9.19   0 
   4  -3   6  -14.11    7.63   0 
   4  -2   8   49.82    8.47   0 
  -8  -1  -4    9.33   10.09   0 
  -7   0  -3   27.92   10.28   0 
  -6   2   3   32.02    8.41   0 
  -5  -2  -6  159.68   15.40   0 
  -5  -1  -5  162.44   12.58   0 
  -5   1  -1    8.34   11.07   0 
  -5   2   3   24.02    8.98   0 
  -5   3  10   24.77    8.64   0 
  -3  -5  -5    1.30   13.23   0 
  -3   2   4  566.21   14.06   0 
   1   0   2   -5.26   21.87   0 
   2  -5   1   20.43   10.36   0 
   2  -2   0  107.79   10.61   0 
   3  -5   4   11.73    8.35   0 
   3  -3   2  301.61   11.21   0 
   3  -2   3  269.52   11.94   0 
   4  -4   8   14.76    8.33   0 
   4  -3   7  219.05    9.34   0 
   4  -2   9   37.04    8.40   0 
   4  -2  10   42.17    9.59   0 
  -9   0  -2    9.67    7.94   0 
  -9   2   4   22.93    8.26   0 
  -7   3   9  -23.95    8.96   0 
  -6  -2  -6   65.86   12.18   0 
  -6  -1  -5   15.29    9.17   0 
  -6   1  -1   22.34    8.87   0 
  -5   3   9   44.81    9.99   0 
  -4  -2  -6  751.06   25.34   0 
  -4  -1  -5  309.24   15.04   0 
  -4   1  -1   18.28   11.72   0 
  -3   0  -3  135.37   13.12   0 
  -2   2   5   31.84   12.71   0 
   1  -5  -1   16.42    7.85   0 
   1  -4  -2   63.31    8.93   0 
   2  -1   2   80.29   15.62   0 
   3  -4   3   12.84    7.95   0 
   4  -3   9   11.12    8.26   0 
   4  -2  12   15.35    8.09   0 
  -9   1   0   13.61    8.45   0 
  -8   0  -3   -0.50    9.99   0 
  -7  -1  -5    9.88   10.52   0 
  -7   3   8    3.44    8.99   0 
  -6   3   8  -10.02    8.31   0 
  -5   2   2   15.93   11.32   0 
  -4   3  10   34.26    7.94   0 
  -3   3  13   14.45   10.61   0 
  -3   3  14   29.57   10.15   0 
  -3   3  16    2.47   10.00   0 
  -1   2   7   99.32   14.95   0 
   1  -3  -2  142.66   12.50   0 
   2  -3   0    5.60    9.73   0 
   3  -3   3  389.76   11.72   0 
   3  -2   4   71.73   10.34   0 
   4  -3  11    6.33    8.44   0 
  -9   2   3   15.92    7.48   0 
  -8   1  -1   49.13    9.13   0 
  -7  -2  -6    1.10   11.18   0 
  -5   3   8   29.88    8.40   0 
  -4   3   9   69.51   10.91   0 
  -2  -4  -5   22.38   13.95   0 
   0  -5  -2    0.30    8.11   0 
   0  -4  -3    2.92    9.92   0 
   3  -4   4   91.76    8.86   0 
   3  -1   7   32.97    9.97   0 
  -8   2   2   33.47    8.01   0 
  -8   3   7    8.54    8.45   0 
  -6   0  -4   17.61    9.48   0 
  -5   0  -4   -1.18    9.54   0 
  -4   2   2  437.28   12.57   0 
  -2  -5  -4   91.46   11.27   0 
  -2   1   0  241.87   15.20   0 
  -1  -5  -3   -2.62   10.30   0 
   1  -5   0   53.70    8.06   0 
   2  -5   3   41.70    9.48   0 
   2  -2   1   17.86    9.85   0 
   2   0   6   32.32   11.55   0 
   3  -4   5   18.90    8.80   0 
   3  -2   5   23.47    9.40   0 
  -9   1  -1   78.78    8.76   0 
  -9   2   2    2.09    8.29   0 
  -8  -1  -5   46.06    8.66   0 
  -7   1  -2   58.39    8.77   0 
  -7   2   1   51.31    8.61   0 
  -7   3   6   64.25    8.88   0 
  -6   2   1   66.43    8.76   0 
  -5   1  -2   36.53    9.77   0 
  -4   3   8   51.09    9.31   0 
  -3  -1  -5   20.89   14.40   0 
  -3   3  10  -17.11   10.07   0 
  -2   2   4   -6.25   10.54   0 
   1  -4  -1   26.40    9.88   0 
   1  -1   0    0.57   14.51   0 
   1   1  18   12.01   14.26   0 
   2  -3   1    5.12    9.30   0 
   3  -4   6   20.23    8.41   0 
   3  -3   5  130.23    9.87   0 
  -8   0  -4  183.63   11.62   0 
  -8   2   1   26.13    8.11   0 
  -8   3   6   47.48    7.88   0 
  -5   2   1   10.16    9.44   0 
  -4   1  -2   59.21   10.30   0 
  -1   2   6   35.17   14.82   0 
   0  -5  -1   29.40   10.87   0 
   0  -3  -3   71.65   11.88   0 
   1  -5   1   21.00    7.90   0 
   1  -2  -1  152.76   12.40   0 
   2  -5   4   86.52    9.83   0 
   2  -4   2   -2.51    9.24   0 
   2  -1   3   33.97   11.75   0 
   2   0  18   38.32   10.68   0 
   3  -4   7   29.17    8.19   0 
   3  -3   6   45.39   10.14   0 
   3  -2   6   94.42   10.02   0 
   3  -1  13   31.97    9.09   0 
   3  -1  14   -6.48    8.21   0 
  -8   3   5   56.59   10.17   0 
  -7   3   5   50.88    8.35   0 
  -6  -1  -6   11.89   10.46   0 
  -4   2   1  606.12   14.32   0 
  -3   2   2   24.26    9.30   0 
  -3   3   9  221.33   12.63   0 
  -1   1   1  127.80   20.60   0 
   1  -3  -1  697.71   15.83   0 
   2  -5   5   54.33    9.04   0 
   2   0   7    5.83   12.75   0 
   3  -4   8   26.53    8.40   0 
   3  -4   9   20.20    8.12   0 
  -9   1  -2    6.59    8.87   0 
  -6   2   0   33.84    8.18   0 
  -5  -1  -6   44.31   11.24   0 
  -5   3   5   -6.56    9.15   0 
  -4   3   6    0.74   11.68   0 
  -3   3   8  702.80   16.90   0 
  -2   0  -3   -0.65   17.52   0 
  -1  -5  -2   16.36   10.73   0 
  -1  -2  -4 1263.27   35.35   0 
   0  -4  -2    8.80   11.63   0 
   1  -4   0   15.26    9.56   0 
   1   1  17    4.71   13.02   0 
   2  -3   2   36.31    9.41   0 
   3  -4  11  153.26    9.36   0 
   3  -3   8  134.10    9.18   0 
   3  -2  15   44.37   10.09   0 
  -8   1  -3   23.73   10.81   0 
  -8   3   4   57.84    7.87   0 
  -7   0  -5   80.17   10.87   0 
  -6   0  -5   17.43    9.20   0 
  -6   3   4   31.91    8.15   0 
  -5   1  -3   64.16   10.06   0 
  -5   2   0   10.85    9.09   0 
  -3   0  -4   12.64   13.80   0 
  -2  -5  -3   51.80   12.47   0 
  -2  -3  -5   75.86   16.81   0 
  -2   2   3  392.29   14.51   0 
  -1  -3  -4  100.50   14.35   0 
   0  -5   0   31.95   10.76   0 
   1   1   8   18.00   19.94   0 
   2  -4   4    3.41    8.65   0 
   2  -1   4   48.35   11.27   0 
   2   0   8  777.36   19.41   0 
   2   0  16   32.91   10.56   0 
   3  -3  10    9.82    8.52   0 
   3  -3  14   11.57    8.57   0 
   3  -2   9   -4.03    8.74   0 
   3  -2  10   15.86    9.42   0 
   3  -2  11   19.55   10.40   0 
   3  -2  12   -4.64   10.15   0 
   3  -2  13   67.66    8.93   0 
   3  -2  14   79.03    9.27   0 
  -8   0  -5   18.25    9.56   0 
  -6  -2  -7   58.51   14.34   0 
  -3  -2  -6   86.99   29.39   0 
  -3   1  -2  175.09   12.19   0 
  -3   3   7  685.62   17.21   0 
  -2   3  12   22.91   12.61   0 
  -2   3  13   24.56   12.16   0 
  -2   3  14    3.73   12.22   0 
  -2   3  15  -18.97   12.88   0 
   1   1  16    5.54   14.10   0 
   2  -2   3    3.53    9.52   0 
   2   0   9   -5.35   11.44   0 
   2   0  15   14.00   10.32   0 
  -7  -2  -7   15.66   12.52   0 
  -7   3   3   19.02    8.06   0 
  -6  -3  -7   11.65   17.32   0 
  -6   2  -1   25.89    8.45   0 
  -6   3   3   39.24    8.69   0 
  -4  -1  -6   12.32   11.39   0 
  -4   2   0   34.96   10.27   0 
  -3  -4  -5    5.89   14.50   0 
  -3   2   1  292.20   11.96   0 
  -2   1  -1   67.88   13.07   0 
  -2   3  11   94.98   13.98   0 
  -1  -4  -3  159.16   12.10   0 
  -1   2   5   22.72   13.44   0 
   0   1   3 5321.89   79.84   0 
   1  -3   0  146.63   11.77   0 
   2  -4   5   22.78    8.32   0 
   2   0  13  -15.62   10.62   0 
  -7   1  -4   23.36    8.10   0 
  -6   1  -4   13.59   11.40   0 
  -5  -2  -7   32.02   15.50   0 
  -4   0  -5   19.45    9.76   0 
  -3   3   6   52.96   12.61   0 
  -2  -4  -4   -3.98   12.29   0 
   0  -5   1   30.28    8.72   0 
   1  -2   0   15.62   11.28   0 
   1   0   3 3678.27   52.34   0 
   2  -3   4   38.75    9.33   0 
   2  -1   5   43.50   11.36   0 
   2   0  11   -2.23   11.15   0 
   2   0  12  156.76   12.35   0 
  -5   1  -4  207.94   12.76   0 
  -4   3   4   13.18    9.69   0 
  -2   2   2  138.52   14.98   0 
  -1   0  -2   -2.13   19.23   0 
   1  -5   5   46.46    9.04   0 
   1  -4   2   55.60    9.92   0 
   1   1  15   12.03   12.49   0 
   2  -4   7   62.23    8.86   0 
   2  -3   5   95.20   11.92   0 
   2  -2   4  699.05   15.29   0 
   2  -1  17   39.63   10.43   0 
  -8   0  -6   27.13   10.71   0 
  -8   2  -2  113.85    9.97   0 
  -7   0  -6  -13.13    8.46   0 
  -7   2  -2   21.95    9.05   0 
  -6  -1  -7   18.63   10.34   0 
  -6   4   9   -5.47    8.67   0 
  -4   2  -1    6.99   10.23   0 
  -2  -5  -2   -0.42   10.56   0 
  -2   3   9   27.80   11.02   0 
   1  -5   6    6.05    8.73   0 
   1  -5   7   45.04   10.49   0 
   1  -3   1   87.39   10.55   0 
   1   1   9   14.36   17.79   0 
   1   1  14   10.17   14.93   0 
   2  -4  10  151.23    9.87   0 
   2  -2   5 1424.34   20.46   0 
   2  -1   6   81.30   10.92   0 
   2  -1  16   46.48   11.46   0 
  -8   3   1   36.05    8.36   0 
  -7   3   1    3.26    8.69   0 
  -6   4   8   19.90    8.53   0 
  -5   0  -6   20.81   11.17   0 
  -5   2  -2   42.84    9.24   0 
  -5   3   2   10.89    9.10   0 
  -5   4  10  -13.22    8.81   0 
  -3  -5  -3    4.62   11.11   0 
  -3   1  -3   53.24   12.67   0 
  -3   3   5   43.12   10.23   0 
  -2   3   8   70.77   11.24   0 
  -1  -5   0   45.52   10.44   0 
   0  -4   0   31.55   11.94   0 
   1  -5   8   23.31    8.96   0 
   2  -3   6   64.94    9.52   0 
   2  -1  15   42.77   10.68   0 
  -8   1  -5   47.15   10.91   0 
  -7   1  -5   -4.60    8.36   0 
  -6   1  -5   20.49   11.00   0 
  -6   3   1   13.73    8.21   0 
  -6   4   7  -11.90    8.30   0 
  -5  -1  -7  230.42   13.98   0 
  -1   1   0    4.38   16.03   0 
  -1   2   4  183.36   13.90   0 
   0  -5   3   27.74    9.18   0 
   1  -4   4  -10.74   11.02   0 
   1  -2   1  152.26   12.42   0 
   1   1  10   38.70   17.56   0 
   2  -3   7  614.73   13.26   0 
   2  -3   8  751.72   14.12   0 
   2  -3  14   12.73    9.89   0 
   2  -3  15   -0.79    9.14   0 
   2  -2  16   17.55    8.42   0 
   2  -1   7   -6.65    9.66   0 
  -8   2  -3   11.00    8.74   0 
  -7   2  -3   -2.12    8.89   0 
  -6   2  -3   14.81    8.87   0 
  -5   3   1   -2.96    9.09   0 
  -4   3   2    4.15   11.84   0 
  -4   4  12   -0.09   10.84   0 
  -3   3   4   18.83    9.39   0 
  -2   3   7   25.91   11.18   0 
  -1  -3  -3    7.72   11.40   0 
   0  -3  -1  342.55   14.54   0 
   1   1  11  148.10   16.87   0 
   1   1  12   13.47   15.08   0 
   2  -3  10   80.13    8.26   0 
   2  -3  12   51.47    9.00   0 
   2  -2   7  211.80   11.06   0 
   2  -2  14  113.66   11.24   0 
   2  -1   9   28.89   11.83   0 
   2  -1  12  214.76   13.39   0 
   2  -1  13   50.49   11.20   0 
  -7   0  -7    2.82   10.62   0 
  -5   1  -5  161.07   11.41   0 
  -5   4   7   74.36    8.32   0 
  -4   2  -2    3.19   10.02   0 
  -4   4  11   16.19    8.63   0 
  -3  -1  -6   40.04   15.92   0 
  -2  -5  -1   17.89   11.00   0 
   0  -4   1   -9.48    9.75   0 
   1  -4   5   12.43    8.99   0 
   1   0  18   31.62   12.45   0 
   2  -2   9   52.61   11.48   0 
   2  -2  13   34.83    7.80   0 
   2  -1  10  147.83   10.49   0 
  -8   0  -7    4.31    9.13   0 
  -7   3  -1   26.09   10.01   0 
  -5   2  -3   21.51    9.57   0 
  -5   4   6   82.07   12.04   0 
  -4  -2  -7  330.49   25.89   0 
  -4   0  -6   34.64    9.89   0 
  -4   4   9   28.80   11.31   0 
  -2   0  -4  421.23   20.55   0 
  -2   3   6  283.99   14.32   0 
   0   2   9    6.14   24.92   0 
   1  -4   7   25.45   10.26   0 
   1  -3   3   -0.02    9.80   0 
   1  -1   2 9999.99   59.57   0 
   2  -2  11   45.04   10.09   0 
  -8   1  -6   54.15    8.79   0 
  -7  -2  -8    5.45   13.31   0 
  -7  -1  -8    9.51   10.74   0 
  -7   1  -6    1.21    8.59   0 
  -7   2  -4    2.41    9.01   0 
  -6   1  -6   25.56   10.76   0 
  -6   2  -4   60.41    9.22   0 
  -6   3  -1    4.70    7.65   0 
  -5   3   0  111.45    9.58   0 
  -4  -4  -5   14.56   15.74   0 
  -4   3   1   -2.73    9.23   0 
  -3  -5  -2   38.66   10.69   0 
  -1  -5   2   23.28    8.31   0 
  -1  -4  -1  233.91   11.11   0 
   0  -5   7    8.79    9.06   0 
   1  -4   8   13.10    7.67   0 
   1  -4  12    9.06   10.57   0 
   1  -4  13    9.51    8.18   0 
   1  -2   2  348.95   13.71   0 
   1   0   4   -4.44   16.09   0 
  -6  -2  -8   25.03   14.48   0 
  -6  -1  -8    0.05   12.31   0 
  -5   0  -7   52.58   11.42   0 
  -5   4   5   11.32    8.17   0 
  -4  -1  -7   -0.13   11.45   0 
  -4   1  -5  302.95   12.50   0 
  -4   2  -3   19.83   11.93   0 
  -3  -4  -4   76.19   12.91   0 
  -3   1  -4   31.71   10.33   0 
  -2  -5   0    0.89   10.99   0 
  -2  -1  -5   42.14   20.89   0 
  -2   2   0  112.69   13.21   0 
  -2   3   5  397.98   15.24   0 
  -1  -5   3   44.15   10.85   0 
   0  -5   8  -12.50    8.49   0 
   0  -5   9    1.09    8.35   0 
   0  -3   0  -10.85    9.43   0 
   0  -2  -1    2.46   14.95   0 
   0  -1  -1  546.20   29.06   0 
   1  -4  10    1.99    8.74   0 
   1  -3   4  104.57   10.75   0 
  -7   3  -2   40.55    8.19   0 
  -5   1  -6   36.50   12.41   0 
  -5   2  -4   13.85    9.69   0 
  -5   4   4   42.45   11.31   0 
  -4   3   0   81.89   12.19   0 
  -3   2  -2   10.80    9.36   0 
  -3   3   2   83.77    9.91   0 
   0  -4   3   -1.31    9.47   0 
   0   1  19  137.23   14.99   0 
   1  -3   5   39.27    9.93   0 
   1  -2   3  110.79   11.17   0 
   1  -1  18    8.20    9.54   0 
   1   0  16    3.16   10.82   0 
  -8   1  -7   44.14   11.32   0 
  -8   2  -5   -5.14    9.58   0 
  -7   0  -8   -5.16   10.60   0 
  -4   4   6  213.63   10.69   0 
  -3   4  12   24.54   12.63   0 
  -2  -5   1  176.93   12.23   0 
  -2   1  -3   26.76   11.71   0 
  -1  -4   0   18.77   11.29   0 
   0   2   8   18.55   22.57   0 
   1  -3   6   35.92    9.24   0 
   1  -3  15   58.31    9.10   0 
   1  -2  17   78.16    8.81   0 
  -7   1  -7    5.13    8.27   0 
  -7   3  -3   16.99    8.48   0 
  -6   0  -8   -1.79    9.45   0 
  -6   2  -5   18.46    9.15   0 
  -6   4   2   14.37    9.34   0 
  -5  -1  -8  531.12   19.22   0 
  -5   4   3   14.99    8.14   0 
  -3  -5  -1    3.79    8.58   0 
  -3   4  11   13.87   10.96   0 
  -3   4  13   12.59   11.52   0 
  -2  -4  -2   -5.58    9.77   0 
  -1  -3  -2   -1.05   11.43   0 
  -1  -2  -3  105.28   17.80   0 
  -1   1  -1 1542.23   28.26   0 
  -1   2   2  181.18   16.63   0 
   0  -4   4   32.57    9.35   0 
   0  -3   1  322.85   15.42   0 
   1  -3   7   80.15    9.69   0 
   1  -2   4 1201.81   20.52   0 
   1   0   5   16.72   17.39   0 
   1   0  15   39.17   11.47   0 
  -6   1  -7   10.61    8.56   0 
  -4  -5  -2   -7.99   12.78   0 
  -4   0  -7    1.57   11.50   0 
  -4   2  -4  105.24   10.01   0 
  -4   4   4  207.57   12.17   0 
  -3   0  -6   -9.50   12.72   0 
  -3   4   8   71.57   11.42   0 
  -3   4   9   38.68   11.77   0 
  -2  -5   2  324.77   13.09   0 
  -2   2  -1    9.65   12.31   0 
  -1  -5   6   37.58    9.36   0 
   0  -4   5    6.90    8.45   0 
   0   1  18  121.20   16.09   0 
   1  -3   8   45.24    9.14   0 
   1  -3   9  150.65    9.90   0 
   1  -3  10   88.55    9.02   0 
   1  -3  11   35.13    8.82   0 
   1  -2  15  -10.80   10.34   0 
  -7   2  -6   -0.67    9.60   0 
  -5  -2  -8   26.76   16.36   0 
  -4   1  -6   29.85   10.47   0 
  -3   1  -5   18.72   10.07   0 
  -3   4   7    4.89    9.74   0 
  -2   3   3   20.72   10.03   0 
  -1  -5   7    5.03    9.30   0 
  -1  -4   1   22.66    9.36   0 
  -1   3  10   55.04   15.91   0 
  -1   3  11    1.35   16.69   0 
   0  -4   6    1.27    9.25   0 
   0  -4   7   68.86   11.08   0 
   0  -4  13    3.07    9.85   0 
   0   1   2 5124.09   72.18   0 
   1  -2   5 2296.75   23.96   0 
   1   0  14    8.63    9.90   0 
  -7  -1  -9    3.63   10.89   0 
  -6   2  -6   60.91    8.97   0 
  -6   4   0   14.18    8.68   0 
  -5   0  -8    7.39   10.51   0 
  -5   1  -7  233.56   11.40   0 
  -5   3  -3   -5.49    7.40   0 
  -4   4   3   55.90    9.45   0 
  -3  -5   0    9.94    9.15   0 
  -3  -3  -5  123.53   18.97   0 
  -3   3   0   29.84    9.34   0 
  -2  -5   3  197.02   12.09   0 
  -1   3   9   17.48   13.80   0 
  -1   3  12   25.38   17.74   0 
   0  -4   8   64.88    9.25   0 
   0  -4   9   26.53    8.81   0 
   0  -4  10  -11.96    8.17   0 
   0  -4  12   13.02    8.60   0 
   0  -3   2   85.52   10.89   0 
   0  -2   0  131.77   13.27   0 
   1  -2   6 1103.17   18.59   0 
   1  -1  14    7.40   10.57   0 
   1   0   6    3.95   15.74   0 
   1   0  13  -13.78   10.21   0 
  -7   0  -9   26.14   10.75   0 
  -6  -1  -9    9.10   12.35   0 
  -6   3  -4    7.03    8.62   0 
  -3  -4  -3   10.55   10.44   0 
  -3   4   6   36.21    8.00   0 
  -2  -4  -1  501.71   15.48   0 
  -2   0  -5   -4.98   14.98   0 
  -1  -4   2   44.80    9.85   0 
  -1   2   1  147.54   15.14   0 
  -1   3   8    4.39   12.51   0 
   0   2   7  199.81   23.08   0 
   1  -2   7  754.15   15.61   0 
   1  -2   8   81.98   12.22   0 
   1  -2  11   18.68    9.50   0 
   1  -1   5  364.69   15.21   0 
   1  -1  13    9.26   11.40   0 
  -7   2  -7    7.69    9.13   0 
  -7   3  -5    1.08   11.41   0 
  -6   1  -8    5.50    8.32   0 
  -6   4  -1   33.25    8.58   0 
  -5   2  -6  157.93   10.24   0 
  -5   4   0   25.03    8.84   0 
  -4  -5  -1    9.80   11.15   0 
  -4   2  -5  547.13   13.34   0 
  -4   4   2   38.94    8.71   0 
  -3  -5   1   26.41   10.88   0 
  -2  -5   4   70.75    8.90   0 
  -2   1  -4   43.36   11.36   0 
  -2   2  -2   24.13   10.51   0 
  -1  -3  -1   76.72   10.42   0 
  -1   3   7   30.25   12.58   0 
  -1   3  13   32.43   19.65   0 
   0  -3   3   58.98   10.19   0 
   0  -3  16    7.80    8.70   0 
   0   1  17   67.04   13.63   0 
   1  -1  12    9.61   12.12   0 
   1   0   7  280.37   17.71   0 
   1   0  11   51.77   11.51   0 
  -6   0  -9   14.50    8.54   0 
  -6   2  -7   55.39    9.28   0 
  -5  -4  -5   33.72   15.54   0 
  -5   3  -4   11.47    7.87   0 
  -4  -4  -4   40.71   13.08   0 
  -4  -3  -6    9.22   21.12   0 
  -4   3  -3  201.05   10.09   0 
  -2  -5   5   20.92    8.60   0 
  -2  -5   6   19.18   10.46   0 
  -1  -4   3   31.43    9.81   0 
   0  -3   4   43.39   11.98   0 
   0  -2  18    9.81    8.76   0 
   0  -1  19  147.06   10.81   0 
   1  -1   7  119.18   13.25   0 
   1  -1  11  136.95   12.66   0 
   1   0   8    9.25   13.22   0 
   1   0   9 1963.26   27.61   0 
   1   0  10    0.82   11.59   0 
  -5   4  -1   -1.16    8.58   0 
  -4  -1  -8  120.21   14.30   0 
  -4   0  -8    7.88   11.02   0 
  -4   4   1   -6.20    9.20   0 
  -3  -5   2   52.12   10.35   0 
  -3   1  -6   54.46   10.32   0 
  -2  -4   0   70.47   11.43   0 
  -2  -3  -3   15.01   10.96   0 
  -2   3   1   21.09    9.79   0 
  -1  -4   4  -15.31    9.37   0 
  -1   1  -2 9601.29   59.56   0 
  -1   3   6   74.96   11.92   0 
   0  -3  14   66.55    9.29   0 
   0  -2   1   18.64   11.03   0 
   0  -2  17   -1.68    8.53   0 
   0  -1  18  156.26   12.00   0 
   0   0  18   27.55   11.36   0 
   0   2   6   31.60   18.47   0 
   1  -1   9    3.70   10.01   0 
  -6  -2  -9   -5.10   14.17   0 
  -5  -1  -9  294.93   16.65   0 
  -5   2  -7   38.93   11.14   0 
  -4  -5   0   30.66   10.60   0 
  -4   4   0   -5.38   10.66   0 
  -3  -4  -2  101.52   13.04   0 
  -3  -1  -7   50.17   14.61   0 
  -3   0  -7   71.29   12.24   0 
  -3   3  -2  303.77   11.88   0 
  -1  -4  13   11.30    9.99   0 
  -1  -3   0  133.03   12.73   0 
   0  -3   6   33.24    9.38   0 
   0  -3  12   21.66    8.08   0 
   0  -1   0   -4.32   20.69   0 
   0   1  16    1.04   12.57   0 
  -7  -1 -10   22.78   12.75   0 
  -7   0 -10   10.63   11.41   0 
  -6   1  -9   -1.53    8.33   0 
  -6   3  -6   32.21    8.85   0 
  -6   4  -3   -7.44    7.68   0 
  -5   4  -2    8.38    8.31   0 
  -4   3  -4  182.37    9.96   0 
  -3   4   2   14.52   10.47   0 
  -2   2  -3    5.10    9.69   0 
  -2   3   0   13.44   12.16   0 
  -2   4   9   31.69   12.01   0 
  -2   4  10  -18.94   11.77   0 
  -1  -4   6   26.68    9.09   0 
  -1  -4   7   54.74    8.95   0 
  -1  -4  11    6.75    8.49   0 
  -1   3   5   30.16   11.28   0 
   0  -3   7    2.23    8.96   0 
   0  -3   8   11.89    8.69   0 
   0  -3   9   71.56    9.07   0 
   0  -3  10   37.90    8.18   0 
   0  -2  16   27.25    8.45   0 
   0   0  17  -18.05   11.15   0 
  -4  -5   1   24.38   11.54   0 
  -2  -4   1   34.80    9.27   0 
  -2   1  -5   43.80   13.15   0 
  -2   4   7   40.37    9.92   0 
  -2   4   8   50.56   10.82   0 
  -2   4  11   -3.69   10.22   0 
  -2   4  12   10.60   13.16   0 
  -1  -4   9   79.75    9.51   0 
  -6   0 -10  406.79   14.82   0 
  -6   4  -4   52.53    8.46   0 
  -4   1  -8  133.13   11.26   0 
  -4   5   6   36.77    9.15   0 
  -3  -5   5  -13.60    7.82   0 
  -3   3  -3  387.61   12.04   0 
  -3   4   1  150.69    9.96   0 
  -2   4   6    3.61   10.18   0 
  -1  -3   1  661.36   16.74   0 
  -1  -3  16  130.19   11.67   0 
   0  -2  14   19.46    8.23   0 
   0  -1  16   40.97   10.37   0 
   0   1  15   11.10   12.29   0 
   0   2   5  308.35   20.11   0 
  -6  -1 -10    7.60   10.98   0 
  -6   3  -7   14.24    8.96   0 
  -4  -5   2  203.47   12.28   0 
  -4   2  -7  321.27   11.61   0 
  -4   4  -2    8.15   10.62   0 
  -4   5   5   46.99    8.76   0 
  -3  -5   6    0.52    8.67   0 
  -3  -4  -1  449.93   14.78   0 
  -3   1  -7   37.86    9.96   0 
  -2  -4   2   28.20    8.99   0 
  -2   3  -1   -4.29    9.04   0 
  -2   4   5   15.87   10.11   0 
  -2   4  13   16.90   14.82   0 
  -1   2  -1  142.02   12.28   0 
  -1   3   3   46.75   11.32   0 
   0  -2  13   64.67    9.31   0 
   0   0  16  240.61   12.29   0 
   0   1   1  517.88   29.22   0 
  -6   1 -10   23.38    7.89   0 
  -6   2  -9   -9.56    9.43   0 
  -5   4  -4  104.28   11.08   0 
  -4   5   4   72.23    9.14   0 
  -3   2  -6   94.68    9.74   0 
  -3   3  -4  503.77   14.32   0 
  -3   4   0  294.27   11.00   0 
  -2  -3  -2   21.36   10.99   0 
  -2   0  -6   18.83   14.43   0 
  -2   2  -4  674.26   15.07   0 
  -2   4   4   35.00   10.55   0 
  -1  -3   2  134.28   13.27   0 
  -1  -3  15   -5.94    8.61   0 
  -1  -2  18    4.31    8.93   0 
  -1   1  -3 6279.12   47.19   0 
   0  -2  12   17.52    8.92   0 
   0  -1  15   13.11    8.20   0 
  -5  -4  -4  107.75   15.06   0 
  -5   0 -10    3.85   10.70   0 
  -5   3  -7   37.23    8.64   0 
  -4   0  -9   24.86   10.25   0 
  -4   4  -3   -8.36   11.05   0 
  -4   5   3   55.49    8.79   0 
  -3  -3  -4  510.33   21.09   0 
  -2  -4  13   11.40    8.29   0 
  -1  -3  14   11.26    8.56   0 
  -1   1  19   82.47   13.87   0 
  -1   3   2  143.26   12.32   0 
   0  -2   4  971.14   17.51   0 
   0  -2  10   27.70   10.62   0 
   0  -2  11   -0.81    9.33   0 
   0   0  15   28.69   10.09   0 
   0   2   4  989.35   27.69   0 
  -4  -5   4   71.16    8.73   0 
  -4   2  -8   52.92    9.03   0 
  -4   5   2  187.61   11.05   0 
  -3   0  -8   10.77   10.64   0 
  -3   4  -1  460.09   12.32   0 
  -2  -4   5   17.79    8.96   0 
  -2  -4  12   13.98    8.48   0 
  -2   1  -6  109.18   13.09   0 
  -2   4   3   12.42    8.71   0 
  -1  -3   3   47.47   10.07   0 
  -1  -3  12   57.56   10.16   0 
  -1  -2  17   -1.36    8.52   0 
   0  -2   5  310.38   13.00   0 
   0  -2   6   39.18    9.61   0 
   0  -2   8   23.38    9.62   0 
  -6   0 -11   47.60   10.38   0 
  -6   2 -10   -4.64    9.71   0 
  -5   1 -10   36.61    8.98   0 
  -4  -4  -2    6.98   10.72   0 
  -4  -1  -9  238.42   15.84   0 
  -4   5   1   26.58   11.75   0 
  -3   2  -7    8.95   10.88   0 
  -2  -4   6    8.17    8.88   0 
  -2  -4   8   51.67    8.75   0 
  -2  -4   9   39.37    8.51   0 
  -2  -4  10   -8.70    7.68   0 
  -2   4   2   26.52    9.11   0 
  -1  -3   4   13.67    9.58   0 
  -1  -2  16  -10.14   10.79   0 
  -1   0  -4    3.68   19.38   0 
  -1   0  19  145.24   11.90   0 
  -1   2  -2  349.04   13.28   0 
  -1   2  17   13.91   14.67   0 
  -1   3   1  678.60   16.72   0 
   0   0  14   32.91   10.41   0 
  -4   3  -7  192.71    9.60   0 
  -3   1  -8   -3.45    9.00   0 
  -3   4  -2   90.22    9.42   0 
  -3   5   5    6.98   10.34   0 
  -2  -3  -1    3.09   10.60   0 
  -2   3  -3   26.98    9.16   0 
  -1  -1  18   74.37    8.88   0 
   0  -1  12   94.36   12.03   0 
   0   2   3  629.73   21.57   0 
  -5  -2  -9  175.78   23.67   0 
  -5   4  -6   22.95    8.29   0 
  -3   5   4   24.30    7.57   0 
  -2  -3  16   79.95    9.17   0 
  -2  -2  -4  681.29   29.46   0 
  -2  -1  -6   98.64   21.25   0 
  -1   1  -4 1146.88   22.37   0 
  -1   1  18   75.86   13.12   0 
  -1   3   0  136.91   12.46   0 
   0   1  13   12.89   12.63   0 
  -6  -1 -11   41.31   12.83   0 
  -5   2 -10   26.67    8.03   0 
  -3  -4   2   15.98    8.44   0 
  -3   4  -3    6.79    7.49   0 
  -2  -3  15  -10.40    8.03   0 
  -2   3  -4   30.85    9.02   0 
  -1   0  18   18.35    9.13   0 
  -1   2  -3  106.80   11.02   0 
   0  -1   2 4895.42   46.45   0 
   0  -1  11   14.28    9.23   0 
   0   0  13   -5.29    8.89   0 
   0   1   0    1.66   20.95   0 
  -6   2 -11   39.22    8.46   0 
  -5  -4  -3   20.90   10.68   0 
  -5   0 -11  813.30   17.84   0 
  -5   4  -7   20.52    7.91   0 
  -4  -4  -1    5.82   10.24   0 
  -4   0 -10    9.45    9.37   0 
  -4   1 -10    6.47    8.46   0 
  -4   3  -8   36.62    7.70   0 
  -4   5  -2  -17.87    9.67   0 
  -3  -4   3   18.50    8.62   0 
  -3  -1  -8    3.23   14.28   0 
  -3   2  -8   40.83    9.24   0 
  -3   5   2   62.58    8.67   0 
  -2  -3   0   12.96    8.48   0 
  -2  -2  18   -9.79    8.55   0 
  -2   0  -7    8.95   12.25   0 
  -2   2  -6  391.88   12.14   0 
   0  -1  10   15.04    9.65   0 
   0   2   2  678.53   21.62   0 
  -6  -4  -4   44.47   14.42   0 
  -6   1 -12   65.55   10.79   0 
  -3  -4   4   99.85    8.86   0 
  -3  -4   5  195.89   11.48   0 
  -3  -4  10   63.18    8.41   0 
  -3  -4  11   10.04    7.48   0 
  -3  -3  -3  388.31   16.67   0 
  -3   0  -9   31.09   10.70   0 
  -3   1  -9   22.10    8.95   0 
  -3   3  -7   84.32   10.51   0 
  -3   4  -4   95.94    8.61   0 
  -3   5   1   17.66    8.69   0 
  -2  -3  13   12.70    8.46   0 
  -2   4  -1  513.35   12.30   0 
  -1  -2   0   16.06   11.69   0 
  -1  -2  13  253.23   10.43   0 
  -1   0  17  443.46   14.60   0 
  -1   3  -1   75.31   10.35   0 
   0  -1   9    6.88    9.15   0 
   0   0  12    4.29    8.76   0 
   0   1  12   98.91   13.32   0 
  -6   0 -12  235.50   13.69   0 
  -5   2 -11  -14.63    7.94   0 
  -5   3 -10    8.18   10.58   0 
  -4  -3  -5    4.55   14.07   0 
  -4   2 -10   45.44    8.38   0 
  -3  -4   6   39.30    8.44   0 
  -3  -4   7   10.08    7.89   0 
  -3  -4   9   28.81    8.86   0 
  -3   5   0   -0.00    8.93   0 
  -2  -3   1    9.42   10.60   0 
  -2  -1  19   -4.86    9.80   0 
  -2   3  -5   97.57    9.65   0 
  -2   4  -2    9.23    8.62   0 
  -1  -2  12  191.23   10.55   0 
  -1   1  17  217.86   13.62   0 
  -1   2  16    5.84   14.51   0 
  -1   4   5   23.54    9.49   0 
  -1   4   6   25.22    9.60   0 
  -1   4   7   44.70    9.63   0 
   0  -1   4 1231.91   23.84   0 
   0  -1   7  198.76   13.74   0 
   0  -1   8  198.66   11.45   0 
   0   2   1   -9.09   14.27   0 
  -3  -3  16    5.97    8.57   0 
  -3   5  -1   44.25    9.05   0 
  -2  -3  11   49.49    8.24   0 
  -1  -2   1  141.34   14.55   0 
  -1   1  -5  357.53   14.48   0 
  -1   3  -2    2.90    9.29   0 
  -1   4   4  -16.08    9.72   0 
  -1   4   8  116.80   11.91   0 
   0  -1   5  171.83   13.81   0 
   0   0  11   -9.38   10.73   0 
  -3   3  -8  133.99    9.25   0 
  -2  -3   2   12.90    8.94   0 
  -2  -2  16    5.73    8.67   0 
  -2   4  -3   78.71    8.97   0 
  -2   5   4   66.74   10.81   0 
  -2   5   5   12.41   10.28   0 
  -2   5   7    3.06    9.86   0 
  -2   5   8    4.92   10.30   0 
  -1   0  16   19.38    9.98   0 
  -1   4   2   63.07   11.25   0 
  -1   4   9   73.62   12.31   0 
  -5  -1 -11    5.83   11.46   0 
  -5   0 -12    4.91   10.78   0 
  -5   2 -12  -18.30    9.48   0 
  -5   3 -11   29.10    8.84   0 
  -4  -1 -10   49.41   14.60   0 
  -4   3 -10  -14.44    9.67   0 
  -3  -2  -6   85.01   25.69   0 
  -3   1 -10   87.70   12.19   0 
  -3   4  -6   27.63    7.75   0 
  -3   5  -2   40.42    8.61   0 
  -2  -3   4   79.12   11.44   0 
  -2  -3   9   18.05    8.45   0 
  -2   1  -8    2.52    8.78   0 
  -1  -2   2  185.78   14.15   0 
  -1  -1  14   99.50    9.86   0 
  -1   0  -5    8.86   16.05   0 
  -1   2  -5 2289.24   22.87   0 
   0   0  10   24.83   11.24   0 
   0   1  -1  533.15   22.59   0 
   0   1  11   27.16   12.46   0 
   0   2   0  141.31   12.89   0 
  -4  -4  10   41.60    8.43   0 
  -3  -3  14    3.81    7.61   0 
  -3  -2  18   38.37    8.80   0 
  -2  -3   5  380.47   12.18   0 
  -2   0  19   -9.29    8.34   0 
  -2   2  -8  206.20   10.60   0 
  -2   4  -4    8.87    8.02   0 
  -1  -2   3   32.84   11.95   0 
  -1  -2   8   36.12    9.15   0 
  -1   1  16   66.86   10.71   0 
  -5  -3  -6    9.21   14.23   0 
  -4  -4   6  212.49   12.44   0 
  -4  -4   8   19.36    8.00   0 
  -4  -4   9   23.12    8.68   0 
  -4   4  -9   55.66    8.88   0 
  -3  -3  13   15.80    8.07   0 
  -3   0 -10    3.80   10.07   0 
  -3   3  -9   25.54    8.22   0 
  -3   4  -7   43.28    7.93   0 
  -3   5  -4   12.03   10.39   0 
  -2  -2  14  135.54    9.60   0 
  -2   0  -8  737.06   18.48   0 
  -2   3  -7  603.89   12.50   0 
  -1  -2   4  170.34   11.10   0 
  -1  -2   5   22.28    9.70   0 
  -1  -2   6   20.33    9.08   0 
  -1  -1  13  154.23   10.23   0 
  -1   0  15 1446.08   20.90   0 
  -1   1  -6 2392.15   26.25   0 
  -1   3  -4  103.79    9.45   0 
  -1   4   0    7.08    8.96   0 
   0   0   9   -0.33   12.04   0 
   0   2  -1    7.78   13.31   0 
   0   3   4   41.18   10.95   0 
   0   3   6   29.48   12.26   0 
  -4   1 -12  -19.38    9.90   0 
  -2  -2  -3    6.62   13.49   0 
  -2   1  19   21.07    9.89   0 
  -2   5  -1   12.49   10.72   0 
  -1   2  -6 1084.62   17.33   0 
  -1   4  -1  227.75   10.62   0 
   0   1  10   29.02   13.89   0 
   0   3   2   72.17   11.65   0 
   0   3   7   12.22   12.50   0 
  -6  -4  -2   11.28   10.25   0 
  -5   2 -13   12.84    8.39   0 
  -4   2 -12   14.10    8.45   0 
  -3  -1  19   12.33   10.04   0 
  -3   1 -11    4.36   10.63   0 
  -2  -2  13    9.84    8.60   0 
  -2  -1  16    9.28    9.89   0 
  -2   0  18   12.83    8.49   0 
  -2   1  -9   12.56    8.89   0 
  -2   2  -9   58.47    9.09   0 
  -1  -1  12  266.55   10.85   0 
  -1   2  15    9.86   13.37   0 
  -1   3  -5   44.89    9.03   0 
   0   0   8   64.04   13.91   0 
   0   3   1  321.01   13.65   0 
  -6  -3  -7   14.83   15.73   0 
  -5  -4  11   -9.86    7.96   0 
  -4  -3  15    3.64    8.30   0 
  -3  -3   0   38.04   10.87   0 
  -3  -3  10  -17.39    8.82   0 
  -3  -2  16   38.25    8.93   0 
  -1   1  15    6.68   10.09   0 
   0   2  -2  680.00   16.17   0 
   0   3   0   17.71   10.41   0 
  -6  -4  -1   13.20    9.65   0 
  -5  -4   2   -2.07    7.75   0 
  -5  -4   8   31.51   10.75   0 
  -5  -4   9   26.01    8.25   0 
  -4  -3  14   29.44    8.28   0 
  -4   0 -12   12.95    9.37   0 
  -4   3 -12   67.46    7.84   0 
  -3  -3   9  233.91   10.02   0 
  -3  -1  -9   26.82   12.69   0 
  -2   4  -7   75.72    8.69   0 
  -1  -1  11   73.86    9.72   0 
  -1   1  -7  109.65   10.58   0 
  -1   2  -7  804.66   15.00   0 
  -1   3  -6   34.64    8.53   0 
  -1   4  -3  160.11   10.02   0 
   0   0   7   37.40   14.51   0 
   0   3   8   19.05   16.53   0 
  -5  -4   4   11.67    7.48   0 
  -5  -4   6   84.92    9.56   0 
  -5  -4   7   71.88    8.16   0 
  -5   1 -14   28.73   10.69   0 
  -4  -3  13  237.15   11.45   0 
  -4   1 -13   14.07    9.81   0 
  -4   2 -13    3.89    7.61   0 
  -3  -3   8  682.29   13.62   0 
  -3  -1  18    0.59    7.18   0 
  -3   3 -11   29.37    8.17   0 
  -2  -2  11  620.93   13.30   0 
  -2   0  17   -2.43    8.55   0 
  -2   1  18    1.31   10.05   0 
  -2   2 -10    6.74   10.37   0 
  -2   3  -9  330.25   10.19   0 
  -1  -1  10  165.78   12.47   0 
  -1   0  -6    8.02   14.09   0 
   0   2  -3  619.15   15.08   0 
   0   3  -1  335.49   12.58   0 
  -6  -4   0   14.67    9.08   0 
  -4  -3  -3  204.73   14.07   0 
  -3  -3   2   71.15    9.04   0 
  -3  -3   3   -2.63    9.72   0 
  -3  -3   4   -4.58   10.05   0 
  -3  -3   5   44.44   10.38   0 
  -3  -3   6   53.30    8.35   0 
  -3  -3   7  666.84   13.26   0 
  -3   0 -11    9.29    9.36   0 
  -3   2 -12   24.00    7.64   0 
  -3   4 -10  255.20    9.82   0 
  -2  -2  -2   28.45   14.28   0 
  -2  -2  10  619.12   12.66   0 
  -2   0  -9    4.18    9.94   0 
  -2   1 -10  161.79    9.55   0 
  -1   0  13   17.84    7.95   0 
  -1   5   2   51.24   10.34   0 
  -1   5   3   45.31    9.56   0 
  -1   5   5   33.93    9.55   0 
   0   0   6  269.45   17.84   0 
   0   1  -3 4910.04   42.57   0 
   0   1   9    7.47   12.69   0 
   0   3  -2   75.50    9.95   0 
  -6  -4   1   12.51    9.48   0 
  -5  -3  15   29.05    7.78   0 
  -4  -2  17   -0.16    8.40   0 
  -3  -1  17   19.01    9.07   0 
  -3   0  19   23.56    9.77   0 
  -2  -2   9  115.52    9.46   0 
  -2  -1  -7    2.33   17.17   0 
  -1  -1   9  245.03   10.78   0 
  -1   1  14  114.49   11.02   0 
  -1   2  -8   73.83    9.27   0 
  -1   4  12   24.77   19.73   0 
  -1   5   0   53.23    9.13   0 
  -1   5   1   -6.56    7.89   0 
  -6  -4   2   21.26    8.64   0 
  -6  -4   3   24.81    9.35   0 
  -5  -3  -5   33.01   11.82   0 
  -5  -3  14   14.38    8.97   0 
  -4  -3  11   83.50    8.38   0 
  -4   2 -14  -15.83    8.76   0 
  -3  -2  13   38.43    9.53   0 
  -3   4 -11  150.01    8.86   0 
  -2   0  16  247.32   11.59   0 
  -2   4  -9   25.24    7.28   0 
  -1   1  -8   22.21    8.67   0 
  -1   4  -6   33.65    7.89   0 
   0   0   5   21.66   17.72   0 
   0   4   2    4.64    9.29   0 
   0   4   3   -0.17    9.22   0 
  -6  -4   5   26.98    7.33   0 
  -4  -3  -2  527.72   15.08   0 
  -4  -2  16   -0.84    7.43   0 
  -4   0 -13   -5.28    9.53   0 
  -4   1 -14   -3.12    9.39   0 
  -3   2 -13   57.27    8.07   0 
  -2  -2  -1    6.45   11.79   0 
  -2  -1  13  800.64   15.77   0 
  -2   1 -11  164.70   12.13   0 
  -2   1  17   10.36    9.79   0 
  -1  -1   8   -0.51    8.08   0 
  -1   0  12    7.07    8.19   0 
  -1   2  14   20.28   13.19   0 
  -1   3  -8   42.34    7.56   0 
  -1   5  -2    0.96    7.77   0 
   0   1  -4 1187.12   22.75   0 
   0   2  -5  293.45   13.09   0 
   0   3  -4   36.94    8.70   0 
   0   4   0   -8.93   10.06   0 
   0   4   1    3.65    8.22   0 
   0   4   4   16.15    8.21   0 
   0   4   5   10.09   10.96   0 
  -4  -3   9   65.58    8.34   0 
  -3  -2  12   38.94    7.97   0 
  -3   1 -13   27.91    8.38   0 
  -2  -2   7  114.80    9.57   0 
  -2   2  17    9.62   10.84   0 
  -2   3 -11   53.62    7.63   0 
  -2   4 -10  148.92    8.55   0 
  -1   5  -3   16.20    7.06   0 
   0   0   4 1663.06   34.48   0 
   0   2   9    3.92   21.26   0 
   0   3   9   64.02   23.39   0 
   0   4  -1   -6.60    8.45   0 
  -6  -3  -6   14.81   12.03   0 
  -4  -3  -1   48.56    9.84   0 
  -4  -3   8   37.87    8.40   0 
  -4  -1  18   -4.64    7.80   0 
  -3   0 -12   12.48    8.50   0 
  -3   1  19    6.85   10.01   0 
  -2  -2   0  122.08   13.16   0 
  -2  -2   5   30.82   10.60   0 
  -2  -2   6  205.71   10.47   0 
  -2   0 -10  196.44   11.73   0 
  -2   0  15   -8.95    9.09   0 
  -1  -1   7   70.40    9.74   0 
  -1   0  -7  284.92   15.88   0 
  -1   1  -9   13.77    9.96   0 
  -1   3  -9  153.80    8.31   0 
  -1   5  -4    5.35    7.96   0 
  -1   5   9    3.30   11.38   0 
   0   3  -5  239.45    9.81   0 
   0   4  -2   13.14    8.41   0 
   0   4   6   22.99    9.99   0 
  -5  -3  -4    3.36   10.54   0 
  -4  -3   0   79.22   10.13   0 
  -4  -3   6   -0.77    9.57   0 
  -4  -3   7  235.12    9.38   0 
  -3  -1  15    7.80    9.34   0 
  -3   2 -14   97.48   10.37   0 
  -2  -2   1  144.75   13.49   0 
  -2  -2   3  415.28   14.12   0 
  -2  -2   4    3.19    8.19   0 
  -2  -1  12  383.82   11.28   0 
  -2   3 -12   49.48    7.34   0 
  -2   4 -11   80.39    7.81   0 
  -1  -1   6   22.13   11.43   0 
  -1   0  11   53.67    8.17   0 
  -1   2 -10   -1.34    7.38   0 
  -1   5  -5   35.09    7.85   0 
   0   0   3    6.59   18.63   0 
   0   1  -5  158.50   12.67   0 
   0   2  -6   24.63    8.59   0 
   0   3  -6   43.26   10.02   0 
   0   4  -3   -0.38    7.86   0 
  -5  -2  16   52.16    7.91   0 
  -4  -3   2    0.78   10.46   0 
  -4  -3   5    6.98    8.35   0 
  -4   1 -15   24.56   10.11   0 
  -3  -1 -10  103.62   14.23   0 
  -3   0  17   86.91   10.40   0 
  -2  -2   2  138.57   10.94   0 
  -2   1 -12  197.15   11.67   0 
  -1   3 -10   84.14    8.64   0 
  -1   4  -9    4.76    6.83   0 
   0   4   7   64.08   11.97   0 
  -5  -1 -13   54.70   12.96   0 
  -4  -3   3   13.44    8.65   0 
  -4  -2  13    3.06    8.45   0 
  -4   0 -14    9.48    9.20   0 
  -4   0  19   52.82    9.70   0 
  -3  -2  -5   11.12   14.95   0 
  -2   0  14   22.63   10.32   0 
  -2   2 -13   33.06    8.12   0 
  -2   3 -13   33.97   10.07   0 
  -2   4 -12   31.88    8.32   0 
  -1   5  -7  -10.07    7.60   0 
   0   2  -7  200.11   10.06   0 
   0   4  -5   13.36    7.94   0 
  -6  -3  12   18.14    7.52   0 
  -5  -3   9    9.15    7.46   0 
  -3  -2   9   47.64    8.65   0 
  -3  -1  14   30.09    7.60   0 
  -3   2 -15   11.46    9.31   0 
  -1  -1   4  365.35   16.44   0 
  -1   0  10    3.06   10.08   0 
  -1   1 -10   44.78    7.70   0 
  -1   2 -11    9.88    7.12   0 
  -1   4 -10    0.69    7.11   0 
   0   1  -6  480.27   14.23   0 
   0   4  -6   25.88    7.68   0 
   0   5   0    0.94    8.58   0 
  -4  -2  12   76.52    8.95   0 
  -3   0 -13   -9.80    8.73   0 
  -2  -1  10  282.12   11.16   0 
  -2   0 -11   -2.66    9.41   0 
  -2   2  16   -4.48   10.72   0 
  -2   3  16   67.81   14.74   0 
  -1   0  -8    3.09   11.11   0 
  -1   1  12  271.36   12.55   0 
  -1   2  13  246.89   16.74   0 
  -1   3  13   24.69   17.04   0 
  -1   5  -8   32.50    8.00   0 
   0   2  -8    7.54    8.73   0 
   0   4  -7   82.89    9.23   0 
   0   4   8  101.04   14.82   0 
   0   5  -2    9.31    7.53   0 
   0   5  -1   32.31    7.70   0 
   0   5   3    0.90    9.29   0 
  -5  -3  -2  155.21   10.56   0 
  -5  -3   7   -8.59    7.70   0 
  -4   0  18   -5.11    9.02   0 
  -3  -1  13    9.75    9.67   0 
  -3   0  16  -10.82    7.98   0 
  -2   1 -13   47.53    7.80   0 
  -2   1  15   26.18    9.12   0 
  -2   3 -14    7.37    8.31   0 
  -1  -1   3 1000.93   20.96   0 
  -1   2 -12   32.96    9.63   0 
  -1   4 -11   27.07    7.13   0 
   0   1  -7  207.50   13.30   0 
   0   5  -4   45.34    9.50   0 
   0   5  -3    5.42    7.82   0 
   0   5   4   48.50    9.73   0 
  -5  -3  -1   45.34    8.68   0 
  -5  -3   5   -3.05    9.28   0 
  -5  -3   6    2.38    7.75   0 
  -3  -2   7   36.66    8.45   0 
  -3   1 -15   73.30    8.14   0 
  -2   0  13   17.09    7.62   0 
  -1  -1  -1 1582.68   36.80   0 
  -1  -1   2   44.03   13.58   0 
  -1   0   9  161.43   12.35   0 
   0   1   7  180.71   18.50   0 
   0   2  -9   -5.79    7.70   0 
   0   5  -5   42.86    8.53   0 
   0   5   5   38.12    9.47   0 
   1   3  -1  671.05   15.24   0 
   1   3   0  150.41   11.05   0 
   1   3   1   77.56   10.50   0 
  -7  -3  11   31.27    7.14   0 
  -6  -3  -4    5.66   10.04   0 
  -6  -3   9    6.11    7.16   0 
  -5  -3   0  138.77   10.04   0 
  -5  -3   1    6.51    9.22   0 
  -5  -3   3   60.74    9.61   0 
  -5  -2  13   25.93    7.88   0 
  -5  -1  17   30.85    7.68   0 
  -4   0 -15   20.60   10.21   0 
  -2  -1  -8    0.52   14.23   0 
  -2  -1   9  560.80   12.98   0 
  -2   3 -15    4.08    7.87   0 
  -1  -1   0    3.71   14.47   0 
  -1  -1   1  106.71   15.14   0 
  -1   3 -13   20.35    9.36   0 
  -1   4 -12   68.45    6.96   0 
   0   3 -10   23.48    8.37   0 
   0   5  -6   20.27    8.07   0 
   0   5   6   30.49   10.92   0 
   1   2  -1  145.35   13.28   0 
   1   2   0   31.01   12.66   0 
   1   3  -3   28.52    8.88   0 
   1   3   2    6.73    9.34   0 
  -7  -3  10   16.54    7.71   0 
  -6  -3   8   33.38    7.26   0 
  -4   0  17   41.15    8.09   0 
  -3  -2  -4   85.77   13.58   0 
  -3  -2   6    1.47    7.94   0 
  -3  -1  12   53.67    7.90   0 
  -3   0  15   10.56    6.79   0 
  -2   1 -14    9.99    8.45   0 
  -2   2 -15    8.91    6.90   0 
  -1   0  -9 1969.64   25.32   0 
  -1   2 -13   31.59    7.46   0 
   0   1  -8  188.23   10.30   0 
   0   2 -10   14.93    7.07   0 
   0   5  -7   21.52    7.75   0 
   1   2  -3   36.15   10.43   0 
   1   2  -2  205.94   11.64   0 
   1   2   1  156.32   14.42   0 
   1   3  -4    0.73    7.28   0 
   1   4  -2   44.23    9.61   0 
   1   4  -1   14.13    9.18   0 
   1   4   0   21.27    8.90   0 
  -6  -3  -3   11.34    8.26   0 
  -6  -3   7   -6.05    7.19   0 
  -5  -2  12    7.61    6.95   0 
  -3  -2   5    0.12    7.68   0 
  -3  -1 -11    2.67   12.50   0 
  -3   1 -16   29.17    8.87   0 
  -2  -1   8  261.88   10.64   0 
  -2   0  12   63.49    8.21   0 
  -1   1  11   63.79   11.04   0 
  -1   4 -13   10.91    7.06   0 
   0   3 -11   13.79    7.41   0 
   1   2  -4  170.25    9.80   0 
   1   3  -5   16.08    7.26   0 
   1   3   3    4.76    8.89   0 
   1   4  -4   -8.91    9.20   0 
   1   4  -3   44.64    7.72   0 
  -6  -3  -2   -9.15   10.05   0 
  -6  -3   5   40.57    9.20   0 
  -5  -1 -14   21.39   13.92   0 
  -4  -2   9   17.01    7.32   0 
  -3  -2   4  569.57   12.77   0 
  -3  -1  11   22.58    8.76   0 
  -2   1  14  280.77   11.12   0 
  -1   0   8    6.38   11.33   0 
  -1   3 -14   35.24    7.41   0 
   0   1  -9   12.66    9.35   0 
   0   2 -11   25.56    8.94   0 
   0   4 -11   31.76    7.35   0 
   0   4   9   20.92   14.06   0 
   0   5   7   19.89   10.07   0 
   1   2  -5   33.48    8.83   0 
   1   2   2  344.41   16.39   0 
   1   3  -6   88.78    8.40   0 
   1   4  -5   14.54    7.59   0 
   1   4   2   56.34    8.50   0 
  -7  -3   7   26.23    9.50   0 
  -6  -3  -1   10.98    8.30   0 
  -6  -3   3   44.90    9.55   0 
  -6  -3   4   29.88    7.38   0 
  -6  -2  13   31.61    6.77   0 
  -4  -1 -13    7.83   12.30   0 
  -4   1  18  -15.54    8.70   0 
  -3  -2  -3  256.95   14.56   0 
  -3   0  14   -4.52    9.13   0 
  -2   2 -16   18.13    6.87   0 
  -1   2 -14   71.97    7.37   0 
   0   3 -12    6.09    6.81   0 
   1   2  -6   31.56    7.86   0 
   1   3   4  108.05   11.87   0 
   1   4   3  145.71   10.21   0 
  -7  -3   6   64.18    9.36   0 
  -7  -2  14    2.31    6.78   0 
  -6  -3   0    9.83    6.84   0 
  -6  -3   1    8.33    6.87   0 
  -6  -3   2   38.07    6.74   0 
  -5  -1  15   67.35    8.07   0 
  -4  -1  13   -1.00    7.43   0 
  -4   0 -16   -6.08   11.23   0 
  -4   0  16   51.95    6.99   0 
  -3  -2   2   21.75    8.14   0 
  -3   2  17   -1.92    8.81   0 
  -2  -1   7   85.85    8.93   0 
  -1   0 -10   -0.54    9.05   0 
  -1   1 -13   18.86    7.22   0 
  -1   2  12  189.48   14.66   0 
  -1   3 -15   52.09    7.97   0 
   0   0  -3   18.68   17.31   0 
   0   2 -12   17.14    8.50   0 
   0   4 -12    9.93    7.09   0 
   1   5  -3   50.96    8.68   0 
  -7  -3   5   61.50    7.80   0 
  -6  -2  12   39.94    6.84   0 
  -6  -1  16    3.45    7.08   0 
  -5  -2  10  494.30   10.99   0 
  -4  -2   7    7.61    8.02   0 
  -3  -2  -1  -11.98    9.54   0 
  -3  -2   0   72.22   10.88   0 
  -3   0 -15   15.71   10.26   0 
  -2   0 -13  -12.56    7.07   0 
  -2   0  11    1.71    7.37   0 
  -1   2 -15    3.43    7.00   0 
   0   1 -10   33.30    7.89   0 
   0   3 -13   21.36    6.56   0 
   1   2  -7   98.19    8.09   0 
   1   2   3  114.18   14.55   0 
   1   3  -9   31.44    6.48   0 
   1   4  -8  114.58    7.75   0 
   1   4   4   -6.11    9.02   0 
   1   5  -4   37.99    7.30   0 
   1   5   1    5.86    9.14   0 
  -8  -3   6    0.09    7.49   0 
  -7  -3  -2   34.76    8.56   0 
  -7  -3   4   49.41    7.29   0 
  -7  -2  13   45.94    7.05   0 
  -5   0  17   94.66    7.34   0 
  -4  -2  -7  317.37   20.94   0 
  -4  -1  12    3.12    9.35   0 
  -2  -1   6   23.22    8.58   0 
  -2   1  13  809.89   15.65   0 
  -2   3  15   -5.48   10.84   0 
  -1   0   7   -2.84   11.94   0 
   0   5   8   11.47   10.31   0 
   1   2  -8   39.61    7.84   0 
   1   5  -7   -7.38    7.54   0 
  -8  -3   5   11.72    7.69   0 
  -7  -3   2    4.29    6.99   0 
  -7  -2  12   26.98    8.31   0 
  -6  -2  11  -16.41    6.70   0 
  -6  -1  15    4.12    8.69   0 
  -4   0  15   -1.30    6.83   0 
  -4   1  17   47.30    7.95   0 
  -3   0  13    9.47    7.49   0 
  -3   1  15    4.46    8.05   0 
  -2  -1  -9   10.28   14.38   0 
  -1   0 -11   43.49    9.33   0 
  -1   1 -14   14.59    6.80   0 
  -1   1  10  172.09   11.17   0 
   0   0  -5   18.86   15.84   0 
   0   1 -11   -4.89    9.29   0 
   0   2 -13   15.66    7.40   0 
   0   3 -14   69.47    6.97   0 
   1   2  -9   40.01    9.24   0 
   1   3   5   29.73   11.75   0 
   1   4 -10    0.45    6.90   0 
   1   5  -8   12.45    7.34   0 
  -8  -3   2   34.46    8.83   0 
  -8  -3   3   20.93    7.20   0 
  -8  -3   4   -9.07    6.52   0 
  -6  -2  10  126.08    8.47   0 
  -5  -2  -9  182.17   19.80   0 
  -5  -2   8  129.89    7.67   0 
  -4  -2   5   16.61    7.18   0 
  -3  -1   9   -3.15    7.59   0 
  -2   0  10  139.85   10.23   0 
  -1   2 -16    4.05    6.50   0 
   0   1   6  488.90   24.35   0 
   1   3 -11    7.13    6.50   0 
   1   4 -11    1.96    6.65   0 
   1   5  -9   32.10    6.89   0 
  -7  -2  11   39.52    6.27   0 
  -5  -1  13    5.02    6.70   0 
  -3  -1 -12   46.73   13.55   0 
  -3   2  16   19.88    8.88   0 
  -2  -1   5    7.31    8.34   0 
  -2   0 -14   48.87    8.70   0 
  -2   2  14  129.17   10.57   0 
   0   0  -6  292.02   16.13   0 
   0   3 -15   38.54    8.02   0 
   1   1  -4  363.53   13.66   0 
   1   4 -12   29.74    8.20   0 
   1   5   4   41.17   10.27   0 
  -7  -1  15    5.46    7.27   0 
  -6  -2   9  161.43    7.83   0 
  -6   0  17   -7.20    6.78   0 
  -4  -2   4    8.88    7.11   0 
  -4   0  14   13.53    6.69   0 
  -3   0  12  -20.77    8.66   0 
  -2   1 -17   17.04    8.59   0 
   1   1  -5  413.11   13.45   0 
   1   2 -11   94.31    9.37   0 
  -8  -2  11   19.79    6.63   0 
  -7  -2  10  -10.17    6.75   0 
  -4  -2  -6  766.77   22.94   0 
  -4  -1 -14   -0.38   11.79   0 
  -2  -1   4  176.23   12.48   0 
  -2   1  12  376.54   12.17   0 
  -1   0 -12   14.64    8.28   0 
  -1   0   6   -2.34   10.26   0 
   0   0  -7   35.20   12.75   0 
   0   2 -15   23.57    6.18   0 
   1   1  -6    1.33    9.04   0 
   1   1  -1  111.89   14.84   0 
   1   2   4 1264.52   32.58   0 
   1   3 -13   36.11    6.85   0 
   1   4 -13   28.03    6.61   0 
   2   3  -4   75.25    7.98   0 
   2   3  -3   27.62    8.56   0 
   2   4  -3   -0.70    6.81   0 
   2   4  -2   27.81    8.79   0 
  -5   0  15   47.68    6.96   0 
  -4   2  17   13.82    8.04   0 
  -3   1  14   30.42    7.88   0 
  -2   0   9  -11.63    9.67   0 
  -1   3  12   23.99   13.78   0 
   0   1 -13   16.44    7.20   0 
   0   5   9   -0.71   13.61   0 
   1   1  -7   63.09    8.80   0 
   1   4   6   31.19   11.50   0 
   1   5   5   39.24    9.49   0 
   2   3  -7   30.55    7.38   0 
   2   3  -2    5.04    7.13   0 
   2   4  -1   35.99    7.68   0 
  -6   0  16   51.48    7.39   0 
  -5  -2   5   43.13    6.98   0 
  -4  -2   1  606.36   13.59   0 
  -3  -1   7   -3.10    7.09   0 
  -3   3  16   25.33   10.01   0 
  -2   0 -15   10.47    8.16   0 
  -1   2  11   92.70   10.79   0 
   0   0  -8   65.90   11.55   0 
   0   2 -16   37.85    7.03   0 
   0   2   8   14.30   16.11   0 
   1   1  -8   -4.45    6.96   0 
   1   3 -14   35.89    6.74   0 
   2   3  -8   74.46    7.12   0 
   2   3  -1   21.82    7.29   0 
   2   4   0   75.24    9.13   0 
   2   5  -7   11.50    7.48   0 
   2   5  -6   33.92    7.45   0 
   2   5  -4   30.73    6.82   0 
   2   5  -3  204.12    8.60   0 
  -8  -2   9    6.56    7.09   0 
  -6  -2   7   31.77    6.59   0 
  -5  -1  11   34.44    7.06   0 
  -4  -2   0   37.06    8.85   0 
  -4   0  13  -19.15    6.83   0 
  -3   0 -17   92.08   11.16   0 
  -3   0  11   39.66    7.49   0 
  -3   2  15  -14.53    9.51   0 
  -2  -1 -10  157.90   14.80   0 
  -2  -1   3    9.71   10.17   0 
   0   1 -14    9.55    8.09   0 
   1   1  -9  249.99    9.67   0 
   1   1   0    1.48   16.38   0 
   1   2 -13  239.45    8.88   0 
   1   3 -15   52.81    6.42   0 
   1   3   6   21.34   12.47   0 
   2   3 -10   58.66    6.51   0 
   2   3   0    2.38    8.13   0 
   2   4 -11    8.22    7.52   0 
   2   5  -9  -16.46    6.73   0 
   2   5  -8   -5.00    6.43   0 
   2   5  -1  171.99    8.30   0 
  -7  -1  13  -14.58    5.67   0 
  -7   0  16   36.44    8.24   0 
  -6  -2   6   84.53    7.11   0 
  -5   0  14   27.95    6.55   0 
  -4  -2  -4   96.20   10.55   0 
  -4  -2  -2    8.12    9.48   0 
  -4  -2  -1    1.12    8.03   0 
  -4   1  15  103.95    8.28   0 
  -2   2  13   11.93    9.10   0 
  -2   3  14   14.17    9.22   0 
   0   0  -9   13.63    9.50   0 
   0   2 -17   -4.93    7.68   0 
   1   2 -14   23.94    8.13   0 
   2   2  -6  200.20    9.17   0 
   2   2  -5   41.69    7.92   0 
   2   5   0   18.80    8.33   0 
  -8  -2   8    5.48    6.54   0 
  -8  -1  13   14.14    7.55   0 
  -7  -2   7   22.00    6.26   0 
  -6   0  15  -16.10    6.91   0 
  -6   1  17   10.01    8.02   0 
  -5  -2  -8   27.10   12.65   0 
  -5  -2   3   35.22    8.23   0 
  -5   1  16   11.85    7.74   0 
  -4  -2  -3   17.09    8.01   0 
  -3  -1   6   16.21    7.96   0 
  -3   1  13   11.39    7.99   0 
  -2   0 -16   28.52    7.82   0 
  -1   0   5  552.74   19.56   0 
  -1   4  12   15.30   16.44   0 
   0   1 -15   11.02    7.55   0 
   1   3 -16   50.55    8.23   0 
   1   5   6    7.42    9.70   0 
   2   2  -8  163.83    8.61   0 
   2   2  -3  391.36   11.67   0 
   2   3 -12   21.78    5.72   0 
   2   3   1   -1.72    8.03   0 
   2   5   1   14.82    7.79   0 
  -7  -2   6   13.44    7.52   0 
  -6  -2   5    8.15    6.37   0 
  -6  -1  11  192.00    7.46   0 
  -4   0  12   10.00    6.61   0 
  -4   2  16   -8.65    7.89   0 
  -2  -1   2   -3.57   12.37   0 
  -2   0   8 1123.96   16.99   0 
  -2   1  11    7.91    6.81   0 
   0   0 -10   30.01    8.54   0 
   1   1 -11   76.70    7.82   0 
   1   2 -15    0.60    6.51   0 
   2   2  -9  124.75    8.32   0 
   2   2  -2  150.71   11.40   0 
   2   3 -13   15.83    8.13   0 
  -7   0  15   54.92    7.52   0 
  -5  -2   2   10.00    6.65   0 
  -5   0  13  306.68   10.47   0 
  -3   0  10    8.05    7.78   0 
  -1   1 -18    9.67    8.13   0 
   0   2 -18  -10.31    6.41   0 
   1   1 -12  254.87   10.30   0 
   2   2 -10  636.53   11.49   0 
   2   5   2   11.06    8.13   0 
  -8  -2   6  -20.46    7.39   0 
  -8  -1  12   36.89    6.08   0 
  -6   0  14   33.01    6.78   0 
  -5  -2  -7   29.20   11.27   0 
  -5  -2   1    3.75    6.61   0 
  -5  -1   9   28.97    6.37   0 
  -4  -1 -15   10.05   13.01   0 
  -3  -1   5 1380.17   16.97   0 
   0   1 -16   52.64    6.53   0 
   1   2 -16    1.70    6.33   0 
   1   4   7   37.58   12.22   0 
   2   2 -11  633.24   11.50   0 
   2   2  -1  152.55    9.88   0 
   2   3 -14    5.00    6.40   0 
   2   3   2   31.17    8.43   0 
   2   4   3   95.91   10.40   0 
  -6   1  16  -12.21    5.83   0 
  -5  -2   0   -2.69    8.10   0 
  -5   1  15   67.97    7.16   0 
  -4   0  11   29.52    7.88   0 
  -3   2  14   19.08    8.36   0 
  -3   3  15    6.88    8.86   0 
  -2  -1 -11  154.37   13.31   0 
  -2   0 -17   24.27    7.89   0 
  -1   0 -15   24.19    8.17   0 
   1   1 -13  154.11    8.01   0 
   2   2 -12   -8.22    6.85   0 
   2   3 -15  -16.03    5.72   0 
   2   5   3   51.79    9.38   0 
   3   4  -8   70.99    7.00   0 
   3   4  -5  203.66    7.96   0 
   3   4  -4   98.72    8.02   0 
   3   5  -8   -5.96    8.24   0 
   3   5  -7   23.42    8.65   0 
  -8  -2   4   13.82    6.80   0 
  -8  -1  11    8.39    6.24   0 
  -7   0  14   28.41    6.33   0 
  -6  -2   2   23.18    6.71   0 
  -5  -2  -6  175.27   12.86   0 
  -5  -2  -1    4.19    7.81   0 
  -3   1  12   54.32    8.14   0 
  -2  -1   1   33.87   10.67   0 
  -2   0   7   -2.95    9.94   0 
  -1   1   8    7.38    9.17   0 
   0   1 -17  112.80    8.43   0 
   1   5   7   17.42   10.62   0 
   2   3 -16   76.29    8.28   0 
   3   3  -6   58.85    8.31   0 
   3   4 -11    8.19    6.03   0 
   3   4 -10   47.65    6.35   0 
   3   4  -3   11.28    7.51   0 
   3   5  -4   14.02    6.05   0 
  -9  -2   3   11.79    8.44   0 
  -8   0  14   57.93    5.98   0 
  -7  -2   3   73.24    7.21   0 
  -7  -1  10   30.59    5.73   0 
  -6  -2  -8   34.78   10.77   0 
  -6   0  13   -8.99    6.19   0 
  -5  -2  -5  134.78   11.10   0 
  -5  -2  -3   20.16    7.35   0 
  -5  -2  -2   38.66    7.65   0 
  -5   0  12   -6.44    6.31   0 
  -4   2  15   30.19    7.92   0 
  -3  -1 -14   -1.87   10.42   0 
  -3  -1   4  407.60   11.32   0 
  -3   0   9   24.77    7.16   0 
  -2   1  10  281.30   10.99   0 
  -2   2  12    1.00    8.65   0 
   1   1 -14  110.56    7.86   0 
   2   2   0  104.07    9.47   0 
   3   3  -9  226.41    8.84   0 
   3   3  -5   49.53    6.82   0 
   3   4 -12   15.02    5.92   0 
   3   4  -2   19.41    7.40   0 
   3   5  -3   25.52    5.96   0 
  -8  -2   2   21.99    6.83   0 
  -6   1  15    3.12    7.80   0 
  -4   1  13   -1.75    7.91   0 
  -1   0   4    6.10   11.17   0 
  -1   2  10   10.06    8.72   0 
   0   1 -18  163.63    8.67   0 
   0   1   5  177.24   19.14   0 
   0   3   9   73.86   19.55   0 
   1   1 -15    1.10    7.47   0 
   1   2 -18   11.28    6.32   0 
   2   3   3   19.43    8.70   0 
   3   3 -12   68.53    6.34   0 
   3   3 -11   28.16    5.72   0 
   3   3  -3  -11.05    7.72   0 
  -8  -2   1   18.96    7.72   0 
  -7  -2  -8   -3.28    9.42   0 
  -7  -2   1   55.61    6.61   0 
  -7   0  13   15.78    5.71   0 
  -5  -1   7  101.85    7.56   0 
  -5   1  14   17.18    5.77   0 
  -4   0  10   48.06    7.04   0 
  -2  -1 -12  208.02   15.05   0 
  -2  -1   0  242.94   15.37   0 
  -2   0 -18   34.05    8.20   0 
  -2   3  13   26.41    8.78   0 
   0   0 -13    0.04    6.01   0 
   2   2 -15   65.22    6.71   0 
   2   5   4   96.84    8.75   0 
   3   4  -1  156.27    7.69   0 
   3   5  -1   19.96    8.03   0 
  -9  -1   9   42.30    6.37   0 
  -8   0  13   15.36    6.28   0 
  -7  -2  -7   20.17    8.78   0 
  -7   1  15    2.47    7.90   0 
  -6  -2  -6   69.06    9.65   0 
  -6  -2  -3    4.76    6.77   0 
  -6   0  12   -1.50    6.42   0 
  -5   0  11   34.32    6.42   0 
  -4  -1   5  241.01   10.27   0 
   2   1  -8  283.23    9.53   0 
   2   1  -7   74.93    7.64   0 
   2   2   1    9.10    9.18   0 
   3   3  -2   80.95    7.09   0 
   3   4   0  291.01   10.15   0 
  -8  -2  -5    3.00    8.72   0 
  -8  -2  -2  109.92    9.34   0 
  -8  -2  -1  202.65    8.83   0 
  -7  -2  -6    3.58    8.50   0 
  -7  -2  -2   26.95    7.02   0 
  -7  -1   8   23.14    6.26   0 
  -6  -2  -5   24.50    7.74   0 
  -3   0   8   -7.47    5.98   0 
  -3   1  11   11.81    8.03   0 
  -3   2  13    7.67    6.70   0 
  -2   0   6 3169.45   27.54   0 
  -1   0 -17   19.01    7.28   0 
  -1   3  11   -3.66   10.97   0 
   0   1 -19  129.32    8.06   0 
   2   1 -10  283.82    9.33   0 
   2   1  -5    8.54    7.42   0 
   2   2 -17    9.13    7.62   0 
   3   2 -10  608.74   11.34   0 
   3   2  -7   35.58    6.73   0 
   3   3 -15    0.70    5.57   0 
  -9  -1   8    8.37    6.53   0 
  -8  -2  -4   18.07    7.97   0 
  -8  -2  -3   15.30    6.11   0 
  -8   0  12   91.19    6.31   0 
  -7  -2  -3   49.63    7.69   0 
  -6  -1   7  513.43    9.82   0 
  -6   1  14   -5.03    5.35   0 
  -5  -1   6  234.49    8.66   0 
  -5   1  13   -3.26    6.97   0 
  -5   2  15   22.87    5.92   0 
  -4   2  14    9.60    7.44   0 
  -3   3  14    3.91    7.41   0 
   1   1 -17  233.33    8.95   0 
   1   2   5 2565.90   62.25   0 
   2   1 -12  392.21    9.48   0 
   2   1  -4  178.77   11.60   0 
   3   2 -12   46.28    7.60   0 
   3   2 -11  330.39    8.67   0 
   3   2  -6    3.06    6.45   0 
   3   3 -16   27.87    5.56   0 
   3   3  -1   78.84    6.90   0 
  -7  -1   7   39.93    6.35   0 
  -5   0  10   16.33    6.27   0 
  -4  -1   4   45.79    8.84   0 
  -4   0   9   14.19    6.24   0 
  -4   3  15    3.37    7.13   0 
  -3  -1 -15   62.25   12.16   0 
  -2  -1  -1   64.24   12.36   0 
   2   2 -18    8.36    6.19   0 
   2   5   5   56.80    9.95   0 
   3   2 -13   39.80    5.82   0 
   3   2  -5   14.78    6.28   0 
   3   5   1   17.51    7.51   0 
   4   4 -12   -4.44    5.60   0 
   4   4 -11   16.38    5.58   0 
   4   4 -10   26.06    5.73   0 
   4   4  -8    9.82    6.11   0 
   4   4  -7   39.08    6.49   0 
   4   4  -6  175.20    9.15   0 
  -9  -1   7    7.56    6.80   0 
  -8  -1   7   16.67    5.73   0 
  -7   0  11   14.60    5.81   0 
  -7   1  14   17.89    6.62   0 
  -5  -1   5   26.04    7.51   0 
  -3  -1   2  221.57   10.32   0 
  -2  -1 -13   47.18   11.32   0 
  -2   1   9  561.11   12.23   0 
   1   0  -9  186.25   10.29   0 
   1   0  -8    3.11    9.28   0 
   1   0  -7   -2.10    9.62   0 
   1   1 -18   47.45    7.71   0 
   2   3   4   23.96    9.50   0 
   3   2 -14   15.42    5.82   0 
   3   2  -4  571.42   11.24   0 
   3   3   0   36.20    7.33   0 
   4   4  -5  429.61    9.47   0 
  -8   0  11   -6.53    5.15   0 
  -6   1  13   28.99    5.94   0 
  -6   2  15   15.65    5.85   0 
  -3   0   7 1870.73   18.84   0 
  -1   1   7   80.14   10.53   0 
   0   0 -16  234.37    9.34   0 
   1   0 -11   42.43    7.46   0 
   1   0 -10    1.66    6.29   0 
   1   0  -6    7.15   11.15   0 
   1   5   8   15.35   14.89   0 
   2   1 -15   27.22    6.98   0 
   2   1  -3   11.55    8.85   0 
   3   2 -15   14.92    5.63   0 
   3   2  -3 1002.49   14.66   0 
   3   5   2   31.58    8.23   0 
   4   3 -12  181.40    7.21   0 
   4   3 -10   34.58    5.58   0 
   4   3  -9   63.25    6.24   0 
   4   3  -8   65.69    6.51   0 
   4   3  -7  241.12    9.23   0 
   4   4  -4  209.63    7.87   0 
  -8  -1   6   -6.94    6.22   0 
  -6   0  10   20.80    6.37   0 
  -5   1  12   40.58    7.43   0 
  -4  -1   3   63.44    8.35   0 
  -3   1  10   25.18    7.40   0 
  -1   0   3   74.55   13.24   0 
   1   1 -19   91.42    7.49   0 
   2   2   2   29.87   10.51   0 
   3   2 -16   20.55    6.02   0 
   4   3 -14   26.53    6.91   0 
   4   3 -13  264.58    7.87   0 
   4   3  -6    9.43    5.91   0 
   4   4  -3   50.14    7.77   0 
  -9  -1   5   -4.54    6.33   0 
  -9   0  10   21.54    5.55   0 
  -8  -1   5   11.27    7.14   0 
  -8   0  10   32.14    5.95   0 
  -7  -1   5    5.05    7.55   0 
  -7   0  10   19.54    5.06   0 
  -7   1  13    1.18    6.29   0 
  -6  -1   5   18.59    6.13   0 
  -5  -1   4   41.02    6.38   0 
  -5   0   9   12.38    5.92   0 
  -4   0   8  169.69    7.64   0 
  -4   1  11   11.32    7.08   0 
  -4   2  13   -1.04    6.64   0 
  -3  -1   1  707.25   14.94   0 
  -2   0   5   -8.86    8.53   0 
  -2   3  12   18.76    8.28   0 
   1   0  -5  584.23   17.71   0 
   2   1 -16   16.92    6.29   0 
   3   2 -17   10.89    6.75   0 
   4   3 -15   29.83    5.77   0 
   4   5  -2  200.88    9.52   0 
  -9  -1   4   51.47    7.54   0 
  -4   3  14   26.71    7.22   0 
  -2  -1 -14   20.79   10.11   0 
  -2  -1  -2   80.50   13.25   0 
  -1   2   9   31.71    8.70   0 
   2   1 -17    4.64    6.95   0 
   2   1  -2    4.29    9.20   0 
   3   2 -18   34.27    7.38   0 
   3   2  -2   18.37    6.73   0 
   3   3   1   -0.00    7.33   0 
   4   3 -16   19.90    5.56   0 
   4   3  -4   20.44    7.74   0 
   4   4  -2   15.43    5.34   0 
  -9   0   9   37.88    5.81   0 
  -8  -1   4   25.33    5.72   0 
  -6  -1   4   -1.62    5.71   0 
  -6   0   9   16.18    5.67   0 
  -6   1  12   40.45    5.74   0 
  -6   2  14   22.64    5.78   0 
  -3  -1 -16   16.66   12.15   0 
  -3   3  13   17.58    7.56   0 
  -1  -1  -9    7.83   11.03   0 
  -1  -1  -8   19.83   12.56   0 
   1   0 -14   10.00    6.39   0 
   3   5   3  -16.83    7.96   0 
   4   5  -1   28.98    8.04   0 
  -9  -1   3   14.50    5.92   0 
  -8   0   9    4.51    5.61   0 
  -7  -1   4   14.36    5.76   0 
  -7   0   9    9.17    5.10   0 
  -7   1  12   14.06    5.59   0 
  -7   2  14   -8.17    6.12   0 
  -5  -1   3   21.76    6.27   0 
  -5   0   8    5.19    5.86   0 
  -5   1  11   36.83    7.24   0 
  -4  -1   2  204.39    8.37   0 
  -3   0   6   -4.33    6.55   0 
  -2   1   8  286.35   11.00   0 
  -1  -1 -10   42.43   10.16   0 
   1   0  -4    8.56   13.00   0 
   2   5   6    2.26    9.43   0 
   3   1 -12   50.81    7.42   0 
   3   1 -11   18.09    5.91   0 
   3   1 -10   22.03    6.03   0 
   3   1  -9    7.67    6.21   0 
   4   2 -12   73.35    5.92   0 
   4   2 -11   70.12    5.72   0 
   4   2 -10   15.63    5.49   0 
   4   2  -9   14.71    5.64   0 
   4   3  -3   25.47    6.38   0 
   4   4  -1    2.21    6.43   0 
   5   4 -11    1.11    5.30   0 
   5   4 -10   -8.27    5.93   0 
   5   4  -9   17.32    5.82   0 
   5   4  -8   23.02    7.25   0 
  -9  -1   2   35.17    6.71   0 
  -9   0   8   31.48    5.68   0 
  -7  -1   3  308.63    9.51   0 
  -6  -1   3   -6.30    5.32   0 
  -5   2  13   27.80    5.37   0 
  -4   0   7   -1.52    6.08   0 
  -4   1  10    7.57    7.29   0 
  -1  -1 -11  145.07   11.21   0 
  -1  -1  -7  120.05   17.23   0 
   2   1 -19   12.04    6.58   0 
   3   1  -8   55.65    6.73   0 
   3   1  -7   -1.63    7.41   0 
   3   2  -1  303.25    9.73   0 
   4   2 -14   21.23    5.68   0 
  -8   0   8   17.50    5.49   0 
  -7   0   8    3.14    4.92   0 
  -6   0   8  370.37    8.33   0 
  -6   1  11  221.65    7.40   0 
  -6   2  13   35.16    6.70   0 
  -5  -1   2   24.09    7.51   0 
  -4   2  12   74.21    7.14   0 
  -3   1   9   11.07    5.91   0 
  -2  -1 -15   24.65   10.03   0 
  -1   4  11   10.70    9.53   0 
   0   0 -19    6.52    7.03   0 
   0   2   7  212.88   16.13   0 
   3   1 -15    8.81    6.61   0 
   3   3   2  311.90   11.25   0 
   4   2  -6   20.94    5.74   0 
   4   3  -2    3.44    5.79   0 
   5   3 -13  156.18    8.04   0 
   5   3 -12  128.41    6.05   0 
   5   3 -10   24.88    6.71   0 
   5   4  -6   63.43    6.58   0 
  -9   0   7   16.94    5.40   0 
  -8  -1   2   65.57    6.16   0 
  -7  -1   2  467.28   10.19   0 
  -7   1  11    0.26    5.32   0 
  -7   2  13   52.31    7.31   0 
  -5   0   7    9.75    7.06   0 
  -1  -1 -12   15.15    9.05   0 
   2   4   6    1.54    9.28   0 
   3   1 -16   25.68    5.03   0 
   4   2 -17    5.47    6.05   0 
   4   4   0   19.89    6.75   0 
   5   3  -9   28.13    5.33   0 
   5   3  -8   24.51    5.83   0 
   5   4  -5   -2.52    5.17   0 
  -8  -1   1   61.83    5.67   0 
  -8   0   7   -5.06    5.31   0 
  -5   1  10  139.11    8.13   0 
  -4   3  13  241.26    9.58   0 
  -3   4  13   34.05    8.05   0 
  -2  -1  -3   36.08   11.53   0 
  -2   0   4   33.12    9.20   0 
  -1   3  10   65.63    9.88   0 
   1   0 -17  454.75   10.11   0 
   3   1 -17   26.36    6.24   0 
   3   5   4    7.98    8.24   0 
   4   2  -5    7.51    5.63   0 
   4   5   1    5.84    6.57   0 
   5   3  -7   -7.35    5.78   0 
  -9  -1  -2    0.50    6.78   0 
  -9   0   6   -8.12    4.86   0 
  -7  -1   1  351.32    9.59   0 
  -7   0   7   21.14    5.15   0 
  -6   0   7    2.11    5.20   0 
  -5  -1   1  116.80    7.14   0 
  -4   0   6   40.35    6.04   0 
  -3  -1  -1   73.03    9.66   0 
  -3   0   5   46.83    6.96   0 
  -1  -1 -13    7.43    8.57   0 
  -1   1   6   17.32    9.41   0 
   1   0 -18    8.23    6.83   0 
   2   0 -12   45.76    6.88   0 
   2   0 -11    7.34    6.70   0 
   2   0 -10  151.07    8.16   0 
   2   2   3    4.85    8.71   0 
   2   3   5   77.82    9.90   0 
   3   1 -18   12.98    6.11   0 
   3   2   0   75.77    8.17   0 
   4   2  -4   11.22    6.93   0 
   4   3  -1    6.50    5.12   0 
   5   3  -6    5.04    5.28   0 
  -7   1  10   29.66    5.41   0 
  -6  -1   1   24.96    5.60   0 
  -6   1  10   46.74    5.73   0 
  -6   2  12   24.43    6.55   0 
  -4  -1   0  986.71   14.04   0 
  -3   3  12   57.98    6.95   0 
  -2  -1 -16   49.30    9.94   0 
  -2   3  11   92.24    8.71   0 
   1   0  -3   70.07   12.00   0 
   2   0  -9    1.90    5.92   0 
   5   3  -5   19.64    6.21   0 
   5   4  -3    8.40    5.26   0 
  -9   0   5   12.34    5.48   0 
  -9   1   9   47.04    5.71   0 
  -8  -1  -1   33.30    5.57   0 
  -8   0   6  112.90    5.68   0 
  -7   0   6  -14.08    6.20   0 
  -7   2  12   28.13    6.17   0 
  -5   0   6    6.18    5.58   0 
  -4   2  11   62.18    6.88   0 
  -1  -1 -14    1.20    8.57   0 
   1   0 -19  145.46    7.54   0 
   2   0  -8 1162.12   15.12   0 
   3   1 -19    7.53    4.74   0 
   3   1  -4  408.71    9.98   0 
   3   4   4   85.22    8.44   0 
   5   2 -14   15.43    4.92   0 
   6   4  -9   17.19    5.61   0 
  -8   1   9   22.09    4.80   0 
  -6  -1   0    1.91    5.87   0 
  -6   0   6  338.58    8.18   0 
  -6   3  13   54.35    6.63   0 
  -5  -1   0   -6.01    5.55   0 
  -2   1   7   79.16    7.53   0 
   2   0 -16  277.32    8.61   0 
   2   0  -7    0.50    6.42   0 
   4   1 -14    6.56    4.97   0 
   4   1 -13    5.44    5.02   0 
   4   1 -12    5.80    5.38   0 
   4   1 -11    8.41    5.11   0 
   4   1 -10   13.31    6.06   0 
   4   2  -3  112.35    6.94   0 
   5   2 -16   25.46    5.46   0 
   5   2 -10  512.71    8.82   0 
   5   2  -9  389.00    8.31   0 
   5   3  -4   38.87    5.40   0 
   5   4  -2    5.84    6.18   0 
   6   4  -8   25.44    5.37   0 
  -9   0   4   -3.24    5.54   0 
  -8  -1  -3   18.05    5.18   0 
  -8   0   5   -5.39    5.22   0 
  -8   2  11  -12.19    4.99   0 
  -7  -1  -1   93.78    6.18   0 
  -7   1   9   10.76    4.73   0 
  -6   1   9   36.18    5.58   0 
  -5   2  11  165.38    7.42   0 
  -4  -1  -1   14.97    7.46   0 
  -4   0   5   -2.49    5.44   0 
  -3  -1  -2  176.37   10.45   0 
  -3   2  10  587.32   11.26   0 
   2   0 -17   -5.50    5.86   0 
   2   1   0  231.81   11.42   0 
   4   1 -16   47.81    6.47   0 
   4   1 -15   91.88    5.67   0 
   4   1  -9    0.22    5.43   0 
   5   2 -17   47.48    5.65   0 
   6   3 -13   60.88    5.28   0 
  -8  -1  -5   43.97    6.34   0 
  -8  -1  -4    8.35    5.09   0 
  -7   0   5 1372.25   13.25   0 
  -6  -1  -1   10.77    5.56   0 
  -5  -1  -1   15.70    6.20   0 
  -5   0   5   19.02    6.99   0 
  -4   3  12  180.88    6.95   0 
  -3   0   4    5.83    7.66   0 
  -2  -1 -17   24.37   10.57   0 
  -2   2   9  123.16    7.78   0 
  -1   2   8   24.58    7.78   0 
   2   0  -6 3133.92   24.75   0 
   3   1  -3 1167.43   14.78   0 
   3   2   1   -0.26    6.80   0 
   4   1 -17   38.68    5.68   0 
   4   1  -8   41.72    5.81   0 
   4   4   2   -2.31    6.51   0 
   5   2  -7   16.95    5.16   0 
   5   3  -3   67.80    6.67   0 
   6   3 -10   19.84    4.93   0 
   6   3  -9    9.03    4.98   0 
   6   4  -6   47.76    5.30   0 
  -9   0   3    3.92    5.36   0 
  -9   1   7   -0.80    5.82   0 
  -8  -1  -7   21.43    6.34   0 
  -8  -1  -6   34.38    6.81   0 
  -8   0   4   21.20    5.07   0 
  -8   1   8   62.89    5.53   0 
  -7  -1  -3   57.15    6.04   0 
  -6   0   5    9.08    5.42   0 
  -4   1   8   32.27    5.81   0 
  -2  -1  -4   45.72   11.38   0 
  -2   0   3    6.31    8.03   0 
   2   0 -18    5.21    5.06   0 
   3   5   5   -5.30    8.31   0 
   4   1 -18    4.31    5.04   0 
   4   1  -7    5.52    5.29   0 
   4   2  -2  426.45    9.38   0 
   5   4  -1   24.99    5.52   0 
   6   3  -8   13.47    4.81   0 
   6   4  -5    5.26    5.69   0 
  -9   0   2   37.65    5.79   0 
  -8   2  10    9.23    4.83   0 
  -7  -1  -4    3.03    5.27   0 
  -7   0   4   23.66    6.29   0 
  -6  -1  -2   15.03    5.22   0 
  -6   1   8  454.74    9.60   0 
  -6   3  12   10.88    5.84   0 
  -5   1   8  123.00    6.04   0 
  -4  -1  -2   61.95    7.48   0 
  -4   2  10   19.82    6.74   0 
  -3   3  11   38.87    5.97   0 
  -1  -1 -16   -4.50    7.87   0 
   2   0 -19    2.76    5.87   0 
   4   3   1   60.40    6.67   0 
   5   2  -6    7.52    4.96   0 
   6   3  -7   -0.31    4.86   0 
  -8   0   3   10.77    4.94   0 
  -7  -1  -5   15.79    6.01   0 
  -4   0   4   14.49    5.91   0 
  -3  -1  -3   50.69    9.32   0 
  -3   1   7    8.55    6.81   0 
   0  -1 -12   98.92    8.12   0 
   0  -1 -11   35.28    7.50   0 
   2   0  -5   -2.81    7.19   0 
   3   0 -14    1.16    6.23   0 
   3   0 -13   -6.87    5.36   0 
   3   0 -11   48.55    6.84   0 
   4   1  -6   62.16    5.64   0 
   5   3  -2   -0.11    4.90   0 
   6   3  -6    8.22    5.46   0 
   6   4  -4    9.60    4.43   0 
  -9   0   1   21.25    5.33   0 
  -6   0   4 1604.55   13.87   0 
  -6   2  10   84.03    5.51   0 
  -5   0   4  -13.08    5.28   0 
  -4   4  12   16.81    6.33   0 
  -2   4  11    9.52    6.61   0 
   0  -1 -13    8.73    6.84   0 
   0  -1 -10   22.06    7.71   0 
   0   1   4 1283.52   31.99   0 
   3   0 -16   -7.53    5.60   0 
   3   0 -15    9.23    4.89   0 
   3   0 -10    8.42    5.73   0 
   3   1  -2  222.71    8.86   0 
   4   2  -1  587.46   10.73   0 
   5   4   0   29.54    6.32   0 
   6   2 -16   11.47    4.75   0 
   6   2 -15   23.47    5.05   0 
   6   2 -14    3.83    4.75   0 
   6   2 -13   22.53    4.80   0 
   6   2 -11    5.30    4.47   0 
  -9   0   0   34.31    5.35   0 
  -8   0   2   19.98    4.92   0 
  -8   2   9   -0.27    4.60   0 
  -7  -1 -10    9.87    7.39   0 
  -7  -1  -9   -1.43    7.08   0 
  -7  -1  -8    5.27    6.14   0 
  -7  -1  -7   16.64    6.05   0 
  -7   0   3  290.58    7.48   0 
  -7   1   7   31.59    4.62   0 
  -6  -1  -4   16.41    5.89   0 
  -5  -1  -3   73.89    6.82   0 
  -4  -1  -3   57.53    6.87   0 
  -4   3  11   65.47    6.39   0 
  -3   2   9   49.90    6.72   0 
  -2   1   6   22.36    7.78   0 
  -2   3  10   45.92    6.88   0 
  -1  -1 -17    2.97    7.62   0 
   0  -1 -14   13.77    7.15   0 
   3   0 -17   82.30    5.77   0 
   3   0  -9    6.30    5.25   0 
   3   4   5   15.66    8.57   0 
   4   1  -5  223.11    7.08   0 
   5   1 -17   29.21    6.76   0 
   5   1 -14   15.18    5.03   0 
   5   1 -13    1.94    4.69   0 
   5   1 -12   31.77    4.68   0 
   5   2  -4    8.49    6.17   0 
   6   2 -10   78.80    5.29   0 
   6   3  -5   50.10    5.11   0 
  -7   2   9   41.74    6.31   0 
  -6  -1  -5    7.04    5.58   0 
  -6   0   3   -5.09    5.97   0 
  -6   1   7  517.81    8.61   0 
  -6   3  11   -1.99    4.44   0 
  -5   1   7   93.12    5.98   0 
  -5   3  11   95.81    6.65   0 
  -4   1   7   -0.96    5.18   0 
  -3   0   3  704.94   12.11   0 
  -1   4  10   18.02    7.83   0 
   0  -1 -15   12.49    6.88   0 
   0  -1  -9    9.50    7.59   0 
   3   0 -18   18.04    4.57   0 
   3   0  -8    1.38    5.93   0 
   4   4   3   10.90    5.54   0 
   5   1 -18   23.78    5.37   0 
   5   1 -10  126.02    5.88   0 
   5   3  -1    3.38    4.75   0 
   6   2  -9  145.01    6.03   0 
   7   3 -11   25.97    4.72   0 
   7   3 -10   28.48    6.31   0 
  -8   0   1   15.16    4.80   0 
  -7   0   2   -4.42    4.68   0 
  -5  -1  -4  190.28    8.02   0 
  -5   0   3  152.53    7.14   0 
  -4   0   3    4.34    6.47   0 
  -4   2   9   17.24    6.41   0 
  -1   1   5  424.22   13.60   0 
   0  -1 -16    8.73    6.64   0 
   2   0  -4   31.70    7.47   0 
   3   0 -19   44.73    5.81   0 
   3   2   2   -0.80    7.04   0 
   3   3   4  491.50   13.85   0 
   6   2  -8   24.96    5.21   0 
   6   4  -2   21.02    5.81   0 
   7   3  -9   10.25    6.12   0 
  -9   0  -2    7.37    4.75   0 
  -9   1   4   47.58    5.21   0 
  -8   0   0   -9.72    5.43   0 
  -8   1   5   11.12    4.10   0 
  -8   2   8  -11.58    4.45   0 
  -6  -1  -6   18.63    5.38   0 
  -5   2   9  389.50    8.00   0 
  -4  -1  -4    8.09    5.84   0 
  -3  -1  -4   38.78    7.52   0 
  -2   2   8  170.70    7.83   0 
   2   1   1   60.69    9.91   0 
   3   0  -7 1780.65   15.51   0 
   4   1  -4   46.10    5.65   0 
   5   1  -8  104.79    5.90   0 
   5   4   1    8.21    5.88   0 
   7   3  -8   11.45    6.11   0 
  -9   0  -3   22.41    4.96   0 
  -9   1   3   19.57    5.69   0 
  -7   0   1   52.12    6.11   0 
  -6  -1  -7   11.31    5.65   0 
  -6   0   2   86.45    5.57   0 
  -6   1   6  459.08    8.12   0 
  -3   1   6   19.94    6.50   0 
  -3   3  10   -0.96    5.20   0 
  -2   0   2 2362.01   23.67   0 
   4   0 -15   17.19    5.18   0 
   4   0 -14   -2.29    5.53   0 
   4   0 -13    8.14    5.73   0 
   4   2   0   28.33    5.04   0 
   6   3  -3   48.30    5.67   0 
  -8   0  -1  -11.61    4.59   0 
  -8   2   7    2.77    4.32   0 
  -7   2   8   39.01    4.89   0 
  -6   3  10    5.53    4.08   0 
  -5   1   6  230.38    6.58   0 
   4   0 -16   11.97    4.44   0 
   4   0 -12   26.81    4.80   0 
   6   2  -6   65.07    5.22   0 
   7   2 -14   -0.55    3.93   0 
   7   2 -13   15.75    4.45   0 
   7   3  -7   30.50    4.96   0 
  -7   2  -5    1.81    9.85   0 
  -6  -1   1   33.02   10.24   0 
  -6   0  -2   87.30    9.56   0 
  -3  -2   7   32.05   21.06   0 
  -3  -1   1  688.27   22.03   0 
  -1  -2  12  187.34   11.41   0 
  -1  -2  14   23.23    9.04   0 
  -1  -2  15   -4.41    9.32   0 
   2   0   4  429.67   14.82   0 
   3   0  15   23.50    8.92   0 
   3   0  16   21.03    7.41   0 
   3   1   3   63.49   10.33   0 
   4   1   9  250.28   11.70   0 
   4   2   4  104.78   11.40   0 
  -9   0   0   43.38    7.34   0 
  -8  -1   2   62.90   10.27   0 
  -8   0  -1    5.52    7.55   0 
  -5   2  -6  179.72    9.63   0 
  -5   4  -7   36.40   10.25   0 
  -4   2  -6  771.81   13.88   0 
  -4   4  -7   -1.01    7.89   0 
  -1   3  -6   30.99   10.33   0 
  -1   5  -6   11.35   10.73   0 
   1  -1   8   25.69    8.70   0 
   3   0  11   18.71    7.61   0 
   3   0  12    2.57    7.57   0 
   3   0  14   18.49    6.95   0 
   4   1  11   29.22    7.99   0 
   4   1  13    2.28    7.11   0 
   4   1  14    5.08    7.38   0 
   4   4   2    9.32    9.51   0 
   5   3   9   17.29    7.35   0 
   5   3  10   16.78    9.16   0 
  -9  -1   3   12.21    8.08   0 
  -8  -2   7   -0.68    9.92   0 
  -7  -2   6   11.99   11.04   0 
  -7   0  -2   39.93    8.08   0 
  -4   1  -5  303.48   12.81   0 
  -4   3  -7  225.69    9.19   0 
  -3   3  -7   78.08   10.34   0 
  -2   0  -2  167.92   15.76   0 
   1  -1   9   22.01   11.32   0 
   1  -1  17    9.60    7.99   0 
   4   2   5  561.96   14.63   0 
  -8   2  -5   -8.21    8.07   0 
  -5   1  -5  184.21    9.76   0 
  -4   0  -3    7.90   10.42   0 
  -2  -2  18   -9.96    9.99   0 
   0  -1   5  159.15   16.09   0 
   1  -1  15   11.89    7.57   0 
   2   0   5    6.11    9.72   0 
   3   1   4   43.65    9.75   0 
   3   2   1  -14.31   10.53   0 
   4   3   3  226.34   12.03   0 
  -9   0  -1  -14.20    7.51   0 
  -8   0  -2   13.72    7.87   0 
  -6   0  -3   15.08    8.24   0 
  -6   1  -5   22.58    7.60   0 
  -3   1  -5   14.48    8.39   0 
  -2  -2  10  647.76   18.10   0 
  -2  -2  17    7.92    9.14   0 
  -2   5  -7   19.22    9.75   0 
   1  -1  11  143.14    9.59   0 
   1  -1  12   14.03    8.82   0 
   1  -1  13   10.87    7.55   0 
   1   0   2   -3.88   15.17   0 
   3   5   0   17.40   14.65   0 
   4   2   6  758.03   14.70   0 
   4   4   3   26.45    9.37   0 
  -8  -1   1   61.82    8.59   0 
  -6  -2   5   16.76   11.48   0 
  -6  -1   0    2.83    7.87   0 
  -5  -2   5   37.32   13.20   0 
  -4  -1   0  977.23   18.82   0 
  -4   2  -7  330.88   12.09   0 
  -4   4  -8   13.03    9.16   0 
  -3   0  -3  133.00   10.81   0 
  -1  -1   3 1006.39   40.69   0 
   2   0   6   17.97    9.23   0 
   2   0  17   42.55    7.51   0 
   2   1   1   72.70   13.59   0 
   4   2  14   -9.04    7.87   0 
   4   3   4  208.61   11.23   0 
  -7  -2   5    6.51   11.25   0 
  -7  -1   0   31.49    7.61   0 
  -7   0  -3   38.63    8.43   0 
  -5   3  -8   27.59    7.62   0 
  -4   3  -8   37.77    6.86   0 
  -3   4  -8   31.82    8.05   0 
  -2  -2  11  617.37   16.10   0 
  -2  -2  12    5.02    8.76   0 
  -2  -2  15   63.35    7.99   0 
  -2   1  -5   48.07   11.12   0 
  -1   4  -7   43.37    9.36   0 
   0  -1  18  143.02   10.81   0 
   0   1  -3 5144.55   55.42   0 
   2   0   7   -3.84   10.19   0 
   3   1  16    6.76    6.96   0 
   3   3   0   26.75   11.76   0 
   4   2  11  -11.28    7.96   0 
   4   2  12   33.13    7.36   0 
   4   2  13   24.74    7.77   0 
   4   4   4   46.37   11.43   0 
  -9  -1   1   25.66    9.33   0 
  -8   0  -3  -28.45   10.25   0 
  -8   1  -5   19.19    7.56   0 
  -7   2  -7    6.57    7.92   0 
  -6   1  -6    9.81    8.10   0 
  -6   3  -8   66.79    7.91   0 
  -4   1  -6   48.70    8.55   0 
  -3  -2  18   18.13    9.55   0 
  -3   3  -8  109.45    8.78   0 
  -1   2  -6 1120.01   19.07   0 
   0  -1   6  482.74   16.03   0 
   0  -1  17   97.90    9.72   0 
   0   3  -6   35.84   11.21   0 
   1   4  -5    8.12   14.54   0 
   2   0   8  737.79   16.08   0 
   2   0  14   38.90    7.35   0 
   2   0  15   16.40    7.01   0 
   3   1   6   41.04    9.65   0 
   3   1  15   62.82    7.57   0 
   3   2   2    1.09   10.06   0 
  -8  -1   0    6.54    7.84   0 
  -6   0  -4   15.81    7.80   0 
  -4   0  -4  418.69   12.31   0 
  -2   4  -8   27.83    9.95   0 
  -1   3  -7   72.53    8.69   0 
  -1   5  -7   40.09    9.97   0 
   0   2  -5  312.05   15.53   0 
   2   0   9   -8.90    8.50   0 
   2   0  12  156.91    8.66   0 
   3   1   7   52.88    8.27   0 
   3   1   8   -5.89    9.64   0 
   3   1  12   34.61    9.33   0 
   3   1  13   27.35    6.97   0 
   4   3   6   29.79    8.71   0 
  -8  -2   5   18.41    8.85   0 
  -7   0  -4   18.45    7.53   0 
  -7   1  -6    9.23    7.53   0 
  -5   2  -8   32.99    7.58   0 
  -4   4  -9   33.32    9.75   0 
  -3  -1   0 1223.94   24.90   0 
  -3   1  -6   50.25    9.12   0 
  -2   2  -7  215.77   10.36   0 
  -2   3  -8  766.45   15.47   0 
   0  -1   7  196.37   13.77   0 
   0  -1  15   10.55    8.48   0 
   3   1   9   38.56    8.09   0 
   3   1  10   94.67    8.09   0 
   3   4   0  282.97   18.31   0 
   4   3   8   37.24    9.00   0 
   4   3  10  -19.58    8.68   0 
   4   3  12   64.71    8.15   0 
   4   4   6   12.11    9.48   0 
  -9  -1   0    4.34    9.00   0 
  -9   0  -3   38.04    8.52   0 
  -8   0  -4  211.91   11.83   0 
  -8   1  -6   30.28    7.90   0 
  -7  -2   4   12.68   11.11   0 
  -7  -1  -1   95.97    8.85   0 
  -6  -2   4   14.15   11.08   0 
  -5   3  -9   22.66    8.31   0 
  -4  -1  -1   14.66   10.98   0 
  -4   3  -9   -2.79    9.21   0 
  -3  -2   8   22.84   12.98   0 
  -2   0  -3    5.19   11.08   0 
   0  -1   8  194.56   12.79   0 
   0  -1  14   15.52    8.18   0 
   1   0   3 3599.44   38.82   0 
   1   0  18   28.35    7.76   0 
   3   2   3  273.20   12.90   0 
   3   5   1   21.70   12.99   0 
   4   4   7    3.44    9.19   0 
   4   4   8   29.94    9.45   0 
  -9  -2   5    8.83   11.73   0 
  -3  -2  15    0.61    9.47   0 
  -3   3  -9   26.88    8.85   0 
  -2  -1   1   37.00   18.81   0 
  -1  -1  18   60.05   10.03   0 
   0  -1   9    7.73   10.23   0 
   0  -1  10   20.78   10.06   0 
   0  -1  11   46.17   10.05   0 
   0  -1  12   88.46    8.56   0 
   1   0  17   17.87    7.73   0 
   1   5  -5   23.85   16.27   0 
   2   1   2   69.40   12.45   0 
   2   1  17    7.78    7.53   0 
   2   2  -1  141.53   20.35   0 
   3   2  15   49.89    7.92   0 
   3   3   1    8.31   11.23   0 
  -8  -2   4    8.27    9.86   0 
  -7   0  -5   46.26    8.43   0 
  -5  -2   4   10.22   10.96   0 
  -5   0  -5   70.40    8.64   0 
  -4  -2   5    1.50   23.53   0 
  -4   1  -7  -18.50    8.08   0 
  -3  -2   9   44.91   13.32   0 
  -3  -2  14   16.88    9.35   0 
  -1   0  -2    3.82   15.16   0 
  -1   1  -5  373.75   16.13   0 
  -1   4  -8   19.33    9.35   0 
   0   4  -7   79.96   11.35   0 
   1   0  16   -6.86    7.74   0 
   2   1  16   57.87    7.83   0 
   3   2  14   78.59    8.81   0 
  -9  -1  -1   48.40    9.96   0 
  -8   0  -5  -15.08   10.31   0 
  -8   1  -7   44.99    7.61   0 
  -5  -1  -2   34.79    7.91   0 
  -5   3 -10    7.71    9.79   0 
  -4  -2  17    8.47    9.97   0 
  -4   0  -5   16.58    8.12   0 
  -3  -2  11  347.62   15.54   0 
  -3  -2  12   35.31   11.25   0 
  -1  -1  17  229.67    9.75   0 
   2   1  15   35.20    9.12   0 
   3   2   4   80.00    8.89   0 
  -8  -1  -2    0.21    8.92   0 
  -7  -2   3   65.50   10.19   0 
  -6  -2   3   35.32   11.19   0 
  -5   1  -8  536.83   12.34   0 
  -4   2  -9    5.20    8.27   0 
  -4   3 -10   26.54    7.95   0 
  -3   4 -10  250.09   11.32   0 
  -2   2  -8  206.52   10.40   0 
  -2   3  -9  347.01   12.27   0 
  -1  -1  16   51.42    9.55   0 
  -1   2  -7  816.25   15.44   0 
   0   0  19   16.47    7.90   0 
   1   0   4    0.32   11.74   0 
   1   0  14    6.38    7.96   0 
   2   1   3   40.33   13.22   0 
   2   1  14    9.49    6.81   0 
   3   2   5   12.80    8.26   0 
   3   2  11   16.42    7.59   0 
   3   4   1  431.52   18.25   0 
   3   5   2   34.16   11.55   0 
  -8  -2   3   33.78   10.40   0 
  -7   0  -6   -5.17    9.55   0 
  -6   0  -6   -2.92    7.83   0 
  -4  -1  -2   65.86   11.11   0 
  -3  -1  -1   73.02   13.59   0 
  -2  -1  19   -9.42    7.17   0 
  -1  -1  15   -6.24    9.34   0 
   0   0  18   17.54    8.10   0 
   0   3  -7   10.90    9.76   0 
   1   0  13   -2.32    7.57   0 
   2   1  13   40.72    6.85   0 
   3   2   7    1.23    7.97   0 
   3   2   8   26.52    8.57   0 
   3   2   9   19.36    7.69   0 
   3   2  10    8.97    8.01   0 
  -8   0  -6   68.64   10.29   0 
  -7  -1  -3   60.15    8.22   0 
  -6  -1  -3    2.41    8.51   0 
  -6   2 -10   -2.06    7.52   0 
  -5   2 -10   46.62    9.12   0 
  -3   0  -5   11.62    9.08   0 
   0   2  -6   34.76   11.12   0 
   1   0   5    4.27   10.86   0 
   1   0  11   58.96    9.89   0 
   1   0  12   22.62    7.79   0 
   1   2  -4  175.92   20.46   0 
   2   1   4   56.54   12.51   0 
   3   3  13   37.24    8.27   0 
   3   5   3  -16.19   11.04   0 
  -8  -1  -3   27.20    7.70   0 
  -7  -2   2  -11.20    8.88   0 
  -5  -2   3   29.11   11.50   0 
  -5   3 -11  -17.40    8.04   0 
  -4  -2  15   24.57    9.63   0 
  -4   2 -10   50.72    9.69   0 
  -2   1  -7   -2.96    7.91   0 
  -1  -1   4  396.10   24.32   0 
  -1   4  -9    8.89    9.52   0 
   0   0  17  -12.67    7.76   0 
   1   0   6   -6.40    9.28   0 
   1   0   9 1953.17   21.74   0 
   2   1  10  145.03   11.30   0 
   2   1  11  144.20    8.92   0 
   2   2  16   20.70    7.69   0 
   3   3   3  388.69   13.96   0 
   3   3  12   19.75    8.21   0 
  -8  -2   2   33.52    9.62   0 
  -7   1  -9   25.08    7.08   0 
  -6  -2   2   28.86    9.90   0 
  -6   0  -7   -3.12    7.68   0 
  -6   1  -9   19.82    6.93   0 
  -5  -2  17   48.33   10.53   0 
  -5   1  -9  275.04    9.54   0 
  -4  -2  14    0.08   10.26   0 
  -4   3 -11    8.33    8.02   0 
  -3   1  -8  -11.22    7.71   0 
  -1  -1  13  151.00   10.16   0 
   0   0  16  242.75    9.37   0 
   0   1  -4 1239.75   26.37   0 
   1   0   8   -7.05    9.28   0 
   1   4  -6   -2.19   14.87   0 
   2   1   5   50.07    9.01   0 
   2   1   6  114.09    9.43   0 
   2   1   7    6.19    9.79   0 
   2   1   8    5.50    8.22   0 
   2   1   9   26.35    8.41   0 
   2   2  15    7.03    7.00   0 
   3   3   4  500.99   14.59   0 
   3   3  10    3.72    7.77   0 
   3   4  11  122.31   11.96   0 
   3   5   4    0.80    9.65   0 
   3   5   5   -7.54   10.88   0 
  -9  -2   2   -8.32    9.65   0 
  -8   0  -7    4.27    8.55   0 
  -7  -1  -4    7.89    7.60   0 
  -6  -1  -4   14.06   10.00   0 
  -6   2 -11   50.89    9.47   0 
  -5   0  -7   60.32    8.55   0 
  -4   1  -9  234.73    9.73   0 
  -2   3 -10   78.74    8.21   0 
  -1  -1  12  266.05   10.90   0 
  -1   1  -6 2459.98   26.14   0 
   0   4  -8   81.37   11.84   0 
   1   1  16    3.03    7.44   0 
   2   5  -2  315.34   28.02   0 
   3   3   5  126.42   10.33   0 
   3   3   6   32.98   10.17   0 
   3   4  10  279.41   10.45   0 
  -8  -2   1   33.70    9.26   0 
  -8  -1  -4   13.30    7.87   0 
  -5  -2  16   18.03   10.38   0 
  -5  -1  -4  202.16   11.81   0 
  -4  -2  13    5.25    9.02   0 
  -4  -1  -3   56.97    9.01   0 
  -3   3 -11   17.01    7.64   0 
  -2  -1  16    1.22    9.37   0 
  -1  -1  11   66.03    9.20   0 
  -1   0  -3 3590.05   40.32   0 
   0   0  15   26.59    8.71   0 
   1   1  15   16.35    7.11   0 
   3   4   5   10.96    9.07   0 
   3   4   8   10.11    9.52   0 
   3   4   9   23.50    7.72   0 
  -7   0  -8   14.87    9.76   0 
  -7   1 -10   27.19    7.15   0 
  -6   1 -10   -7.70    7.68   0 
  -5  -2   2    8.04   10.99   0 
  -5   1 -10   17.81    9.23   0 
  -4   2 -11  -15.10    7.72   0 
  -3  -1  -2  175.52   12.49   0 
  -2  -1   0  227.89   19.42   0 
  -2   0  -5   -8.36    9.52   0 
  -1  -1   5  429.23   20.02   0 
   0   0  14   31.77    8.38   0 
   0   3  -8   24.42   11.02   0 
   0   5  -8   35.72   13.18   0 
   2   2   0   95.99   15.70   0 
  -6  -1  -5   12.40    9.44   0 
  -5  -2  15   24.11   11.12   0 
  -4  -2   4    5.64   19.16   0 
  -3  -1  18    9.87    6.83   0 
  -3   1  -9   28.47    8.20   0 
  -2  -1  15   25.57    8.12   0 
  -2   1  -8    2.48    8.83   0 
  -2   4 -11   78.19    8.46   0 
  -1  -1   6   11.39   13.58   0 
  -1  -1   7   69.61   13.26   0 
  -1  -1   8   11.71   11.50   0 
  -1  -1   9  283.23   12.15   0 
   0   0  13   -2.90    9.67   0 
   0   1  18  118.29    8.47   0 
   1   2  17   45.29    7.51   0 
   2   2  12   77.81    7.78   0 
   2   3  14  -10.02    7.97   0 
  -8  -2   0  195.09   11.59   0 
  -7  -2   0  120.92   10.71   0 
  -5   2 -12   -0.17    7.87   0 
  -4  -2  11   62.55   12.21   0 
  -4  -1  -4   16.55   10.62   0 
  -4   1 -10   20.85    7.68   0 
  -3   2 -11   33.34    7.75   0 
  -3   3 -12    8.15    9.91   0 
  -2   2 -10    3.05    8.44   0 
  -2   3 -11   28.86    8.23   0 
  -1   0  17  460.03   11.60   0 
   0   1  17   90.28    9.39   0 
   0   2  -7  185.11   12.91   0 
   1   2  16   -5.37    7.48   0 
   1   3  -6   76.11   13.09   0 
   1   5  -6   31.53   17.36   0 
   2   2  11   44.85    8.77   0 
   2   3  13   29.13   10.55   0 
  -7   0  -9    4.76    7.76   0 
  -6  -2   0   32.26    9.64   0 
  -6   0  -9   31.59    9.37   0 
  -6   1 -11   28.93    7.22   0 
  -5  -1  -5  183.89    9.97   0 
  -4  -2  10   24.57   12.96   0 
  -3   0  -7   66.76    9.28   0 
  -2  -1  14  307.56   11.09   0 
  -1   1  -7  125.92   11.09   0 
  -1   2  -9    7.24    7.73   0 
   0   0  12   -9.69    8.07   0 
   1   1  12    7.95    7.51   0 
   2   2  10   37.25    9.19   0 
  -8  -2  -1  210.89   11.94   0 
  -8  -1  -6   50.81    9.26   0 
  -7  -2  -1   41.45    9.79   0 
  -7  -1  -6    5.25    7.82   0 
  -5  -2   1    0.87    9.54   0 
  -5  -2  14   21.85   10.01   0 
  -5   0  -9    2.27    9.06   0 
  -3  -1  -3   51.61   10.71   0 
  -3   1 -10   94.01    9.16   0 
  -2  -1  13  827.05   16.49   0 
  -2   0  -6   26.02   11.53   0 
  -1   0  16   25.89    8.47   0 
  -1   1  19   97.60    9.83   0 
   0   0  11   -8.79    7.85   0 
   0   1  -5  168.25   16.53   0 
   0   1  16   14.46    6.93   0 
   0   4  -9   19.44    9.62   0 
   2   2   1    2.16   12.10   0 
   2   3  12   21.53    7.30   0 
  -5   2 -13   36.22    7.82   0 
  -4  -2   9   11.87   13.50   0 
  -4   1 -11   28.01    7.41   0 
  -3  -1  16   11.30    9.67   0 
  -2   1  -9   24.46    8.64   0 
  -2   4 -12   38.89    8.73   0 
  -1   0  -4    4.64   12.55   0 
  -1   0  15 1462.01   18.13   0 
  -1   4 -11   14.09    9.41   0 
   2   2   7  207.23   12.70   0 
   2   2   8  205.14   10.43   0 
   2   3  11   28.78    7.78   0 
  -7  -1  -7   24.19   10.49   0 
  -6   0 -10  423.75   10.84   0 
  -5  -2  13   41.02   11.30   0 
  -5  -1  -6   47.38    9.06   0 
  -4  -2   3  116.44   18.98   0 
  -3   0  -8   -2.10   10.90   0 
  -3   2 -12   -4.47    7.73   0 
  -3   3 -13   37.55    7.39   0 
  -2  -1  -1   52.88   16.60   0 
  -2  -1  12  371.33   13.20   0 
  -1   1  18   48.60   10.30   0 
   0   3  -9   59.59   10.02   0 
   1   1  10   49.40    8.91   0 
   1   2  14   47.56    7.54   0 
   1   4  -7   44.18   14.80   0 
   2   2   2   29.18   12.27   0 
   2   2   3    1.91   11.13   0 
   2   2   5 1363.30   20.09   0 
   2   2   6  388.76   12.39   0 
   2   3  10   70.46    8.86   0 
   2   4  11   72.72    8.57   0 
  -8  -2  -2  106.76    9.68   0 
  -8  -1  -7    7.35    8.59   0 
  -5  -2   0    0.12   10.01   0 
  -5   1 -12   18.28    7.71   0 
  -4  -2   8    1.43   13.71   0 
  -4   2 -13   21.40    7.80   0 
  -3  -1  15    4.83    9.21   0 
  -1   0  14    5.59    9.65   0 
  -1   1  -8   21.80   10.48   0 
  -1   2 -10    0.25   10.35   0 
  -1   3 -11   40.38    7.72   0 
   0   0   9   29.75    8.50   0 
   0   2  -8   17.14   10.45   0 
   1   1   9   19.32    8.74   0 
   1   2  -5   36.38   14.26   0 
   2   2   4  675.54   16.00   0 
   2   4  10  148.44    9.19   0 
  -4  -1  17   46.61    8.93   0 
  -4   1 -12  -18.14    8.07   0 
  -3  -1  -4   39.30    9.91   0 
  -2  -1  11    3.42    9.95   0 
  -2   0  -7   -6.21    8.58   0 
  -2   1 -10  164.45   11.18   0 
   0   0   8   59.90   11.33   0 
   0   1  14   14.21    7.57   0 
   1   1   8   14.15   10.35   0 
   1   3  14   25.52    7.82   0 
   2   3   8  763.06   15.54   0 
   2   4   9   58.89   10.08   0 
   2   5   7   15.83   10.08   0 
  -7  -2  -3   47.72    9.75   0 
  -6  -2  -2   44.50    8.18   0 
  -6   0 -11   61.90    7.55   0 
  -5  -2  -1    3.46    9.53   0 
  -5  -2  12   19.66   11.21   0 
  -5  -1  -7  231.57   10.24   0 
  -4  -2   7    6.17   17.33   0 
  -4  -1  -6   34.11    9.03   0 
  -4   0 -10   13.47    7.32   0 
  -3   3 -14  -11.89    9.41   0 
  -2   2 -12   60.06    8.36   0 
  -2   3 -13   21.52    9.03   0 
  -1   0  13   16.46    9.84   0 
   0   4 -10    3.94    9.26   0 
   1   2  12   26.88    8.07   0 
   1   3  -7   11.83   12.59   0 
   2   3   7  595.04   15.18   0 
   2   4  -2   24.19   15.85   0 
   2   4   8   34.58    9.89   0 
   2   5   0   23.14   12.41   0 
   2   5   6    2.31    9.48   0 
  -6  -2  14   12.57   10.43   0 
  -6  -1  -8  -10.72    8.42   0 
  -5   0 -11  823.07   14.11   0 
  -4  -2   2  417.27   20.20   0 
  -4   2 -14   28.52    8.43   0 
  -3  -1  14   17.36    9.56   0 
  -2  -1  -2   73.50   15.57   0 
  -2   0  16  305.79   10.28   0 
  -2   1  19   32.78    7.85   0 
  -1   0  -5    9.22   10.88   0 
  -1   4 -12   17.83    9.90   0 
   0   0   7   31.91   10.46   0 
   0   1  13   15.71    7.93   0 
   1   1   7  113.09   10.19   0 
   1   3  13   17.96    7.70   0 
   2   3  -1   17.03   13.16   0 
   2   3   6   85.60   10.93   0 
   2   4   7   76.30    9.45   0 
   2   5   4   74.27   11.89   0 
   2   5   5   77.45   10.03   0 
  -6  -2  -3   10.65    9.20   0 
  -5  -1  18   20.48    9.97   0 
  -4  -1  16   40.93    9.34   0 
  -3  -1  -5   24.50    8.32   0 
  -3   0  18   25.54    8.02   0 
  -3   1 -12   36.10    7.83   0 
  -1   0  12   13.90    9.81   0 
  -1   1  16   73.15    8.72   0 
  -1   2  18    8.00    7.13   0 
  -1   3 -12   14.37    7.33   0 
   0   0   6  249.73   13.68   0 
   0   2  15   20.90    7.75   0 
   0   3  16    9.89    8.31   0 
   1   1   6 2446.80   25.23   0 
   1   5  -7   20.28   17.47   0 
   2   3   5   61.78   10.39   0 
   2   4   6    8.37    8.60   0 
   2   5   2   10.31   11.42   0 
   2   5   3   29.30   10.15   0 
  -6  -1  -9   12.68    8.14   0 
  -5  -2  -2   46.71   10.12   0 
  -5  -2  11  158.45   15.59   0 
  -4  -2   1  571.89   19.20   0 
  -4  -1  -7  -18.02    7.83   0 
  -4   0 -11    7.54    7.29   0 
  -3  -1  13   17.15    9.62   0 
  -2   0  -8  776.12   14.79   0 
  -2   0  15   -3.48    9.31   0 
  -2   1 -11  134.37    9.37   0 
  -2   1  18    7.94    7.56   0 
  -2   2 -13   33.33    9.28   0 
   0   1  12   91.07    8.51   0 
   0   2  -9    2.75    8.06   0 
   1   1   5  382.25   13.86   0 
   1   3  12   30.92    7.00   0 
   1   4  12   58.92   10.12   0 
   2   3   0   -2.01   12.27   0 
   2   3   4   33.82   10.17   0 
   2   4  -1   49.10   14.74   0 
   2   4   5   19.05    9.08   0 
  -6  -2  -4   50.64    9.44   0 
  -6  -2  13   23.99   12.53   0 
  -3   0 -10   -3.71    7.49   0 
  -2  -1   9  555.59   15.64   0 
  -1   0  -6   14.45   11.81   0 
  -1   2  17    0.70    7.20   0 
   0   2  14    9.78    7.16   0 
   0   3  15   39.32    8.16   0 
   0   4 -11   22.93   11.07   0 
   1   1   0   -5.41   20.87   0 
   1   1   4 1198.11   21.34   0 
   1   4  -8  116.45   15.02   0 
   2   3   1   -3.53   10.77   0 
   2   3   2   20.21    9.94   0 
   2   3   3    2.45    9.41   0 
   2   4   4   -6.10    8.97   0 
  -7  -2  -5    9.66    7.03   0 
  -5  -1  -9  258.24   10.18   0 
  -5  -1  17   24.78    7.52   0 
  -4  -1  -8  115.86    8.60   0 
  -3   1 -13   29.46    7.43   0 
  -1   1 -10   38.43   10.80   0 
  -1   3 -13   12.36    9.39   0 
   0   0   4 1667.10   29.01   0 
   0   1  -7  193.66   11.93   0 
   1   1   3 6632.46   48.36   0 
   1   2  -6   37.30   12.87   0 
   1   2   9    3.90    7.92   0 
   1   4  11   13.30    7.40   0 
   2   4   0   76.21   12.84   0 
   2   4   1  499.73   17.51   0 
   2   4   3   72.30    9.41   0 
  -7  -2  14   -2.14   11.65   0 
  -6  -2  -5   15.29    9.09   0 
  -6  -1 -10    5.79    8.35   0 
  -5   0 -13  109.57   10.05   0 
  -3   0 -11   23.47    8.97   0 
  -2  -1   8  247.57   13.45   0 
  -2   0  -9    5.81    8.46   0 
  -2   0  14   20.59    7.56   0 
  -2   1  17   -6.40    7.66   0 
   0   0   3    4.02   15.56   0 
   0   2  13   41.65    7.93   0 
   0   3 -11   22.10    9.21   0 
   1   1   1 1509.39   34.76   0 
   1   1   2 9777.40   65.12   0 
   1   3  -8   10.50   11.01   0 
   1   3  10  103.14   10.35   0 
  -5  -2  -4    4.26    9.63   0 
  -5  -1 -10   35.55    8.52   0 
  -4  -2  -1    1.43    9.74   0 
  -4   0  18   56.18    8.38   0 
  -3  -1  -7   37.32    8.44   0 
  -2  -1  -4   49.76   12.10   0 
  -2   2 -14  117.16    8.59   0 
  -2   2  18   14.32    7.02   0 
  -2   3 -15   -0.51    7.35   0 
  -1   0  10    5.72    8.25   0 
   0   1  10   33.49    8.39   0 
   1   2   8   68.56    8.83   0 
   1   4  10    7.43    7.42   0 
  -6  -2  -6   62.75    9.04   0 
  -6  -1 -11   30.31    7.81   0 
  -5  -1  16    0.13    8.80   0 
  -4  -1  -9  251.97    9.91   0 
  -4  -1  14    1.76    8.07   0 
  -4   1 -15   19.88    7.79   0 
  -3   1 -14    2.16    7.67   0 
  -2   0 -10  188.08   11.06   0 
  -2   0  13   27.74    9.86   0 
  -2   1  16   10.84    7.29   0 
  -1   0  -7  277.69   11.52   0 
  -1   3  16   91.13    9.90   0 
   0   2  12   11.46    7.62   0 
   0   3  13   21.23    9.20   0 
   1   3   9  150.09    8.88   0 
   1   4   9   11.28    8.77   0 
  -5   0 -14   -2.32    6.78   0 
  -3   1  18   17.27    7.49   0 
  -1   1 -11  139.52    8.80   0 
  -1   2 -13   40.71    7.68   0 
  -1   2  15    4.50    6.50   0 
   0   1   9    6.76    7.70   0 
   0   4  13   37.48    7.26   0 
   1   2   7  741.56   14.43   0 
;
_shelx_hkl_checksum              78492
loop_
_space_group_symop_operation_xyz
'x, y, z'
'x+1/2, -y+1/2, z+1/2'
'-x, -y, -z'
'-x-1/2, y-1/2, -z-1/2'
loop_
_atom_site_label
_atom_site_type_symbol
_atom_site_fract_x
_atom_site_fract_y
_atom_site_fract_z
_atom_site_U_iso_or_equiv
_atom_site_adp_type
_atom_site_occupancy
_atom_site_site_symmetry_order
_atom_site_calc_flag
_atom_site_refinement_flags_posn
_atom_site_refinement_flags_adp
_atom_site_refinement_flags_occupancy
_atom_site_disorder_assembly
_atom_site_disorder_group
B1 B 0.3347(7) 0.8529(12) 0.4873(3) 0.0288(12) Uani 1 1 d . . . . .
O1 O 0.1790(4) 0.7131(8) 0.4754(2) 0.0411(10) Uani 1 1 d . . . . .
C1 C 0.4578(6) 0.7869(10) 0.4299(3) 0.0267(10) Uani 1 1 d . . . . .
C2 C 0.6208(6) 0.9242(10) 0.4400(3) 0.0321(12) Uani 1 1 d . . . . .
C3 C 0.7287(6) 0.8516(10) 0.3859(3) 0.0324(12) Uani 1 1 d . . . . .
H3 H 0.837927 0.938898 0.391975 0.039 Uiso 1 1 calc R U . . .
C4 C 0.6763(7) 0.6501(11) 0.3228(3) 0.0402(14) Uani 1 1 d . . . . .
H4 H 0.750810 0.603786 0.286034 0.048 Uiso 1 1 calc R U . . .
C5 C 0.5201(7) 0.5169(11) 0.3124(3) 0.0391(13) Uani 1 1 d . . . . .
H5 H 0.487668 0.379974 0.269109 0.047 Uiso 1 1 calc R U . . .
C6 C 0.4096(6) 0.5847(10) 0.3659(3) 0.0306(11) Uani 1 1 d . . . . .
C7 C 0.2432(7) 0.4509(12) 0.3593(3) 0.0428(14) Uani 1 1 d . . . . .
H7 H 0.206534 0.314579 0.316245 0.051 Uiso 1 1 calc R U . . .
C8 C 0.1408(7) 0.5143(11) 0.4119(3) 0.0404(13) Uani 1 1 d . . . . .
H8 H 0.034672 0.416593 0.405240 0.049 Uiso 1 1 calc R U . . .
loop_
_atom_site_aniso_label
_atom_site_aniso_U_11
_atom_site_aniso_U_22
_atom_site_aniso_U_33
_atom_site_aniso_U_23
_atom_site_aniso_U_13
_atom_site_aniso_U_12
B1 0.029(3) 0.026(3) 0.032(3) 0.010(2) 0.008(2) 0.001(2)
O1 0.039(2) 0.035(2) 0.050(2) -0.0008(18) 0.0104(17) -0.0022(18)
C1 0.035(3) 0.021(2) 0.023(2) 0.003(2) 0.0028(19) 0.003(2)
C2 0.038(3) 0.027(3) 0.031(3) 0.005(2) 0.007(2) 0.005(2)
C3 0.033(3) 0.029(3) 0.037(3) 0.009(2) 0.013(2) 0.007(2)
C4 0.054(3) 0.040(3) 0.032(3) 0.007(2) 0.022(2) 0.015(3)
C5 0.060(4) 0.033(3) 0.024(3) -0.004(2) 0.005(2) 0.010(3)
C6 0.038(3) 0.021(2) 0.029(3) 0.005(2) -0.001(2) 0.010(2)
C7 0.047(3) 0.036(3) 0.038(3) -0.004(3) -0.009(3) 0.001(3)
C8 0.035(3) 0.031(3) 0.051(3) -0.001(3) 0.000(3) -0.004(2)
loop_
_atom_type_symbol
_atom_type_description
_atom_type_scat_dispersion_real
_atom_type_scat_dispersion_imag
_atom_type_scat_source
C C 0.0033 0.0016 'International Tables Vol C Tables 4.2.6.8 and 6.1.1.4'
H H 0.0000 0.0000 'International Tables Vol C Tables 4.2.6.8 and 6.1.1.4'
B B 0.0013 0.0007 'International Tables Vol C Tables 4.2.6.8 and 6.1.1.4'
O O 0.0106 0.0060 'International Tables Vol C Tables 4.2.6.8 and 6.1.1.4'
loop_
_geom_angle_atom_site_label_1
_geom_angle_atom_site_label_2
_geom_angle_atom_site_label_3
_geom_angle
_geom_angle_site_symmetry_1
_geom_angle_site_symmetry_3
_geom_angle_publ_flag
O1 B1 C1 119.4(5) . . ?
O1 B1 C2 118.9(4) . 3_676 ?
C1 B1 C2 121.7(4) . 3_676 ?
C8 O1 B1 118.8(4) . . ?
C6 C1 C2 119.8(4) . . ?
C6 C1 B1 118.7(4) . . ?
C2 C1 B1 121.5(4) . . ?
C3 C2 C1 118.7(5) . . ?
C3 C2 B1 124.4(4) . 3_676 ?
C1 C2 B1 116.8(4) . 3_676 ?
C2 C3 C4 119.9(5) . . ?
C2 C3 H3 120.1 . . ?
C4 C3 H3 120.1 . . ?
C5 C4 C3 121.9(5) . . ?
C5 C4 H4 119.0 . . ?
C3 C4 H4 119.0 . . ?
C4 C5 C6 119.4(5) . . ?
C4 C5 H5 120.3 . . ?
C6 C5 H5 120.3 . . ?
C5 C6 C1 120.2(5) . . ?
C5 C6 C7 122.5(5) . . ?
C1 C6 C7 117.2(4) . . ?
C8 C7 C6 121.7(5) . . ?
C8 C7 H7 119.2 . . ?
C6 C7 H7 119.2 . . ?
C7 C8 O1 124.2(5) . . ?
C7 C8 H8 117.9 . . ?
O1 C8 H8 117.9 . . ?
loop_
_geom_bond_atom_site_label_1
_geom_bond_atom_site_label_2
_geom_bond_distance
_geom_bond_site_symmetry_2
_geom_bond_publ_flag
B1 O1 1.384(6) . ?
B1 C1 1.519(7) . ?
B1 C2 1.566(7) 3_676 ?
O1 C8 1.381(6) . ?
C1 C6 1.404(6) . ?
C1 C2 1.431(7) . ?
C2 C3 1.392(6) . ?
C3 C4 1.397(7) . ?
C3 H3 0.9500 . ?
C4 C5 1.374(7) . ?
C4 H4 0.9500 . ?
C5 C6 1.396(7) . ?
C5 H5 0.9500 . ?
C6 C7 1.453(7) . ?
C7 C8 1.331(7) . ?
C7 H7 0.9500 . ?
C8 H8 0.9500 . ?
loop_
_geom_torsion_atom_site_label_1
_geom_torsion_atom_site_label_2
_geom_torsion_atom_site_label_3
_geom_torsion_atom_site_label_4
_geom_torsion
_geom_torsion_site_symmetry_1
_geom_torsion_site_symmetry_2
_geom_torsion_site_symmetry_3
_geom_torsion_site_symmetry_4
_geom_torsion_publ_flag
C1 B1 O1 C8 0.7(6) . . . . ?
C2 B1 O1 C8 -179.3(4) 3_676 . . . ?
O1 B1 C1 C6 0.0(6) . . . . ?
C2 B1 C1 C6 -180.0(4) 3_676 . . . ?
O1 B1 C1 C2 -179.5(4) . . . . ?
C2 B1 C1 C2 0.5(7) 3_676 . . . ?
C6 C1 C2 C3 -0.4(6) . . . . ?
B1 C1 C2 C3 179.2(5) . . . . ?
C6 C1 C2 B1 180.0(4) . . . 3_676 ?
B1 C1 C2 B1 -0.5(7) . . . 3_676 ?
C1 C2 C3 C4 0.6(7) . . . . ?
B1 C2 C3 C4 -179.8(5) 3_676 . . . ?
C2 C3 C4 C5 -0.6(7) . . . . ?
C3 C4 C5 C6 0.3(8) . . . . ?
C4 C5 C6 C1 -0.1(7) . . . . ?
C4 C5 C6 C7 -179.4(5) . . . . ?
C2 C1 C6 C5 0.1(6) . . . . ?
B1 C1 C6 C5 -179.5(5) . . . . ?
C2 C1 C6 C7 179.5(5) . . . . ?
B1 C1 C6 C7 -0.1(6) . . . . ?
C5 C6 C7 C8 178.7(5) . . . . ?
C1 C6 C7 C8 -0.6(7) . . . . ?
C6 C7 C8 O1 1.5(8) . . . . ?
B1 O1 C8 C7 -1.5(7) . . . . ?
