#------------------------------------------------------------------------------
#$Date: 2021-04-13 10:31:20 +0300 (Tue, 13 Apr 2021) $
#$Revision: 264072 $
#$URL: file:///home/coder/svn-repositories/cod/cif/1/56/16/1561671.cif $
#------------------------------------------------------------------------------
#
# This file is available in the Crystallography Open Database (COD),
# http://www.crystallography.net/
#
# All data on this site have been placed in the public domain by the
# contributors.
#
data_1561671
loop_
_publ_author_name
'Luo, Mengjia'
'Bu, Kejun'
'Liu, Yiting'
'Wang, Ruiqi'
'Zhang, Xian'
'Zheng, Chong'
'Jin, Qingyuan'
'Zhang, Xiaolei'
'Huang, Fuqiang'
_publ_section_title
;
 Synthesis, crystal structure, and optical properties of Ba2SbO2SX (X =
 Br, I) oxy-chalcohalides
;
_journal_name_full               'Journal of Solid State Chemistry'
_journal_page_first              120811
_journal_paper_doi               10.1016/j.jssc.2019.06.016
_journal_volume                  278
_journal_year                    2019
_chemical_formula_sum            'Ba Br0.5 O S0.5 Sb0.5'
_chemical_formula_weight         270.20
_space_group_crystal_system      monoclinic
_space_group_IT_number           11
_space_group_name_Hall           '-P 2yb'
_space_group_name_H-M_alt        'P 1 21/m 1'
_cell_angle_alpha                90
_cell_angle_beta                 93.100(15)
_cell_angle_gamma                90
_cell_formula_units_Z            4
_cell_length_a                   7.739(4)
_cell_length_b                   6.004(3)
_cell_length_c                   7.907(4)
_cell_measurement_reflns_used    3722
_cell_measurement_temperature    273.(2)
_cell_measurement_theta_max      27.1260
_cell_measurement_theta_min      3.4323
_cell_volume                     366.9(3)
_computing_cell_refinement       'SAINT V8.37A (Bruker AXS Inc., 2015)'
_computing_data_reduction        'SAINT V8.37A (Bruker AXS Inc., 2015)'
_computing_molecular_graphics    'shelXle (C.B. Huebschle, rev 786)'
_computing_structure_refinement  'SHELXL-2014/7 (Sheldrick, 2014)'
_computing_structure_solution    'XT, VERSION 2014/5'
_diffrn_ambient_temperature      273.(2)
_diffrn_detector_area_resol_mean 10.4167
_diffrn_measured_fraction_theta_full 0.992
_diffrn_measured_fraction_theta_max 0.992
_diffrn_measurement_device_type  'CCD area detector'
_diffrn_measurement_method       'phi and omega scans'
_diffrn_radiation_type           MoK\a
_diffrn_radiation_wavelength     0.71073
_diffrn_reflns_av_R_equivalents  0.0397
_diffrn_reflns_av_unetI/netI     0.0501
_diffrn_reflns_limit_h_max       9
_diffrn_reflns_limit_h_min       -6
_diffrn_reflns_limit_k_max       7
_diffrn_reflns_limit_k_min       -7
_diffrn_reflns_limit_l_max       9
_diffrn_reflns_limit_l_min       -9
_diffrn_reflns_number            2088
_diffrn_reflns_theta_full        25.00
_diffrn_reflns_theta_max         25.00
_diffrn_reflns_theta_min         2.58
_exptl_absorpt_coefficient_mu    19.907
_exptl_absorpt_correction_T_max  0.848
_exptl_absorpt_correction_T_min  0.586
_exptl_absorpt_correction_type   multi-scan
_exptl_absorpt_process_details
;
;
_exptl_crystal_colour            translate
_exptl_crystal_density_diffrn    4.892
_exptl_crystal_density_method    'not measured'
_exptl_crystal_description       stick
_exptl_crystal_F_000             460
_exptl_crystal_size_max          0.0932
_exptl_crystal_size_mid          0.0228
_exptl_crystal_size_min          0.0083
_refine_diff_density_max         1.587
_refine_diff_density_min         -1.391
_refine_ls_extinction_method     none
_refine_ls_goodness_of_fit_ref   1.012
_refine_ls_hydrogen_treatment    undef
_refine_ls_matrix_type           full
_refine_ls_number_parameters     40
_refine_ls_number_reflns         710
_refine_ls_number_restraints     0
_refine_ls_restrained_S_all      1.012
_refine_ls_R_factor_all          0.0539
_refine_ls_R_factor_gt           0.0384
_refine_ls_shift/su_max          0.000
_refine_ls_shift/su_mean         0.000
_refine_ls_structure_factor_coef Fsqd
_refine_ls_weighting_details
'w=1/[\s^2^(Fo^2^)+10.5284P] where P=(Fo^2^+2Fc^2^)/3'
_refine_ls_weighting_scheme      calc
_refine_ls_wR_factor_gt          0.0641
_refine_ls_wR_factor_ref         0.0690
_reflns_number_gt                569
_reflns_number_total             710
_reflns_threshold_expression     'I > 2\s(I)'
_cod_data_source_file            JSSC-2019-278-120811.cif
_cod_data_source_block           BaOSbSBr
_cod_original_formula_sum        'Ba Br0.50 O S0.50 Sb0.50'
_cod_database_code               1561671
_shelx_res_file
;


    P2_a.res created by SHELXL-2014/7


TITL P2_a.res in P2(1)/m
REM Old TITL P2 in P2(1)/m

REM SHELXT solution in P2(1)/m
REM R1 0.081,  Rweak 0.007,  Alpha 0.019,  Orientation as input
REM Formula found by SHELXT:  Br O2 S Sb3

CELL  0.71073   7.7387   6.0043   7.9074   90.000   93.100   90.000
ZERR    4.000   0.0037   0.0030   0.0040    0.000    0.015    0.000
LATT  1
SYMM -X, 1/2+Y, -Z
SFAC BA BR O S SB
UNIT 4 2 4 2 2
TEMP 0
L.S. 10
acta
omit -2 50.0
LIST 4
FMAP 2
PLAN 20
WGHT    0.000000   10.528400
FVAR       0.30958
BA1   1    0.578281    0.250000    0.329000    10.50000    0.01041    0.01212 =
         0.01709    0.00000    0.00051    0.00000
BA2   1    0.825391    0.250000    0.822780    10.50000    0.02034    0.01520 =
         0.01612    0.00000   -0.00394    0.00000
SB03  5    0.861834    0.750000    0.528468    10.50000    0.00998    0.01056 =
         0.01580    0.00000    0.00111    0.00000
BR04  2    0.391757    0.250000    0.894873    10.50000    0.02920    0.02226 =
         0.03321    0.00000   -0.00105    0.00000
S005  4    1.023722    0.750000    0.799945    10.50000    0.01209    0.02224 =
         0.01953    0.00000   -0.00512    0.00000
O006  3    0.702748    0.511470    0.578530    11.00000    0.00247    0.01521 =
         0.01825    0.00333   -0.00114   -0.00077
HKLF 4

REM  P2_a.res in P2(1)/m
REM R1 =  0.0384 for     569 Fo > 4sig(Fo)  and  0.0539 for all     710 data
REM     40 parameters refined using      0 restraints

END

WGHT      0.0000      6.0333

REM Highest difference peak  1.587,  deepest hole -1.391,  1-sigma level  0.343
Q1    1   0.8358  0.2500  0.9558  10.50000  0.05    1.59
Q2    1   0.8237  0.7500  0.4263  10.50000  0.05    1.46
Q3    1   0.5784  0.2500  0.2045  10.50000  0.05    1.38
Q4    1   0.9021  0.2500  0.7280  10.50000  0.05    1.19
Q5    1   0.5744  0.2500  0.4508  10.50000  0.05    1.19
Q6    1   0.6342  0.0741  0.1955  11.00000  0.05    1.16
Q7    1   0.2967  0.2500  1.0633  10.50000  0.05    1.15
Q8    1   0.6395  0.7500  0.4576  10.50000  0.05    1.12
Q9    1   0.8986  0.9219  0.8767  11.00000  0.05    1.05
Q10   1   1.0510  0.7500  0.5955  10.50000  0.05    1.04
Q11   1   0.9408  0.9306  1.0257  11.00000  0.05    1.00
Q12   1   0.6245  0.7500  0.5977  10.50000  0.05    1.00
Q13   1   0.7014  0.2500  0.8999  10.50000  0.05    1.00
Q14   1   0.7854  0.2500  0.3800  10.50000  0.05    0.98
Q15   1   0.8186  0.7500  0.3084  10.50000  0.05    0.98
Q16   1   0.7722  0.5960  0.7847  11.00000  0.05    0.98
Q17   1   0.5000  0.0000  1.0000  10.50000  0.05    0.98
Q18   1   1.0401  0.8463  0.9473  11.00000  0.05    0.91
Q19   1   0.8033  0.2500  0.5834  10.50000  0.05    0.90
Q20   1   0.2253  0.2500  0.9334  10.50000  0.05    0.88
;
_shelx_res_checksum              93675
_shelx_hkl_file
;
   1   0   0   25.30    3.80
  -1   0   0   17.50    3.00
   2   0   0   -0.40    2.20
  -2   0   0   -4.10    4.20
   2   0   0    1.80    4.00
  -3   0   0  925.91   37.40
  -4   0   0 1682.43   63.39
   5   0   0 1074.59   63.89
   6   0   0   28.80   25.00
   7   0   0 1357.46   82.59
   8   0   0   29.90   35.20
   9   0   0  171.48   53.19
  10   0   0  167.38   58.29
   0  -1   0   -0.10    3.80
   0  -1   0    0.20    2.20
   0   1   0    0.00    2.20
   0   1   0   -1.30    2.00
   0   1   0    0.90    3.90
   1  -1   0   87.59   12.10
  -1  -1   0   80.29    6.50
   1  -1   0   78.99    7.40
  -1   1   0   78.59    7.20
   1   1   0   80.39    6.60
  -1   1   0   80.39   13.80
  -2  -1   0   53.09    8.60
   2  -1   0   48.00    8.20
   2  -1   0   41.80   11.50
  -2   1   0   42.70   13.50
   2   1   0   49.99    8.20
   3  -1   0   -9.60   10.20
  -3  -1   0   -5.50    6.40
  -3   1   0    8.40    7.20
   3   1   0    2.10    4.30
   3   1   0    3.60    5.40
   4  -1   0  811.32   49.99
   4   1   0  770.82   30.40
   4   1   0  782.42   37.10
   5  -1   0  564.84   47.60
   5   1   0  563.04   25.50
   6  -1   0  119.59   28.80
   6   1   0  179.88   16.10
   7  -1   0  445.66   56.39
   7   1   0  447.06   25.40
   8  -1   0    0.00   33.00
   8   1   0   58.79   14.40
   8   1   0  122.59   40.70
   9  -1   0  567.94   91.39
   9   1   0  589.34   96.89
  10  -1   0  -44.30   56.99
  10   1   0  -37.40   62.79
   0  -2   0 9081.39  288.07
   0  -2   0 9500.95  295.27
   0   2   0 9999.00  295.37
   0   2   0 9507.65  288.47
   0   2   0 9531.05  286.97
   1  -2   0    1.30    5.00
  -1  -2   0    5.10    4.50
   1  -2   0    3.80    8.30
  -1  -2   0   -2.40    3.80
   1   2   0    4.70    3.90
   1   2   0   -4.40    9.00
   1   2   0    4.70    4.90
  -1   2   0   20.70   11.30
  -1   2   0   -5.30    5.30
   2  -2   0  111.29   18.20
   2  -2   0  115.69   13.50
  -2  -2   0  102.39   12.10
  -2   2   0  101.99   13.70
  -2   2   0  138.19   22.10
   2   2   0  106.79   11.30
  -3  -2   0 1373.06   51.59
   3  -2   0 1462.55   65.99
  -3   2   0 1386.56   50.69
   3   2   0 1366.06   49.30
  -3   2   0 1281.77   73.29
   3   2   0 1369.76   51.69
   4  -2   0 1834.92   83.29
   4   2   0 1791.22   67.79
   4   2   0 1752.42   62.99
   5   2   0 1501.15   55.99
   5   2   0 1480.55   62.89
   6  -2   0   17.30   20.30
   6   2   0   12.30   10.40
   7  -2   0  836.72   69.19
   7   2   0  914.81   40.70
   8  -2   0   25.20   31.60
   8   2   0   41.60   13.40
   9  -2   0   68.29   46.80
   9   2   0   67.29   20.60
  10  -2   0  114.99   63.99
   0  -3   0   22.10   12.90
   0  -3   0    3.00    6.30
   0   3   0   12.40    8.30
   0   3   0   11.80   16.10
  -1  -3   0   80.89   13.80
  -1  -3   0   81.99   12.30
   1  -3   0   73.89   16.60
   1  -3   0   63.79   10.50
   1   3   0   68.69   17.80
  -1   3   0   46.00   10.90
   1   3   0   76.89   10.70
   1   3   0   59.19   10.70
  -1   3   0   68.09   20.30
   2  -3   0   73.49   18.10
   2  -3   0   56.19   10.90
  -2  -3   0   63.69   11.70
   2   3   0   72.89   12.00
   2   3   0   54.19   17.90
   3  -3   0   -1.50   13.60
  -3  -3   0    7.70   11.20
   3  -3   0   -7.40    8.00
   3   3   0   -5.60    6.20
   3   3   0    1.70    8.20
   3   3   0   -4.80   20.30
   4  -3   0  528.35   32.50
   4  -3   0  491.55   42.50
   4   3   0  522.35   31.60
   4   3   0  518.75   28.10
   5  -3   0  433.76   32.60
   5  -3   0  479.95   47.10
   5   3   0  463.45   30.90
   5   3   0  373.16   25.50
   6  -3   0   74.79   28.30
   6   3   0   83.09   15.00
   6   3   0   90.89   18.30
   7  -3   0  394.36   52.99
   7   3   0  314.07   27.20
   8  -3   0   61.99   37.90
   8   3   0   12.90   15.90
   9  -3   0  601.74   96.59
   9   3   0  635.54   42.10
   0  -4   0 6333.77  201.98
   0  -4   0 6202.08  218.18
   0   4   0 6419.56  195.98
  -1  -4   0    2.50    9.40
   1  -4   0   22.20   18.80
   1  -4   0    4.70    8.60
   1   4   0   18.80   24.90
   1   4   0   -0.60    7.10
  -1   4   0    7.30    8.90
   2  -4   0   14.00   15.20
   2  -4   0    2.20    8.00
  -2  -4   0    0.00   14.00
   2   4   0    2.10    5.90
   2   4   0    8.20   24.60
   2   4   0  -13.60    8.30
   3  -4   0  523.65   32.30
   3  -4   0  557.04   48.10
   3   4   0  530.45   30.90
  -3   4   0  553.24   24.40
   3   4   0  510.05   28.30
   3   4   0  540.65   57.59
   4  -4   0  926.91   45.90
   4  -4   0  913.91   63.69
   4   4   0  956.90   72.49
  -4   4   0  937.21   35.20
   4   4   0  928.41   46.30
   4   4   0  926.51   42.80
   5  -4   0  600.84   39.50
   5  -4   0  644.64   57.49
   5   4   0  599.14   39.00
   5   4   0  630.94   35.10
   6  -4   0    2.50   26.10
   6   4   0  -20.00   16.70
   6   4   0   20.90   12.20
   7  -4   0  906.61   81.29
   7   4   0  866.91   47.00
   8  -4   0   51.39   40.50
   8   4   0   56.39   20.50
   9  -4   0   51.89   53.09
   9   4   0   66.39   25.70
   0  -5   0  -15.90   21.20
   0  -5   0   -2.00    9.70
   0   5   0   -7.70    6.80
   1  -5   0   15.20   10.50
   1  -5   0   13.60   21.50
  -1  -5   0   21.60   11.20
  -1   5   0    2.60    7.50
   1   5   0   26.50    9.50
  -1   5   0   35.90   11.30
   2  -5   0   22.50   11.30
  -2  -5   0   39.30   12.00
  -2  -5   0   37.90   20.40
   2  -5   0   37.00   24.20
  -2   5   0   45.10   11.60
   2   5   0   35.60   12.60
  -2   5   0   63.49   15.40
   2   5   0   40.50   11.40
   3  -5   0   12.60   23.00
   3  -5   0   15.70   12.00
  -3   5   0   -2.30    9.00
   3   5   0    2.20   10.60
   3   5   0   -7.70   13.30
   4  -5   0  418.16   53.69
   4  -5   0  338.27   34.40
  -4   5   0  355.46   22.90
   4   5   0  426.06   28.90
   4   5   0  313.67   33.70
   5  -5   0  187.78   40.00
   5  -5   0  241.68   34.80
   5   5   0  200.48   28.00
   5   5   0  267.27   37.30
   6  -5   0   45.90   33.00
   6   5   0   67.29   18.60
   6   5   0  113.09   27.40
   7  -5   0  245.98   53.39
   7   5   0  200.88   31.80
   8  -5   0   44.20   50.89
   0  -6   0 2512.45   97.29
   0   6   0 2458.85   90.89
  -1  -6   0    6.60   12.90
   1  -6   0   15.00   31.30
   1  -6   0    2.40   12.50
   1   6   0    4.90   11.10
  -1   6   0   -4.00   10.00
  -2  -6   0    9.00   14.80
   2  -6   0    8.10   13.20
   2  -6   0  -29.00   29.50
   2   6   0    2.50   11.80
  -2   6   0    6.40   10.20
   3  -6   0  448.56   72.59
  -3  -6   0  424.56   41.00
   3  -6   0  428.06   39.60
  -3   6   0  412.56   26.90
  -3   6   0  458.55   41.20
   3   6   0  407.76   42.00
   3   6   0  439.96   32.50
   4  -6   0  595.54   47.30
   4  -6   0  616.74   80.89
  -4   6   0  527.55   30.80
   4   6   0  608.44   44.70
   4   6   0  504.65   38.70
   5  -6   0  522.95   78.09
   5  -6   0  388.96   51.69
   5   6   0  545.25   43.70
   6  -6   0   18.90   39.90
   6   6   0   17.30   20.80
   6   6   0   28.20   30.40
   7  -6   0  326.37   69.59
   7   6   0  309.07   41.00
   0  -7   0  -29.70   18.10
   0   7   0    2.90   13.90
   1  -7   0   25.00   19.50
   1  -7   0    8.70   46.60
  -1  -7   0   19.80   19.90
  -1   7   0    0.20   14.40
   1   7   0   48.00   17.70
  -2  -7   0   44.70   24.20
   2  -7   0   62.69   22.70
   2  -7   0   30.70   48.50
   2   7   0   -6.30   16.10
  -2   7   0   34.00   15.20
   3  -7   0   -6.50   47.00
  -3  -7   0   -0.40   28.90
   3  -7   0   32.00   20.70
   4  -7   0   86.99   57.89
   4  -7   0  140.79   31.70
   4   7   0  171.68   25.30
   5  -7   0  217.38   64.89
   5   7   0  129.09   38.50
  -5   7   0  124.99   32.10
   5   7   0  120.99   28.80
   0  -8   0 1274.77   88.09
   0   8   0 1297.47   65.09
  -1  -8   0  -10.00   33.30
   1  -8   0   53.49   30.20
   1   8   0   68.99   21.00
   2  -8   0   29.90   74.59
  -2  -8   0   14.80   33.50
   2  -8   0   26.90   31.10
  10   0  -1  172.98   56.89
   9   0  -1   57.89   44.90
   8   0  -1  175.38   37.30
   7   0  -1   19.00   26.80
   6   0  -1    6.80    8.60
   6   0  -1   13.70   19.50
   5   0  -1  112.09   11.10
   5   0  -1  117.39   22.10
  -4   0   1  167.58   22.60
  -4   0   1  184.88   11.30
   4   0  -1  156.78   24.60
   4   0  -1  178.68   11.30
  -3   0   1  637.14   23.20
   3   0  -1  641.14   23.40
   3   0  -1  615.14   31.30
  -2   0   1 2967.40   97.59
   2   0  -1 2988.80   92.09
   2   0  -1 2900.81   95.69
  -2   0   1 3114.49   92.09
   1   0  -1   30.80    5.60
  -1   0   1   32.50    5.30
   1   0  -1   33.70    4.80
  -1   0   1   36.10    4.40
   0   0   1  384.46   14.70
   0   0  -1  373.36   14.20
   0   0   1  345.67   14.10
   1   0   1  308.17   11.60
  -1   0  -1  309.67   13.40
   1   0   1  308.07   13.60
   2   0   1 2865.01   93.09
  -2   0  -1 2928.51   92.89
  -3   0  -1 2604.84   86.79
   3   0   1 2564.84   86.99
   4   0   1  101.19   16.20
   5   0   1 2122.99   80.29
   7   0   1 1397.36   90.59
   8   0   1   17.10   36.60
   9   0   1  159.38   56.59
  10   0   1  790.12   96.69
  10  -1  -1   49.99   51.59
   9  -1  -1  930.71   95.69
   8  -1  -1   14.70   29.30
   8   1  -1   51.39   37.80
   8   1  -1   15.80   13.00
   7  -1  -1  761.92   60.19
   7   1  -1  751.32   34.60
   6  -1  -1 1428.06   75.09
   6   1  -1 1422.66   52.39
   5  -1  -1  772.92   49.50
   5   1  -1  811.52   32.80
   4  -1  -1   50.19   15.00
  -4  -1   1   37.50   11.60
   4   1  -1   38.60    7.90
  -3  -1   1   41.60    7.20
   3  -1  -1   36.30   11.30
  -3  -1   1   28.90    8.50
   3   1  -1   41.90    6.80
  -3   1   1   20.10   15.60
  -2  -1   1 8005.30  251.57
   2  -1  -1 8400.16  259.27
  -2  -1   1 8353.16  250.87
  -2   1   1 8453.35  249.68
   2   1  -1 8212.78  250.87
  -2   1   1 8385.06  259.67
   1  -1  -1    9.00    6.90
  -1  -1   1    6.60    3.40
  -1  -1   1   -0.30    2.80
   1  -1  -1    4.70    3.80
  -1   1   1   -0.70    6.30
   1   1  -1    1.70    3.20
   0  -1  -1    2.20    4.00
   0  -1   1    0.80    2.60
   0   1  -1    3.70    2.50
   0   1   1    2.00    4.00
   1  -1   1 1196.98   37.10
   1  -1   1 1162.98   38.30
  -1  -1  -1 1159.28   40.70
  -1   1  -1 1156.58   38.00
  -1   1  -1 1180.68   37.00
   1   1   1 1127.39   40.40
   2  -1   1  818.22   30.60
  -2  -1  -1  759.22   31.20
   2   1   1  811.52   31.90
  -2   1  -1  783.82   29.70
  -2   1  -1  771.42   30.10
  -3  -1  -1  848.52   36.90
   3   1   1  903.51   37.40
  -3   1  -1  886.21   36.40
   4   1   1   44.40   11.10
   5  -1   1  593.04   54.89
   5   1   1  580.84   34.30
   5   1   1  571.54   25.50
   6  -1   1   49.30   24.60
   6   1   1   63.19   11.20
   6   1   1   58.89   14.50
   7  -1   1  -23.20   25.50
   7   1   1   23.20   11.40
   8  -1   1   20.80   31.80
   9  -1   1  -25.40   45.50
   9   1   1   48.40   54.09
  10  -1   1  -74.29   60.09
  10   1   1  -19.20   70.09
  10  -2  -1   27.10   59.19
  10   2  -1   33.40   20.30
   9  -2  -1   75.29   43.10
   9   2  -1  -18.90   15.90
   8  -2  -1  213.38   42.90
   8   2  -1  185.78   21.10
   7  -2  -1   20.50   24.20
   6  -2  -1   34.90   20.40
   6   2  -1   10.30    9.90
   5  -2  -1  253.57   36.00
   5   2  -1  274.77   20.30
   4  -2  -1  116.09   21.90
  -4  -2   1  107.49   16.40
   4   2  -1  147.69   14.20
  -3  -2   1   87.59   15.00
   3  -2  -1   94.79   17.90
  -3   2   1  105.69   25.10
   3   2  -1  101.19   13.20
  -3   2   1  112.69    9.70
   3   2  -1  104.19   11.90
  -3   2   1  109.49   13.80
  -2  -2   1 1641.24   54.89
   2  -2  -1 1596.44   67.19
   2  -2  -1 1662.83   57.39
  -2   2   1 1646.74   69.39
  -2   2   1 1697.33   58.59
   2   2  -1 1576.04   56.09
   2   2  -1 1581.94   54.99
   1  -2  -1   35.50    7.60
   1  -2  -1   20.70   11.80
  -1  -2   1   27.80    6.30
  -1  -2   1   30.00    8.40
  -1   2   1   37.00   13.60
   1   2  -1   30.00    6.70
  -1   2   1   39.20    8.70
   1   2  -1   39.40    7.00
   0  -2   1   12.50    8.60
   0  -2  -1   10.50    5.60
   0  -2   1   14.50    5.40
   0   2   1    9.20   11.00
   0   2   1   13.00    6.90
   0   2  -1   11.50   11.00
   0   2  -1   12.10    4.30
   0   2  -1   14.20    6.10
   0   2   1   15.70    6.20
  -1  -2  -1  130.79   12.50
  -1  -2  -1  156.78   14.20
   1  -2   1  158.68   14.00
   1  -2   1  137.99   22.00
  -1   2  -1  138.89   14.50
   1   2   1  139.39   11.90
  -1   2  -1  130.69    9.00
  -2  -2  -1 3680.93  117.99
   2  -2   1 3656.63  133.19
   2   2   1 3538.25  117.29
  -2   2  -1 3728.23  117.69
  -2   2  -1 3626.74  114.89
  -2   2  -1 3654.93  111.59
   3  -2   1 2374.96  101.29
  -3  -2  -1 2357.86   83.49
   3   2   1 2334.97   83.09
  -3   2  -1 2498.85   82.49
  -3   2  -1 2459.55   81.79
   4  -2   1  288.97   39.80
   4   2   1  254.87   21.90
   5  -2   1 1281.77   74.49
   5   2   1 1282.87   56.19
   5   2   1 1339.27   50.39
   6  -2   1   56.39   25.60
   6   2   1   43.00   12.70
   6   2   1   40.40   13.50
   7  -2   1 1000.20   75.49
   7   2   1  965.30   52.69
   7   2   1  799.72   40.10
   8  -2   1  -14.10   33.20
   8   2   1  -13.10   13.60
   9  -2   1  251.07   59.39
   9   2   1  299.97   30.40
   9   2   1  235.88   71.89
  10  -2   1  803.72   99.89
  10   2   1  522.75   41.30
  10   2   1  738.73  103.59
   9  -3  -1  644.44  100.59
   9   3  -1  661.03   45.50
   8  -3  -1  -10.90   34.00
   8   3  -1   13.90   18.40
   7  -3  -1  635.54   65.39
   7   3  -1  600.04   34.80
   6  -3  -1 1108.29   71.69
   6   3  -1 1050.39   47.50
   5  -3  -1  627.34   50.49
   5   3  -1  595.14   31.20
   4  -3  -1   11.40   10.80
   4  -3  -1   -9.20   13.10
   4   3  -1   15.00    9.20
   4   3  -1   -1.50    9.40
  -3  -3   1   22.40   10.90
   3  -3  -1   28.90   10.20
   3  -3  -1   17.60   15.80
   3   3  -1   23.70    8.80
   3   3  -1   27.00    9.30
   2  -3  -1 5175.08  167.38
   2  -3  -1 5297.27  183.58
   2   3  -1 5310.27  166.48
   2   3  -1 5202.08  162.58
  -1  -3   1   -3.00   12.10
  -1  -3   1   -0.20    5.80
   1  -3  -1   13.20   14.80
   1  -3  -1    1.50    6.30
   1   3  -1    2.50    8.50
  -1   3   1   11.20   18.20
  -1   3   1    2.00    7.70
   1   3  -1    3.80   15.70
   1   3  -1   -4.20    4.90
   0  -3  -1    3.90    7.20
   0  -3   1    0.50   10.70
   0  -3   1   -1.60    6.30
   0  -3  -1   -4.40   14.30
   0   3   1   13.80   10.30
   0   3   1    0.30    5.60
   0   3   1   -2.40   16.10
   0   3  -1    1.80    8.50
   0   3  -1   13.20   18.00
   0   3  -1   -2.50    5.00
   1  -3   1  659.43   31.70
   1  -3   1  697.03   42.40
  -1  -3  -1  659.03   34.90
  -1  -3  -1  666.63   31.40
   1   3   1  691.73   48.00
  -1   3  -1  658.83   27.20
   1   3   1  702.23   35.30
   1   3   1  664.63   29.80
  -1   3  -1  709.83   51.99
  -2  -3  -1  484.35   26.30
   2  -3   1  507.35   40.60
  -2  -3  -1  538.35   29.90
   2  -3   1  507.35   28.30
   2   3   1  461.45   50.09
   2   3   1  474.75   25.80
  -2   3  -1  499.95   21.30
   3  -3   1  558.64   45.70
   3   3   1  478.95   27.70
  -3   3  -1  492.05   28.00
   4  -3   1   19.00   17.40
   4   3   1   32.70   12.10
   5  -3   1  430.86   49.80
   5   3   1  417.16   30.40
   5   3   1  442.76   25.70
   6  -3   1   40.80   26.60
   6   3   1   44.70   12.20
   6   3   1   54.79   18.10
   7  -3   1   15.70   30.30
   7   3   1    9.00   14.20
   7   3   1   16.60   18.50
   8  -3   1  -10.10   34.10
   8   3   1    0.60   15.90
   9  -3   1    5.00   49.00
   9   3   1    9.20   20.40
   9  -4  -1   17.80   52.99
   9   4  -1  -13.80   27.00
   8  -4  -1   94.09   46.40
   8   4  -1   -5.20   20.00
   7  -4  -1   -5.90   33.10
   7   4  -1    5.10   15.90
   6  -4  -1   -7.60   15.00
   6  -4  -1    8.40   25.50
   6   4  -1   57.49   19.20
   5  -4  -1   71.89   17.30
   5  -4  -1   86.69   25.80
   5   4  -1   80.19   15.30
   4  -4  -1  129.39   23.10
   4  -4  -1   90.69   26.60
   4   4  -1  100.79   17.50
   4   4  -1  141.29   17.10
  -3  -4   1  190.38   27.70
   3  -4  -1  222.68   36.40
   3  -4  -1  244.28   23.80
   3   4  -1  237.48   19.60
   3   4  -1  227.48   21.70
   2  -4  -1 1149.69   49.90
   2  -4  -1 1151.78   65.39
  -2  -4   1 1132.59   48.00
   2   4  -1 1232.18   66.79
   2   4  -1 1084.99   46.50
   1  -4  -1    5.70    7.70
  -1  -4   1   23.80   19.20
   1  -4  -1   16.40   21.60
  -1  -4   1    2.00    8.40
  -1   4   1    4.50    9.80
   1   4  -1   -5.30   26.20
   1   4  -1    2.60    6.90
   0  -4   1  183.18   20.30
   0  -4  -1  157.98   19.50
   0  -4   1  117.49   22.50
   0   4   1  140.69   16.80
   0   4  -1  157.48   15.40
  -1  -4  -1   98.09   17.80
  -1  -4  -1   69.29   18.60
   1  -4   1   53.59   11.50
   1  -4   1   74.79   25.70
   1   4   1   80.99   14.70
   2  -4   1 1330.57   54.69
  -2  -4  -1 1285.77   53.19
  -2   4  -1 1298.27   48.10
   2   4   1 1320.37   52.29
   3  -4   1 1279.17   70.69
   3  -4   1 1182.78   52.29
  -3   4  -1 1214.58   43.50
  -3   4  -1 1098.79   48.00
   3   4   1 1129.79   50.09
   4  -4   1   63.99   21.70
   4   4   1   66.49   13.80
   5  -4   1 1160.88   76.99
   5   4   1 1074.09   49.10
   5   4   1 1084.49   53.49
   6  -4   1   54.29   30.30
   6   4   1   60.59   15.00
   7  -4   1  889.01   84.89
   7   4   1 1043.80   64.59
   7   4   1  989.10   51.49
   8   4   1    9.80   18.90
   8   4   1   15.80   26.90
   9  -4   1  202.78   62.59
   9   4   1  287.77   40.40
   8  -5  -1   80.79   54.79
   8   5  -1  103.19   27.40
   7  -5  -1  401.36   65.19
   7   5  -1  428.96   38.20
   6  -5  -1  718.13   53.09
   6  -5  -1  737.13   81.29
   6   5  -1  680.43   43.70
   5  -5  -1  387.56   59.69
   5  -5  -1  374.86   38.30
   5   5  -1  396.06   31.20
   4  -5  -1   24.10   13.70
   4  -5  -1  -34.70   24.80
   4   5  -1   19.90   12.00
   4   5  -1   17.90   17.90
   3  -5  -1   18.70   12.50
   3  -5  -1   44.30   27.80
   3   5  -1   54.29   12.40
   2  -5  -1 2601.84  121.89
   2  -5  -1 2572.14   96.79
  -2  -5   1 2614.44   94.19
   2   5  -1 2590.74   93.59
  -2   5   1 2487.55   96.99
   1  -5  -1   -1.10    9.50
  -1  -5   1   -7.90    9.40
   1  -5  -1   -0.70   23.70
  -1  -5   1    9.50   27.10
  -1   5   1    6.50   10.50
   0  -5  -1   -6.20    9.50
   0  -5   1   -5.60    9.50
   0  -5   1  -16.40   21.90
   0   5  -1  -14.60    8.20
   0   5   1    6.10   11.20
   1  -5   1  460.55   48.60
  -1  -5  -1  449.56   31.30
   1  -5   1  466.55   31.90
   1   5   1  475.75   29.50
  -1   5  -1  416.96   24.60
  -2  -5  -1  219.58   25.20
   2  -5   1  288.27   43.40
   2  -5   1  216.88   25.30
   2   5   1  229.38   24.40
  -2   5  -1  240.28   19.80
   3  -5   1  280.67   48.40
   3  -5   1  300.17   29.90
   3   5   1  279.47   28.80
  -3   5  -1  323.17   21.90
   4  -5   1   33.80   26.40
  -4   5  -1    1.70    9.50
   4   5   1   34.40   14.70
   4   5   1   20.10   11.90
   5  -5   1  361.06   58.89
   5   5   1  390.26   38.70
   5   5   1  269.17   27.90
   6  -5   1   48.40   35.30
   6   5   1   33.30   18.10
   6   5   1  -32.40   22.20
   7  -5   1   -1.50   36.00
   7   5   1    9.90   30.00
   8  -5   1   54.49   48.60
   8   5   1   19.40   23.70
   8   5   1   49.50   38.50
   7  -6  -1  -11.20   54.79
   7   6  -1  -16.00   22.90
   6  -6  -1  -12.60   42.70
   6  -6  -1    9.20   24.70
   6   6  -1    1.60   19.30
   5  -6  -1  173.68   51.69
   5  -6  -1  109.59   26.30
   5   6  -1   47.80   22.30
  -5   6   1  111.69   16.70
   4  -6  -1   35.50   37.50
   4  -6  -1   59.99   19.90
   4   6  -1   59.09   17.00
  -4   6   1   87.89   14.60
  -4   6   1   74.39   21.50
   3  -6  -1   47.90   16.90
   3  -6  -1   35.70   34.80
   3   6  -1   46.00   15.50
  -3   6   1   19.90   16.90
   2  -6  -1  419.16   60.09
  -2  -6   1  459.65   38.40
   2  -6  -1  474.25   38.80
  -2   6   1  474.55   35.60
   2   6  -1  504.95   32.60
   1  -6  -1   -7.70   13.70
   1  -6  -1  -27.20   31.30
  -1  -6   1   10.90   13.30
  -1   6   1   -4.30   13.10
   0  -6   1   29.60   36.30
   0  -6  -1   30.20   13.00
   0  -6   1   27.90   13.70
   0   6  -1   61.49   12.60
   0   6   1   27.40   14.50
   1  -6   1   10.00   30.30
  -1  -6  -1   29.50   14.10
   1  -6   1   39.20   15.60
   1   6   1   21.00   14.90
  -1   6  -1   27.40   11.20
   2  -6   1  918.71   51.69
   2  -6   1  843.32   79.19
  -2  -6  -1  937.41   51.49
   2   6   1  902.01   45.10
  -2   6  -1  949.31   42.30
   2   6   1  862.31   45.50
  -3  -6  -1  709.53   49.99
   3  -6   1  701.73   75.49
   3   6   1  713.23   41.00
   3   6   1  868.91   45.80
  -3   6  -1  719.43   35.70
   4  -6   1   76.79   36.70
   4   6   1   87.59   18.70
  -4   6  -1   78.49   15.30
   5  -6   1  585.64   81.39
   5   6   1  484.65   38.70
   5   6   1  608.54   53.79
   6  -6   1    0.30   40.40
   6   6   1  -14.70   35.00
   6   6   1  -48.10   22.00
   7  -6   1  510.35   78.09
   7   6   1  456.75   77.89
   7   6   1  417.96   45.10
   5  -7  -1  227.48   63.79
   5  -7  -1  162.88   36.80
  -5   7   1  127.59   22.60
  -5   7   1  149.39   36.50
   4  -7  -1  -19.40   51.09
   4  -7  -1   15.70   24.50
   4   7  -1   25.20   19.70
  -4   7   1   -3.50   15.60
   3  -7  -1  -11.40   49.40
   3  -7  -1   12.20   23.40
  -3   7   1  -38.00   20.30
   3   7  -1   14.20   17.70
  -3   7   1    7.20   14.60
   2  -7  -1 1324.67   73.39
   2  -7  -1 1115.99  117.19
  -2   7   1 1354.36   56.79
   2   7  -1 1282.37   62.09
  -2   7   1 1159.88   62.39
  -1  -7   1   14.00   18.40
   1  -7  -1   -5.90   19.60
  -1   7   1   43.60   13.90
   1   7  -1   -8.30   14.70
  -1   7   1   46.70   18.90
   0  -7  -1    8.70   18.90
   0  -7   1   20.10   18.60
   0   7   1    8.10   14.20
   0   7  -1  -14.90   13.40
   1  -7   1  182.38   28.90
  -1  -7  -1  178.08   28.80
   1  -7   1  207.88   57.19
   1   7   1  246.48   26.60
  -1   7  -1  187.28   25.30
   1   7   1  213.18   33.30
  -2  -7  -1   80.99   27.90
   2  -7   1  128.09   50.89
  -2   7  -1   97.29   19.60
   2   7   1  107.09   20.10
   2   7   1   50.59   25.10
  -3  -7  -1  161.18   36.00
   3  -7   1   66.29   54.29
   3   7   1  100.39   21.30
  -3   7  -1  105.69   19.60
   4  -7   1   34.00   54.69
   4   7   1  132.79   35.50
  -4   7  -1   74.89   22.30
   4   7   1   48.60   19.30
   5  -7   1  246.98   64.29
   5   7   1  146.59   39.00
   5   7   1  182.98   32.60
   2  -8  -1  246.18   41.70
  -2   8   1  203.48   29.50
   2   8  -1  226.98   35.10
   1  -8  -1  -14.50   29.70
  -1   8   1   41.70   20.80
   1   8  -1   23.40   19.30
   0  -8  -1   73.79   33.00
   0   8   1   50.29   22.10
   0   8  -1   41.30   19.90
  -1  -8  -1    9.20   33.50
   1   8   1   44.40   20.20
  -1   8  -1   32.20   20.00
  -2  -8  -1  415.66   55.69
   2   8   1  398.46   38.20
  -2   8  -1  266.47   35.90
  10   0  -2  121.19   48.80
   9   0  -2  222.78   43.00
   8   0  -2  386.86   46.10
   7   0  -2  208.08   33.80
   7   0  -2  210.98   23.40
   6   0  -2   38.80   19.70
   6   0  -2   25.80   11.00
  -6   0   2   35.00   11.20
  -5   0   2  339.97   19.40
   5   0  -2  283.77   31.40
   5   0  -2  337.87   20.30
   4   0  -2 2302.17   73.49
  -4   0   2 2096.09   71.79
  -3   0   2   -9.40   10.50
  -3   0   2    1.20    5.40
   3   0  -2   -0.60    5.70
  -2   0   2   13.10    5.20
  -2   0   2    3.60    7.10
   2   0  -2   11.90    5.80
   1   0  -2  300.77   16.20
  -1   0   2  302.97   15.40
   0   0   2   48.70    9.00
   0   0  -2   63.19    9.80
   0   0   2   48.30    7.80
   0   0  -2   38.90    7.40
  -1   0  -2   23.80    6.10
  -1   0  -2   24.90    5.70
   1   0   2   21.30    5.90
   1   0   2   18.50    5.60
  -2   0  -2  325.97   18.90
   2   0   2  339.37   15.30
   2   0   2  342.67   19.30
  -3   0  -2   32.50    9.60
   3   0   2   33.40    9.60
   3   0   2   42.00    6.90
   4   0   2  307.17   23.10
   4   0   2  305.17   15.10
   5   0   2 1078.99   49.40
   6   0   2   16.50   12.10
   9   0   2  395.96   75.19
  10   0   2   51.49   70.09
  10  -1  -2   72.49   49.50
   9  -1  -2   19.60   36.80
   9   1  -2   15.50   16.60
   8  -1  -2  111.49   32.10
   8   1  -2  116.89   17.00
   7  -1  -2  412.66   48.60
   7   1  -2  432.46   27.50
   6  -1  -2  223.58   31.80
   6   1  -2  220.18   19.50
   5  -1  -2  137.49   18.20
   5  -1  -2  156.48   23.60
   5   1  -2  165.68   16.40
  -5   1   2  147.99   13.30
   4  -1  -2 3501.25  124.09
  -4  -1   2 3540.25  111.69
  -4  -1   2 2994.90  118.29
   4   1  -2 3620.04  112.09
  -4   1   2 3646.04  109.29
  -4   1   2 3513.25  130.99
   3  -1  -2    4.70   11.20
  -3  -1   2   11.70    6.90
   3  -1  -2   11.70    7.60
  -3   1   2   11.40    6.70
  -3   1   2    9.70   13.70
   3   1  -2   13.60    5.80
   2  -1  -2  378.86   30.00
  -2  -1   2  344.47   17.40
   2  -1  -2  379.76   18.60
   2   1  -2  349.77   17.40
  -2   1   2  343.67   19.00
  -2   1   2  372.96   27.40
  -1  -1   2  458.75   20.20
  -1   1   2  490.75   31.70
  -1   1   2  527.95   20.80
   1   1  -2  501.75   20.60
   0  -1   2 4754.22  144.29
   0  -1  -2 4616.14  149.09
   0   1  -2 4677.03  144.09
   0   1   2 4637.24  148.99
   0   1   2 4809.02  144.19
   1  -1   2 4516.35  137.09
   1  -1   2 4518.05  137.39
  -1  -1  -2 4433.26  141.49
   1   1   2 4346.87  141.39
  -1   1  -2 4571.54  137.09
  -1   1  -2 4476.55  137.29
  -2  -1  -2  524.25   26.50
   2  -1   2  564.74   24.40
   2  -1   2  549.54   20.50
  -2   1  -2  568.74   24.20
   2   1   2  542.05   26.50
  -2   1  -2  531.35   21.80
  -3  -1  -2 2515.85   88.29
   3  -1   2 2586.14   86.69
  -3   1  -2 2645.04   86.79
   3   1   2 2429.86   87.59
   4  -1   2   21.60   10.10
   4   1   2    9.40    8.50
   5  -1   2 1837.42   71.09
   5   1   2 1739.13   70.89
   6   1   2   33.40   12.50
   7  -1   2  136.99   40.30
   7   1   2  205.78   20.70
   7   1   2  142.79   23.60
   8  -1   2  651.13   82.89
   9  -1   2   61.29   46.70
  10  -1   2   41.50   61.09
  10   1   2   15.80   77.49
  10  -2  -2   27.90   58.39
  10   2  -2   67.59   22.80
   9  -2  -2  305.07   54.99
   9   2  -2  194.08   28.10
   8  -2  -2  692.03   72.69
   8   2  -2  687.63   36.40
   7  -2  -2  162.68   31.90
   7   2  -2  159.88   19.50
   6  -2  -2  -23.10   17.00
   5  -2  -2  155.68   26.70
   5   2  -2  158.08   17.60
  -5   2   2  165.28   15.10
   4  -2  -2 1373.06   67.79
  -4  -2   2 1333.97   55.19
   4   2  -2 1400.86   51.79
  -4   2   2 1332.77   49.30
   3  -2  -2   96.09   20.70
  -3  -2   2   79.59   12.10
   3  -2  -2   78.89   12.00
  -3   2   2   91.49   13.00
   3   2  -2  100.89   11.70
  -2  -2   2    7.50    7.60
   2  -2  -2    1.90   13.10
   2  -2  -2   13.80    7.60
  -2   2   2   10.60   15.40
   2   2  -2    9.90    6.00
  -2   2   2    9.90    6.20
   1  -2  -2  874.41   36.60
  -1  -2   2  912.01   34.70
   1   2  -2  869.01   34.80
   1   2  -2  882.01   33.90
  -1   2   2  890.81   49.30
   0  -2   2  165.88   12.40
   0  -2  -2  166.58   16.40
   0  -2   2  194.38   25.90
   0   2   2  168.98   16.30
   0   2  -2  166.38   15.60
   0   2   2  165.68   26.10
   0   2  -2  166.28   11.50
  -1  -2  -2   20.90   10.10
   1  -2   2   21.90    6.10
   1  -2   2   18.90   14.70
  -1   2  -2   18.00    7.80
   1   2   2   19.60    7.00
  -1   2  -2   21.20    5.40
  -2  -2  -2   19.90    9.40
   2  -2   2   19.90    5.20
   2  -2   2   23.50   18.50
  -2   2  -2   10.50    8.30
  -2   2  -2   15.30    6.40
   2   2   2    9.50    7.20
  -2   2  -2   16.80    5.00
   3  -2   2   28.50   21.80
   3   2   2   10.00    8.20
  -3   2  -2    5.00    8.60
  -3   2  -2   -5.20    8.60
   4  -2   2   61.69   23.60
   4   2   2   39.10   12.00
   5  -2   2  581.64   56.89
   5   2   2  595.04   35.50
   6  -2   2   67.29   28.90
   6   2   2   59.39   16.00
   7  -2   2  116.59   33.90
   7   2   2  127.89   24.80
   7   2   2  181.38   19.60
   8  -2   2  183.78   43.70
   8   2   2  122.19   26.30
   8   2   2  169.98   20.30
   9  -2   2  439.96   77.39
   9   2   2  499.85   33.70
   9  -3  -2  -10.90   48.50
   9   3  -2  -17.80   19.20
   8  -3  -2  128.29   43.40
   8   3  -2   82.69   18.70
   7  -3  -2  344.47   47.60
   7   3  -2  304.87   27.80
   6  -3  -2  164.68   34.10
   6   3  -2  214.88   20.80
   5  -3  -2  111.49   25.50
   5   3  -2  123.69   16.90
  -4  -3   2 2539.15   91.69
   4  -3  -2 2566.54   91.19
   4  -3  -2 2647.34  111.29
  -4   3   2 2564.24   85.99
   4   3  -2 2564.54   89.89
   3  -3  -2   -0.30    9.10
  -3  -3   2   12.20   10.10
   3  -3  -2   16.80   17.90
   3   3  -2    4.70    8.00
  -3   3   2    3.00    8.60
   2  -3  -2  281.87   38.70
   2  -3  -2  302.57   23.90
   2   3  -2  285.57   19.00
   1  -3  -2  301.77   23.20
   1  -3  -2  328.37   41.60
  -1  -3   2  308.07   25.80
   1   3  -2  344.57   19.60
  -1   3   2  332.27   24.90
   1   3  -2  303.87   24.90
   0  -3  -2 2671.43   92.29
   0  -3   2 2804.22  100.29
   0   3   2 2629.14   93.99
   0   3  -2 2645.54   88.59
  -1  -3  -2 2469.15   86.89
  -1  -3  -2 2451.65   92.09
   1  -3   2 2567.24  101.69
  -1   3  -2 2527.55   82.59
   1   3   2 2550.74   88.29
   2  -3   2  329.87   40.60
  -2  -3  -2  332.27   23.10
  -2   3  -2  323.27   17.10
   2   3   2  329.67   23.50
   3  -3   2 1914.91   92.09
   3   3   2 1760.42   68.89
  -3   3  -2 1804.02   58.79
  -3   3  -2 1725.23   63.79
   4  -3   2    8.60   19.00
   4   3   2   21.90    8.90
   5  -3   2 1310.67   84.09
   5   3   2 1420.36   62.49
   6  -3   2    0.80   25.00
   6   3   2   -1.30   13.20
   7  -3   2  113.49   36.50
   7   3   2  113.79   25.10
   7   3   2  165.78   23.90
   8  -3   2  660.03   93.59
   8   3   2  646.84   57.39
   8   3   2  606.84   40.00
   9  -3   2  180.58   58.39
   9  -4  -2  117.39   64.19
   9   4  -2  176.78   30.70
   8  -4  -2  385.16   66.69
   8   4  -2  510.75   39.10
   7  -4  -2  160.88   41.00
   7   4  -2  226.48   29.00
   6  -4  -2   18.20   29.80
   6   4  -2   50.79   17.60
   5  -4  -2  152.98   34.60
   5  -4  -2  174.18   27.60
   5   4  -2  209.38   21.60
  -5   4   2  150.58   22.00
   4  -4  -2 1049.30   71.39
  -4  -4   2 1084.59   67.09
   4  -4  -2 1067.59   51.09
   4   4  -2 1105.29   48.40
   3  -4  -2    0.20   20.50
   3  -4  -2   -8.00    9.00
   2  -4  -2    7.30    8.00
   2  -4  -2    6.00   19.30
   2   4  -2   15.90    7.40
  -2   4   2   26.40   13.20
  -1  -4   2  275.17   35.60
   1  -4  -2  245.98   21.80
  -1   4   2  229.38   25.50
   1   4  -2  257.27   17.90
   0  -4   2    7.50   17.30
   0  -4  -2   17.50    9.10
   0   4  -2   21.00    8.40
   0   4   2   23.40   10.10
   1  -4   2    3.20   18.40
  -1  -4  -2    3.70    9.60
   1   4   2    6.30    9.50
  -1   4  -2   11.00    7.60
  -2  -4  -2   65.79   13.40
   2  -4   2   63.39   20.70
  -2   4  -2   77.89   12.60
   2   4   2   66.29   13.90
   3  -4   2   41.30   19.50
   3   4   2   30.50    9.60
  -3   4  -2   32.60    8.50
   4  -4   2  201.58   34.80
   4   4   2   99.69   17.40
   5  -4   2  642.44   62.39
   5   4   2  501.35   37.70
   6  -4   2   17.20   27.60
   6   4   2   19.10   14.20
   6   4   2   14.70   16.20
   7  -4   2   39.60   35.40
   7   4   2   71.29   17.70
   7   4   2    2.20   23.40
   8  -4   2  118.39   47.60
   8   4   2  159.38   36.50
   8   4   2  157.48   27.60
   8  -5  -2   72.09   60.99
   8   5  -2  -37.80   24.80
   7  -5  -2  302.47   61.99
   7   5  -2  256.57   35.80
   6  -5  -2  140.59   45.60
   6  -5  -2  107.19   24.20
   6   5  -2  110.29   24.20
   5  -5  -2   53.69   38.00
   5  -5  -2   66.19   19.60
   5   5  -2   39.40   14.70
   4  -5  -2 1352.46   91.69
   4  -5  -2 1351.56   63.29
   4   5  -2 1378.96   60.39
   3  -5  -2   12.40   29.00
   3  -5  -2   -3.30   11.60
   3   5  -2   18.30   10.60
  -3   5   2   26.20   14.90
   2  -5  -2  117.89   31.70
   2  -5  -2  128.69   21.80
   2   5  -2  111.59   16.90
  -2   5   2   92.89   17.70
   1  -5  -2  187.08   24.10
  -1  -5   2  211.68   36.00
  -1   5   2  165.08   25.00
   1   5  -2  161.38   17.50
   0  -5   2 1565.24   80.89
   0  -5  -2 1443.86   62.99
   0   5   2 1584.84   64.39
   0   5  -2 1463.05   58.69
  -1  -5  -2 1324.87   56.39
   1  -5   2 1340.37   73.59
  -1   5  -2 1338.17   51.29
   1   5   2 1110.89   53.09
  -2  -5  -2  161.28   22.40
   2  -5   2  191.68   33.40
   2   5   2  182.38   23.30
  -2   5  -2  140.49   16.00
  -3  -5  -2  866.11   43.90
   3  -5   2  816.52   66.79
   3   5   2  836.22   44.90
  -3   5  -2  876.51   37.20
   4  -5   2   30.40   26.70
   4   5   2   47.00   16.20
   5  -5   2  805.12   75.09
   5   5   2  838.32   52.89
   6  -5   2  -17.40   32.30
   6   5   2   -9.10   14.90
   6   5   2    8.80   23.20
   7  -5   2  103.09   44.50
   7   5   2  128.99   26.10
   7   5   2   84.79   33.90
   8  -5   2  494.65   77.79
   7  -6  -2   69.29   31.30
   7   6  -2   -2.80   24.50
   6  -6  -2  -17.70   24.80
   6  -6  -2  -77.29   46.60
   6   6  -2  -36.10   21.00
   5  -6  -2   79.89   24.60
   5  -6  -2   44.30   45.50
   5   6  -2   67.89   18.90
   4  -6  -2  571.44   83.89
   4  -6  -2  553.54   49.50
  -4   6   2  511.05   52.99
   4   6  -2  446.76   36.30
   3  -6  -2   23.30   38.70
   3  -6  -2    2.10   15.10
   3   6  -2   -1.20   13.10
  -3   6   2    8.00   18.80
   2  -6  -2   20.20   14.90
  -2   6   2   24.50   16.70
   2   6  -2   -7.30   11.40
   1  -6  -2  224.88   31.90
  -1  -6   2  190.98   41.60
  -1   6   2  304.77   32.60
   1   6  -2  254.47   23.80
   0  -6  -2   14.70   13.70
   0  -6   2   40.50   33.30
   0   6   2  -20.30   14.10
   0   6  -2   11.30   10.40
   1  -6   2   28.10   30.10
  -1  -6  -2   -3.40   12.10
   1   6   2  -20.00   14.00
  -1   6  -2    6.50   10.50
   2  -6   2   14.90   31.30
  -2  -6  -2   -0.40   13.90
  -2   6  -2   -7.60   10.60
   2   6   2   40.70   16.00
   3  -6   2  -13.70   31.00
  -3  -6  -2   25.90   18.30
   4  -6   2   34.10   36.40
  -4   6  -2   67.19   15.90
   5  -6   2  281.27   56.09
   5   6   2  263.97   32.20
   6  -6   2  115.79   47.50
   6   6   2   85.39   34.60
   5  -7  -2   18.50   31.50
   5  -7  -2   71.39   63.49
  -5   7   2    1.30   19.80
  -5   7   2  -19.60   38.10
   4  -7  -2  787.32  120.19
   4  -7  -2  717.73   69.19
  -4   7   2  693.53   42.00
  -4   7   2  937.61   70.89
   4   7  -2  705.03   47.80
   3  -7  -2  -24.00   22.90
   3   7  -2  -24.40   17.20
   2  -7  -2   89.19   27.00
  -2   7   2   79.69   23.50
   2   7  -2   91.69   23.00
   1  -7  -2   82.39   22.30
  -1   7   2   87.19   22.70
   1   7  -2   73.29   21.20
   0  -7  -2  619.34   54.09
   0  -7   2  596.34   75.59
   0   7  -2  653.83   39.70
  -1  -7  -2  597.54   53.99
   1  -7   2  588.74   77.09
   1   7   2  512.15   44.00
  -1   7  -2  590.24   36.80
  -2  -7  -2   53.29   26.10
   2  -7   2  119.19   52.19
  -2   7  -2   79.19   17.50
  -3  -7  -2  486.65   72.99
   3   7   2  516.75   37.50
  -3   7  -2  433.76   33.90
   4  -7   2   13.20   51.39
   4   7   2   19.60   22.30
   5   7   2  361.86   37.00
   1  -8  -2  109.79   38.20
   1   8  -2  104.09   23.40
  -1   8   2  185.18   26.30
   0  -8  -2   -9.40   32.80
   0   8   2  -32.90   25.30
   0   8  -2  -34.90   19.30
  -1  -8  -2  -19.60   37.80
   1   8   2   16.10   18.50
  -1   8  -2   -4.20   20.00
   9   0  -3  284.77   36.00
   8   0  -3   76.09   22.20
   7   0  -3   46.20   17.10
   6   0  -3 2744.83   95.69
   5   0  -3   10.90   10.80
   5   0  -3   -8.70   17.20
  -4   0   3  500.45   26.20
   4   0  -3  546.65   28.20
  -4   0   3  610.34   45.70
   3   0  -3  569.64   27.80
  -3   0   3  554.84   33.30
  -3   0   3  566.34   26.60
  -2   0   3 1692.33   59.79
   2   0  -3 1732.13   60.99
  -2   0   3 1707.73   67.89
  -1   0   3 1730.63   63.09
   1   0  -3 1935.31   64.59
   0   0  -3 1041.10   40.30
   0   0  -3 1062.79   42.60
   0   0   3 1078.39   41.10
   0   0   3 1057.99   41.20
  -1   0  -3 2666.13   87.79
   1   0   3 2733.93   87.89
   1   0   3 2673.43   87.39
  -1   0  -3 2445.16   85.29
  -2   0  -3   99.19   15.00
   2   0   3  100.69   13.10
   2   0   3  113.69   14.40
   3   0   3 1075.39   40.30
   3   0   3 1060.69   44.60
   4   0   3   31.60   11.30
   4   0   3   28.60   10.10
   5   0   3    8.40   11.00
   5   0   3    1.10    9.40
   6   0   3  487.65   36.20
   7   0   3   44.40   18.20
   9   0   3  -41.10   55.69
  10  -1  -3  204.88   64.09
  10   1  -3  171.68   28.60
   9  -1  -3   57.19   41.80
   9   1  -3  -13.90   18.30
   8  -1  -3  111.59   34.10
   8   1  -3   94.99   17.90
   7  -1  -3  269.17   38.30
   7  -1  -3  289.17   27.00
   7   1  -3  326.47   24.40
   6  -1  -3   65.39   15.90
   6  -1  -3   76.49   25.70
   6   1  -3   74.19   14.50
  -6   1   3   78.59   14.40
   5  -1  -3   30.20   18.70
   5  -1  -3   26.80   13.70
  -5   1   3   32.60   11.40
   5   1  -3   46.60   11.60
   4  -1  -3  191.28   29.20
   4  -1  -3  178.48   19.40
  -4   1   3  166.78   18.30
   4   1  -3  196.88   16.20
  -4   1   3  180.58   29.70
  -3  -1   3  229.48   17.90
   3  -1  -3  245.18   18.80
  -3   1   3  284.87   20.60
  -3   1   3  273.47   34.10
   3   1  -3  261.27   17.20
  -2  -1   3 1472.65   53.29
   2  -1  -3 1417.06   54.09
  -2   1   3 1473.85   66.29
  -2   1   3 1519.85   55.19
   2   1  -3 1565.24   53.59
  -1  -1   3  725.93   30.20
   1  -1  -3  722.23   30.40
  -1   1   3  697.53   33.80
  -1   1   3  710.63   30.70
   1   1  -3  737.03   29.90
   0  -1  -3    7.90   10.30
   0  -1   3    4.50    5.30
   0  -1   3    9.90    6.80
   0   1   3    2.50    6.00
   0   1  -3    0.50    4.70
   0   1   3    5.00    6.40
  -1  -1  -3  105.29   17.40
   1  -1   3  117.89   12.10
   1  -1   3  126.99   12.30
  -1   1  -3  110.79   12.80
  -1   1  -3  108.79   12.60
   1   1   3  113.49   14.30
   1   1   3  111.79   11.50
   2  -1   3  229.38   16.40
   2  -1   3  222.98   15.20
  -2  -1  -3  252.27   21.20
   2   1   3  217.38   15.30
  -2   1  -3  220.78   17.40
   2   1   3  259.47   20.20
  -2   1  -3  219.88   15.50
   3  -1   3 3285.27  110.09
   3  -1   3 3130.89  104.09
  -3   1  -3 3444.36  110.29
   3   1   3 3285.27  112.99
   4  -1   3   42.70   14.20
   4   1   3   44.10   12.70
   5  -1   3  401.16   29.60
   5   1   3  378.96   29.60
   6  -1   3  791.02   45.30
   6   1   3  844.22   47.20
   7   1   3  896.81   53.49
   8  -1   3   74.79   44.40
   8   1   3   64.59   25.10
   9  -1   3   15.20   47.90
   9  -2  -3  418.66   64.29
   9   2  -3  335.97   34.60
   8  -2  -3  154.28   41.30
   8   2  -3  100.39   19.00
   7  -2  -3    8.40   26.80
   7   2  -3   11.50   11.80
   6  -2  -3 1930.01   93.29
  -6   2   3 1816.52   65.89
   6   2  -3 1851.01   69.59
   5  -2  -3   10.60   17.70
  -5   2   3    6.70   12.30
   5   2  -3    1.90    7.20
   4  -2  -3  163.18   30.00
  -4   2   3  200.78   21.80
   4   2  -3  187.88   17.40
   3  -2  -3  761.82   36.20
  -3  -2   3  804.42   36.60
   3  -2  -3  786.42   55.99
   3   2  -3  805.92   35.00
  -3   2   3  792.02   36.40
   2  -2  -3 1803.62   66.69
   2   2  -3 1800.42   63.69
  -2   2   3 1769.92   62.79
  -1  -2   3 2409.56   81.89
  -1   2   3 2511.95   88.89
  -1   2   3 2384.26  102.19
  -1   2   3 2391.06   80.79
   1   2  -3 2463.55   81.79
   0  -2   3  779.42   31.50
   0   2   3  720.23   36.40
   0   2  -3  747.93   30.70
  -1  -2  -3 1103.69   56.69
   1  -2   3 1320.17   45.70
  -1   2  -3 1336.27   45.30
   1   2   3 1226.68   51.59
   2  -2   3    9.80    6.80
   2  -2   3    5.30    7.10
  -2   2  -3    1.60    8.00
  -2   2  -3   11.60    6.30
   2   2   3   19.20    9.70
   3  -2   3  626.44   31.90
   3  -2   3  615.04   25.50
  -3   2  -3  655.03   33.00
   3   2   3  616.04   34.90
  -3   2  -3  616.54   27.10
   4  -2   3  131.59   20.90
   4   2   3  117.39   18.60
   5   2   3    1.20   10.90
   6  -2   3  603.44   69.19
   6   2   3  709.73   43.70
   7  -2   3   20.60   35.00
   7   2   3   28.60   17.90
   8  -2   3  111.59   45.30
   8   2   3   90.89   26.70
   8   2   3   64.39   17.20
   9  -2   3   21.40   48.40
   9   2   3   28.10   28.90
   9  -3  -3   -4.40   54.49
   9   3  -3  -17.30   20.10
   8  -3  -3  118.29   44.00
   8   3  -3  105.39   21.10
   7  -3  -3  260.07   46.60
   7   3  -3  249.08   26.10
   6  -3  -3   27.20   26.50
   6   3  -3   33.50   13.30
   5  -3  -3   28.70   22.30
   5   3  -3   32.00   11.40
   4  -3  -3  136.89   29.50
  -4  -3   3  124.19   18.60
   4  -3  -3  127.89   21.70
   4   3  -3  129.29   16.20
   3  -3  -3  200.38   22.50
   3  -3  -3  182.58   32.80
   3   3  -3  200.38   16.90
   2  -3  -3  911.61   42.50
   2   3  -3  891.91   38.90
   1  -3  -3  497.05   30.30
  -1   3   3  549.15   34.20
   1   3  -3  487.35   26.00
   0  -3  -3    7.30    8.90
   0  -3   3   16.40   17.60
   0   3  -3    8.40    7.20
   0   3   3    0.00    7.60
  -1  -3  -3   63.59   12.90
   1  -3   3   41.00   22.60
   1   3   3   73.79   14.90
  -1   3  -3   69.89   10.30
  -2  -3  -3  196.78   24.10
   2  -3   3  165.08   32.80
   2  -3   3  170.78   16.50
  -2   3  -3  184.38   14.30
   2   3   3  186.78   22.00
   3  -3   3 2325.87  111.79
  -3  -3  -3 2457.95   88.39
   3  -3   3 2411.06   78.09
  -3   3  -3 2389.46   82.09
   3   3   3 2277.57   88.19
  -3   3  -3 2416.56   78.49
   4  -3   3   51.89   28.30
   5  -3   3  185.88   38.20
   5   3   3  247.88   28.60
   6  -3   3  685.73   72.29
   6   3   3  591.04   43.40
   7  -3   3  512.05   73.09
   7   3   3  640.34   48.70
   8  -3   3   40.30   41.70
   8   3   3   68.79   23.60
   8   3   3   48.00   26.30
   9  -3   3   59.09   57.39
   9   3   3   -4.70   23.20
   9   3   3   43.50   35.80
   8  -4  -3   44.40   52.49
   8   4  -3   38.80   20.80
   7  -4  -3   37.60   39.50
   7   4  -3   14.60   18.20
   6  -4  -3 1564.24   73.39
   6  -4  -3 1641.24  105.29
   6   4  -3 1627.34   69.09
   5  -4  -3   10.60   28.20
   5  -4  -3   28.00   12.90
   5   4  -3   18.20   12.50
   4  -4  -3  222.58   26.30
   4  -4  -3  218.88   41.10
   4   4  -3  236.48   21.60
   3  -4  -3  352.86   28.70
   3  -4  -3  285.77   49.50
   3   4  -3  323.77   23.50
   2  -4  -3  848.12   43.10
   2   4  -3  841.32   38.50
  -2   4   3  880.31   46.40
   1  -4  -3  911.41   44.00
   1   4  -3  906.11   39.20
  -1   4   3  892.11   47.40
   0  -4  -3  428.76   28.30
   0  -4   3  422.46   44.40
   0   4  -3  396.26   22.60
   0   4   3  324.97   27.20
  -1  -4  -3 1168.18   51.89
   1  -4   3 1167.58   70.09
   1   4   3 1197.78   53.39
  -1   4  -3 1209.98   47.20
  -2  -4  -3   30.90   11.30
   2  -4   3   49.70   22.60
   2   4   3   43.10   12.90
  -2   4  -3   41.50   10.30
   3  -4   3  450.55   53.49
  -3  -4  -3  500.25   31.90
   3   4   3  480.05   33.00
  -3   4  -3  501.95   24.80
   4  -4   3   27.50   25.50
   4   4   3   41.50   14.50
   5  -4   3  -18.40   27.10
   5   4   3   29.20   14.80
   6  -4   3  276.57   49.60
   6   4   3  294.27   41.80
   7  -4   3   13.50   38.00
   7   4   3   39.40   17.20
   7   4   3    3.00   22.90
   8  -4   3  108.49   51.49
   7  -5  -3   86.59   55.79
   7  -5  -3  162.78   31.70
   7   5  -3  151.18   26.90
   6  -5  -3   49.99   22.90
   6  -5  -3   27.20   44.50
   6   5  -3   98.19   22.20
   5  -5  -3   -0.70   15.70
   5  -5  -3  -47.40   33.70
   4  -5  -3   79.59   17.80
   4  -5  -3  126.79   40.00
   4   5  -3  130.09   19.70
   3  -5  -3   96.69   35.50
   3  -5  -3  106.19   19.50
  -3   5   3  113.59   22.20
   3   5  -3  131.69   19.20
   2  -5  -3  487.55   33.80
  -2   5   3  486.95   40.00
   2   5  -3  511.95   29.90
  -1  -5   3  208.48   33.80
   1  -5  -3  231.28   27.40
  -1   5   3  191.18   26.20
   1   5  -3  261.17   20.50
   0  -5  -3    7.90   11.50
   0  -5   3   16.00   24.10
   0   5  -3    5.00    9.00
   1  -5   3   23.80   23.20
  -1  -5  -3   40.60   13.30
   1   5   3   57.79   14.70
  -1   5  -3   37.60   10.40
  -2  -5  -3   48.60   14.50
   2  -5   3   96.59   28.60
   2   5   3   75.19   16.50
  -2   5  -3   78.49   12.30
  -3  -5  -3 1318.77   61.69
   3  -5   3 1174.08   82.79
  -3   5  -3 1249.77   50.59
   3   5   3 1404.16   62.99
   4  -5   3    8.80   28.50
  -4   5  -3   12.80   10.90
   4   5   3  -15.00   17.00
   5  -5   3  136.69   40.90
   5   5   3  257.17   41.00
   6  -5   3  387.06   62.49
   6   5   3  344.67   55.89
   7  -5   3  317.47   60.99
   7   5   3  463.65   38.20
   7   5   3  442.86   65.89
   6  -6  -3  622.24   76.09
   6  -6  -3  539.25   86.39
   6   6  -3  781.52   51.79
   5  -6  -3    0.00   23.30
   5  -6  -3   46.90   47.60
  -5   6   3   -7.20   29.90
   5   6  -3    2.10   20.40
   4  -6  -3   61.69   21.90
   4  -6  -3   37.20   45.70
   4   6  -3   96.29   21.80
  -4   6   3   76.49   28.50
   3  -6  -3  213.18   39.60
  -3   6   3  331.37   48.30
   3   6  -3  252.07   27.50
   2  -6  -3  534.95   40.40
   2   6  -3  491.75   33.30
  -2   6   3  387.16   42.80
  -1  -6   3  697.43   74.29
   1  -6  -3  659.83   45.40
  -1   6   3  689.33   46.20
   1   6  -3  618.14   36.70
   0  -6  -3  254.07   32.80
   0   6   3  212.58   34.20
   0   6  -3  282.27   25.30
  -1  -6  -3  401.66   36.90
   1  -6   3  435.16   67.49
  -1   6  -3  448.16   29.00
   1   6   3  333.57   37.10
   2  -6   3   -3.50   33.50
  -2  -6  -3    2.70   13.80
  -2   6  -3    7.80   11.60
   2   6   3    3.20   17.40
  -3  -6  -3  147.19   24.90
   3  -6   3  161.98   44.20
  -3   6  -3  208.78   20.70
   3   6   3  204.48   36.80
   4  -6   3   72.49   44.80
  -4   6  -3   52.19   13.10
   5  -6   3   32.30   46.00
   6  -6   3  467.85   78.19
   6   6   3  357.06   37.20
   6   6   3  370.26   53.29
   4  -7  -3   86.39   33.70
   4   7  -3   84.79   27.00
   3  -7  -3   59.89   26.70
   3   7  -3   64.39   21.00
   2  -7  -3  225.98   34.40
   2   7  -3  240.18   30.40
  -2   7   3  192.68   34.10
  -1  -7   3  146.79   57.19
   1  -7  -3  109.59   26.70
   1   7  -3   73.09   21.50
   0  -7   3  -40.80   48.90
   0  -7  -3    9.70   20.50
  -1  -7  -3   -1.10   23.50
   1  -7   3   13.00   52.59
   1   7   3   24.30   24.10
  -1   7  -3   11.20   15.70
   2  -7   3   90.29   52.29
  -2  -7  -3   34.10   28.00
   2   7   3    6.50   24.70
  -2   7  -3   54.69   17.70
  -3  -7  -3  679.93   81.59
   3  -7   3  767.72  113.69
   3   7   3  768.82   57.49
  -3   7  -3  716.33   40.00
  -4  -7  -3   57.59   44.60
   4  -7   3   64.39   59.59
  -4   7  -3   23.30   17.10
   9   0  -4  190.28   26.90
   8   0  -4   76.79   21.20
   7   0  -4    6.60   16.20
   6   0  -4  409.86   29.90
   5   0  -4   24.90   13.70
  -4   0   4 1389.96   70.79
   4   0  -4 1476.85   58.39
   3   0  -4 1129.49   48.00
  -3   0   4 1131.59   56.69
   2   0  -4   44.20   12.20
  -1   0   4  402.26   25.70
  -1   0   4  446.96   26.20
   1   0  -4  441.86   25.50
   0   0   4  105.49   14.60
   0   0   4  144.19   18.30
   0   0  -4  145.49   16.40
  -1   0  -4 5441.16  173.88
  -1   0  -4 5589.04  177.58
   1   0   4 5411.46  175.98
   1   0   4 5622.34  175.68
   2   0   4   -5.30   11.90
  -2   0  -4    6.50   11.70
   2   0   4    1.10    8.40
   3   0   4  143.59   21.90
   3   0   4  137.09   20.90
   4   0   4 1418.26   55.79
   4   0   4 1440.86   60.69
   5   0   4  967.20   44.80
   5   0   4 1004.40   50.59
   6   0   4   17.00   19.70
   6   0   4    4.20   15.40
   7   0   4   23.00   19.00
   8   0   4  804.52   62.19
   9  -1  -4  -16.80   50.89
   9   1  -4  -18.60   21.30
   8  -1  -4  892.81   87.09
   8  -1  -4  810.62   42.80
   8   1  -4  806.12   45.20
   7  -1  -4  -29.40   29.90
   7  -1  -4   11.90   17.70
   7   1  -4   20.40   13.70
   6  -1  -4   84.39   19.10
   6  -1  -4   70.49   31.60
   6   1  -4   70.39   14.70
   5  -1  -4  777.42   39.80
   5   1  -4  810.62   37.40
   4  -1  -4  151.98   20.80
   4   1  -4  185.08   19.00
   3  -1  -4  421.66   26.80
   3   1  -4  479.15   26.50
  -3   1   4  532.65   47.00
   2  -1  -4  663.03   33.10
  -2   1   4  606.54   53.09
   2   1  -4  697.73   31.80
  -1  -1   4  919.31   38.40
   1  -1  -4  890.81   38.90
  -1   1   4  935.81   43.30
   1   1  -4  952.60   39.10
   0  -1   4  242.98   20.60
   0  -1   4  296.07   18.70
   0   1   4  320.97   22.30
   0   1  -4  285.07   19.80
   1  -1   4   15.10    8.40
   1  -1   4    7.00    9.60
   1   1   4    3.70    8.40
  -1   1  -4    1.80   10.10
  -1   1  -4    7.20    9.10
   2  -1   4  297.47   22.30
   2  -1   4  265.37   21.30
   2   1   4  288.27   25.00
  -2   1  -4  278.67   20.00
  -2   1  -4  291.67   25.00
   3  -1   4  139.49   19.70
   3  -1   4  119.99   19.70
   3   1   4  135.99   21.60
  -3   1  -4  133.09   14.70
   4  -1   4  163.38   21.40
   4  -1   4  206.38   23.80
   4   1   4  152.78   21.90
   5  -1   4  144.69   25.20
   5   1   4  131.19   24.20
   6  -1   4  384.86   36.20
   6   1   4  399.16   34.90
   7  -1   4   63.59   19.90
   7   1   4   94.69   26.00
   8   1   4  314.77   49.40
   9  -1   4   26.80   57.39
   9   1   4    8.10   29.70
   9  -2  -4  171.18   58.39
   9   2  -4   89.79   24.00
   8  -2  -4   45.10   43.90
   8   2  -4   25.30   17.60
   7  -2  -4   51.99   35.20
   7   2  -4   58.69   16.50
   6  -2  -4  275.87   44.20
   6   2  -4  258.67   22.90
   5  -2  -4   34.60   24.90
   5   2  -4   23.90   10.50
   4  -2  -4 1571.64   64.09
   4   2  -4 1710.73   63.19
   3  -2  -4 1067.99   50.09
   3   2  -4 1083.49   44.70
   2   2  -4  180.08   16.60
  -1   2   4  152.28   20.80
   1   2  -4  149.49   15.20
   0   2   4   30.70    9.30
   0   2  -4   34.40    8.90
  -1   2  -4 3387.76  108.39
   1   2   4 3199.28  115.99
   2  -2   4    3.40    8.90
   2  -2   4   18.00   10.40
  -2   2  -4   10.30    9.10
  -2   2  -4   11.00   11.20
   2   2   4   14.60   10.10
   3  -2   4  277.17   20.40
   3  -2   4  296.77   24.80
   3   2   4  300.57   25.70
  -3   2  -4  309.77   29.40
  -3   2  -4  293.37   20.50
   4  -2   4 1486.15   54.09
   4  -2   4 1556.84   64.19
   4   2   4 1594.54   68.09
  -4   2  -4 1540.75   54.09
   5  -2   4 1064.99   50.89
   5   2   4  993.40   52.69
   6   2   4   27.40   17.20
   7  -2   4   34.20   38.90
   7   2   4    1.10   18.00
   8  -2   4  581.84   90.99
   8   2   4  732.03   63.79
   9  -2   4   35.60   53.89
   9   2   4    5.60   36.40
   9  -3  -4  -75.39   64.59
   9   3  -4   36.70   24.90
   8  -3  -4  761.42  108.19
   8   3  -4  720.73   45.30
   7  -3  -4   16.20   40.80
   7   3  -4   -4.90   15.10
   6  -3  -4   76.69   33.30
   6   3  -4   63.59   16.20
   5  -3  -4  612.64   39.40
   5  -3  -4  569.34   65.79
   5   3  -4  612.04   34.10
   4  -3  -4  138.39   23.40
  -4  -3   4  115.09   22.50
   4   3  -4  115.39   16.80
   3  -3  -4  314.57   25.70
   3   3  -4  287.67   21.10
   2  -3  -4  491.65   31.80
   2   3  -4  467.15   25.80
  -2   3   4  468.05   33.20
   1  -3  -4  712.73   40.50
   1   3  -4  771.02   34.20
  -1   3   4  759.72   42.20
   0  -3  -4  264.77   24.60
   0  -3   4  225.98   36.30
   0   3  -4  277.97   19.20
   0   3   4  233.88   22.30
   1  -3   4  -20.10   24.60
  -1   3  -4   14.80    8.40
   1   3   4   13.60    8.90
   2  -3   4  269.47   46.40
   2   3   4  225.28   23.10
  -2   3  -4  171.28   16.90
   3  -3   4   91.49   14.70
   3  -3   4  102.39   31.90
  -3   3  -4   86.79   13.80
   3   3   4  137.09   22.10
   4  -3   4  130.79   37.00
   4  -3   4  178.58   18.50
   4   3   4  154.58   25.50
   5  -3   4  105.99   36.70
   5   3   4   80.69   17.90
   6  -3   4  202.18   47.40
   6   3   4  277.87   36.50
   7  -3   4   42.90   42.70
   7   3   4   86.59   23.80
   8  -3   4  169.78   52.19
   8  -4  -4  -17.80   61.69
   8   4  -4   49.90   22.90
   7  -4  -4  -31.00   46.70
   7   4  -4   -3.40   17.40
   6  -4  -4  265.57   55.09
   6  -4  -4  322.57   44.30
   6   4  -4  270.37   29.00
   5  -4  -4   14.50   12.40
   5  -4  -4   14.70   32.90
   5   4  -4   12.40   12.70
   4  -4  -4  749.82   44.20
   4   4  -4  748.13   39.40
   3  -4  -4  620.74   39.50
   3   4  -4  677.43   35.20
  -3   4   4  648.24   44.30
   2  -4  -4   34.60   12.40
  -2   4   4   27.30   14.50
   2   4  -4   38.60   10.90
   1  -4  -4  191.58   25.10
  -1  -4   4  177.68   31.10
   1   4  -4  193.38   17.20
  -1   4   4  204.88   26.10
   0  -4   4   43.50   27.10
   0  -4  -4   57.89   14.30
   0   4  -4   54.09   10.70
   0   4   4   28.60   12.10
   1  -4   4 2363.86  114.59
  -1  -4  -4 2694.13   98.79
  -1   4  -4 2668.63   89.29
   1   4   4 2549.15   99.09
  -2  -4  -4    6.00   15.40
   2  -4   4   -3.10   22.90
  -2   4  -4    4.00    9.00
   2   4   4   -5.90   11.90
   3  -4   4   62.59   30.80
  -3   4  -4   89.99   14.60
   3   4   4   85.29   18.80
   4  -4   4  817.32   75.49
  -4   4  -4  774.42   36.30
   4   4   4  786.42   49.10
   5  -4   4  659.23   74.39
   5   4   4  720.03   48.60
   6  -4   4   10.00   38.20
   6   4   4   10.30   19.70
   7  -4   4   35.60   41.30
   7   4   4   16.30   24.90
   8  -4   4  719.33  117.39
   8   4   4  616.24   45.10
   8   4   4  740.73   79.79
   7  -5  -4  -37.90   58.99
   7  -5  -4   20.50   32.10
   7   5  -4   17.30   21.80
   6  -5  -4   57.49   51.99
   6  -5  -4   22.10   24.30
   6   5  -4   13.00   17.90
   5  -5  -4  469.45   45.00
   5   5  -4  417.76   36.20
   4  -5  -4   60.09   18.50
   4   5  -4   79.79   20.80
  -4   5   4   62.89   22.30
   3  -5  -4  236.98   34.50
  -3   5   4  264.07   36.10
   2  -5  -4  222.28   31.40
  -2   5   4  200.58   35.50
   2   5  -4  228.68   23.00
   1  -5  -4  369.66   36.00
  -1  -5   4  374.06   56.59
   1   5  -4  406.16   28.10
  -1   5   4  413.56   36.10
   0  -5   4   60.59   26.90
   0  -5  -4  108.69   19.50
   0   5   4   68.79   19.10
   1  -5   4   -1.20   27.30
  -1  -5  -4   10.10   13.10
   1   5   4   -0.20   13.80
  -2  -5  -4   96.59   18.80
   2  -5   4  109.79   33.40
  -2   5  -4  115.49   16.60
   2   5   4  102.89   21.10
  -3  -5  -4   32.90   17.90
   3  -5   4   71.19   34.30
  -3   5  -4   55.59   11.30
   3   5   4   77.19   21.30
   4  -5   4  104.49   40.80
  -4   5  -4  120.19   17.60
   5  -5   4  140.19   46.40
   5   5   4   71.39   24.10
   6  -5   4  145.49   48.80
   6   5   4  275.57   42.60
   7  -5   4  -20.80   47.20
   7   5   4   16.20   35.70
   6   6  -4  242.38   38.20
  -6   6   4  315.47   56.49
   5  -6  -4   22.40   26.10
   5   6  -4  -21.70   19.50
  -5   6   4   37.40   36.20
   4  -6  -4  562.84   52.69
  -4   6   4  610.74   62.29
   4   6  -4  381.06   36.60
   3  -6  -4  306.47   44.20
  -3   6   4  324.37   51.29
   3   6  -4  297.17   32.10
  -1  -6   4   94.89   38.50
   1  -6  -4   27.00   19.30
  -1   6   4   34.80   22.10
   1   6  -4   39.60   14.10
   0  -6   4  -38.70   32.60
   0  -6  -4   15.10   18.10
   0   6   4   16.10   20.40
   0   6  -4   46.60   15.20
   1  -6   4 1022.60   88.29
  -1  -6  -4 1157.18   65.49
  -1   6  -4 1145.79   50.79
   1   6   4 1191.78   63.29
   2  -6   4  -34.80   38.20
  -2  -6  -4   11.50   22.70
  -2   6  -4   25.90   13.30
   2   6   4   19.70   21.80
  -3  -6  -4   97.39   30.00
   3  -6   4  130.09   47.80
  -3   6  -4  131.29   20.80
   4  -6   4  620.24   85.49
  -4  -6  -4  534.65   75.89
   4   6   4  440.06   56.59
  -4   6  -4  576.74   32.40
   5  -6   4  328.47   58.29
   5   6   4  430.46   63.99
   4  -7  -4    8.60   32.60
   4   7  -4  -10.10   21.50
   3  -7  -4   83.89   34.50
   3   7  -4   50.29   20.40
   2  -7  -4   75.39   26.10
  -2   7   4  143.79   35.80
   2   7  -4   56.19   19.10
   1  -7  -4  306.97   53.49
  -1  -7   4  344.97   69.09
   1   7  -4  290.17   33.10
  -1   7   4  325.87   46.40
   0  -7   4  145.99   57.49
   0  -7  -4   56.39   25.60
   0   7   4  177.08   36.90
   0   7  -4   90.79   21.70
   1  -7   4   -3.60   54.69
  -1  -7  -4  -32.80   27.40
   1   7   4  -13.80   28.50
  -1   7  -4   38.90   16.50
   2  -7   4   69.39   58.39
  -2  -7  -4   27.50   32.30
  -2   7  -4   54.89   18.20
   3  -7   4    0.40   62.19
  -3  -7  -4   15.50   42.60
  -3   7  -4   31.60   17.50
   9   0  -5   29.30   24.90
   8   0  -5   30.10   20.40
   7   0  -5  569.34   38.40
   6   0  -5   13.70   15.90
   5   0  -5  -25.50   12.80
   4   0  -5  262.77   23.50
  -4   0   5  219.88   32.40
  -3   0   5  507.05   54.59
   3   0  -5  360.06   26.90
   2   0  -5  638.44   34.40
  -2   0   5  607.24   36.30
  -1   0   5 1085.19   48.60
   1   0  -5 1079.19   46.60
   0   0  -5  159.78   17.20
   0   0   5  149.69   18.40
   1   0   5  149.29   20.20
  -1   0  -5  139.89   18.00
   2   0   5    2.60   13.40
   3   0   5  497.65   33.30
   4   0   5  606.74   37.30
   5   0   5   62.59   18.50
   6   0   5 1095.59   60.39
   8   0   5  313.77   58.09
   9   0   5   75.29   38.50
   9   1  -5   19.80   25.90
   8  -1  -5  243.88   32.80
   8   1  -5  254.87   34.60
   7  -1  -5   34.80   18.10
   7   1  -5   62.69   18.10
   6  -1  -5  799.82   40.60
   6   1  -5  680.93   39.80
   5  -1  -5  787.32   38.60
   5   1  -5  698.63   38.90
   4  -1  -5  317.37   23.80
   4   1  -5  272.57   23.20
   3  -1  -5  217.58   21.00
  -2  -1   5   35.10   13.20
   2  -1  -5   41.10   14.40
  -2   1   5   37.60   13.90
   2   1  -5   17.90    9.30
   1  -1  -5 2507.35   88.59
  -1  -1   5 2449.05   87.69
  -1   1   5 2592.24   94.39
   1   1  -5 2440.76   88.89
   0  -1   5  150.28   18.20
   0   1   5  163.08   19.60
   0   1  -5  161.78   19.80
   1  -1   5   29.30   11.40
  -1   1  -5   27.50   11.00
   1   1   5    8.10   10.40
  -1   1  -5   16.30   14.80
   2  -1   5 1674.53   64.69
   2   1   5 1490.35   67.19
  -2   1  -5 1765.12   62.19
   3  -1   5  507.15   32.60
  -3   1  -5  490.15   27.60
   3   1   5  491.55   33.90
   4  -1   5   36.40   13.30
   4   1   5   20.10   12.90
   5  -1   5  265.07   30.40
   5   1   5  276.37   32.40
   6  -1   5  259.37   38.10
   6   1   5  303.17   36.90
   7  -1   5   57.39   24.90
   7   1   5   15.00   21.80
   8   1   5   14.80   29.70
   9   2  -5   -5.50   25.20
   8   2  -5    2.50   19.30
   7   2  -5  594.04   39.90
   6   2  -5   50.49   15.10
   5   2  -5   29.60   12.20
   4   2  -5   68.59   14.50
   3   2  -5  339.07   24.00
  -2  -2   5  272.17   26.50
  -2   2   5  256.77   25.60
   2   2  -5  287.97   20.60
   1   2  -5  709.63   34.40
  -1   2   5  762.52   41.80
   0   2  -5  273.67   21.70
   0   2   5  270.77   23.10
   1  -2   5  297.37   22.50
   1   2   5  292.37   25.40
  -1   2  -5  268.47   22.40
  -1   2  -5  351.26   32.90
   2  -2   5    3.60   10.80
   2   2   5   17.10   11.00
  -2   2  -5   -1.30   11.00
  -2   2  -5   22.90   16.90
   3  -2   5  828.92   42.90
  -3   2  -5  827.52   38.30
   3   2   5  836.62   46.10
   4  -2   5  632.64   40.00
   4   2   5  599.74   41.50
  -4   2  -5  600.64   30.40
   5  -2   5   19.10   17.60
   5   2   5   24.30   14.40
   6  -2   5  877.41   53.89
   6   2   5  850.81   55.79
   7   2   5   32.80   23.40
   8  -2   5  128.69   56.99
   8   2   5  193.38   43.80
   8   3  -5  216.58   31.60
   7   3  -5   47.60   17.90
   6   3  -5  534.55   36.00
   5   3  -5  615.24   36.70
   4  -3  -5  199.38   28.40
   4   3  -5  209.28   21.20
   3  -3  -5  352.66   34.40
   3   3  -5  281.07   22.60
  -3   3   5  248.18   29.80
   2  -3  -5   27.30   13.10
   2   3  -5   39.90   10.70
  -2   3   5   50.69   15.80
  -1   3   5 1878.21   80.49
   1   3  -5 1918.31   71.49
   0   3   5  127.19   20.10
   0   3  -5  104.99   14.80
  -1   3  -5    6.90    8.40
   1   3   5   13.20   11.20
  -2   3  -5 1246.08   50.29
   2   3   5 1154.18   57.59
   3  -3   5  342.57   30.60
  -3   3  -5  293.87   25.90
   3   3   5  363.36   33.50
  -4   3  -5   23.20   13.70
   4   3   5   12.30   13.50
   5  -3   5  158.98   46.50
   5   3   5   75.59   20.50
   6  -3   5  239.58   56.19
   6   3   5  107.39   27.00
   7  -3   5    1.00   44.20
   7   3   5   52.49   26.80
   8  -3   5  -70.79   53.39
   8   3   5   30.60   38.60
   8   4  -5   -3.40   24.90
   7   4  -5  260.77   35.50
   6  -4  -5  -26.90   19.50
   6   4  -5   16.10   17.60
   5  -4  -5   -1.40   17.60
   5   4  -5  -18.00   14.10
   4  -4  -5  102.69   20.40
   4   4  -5  127.39   20.50
  -4   4   5  118.19   24.80
   3  -4  -5  271.27   33.30
  -3   4   5  281.37   34.50
   3   4  -5  307.27   24.80
   2  -4  -5  334.77   33.40
   2   4  -5  306.57   23.90
  -2   4   5  290.87   33.10
   1  -4  -5  578.84   42.00
  -1  -4   5  657.73   64.59
   1   4  -5  535.05   31.70
  -1   4   5  654.43   41.90
   0  -4   5   58.09   36.80
   0   4  -5   95.49   15.60
   0   4   5   96.19   18.90
   1  -4   5   67.19   32.70
  -1  -4  -5   44.60   20.20
  -1   4  -5  100.39   16.20
   1   4   5   55.79   17.60
   2  -4   5   20.80   33.10
   2   4   5   33.20   16.00
  -2   4  -5    6.20    9.60
  -3  -4  -5  260.87   42.50
   3  -4   5  394.76   67.49
  -3   4  -5  385.66   24.50
   3   4   5  343.47   37.80
   4  -4   5  349.96   60.09
  -4  -4  -5  250.47   37.60
   4   4   5  378.76   40.60
  -4   4  -5  311.47   27.80
   5  -4   5   37.10   40.40
   6  -4   5  528.65   89.49
   6   4   5  685.13   60.09
   7  -4   5    3.30   46.10
   7   4   5   -6.70   29.00
   7   5  -5   -3.80   22.90
   6  -5  -5  379.06   63.69
   6   5  -5  347.27   36.30
   5  -5  -5  433.76   52.59
  -5   5   5  367.26   56.89
   5   5  -5  394.66   35.20
   4  -5  -5  132.19   26.40
  -4   5   5  131.39   30.10
   4   5  -5  128.19   20.40
   3  -5  -5  143.59   26.00
  -3   5   5  133.49   27.80
   3   5  -5  147.39   22.70
   2  -5  -5   21.20   17.30
  -2   5   5   26.90   19.40
   2   5  -5   24.80   13.20
  -1  -5   5 1073.29   81.19
   1  -5  -5 1065.09   59.29
   1   5  -5  994.80   48.00
  -1   5   5 1098.19   60.89
   0  -5   5   45.70   32.80
   0  -5  -5   63.79   18.40
   0   5   5   60.09   18.90
   0   5  -5   77.39   14.30
   1  -5   5   19.90   33.00
  -1  -5  -5    9.70   16.70
   1   5   5    7.50   16.80
  -1   5  -5   11.30   11.40
   2  -5   5  790.22   84.39
  -2  -5  -5  886.51   59.69
  -2   5  -5  888.01   41.70
   2   5   5  868.81   56.99
   3  -5   5  173.78   43.60
  -3  -5  -5  240.58   35.90
   3   5   5  240.48   34.10
  -3   5  -5  227.48   22.70
   4  -5   5   73.19   43.80
  -4  -5  -5   73.89   31.70
   4   5   5   40.10   25.60
  -4   5  -5    6.20   15.30
   5   5   5  390.56   61.69
   6  -5   5  224.78   60.49
   6   5   5  142.19   40.00
   5  -6  -5   41.80   28.50
   5   6  -5  -12.80   19.80
   4  -6  -5    6.00   26.60
   4   6  -5   34.50   18.90
  -4   6   5   30.40   36.20
   3  -6  -5  133.59   26.40
  -3   6   5  142.39   35.80
   3   6  -5  156.58   25.40
   2  -6  -5   96.59   28.20
  -2   6   5  145.49   31.30
   2   6  -5   81.49   18.30
   1  -6  -5  333.87   51.29
  -1   6   5  243.78   44.90
   1   6  -5  240.58   26.90
   0  -6  -5   32.00   23.50
   0  -6   5    9.00   39.30
   0   6   5   59.79   25.70
   0   6  -5   72.39   16.10
   1  -6   5   80.19   47.90
  -1  -6  -5   67.99   26.70
  -1   6  -5   53.69   15.00
   1   6   5   66.39   27.90
   2  -6   5  -66.29   42.10
   2   6   5   60.69   30.10
  -2   6  -5   14.90   14.10
  -3  -6  -5  317.67   51.19
   3  -6   5  324.07   60.49
  -3   6  -5  292.77   28.30
   3   6   5  325.57   50.89
   4  -6   5  108.19   52.29
  -4   6  -5  211.18   29.30
   2  -7  -5   79.99   34.40
   2   7  -5   22.90   18.50
  -2   7   5   32.00   40.30
   1   7  -5  496.05   38.40
  -1   7   5  485.45   71.59
   0  -7  -5   18.50   28.30
   0  -7   5  132.39   63.89
   0   7   5   85.89   41.40
   0   7  -5   69.89   19.60
  -1  -7  -5   16.30   32.30
   1  -7   5  -50.09   62.39
   1   7   5   73.89   40.10
  -1   7  -5   41.40   19.50
  -2  -7  -5  429.96   56.19
   2  -7   5  330.87   80.59
  -2   7  -5  380.86   35.30
   9   0  -6  169.18   31.90
   8   0  -6  151.08   28.80
   7   0  -6  323.87   35.60
   6   0  -6  182.88   28.90
   5   0  -6  462.95   33.40
   4   0  -6  427.26   31.10
   3   0  -6  672.43   37.30
  -2   0   6  194.68   25.60
   2   0  -6  262.87   22.60
   1   0  -6   12.00   10.60
  -1   0   6   32.90   13.50
   0   0   6 1128.49   51.29
   0   0  -6 1127.89   48.40
  -1   0  -6   25.80    9.80
   1   0   6   13.90   12.00
   2   0   6  368.66   29.00
   3   0   6  545.95   36.90
   4   0   6    2.80   14.80
   5   0   6  194.18   34.10
   6   0   6   18.10   19.70
   7   0   6  322.17   53.79
   8   0   6  116.69   43.50
   8  -1  -6   65.19   24.70
   8   1  -6  140.99   29.40
   7  -1  -6   68.09   22.30
   7   1  -6   54.49   22.40
   6  -1  -6   17.10   17.80
   6   1  -6   16.10   17.20
   5  -1  -6  186.58   24.80
   5   1  -6  127.39   21.90
   4  -1  -6  151.68   23.40
   4   1  -6  137.29   22.30
   3  -1  -6 1470.95   60.69
  -3   1   6 1448.66   66.99
   3   1  -6 1377.76   60.79
   2  -1  -6   27.80   12.80
  -2  -1   6   30.20   15.20
   2   1  -6   43.10   13.00
  -2   1   6   48.00   13.80
   1  -1  -6   92.99   16.00
  -1  -1   6   77.59   14.50
   1   1  -6   63.29   13.80
  -1   1   6  114.79   20.30
   0  -1   6  149.88   23.20
   0   1  -6  199.88   19.80
   0   1   6  136.19   19.60
   1  -1   6  968.50   47.10
   1   1   6  979.40   48.80
  -1   1  -6  945.31   43.00
   2  -1   6  471.95   34.60
   2   1   6  515.35   36.30
  -2   1  -6  536.55   29.30
   3  -1   6  151.28   26.30
   4  -1   6 1389.76   64.39
   4   1   6 1310.07   68.79
   5  -1   6  -11.80   15.80
   5   1   6    6.90   16.10
   6  -1   6  267.97   44.20
   6   1   6  336.27   45.20
   7  -1   6  267.17   39.80
   7   1   6  199.68   37.10
   8   2  -6  139.39   29.90
   7   2  -6  363.76   37.50
   6   2  -6  136.79   24.40
   5   2  -6  266.77   28.00
   4   2  -6  274.67   26.20
   3   2  -6  450.15   30.20
  -3   2   6  437.16   36.70
  -2  -2   6  394.66   33.50
  -2   2   6  368.96   33.00
   2   2  -6  387.36   27.60
  -1  -2   6   12.80   11.90
   1   2  -6    5.80   11.10
  -1   2   6   12.00   11.80
   0   2   6 1224.98   57.99
   0   2  -6 1236.38   53.29
   1  -2   6   -9.60   12.30
  -1   2  -6    2.90   11.60
   1   2   6   -3.80   10.00
   2  -2   6  166.68   27.90
  -2   2  -6  176.88   19.50
   2   2   6  212.48   27.20
   3  -2   6  359.46   36.10
   3   2   6  292.87   33.30
  -3   2  -6  355.16   24.10
   4  -2   6    8.00   16.90
   4   2   6    4.10   15.70
   5  -2   6   68.09   22.10
   5   2   6   40.10   20.70
   6  -2   6   43.30   25.80
   6   2   6  -20.10   23.90
   7   2   6  362.26   55.89
   8  -2   6  130.79   62.39
   8   2   6  226.88   49.60
   8   3  -6   85.79   27.60
   7   3  -6   21.70   22.10
   6   3  -6    8.80   17.50
   5  -3  -6   79.09   22.00
   5   3  -6   86.09   19.20
  -4   3   6  191.18   31.70
   3  -3  -6 1113.29   62.19
  -3   3   6 1145.89   61.79
   3   3  -6 1116.89   52.69
   2   3  -6    8.70   11.80
  -1   3   6  154.98   24.30
   0   3  -6  116.29   18.30
   0   3   6  144.49   23.70
  -1   3  -6  664.83   35.50
   1   3   6  651.53   42.90
   2   3   6  428.36   36.80
  -2   3  -6  398.96   27.90
  -3   3  -6   57.19   14.00
   3   3   6   44.40   20.00
   4  -3   6 1129.09   57.69
   4   3   6 1164.28   65.69
  -4   3  -6 1157.98   47.90
   5   3   6   56.59   22.90
   6  -3   6  154.98   63.29
   7  -3   6  171.38   61.49
   7   3   6  210.08   45.90
   7   4  -6  139.79   28.50
   6  -4  -6   91.89   29.50
   6   4  -6  131.69   25.40
   5   4  -6  205.28   30.10
  -5   4   6  310.97   45.90
   4  -4  -6  203.58   30.00
  -4   4   6  238.98   42.60
   4   4  -6  238.38   27.50
   3  -4  -6  488.45   45.70
   3   4  -6  389.96   30.20
  -3   4   6  390.86   42.70
   2  -4  -6  128.09   24.30
  -2   4   6  112.59   22.80
   2   4  -6  115.09   18.90
  -1  -4   6    6.40   42.50
   0  -4  -6  582.54   53.29
   0   4  -6  671.53   36.60
   0   4   6  608.34   45.50
   1  -4   6   -1.10   39.50
  -1  -4  -6    0.70   17.80
  -1   4  -6    8.80   12.40
  -2  -4  -6  118.49   26.00
   2  -4   6  152.18   50.49
  -2   4  -6  159.58   21.80
   2   4   6  205.48   37.60
  -3  -4  -6  325.07   50.69
   3  -4   6  215.68   53.59
   3   4   6  346.47   43.40
  -3   4  -6  395.56   28.60
  -4  -4  -6   -4.60   31.50
   4  -4   6  -41.60   44.10
   4   4   6   65.49   24.30
  -4   4  -6  -26.10   14.60
  -5  -4  -6   93.99   51.39
   5  -4   6   69.29   50.59
   5   4   6  104.69   34.20
   6  -4   6   87.39   51.49
   6  -5  -6   58.49   33.60
  -6   5   6   56.79   44.90
   6   5  -6   44.90   22.80
   5  -5  -6   81.69   32.00
  -5   5   6   41.70   32.80
   5   5  -6  116.29   23.60
   4  -5  -6   89.69   28.60
  -4   5   6   47.80   28.50
   4   5  -6   42.50   17.80
   3  -5  -6  652.23   60.69
   3   5  -6  580.14   39.10
  -3   5   6  593.14   59.39
   2  -5  -6   45.20   23.70
   2   5  -6   18.20   13.20
  -2   5   6  101.59   25.90
   1  -5  -6   -0.30   21.00
   1   5  -6   36.10   13.60
  -1   5   6   -7.70   18.00
   0  -5   6   52.79   43.60
   0  -5  -6   93.49   26.00
   0   5  -6  101.39   17.70
   0   5   6   91.09   23.60
   1  -5   6  527.45   88.69
  -1  -5  -6  537.25   56.29
  -1   5  -6  448.06   32.80
   1   5   6  602.74   50.69
   2  -5   6  232.58   55.79
  -2   5  -6  202.58   25.80
   2   5   6  259.57   42.90
   3  -5   6   17.50   46.90
  -3   5  -6   36.60   17.10
   3   5   6   90.19   28.00
   4  -5   6  585.64  100.59
   4   5   6  762.82   62.89
  -4   5  -6  611.84   39.80
   5  -5   6  -15.40   50.69
  -5  -5  -6  -70.69   60.99
   4  -6  -6  128.69   36.70
  -4   6   6  114.09   42.50
   4   6  -6   98.49   23.10
   3  -6  -6  186.88   37.70
   3   6  -6  151.28   25.20
   2  -6  -6  121.79   34.60
   2   6  -6  137.59   24.00
  -2   6   6  106.39   33.50
   1  -6  -6  -39.50   28.00
   1   6  -6    9.10   15.10
  -1   6   6  -44.60   26.50
   0  -6   6  594.84   97.69
   0  -6  -6  507.05   70.79
   0   6  -6  519.25   36.80
   0   6   6  461.65   60.19
  -1  -6  -6   59.09   36.20
   1  -6   6  -61.39   54.09
   1   6   6   23.80   32.20
  -1   6  -6   18.30   17.80
  -2  -6  -6   75.69   40.70
   2  -6   6  107.19   57.59
  -2   6  -6   81.59   20.70
   2   6   6   72.69   36.10
   3  -6   6   40.60   55.29
  -3  -6  -6  241.18   55.89
   3   6   6  114.29   40.10
  -3   6  -6  103.29   21.60
   8   0  -7   11.20   27.60
   7   0  -7    5.20   23.30
   6   0  -7   38.00   20.50
   5   0  -7 1144.99   57.09
   4   0  -7   36.10   16.20
  -3   0   7    6.20   14.80
   3   0  -7   17.40   14.00
  -2   0   7  454.25   37.30
   2   0  -7  471.25   32.00
  -1   0   7  362.16   29.10
   1   0  -7  364.86   26.60
   0   0  -7   99.69   17.00
   0   0   7   81.49   15.80
  -1   0  -7  441.36   29.00
   1   0   7  391.26   32.10
   2   0   7 1312.77   61.99
   3   0   7   28.00   16.20
   4   0   7  228.68   38.00
   5   0   7  402.96   47.60
   6   0   7   -1.00   26.20
   7   0   7  149.49   43.20
   8  -1  -7   97.39   29.20
   8   1  -7   84.99   30.60
   7  -1  -7  260.37   37.20
   7   1  -7  266.57   35.60
   6  -1  -7  403.36   37.70
   6   1  -7  364.26   38.70
   5  -1  -7   40.20   18.70
   5   1  -7   58.59   21.10
   4  -1  -7  284.67   28.80
   4   1  -7  231.18   29.10
  -4   1   7  286.17   37.50
   3  -1  -7   -9.00   14.30
  -3  -1   7  -17.10   16.80
  -3   1   7  -13.80   14.20
  -2  -1   7  631.04   39.40
   2  -1  -7  651.93   37.10
   2   1  -7  651.13   38.80
  -2   1   7  588.94   42.50
  -1  -1   7  135.09   23.90
  -1   1   7  118.59   21.90
   1   1  -7  163.78   21.70
   0  -1   7  406.46   32.70
   0   1  -7  387.76   28.70
   0   1   7  350.96   30.90
   1  -1   7  272.87   27.80
   1   1   7  220.58   28.30
  -1   1  -7  264.57   23.80
   2   1   7   83.29   20.30
  -2   1  -7  101.09   17.00
   3  -1   7  207.58   33.80
   3   1   7  130.39   25.30
   4  -1   7  163.58   28.70
   4   1   7  241.58   38.30
   5  -1   7   50.09   27.30
   5   1   7   97.29   26.20
   6  -1   7  167.48   35.40
   6   1   7  170.38   33.60
   7  -1   7  289.97   51.49
   7   1   7  343.67   51.99
   7   2  -7   -1.20   25.20
   6   2  -7   29.10   21.20
   5  -2  -7  747.13   81.89
   5   2  -7  757.32   48.40
   4   2  -7   15.30   16.20
  -4   2   7   45.00   21.40
  -3  -2   7   53.69   21.50
   3   2  -7   38.50   15.50
  -3   2   7   49.10   18.10
  -2  -2   7  547.75   39.40
   2   2  -7  525.25   36.00
  -2   2   7  592.84   43.00
  -1  -2   7  349.77   33.00
   1   2  -7  401.76   31.20
  -1   2   7  331.37   31.80
   0  -2   7  156.78   21.70
   0   2   7  157.78   26.30
   0   2  -7  199.58   25.00
   1  -2   7  307.67   34.40
   1   2   7  415.46   36.80
  -1   2  -7  377.66   28.60
   2  -2   7  873.61   51.89
   2   2   7  957.60   53.89
  -2   2  -7  875.41   43.80
   3  -2   7   30.20   17.80
   3   2   7    4.00   16.90
  -3   2  -7    9.10   14.60
   4  -2   7   96.59   23.70
   4   2   7   46.40   21.90
   5  -2   7  597.54   55.79
   5   2   7  669.43   59.19
   6  -2   7   52.39   30.80
   6   2   7   24.80   30.40
   7  -2   7  214.58   43.20
   7   2   7  191.48   49.20
   7   3  -7  179.48   32.70
   6   3  -7  311.87   39.20
   5  -3  -7   83.69   28.50
   5   3  -7    7.60   18.20
   4  -3  -7   87.59   32.50
  -4   3   7  140.49   29.30
   4   3  -7  166.08   27.20
   3  -3  -7   -1.40   21.50
  -3   3   7  -10.10   16.80
   3   3  -7  -11.40   12.90
  -2   3   7  432.56   40.40
   2   3  -7  456.35   33.50
  -1   3   7   99.19   20.60
   1   3  -7   81.99   16.80
   0   3   7  285.67   32.10
   0   3  -7  345.07   29.40
  -1   3  -7  196.78   24.90
   1   3   7  187.88   31.90
   2   3   7   96.99   22.40
  -2   3  -7   72.09   16.50
   3  -3   7  102.79   26.20
  -3   3  -7   64.29   17.50
   3   3   7   76.69   22.20
   4  -3   7  194.28   30.10
  -4   3  -7  164.58   22.20
   5   3   7  426.86   61.19
   6   3   7  577.54   70.19
   6  -4  -7   69.19   36.50
   6   4  -7  -27.50   21.90
  -6   4   7  -47.60   33.10
   5  -4  -7  874.21   76.69
  -5   4   7  726.83   66.99
   5   4  -7  635.54   47.70
   4  -4  -7  -16.30   26.30
   4   4  -7   23.10   17.20
  -4   4   7   42.40   24.80
   3  -4  -7    7.40   24.30
  -3   4   7  -12.80   20.20
   3   4  -7    8.30   15.30
  -2   4   7  380.06   38.60
   2   4  -7  334.77   31.60
   1  -4  -7  177.08   36.30
  -1  -4   7  250.37   54.19
   1   4  -7  212.58   26.40
  -1   4   7  240.48   34.10
   0  -4  -7   19.30   22.90
   0  -4   7  -13.40   48.70
   0   4  -7   71.29   18.20
  -1  -4  -7  168.78   33.50
   1  -4   7  254.17   61.89
   1   4   7  243.98   36.30
  -1   4  -7  271.87   28.30
   2  -4   7  723.93  111.99
   2   4   7  900.31   62.09
  -2   4  -7  756.52   43.90
   3  -4   7   88.79   55.79
  -3   4  -7   27.60   17.30
   3   4   7   43.00   27.20
   4  -4   7  102.69   59.99
  -4   4  -7   73.99   19.30
   5  -4   7  251.27   76.19
   5   4   7  356.06   49.10
  -5   4  -7  318.77   30.80
   5  -5  -7   11.20   37.70
  -5   5   7  -23.60   35.30
   5   5  -7  -24.30   22.50
   4  -5  -7  175.98   38.40
  -4   5   7  102.69   35.40
   4   5  -7   75.09   22.20
   3  -5  -7  -13.90   31.10
   3   5  -7   -0.90   18.00
  -3   5   7    1.90   27.70
   2  -5  -7  277.87   45.70
  -2   5   7  361.16   48.00
   2   5  -7  292.67   32.70
   1  -5  -7   83.79   31.00
  -1   5   7   89.99   28.20
   1   5  -7   89.49   20.20
   0  -5   7  194.28   60.59
   0  -5  -7  171.78   40.20
   0   5  -7  203.08   28.60
   0   5   7  169.38   33.90
   1  -5   7   42.30   55.69
  -1   5  -7  112.39   21.10
   1   5   7   49.50   27.70
  -2  -5  -7  -65.49   48.60
   2  -5   7   88.39   60.99
  -2   5  -7   54.09   20.90
   2   5   7    7.90   28.90
   3  -5   7   54.89   60.09
  -3   5  -7  110.39   25.00
   3   5   7   49.50   30.40
   4  -5   7  152.78   63.09
   4   5   7  160.18   41.80
   2  -6  -7  294.67   53.99
   2   6  -7  239.58   35.30
   1  -6  -7  144.99   45.60
  -1   6   7  155.58   39.20
   1   6  -7  117.09   25.00
   0  -6   7   73.99   67.29
   0  -6  -7  105.29   46.40
   0   6  -7   70.39   22.90
   1  -6   7   56.89   68.89
  -1  -6  -7  190.28   54.49
  -1   6  -7  153.28   26.00
   1   6   7  127.19   41.60
   7   0  -8   57.49   25.30
   6   0  -8   77.79   23.60
  -5   0   8   23.80   29.10
   5   0  -8   35.90   21.60
   4   0  -8  108.99   20.80
  -4   0   8   86.69   26.20
  -3   0   8  228.08   33.90
   3   0  -8  210.78   28.10
  -2   0   8  327.27   33.90
   2   0  -8  295.77   28.30
  -1   0   8   28.30   15.00
   1   0  -8   39.50   16.50
   0   0   8  410.46   34.30
   0   0  -8  393.86   29.90
   1   0   8   23.70   15.60
   2   0   8  432.66   40.30
   3   0   8  -21.40   17.80
   4   0   8  239.88   37.40
   5   0   8  343.17   48.20
   6   0   8  172.78   40.70
   7  -1  -8  461.85   45.60
   7   1  -8  403.96   46.90
   6  -1  -8   23.70   23.50
   6   1  -8   57.99   25.60
   5  -1  -8   -3.50   20.10
  -5  -1   8   -1.00   33.50
  -5   1   8  -17.00   26.50
   5   1  -8    2.10   21.60
   4  -1  -8  829.22   47.20
  -4  -1   8  680.13   58.29
  -4   1   8  696.13   59.29
   4   1  -8  739.43   48.30
   3  -1  -8   59.59   18.80
   3   1  -8   34.70   17.70
  -3   1   8   34.90   23.00
   2  -1  -8   20.30   15.60
  -2  -1   8  -22.20   14.30
   2   1  -8  -21.30   14.90
  -2   1   8   11.40   15.70
  -1  -1   8  599.34   40.80
   1   1  -8  588.54   38.90
  -1   1   8  578.04   40.70
   0  -1   8  638.54   40.90
   0   1  -8  532.85   35.40
   0   1   8  566.34   40.70
   1   1   8   64.29   17.60
  -1   1  -8   38.60   16.20
   2  -1   8   40.40   17.80
  -2   1  -8  -11.80   13.30
   3  -1   8  834.62   55.89
   3   1   8  996.40   64.29
   4   1   8  128.19   31.40
   5  -1   8   53.39   29.10
   5   1   8   63.79   27.40
   6  -1   8   -9.10   33.70
   6   1   8   22.60   32.10
  -6   2   8  143.29   34.10
   6   2  -8   94.99   31.10
   5  -2  -8  -39.80   39.30
   5   2  -8    7.20   23.50
  -5   2   8   16.60   26.00
  -4  -2   8  148.49   30.60
  -4   2   8  123.09   30.10
   4   2  -8   77.39   25.60
  -3  -2   8  401.66   42.30
   3   2  -8  327.97   35.70
  -2  -2   8  345.27   37.20
  -2   2   8  317.87   35.00
   2   2  -8  301.17   33.80
  -1  -2   8   14.20   16.40
  -1   2   8    7.20   14.70
   1   2  -8   25.60   17.10
   0  -2   8  293.37   34.80
   0   2   8  343.17   34.80
   0   2  -8  257.67   29.20
   1  -2   8   67.09   18.10
   1   2   8   51.39   18.30
  -1   2  -8   15.70   16.40
   2  -2   8  274.67   44.00
  -2   2  -8  251.97   26.20
   2   2   8  170.68   29.50
   3   2   8  -39.40   21.00
  -3   2  -8   23.50   16.40
   4  -2   8  129.69   32.90
   4   2   8  181.68   38.10
   5  -2   8  463.65   63.39
   6  -2   8  184.78   44.70
  -6   3   8   68.79   35.00
   6   3  -8   12.50   28.80
  -5  -3   8   14.10   38.20
   5   3  -8    7.30   22.80
  -5   3   8  -23.60   25.10
   4  -3  -8  492.25   60.39
  -4   3   8  549.95   56.09
   4   3  -8  562.64   45.10
   3  -3  -8   25.70   32.20
  -3   3   8   43.80   21.90
   3   3  -8   27.70   20.40
   2   3  -8    2.90   18.50
  -2   3   8   33.10   19.00
   1   3  -8  430.56   36.80
  -1   3   8  400.46   40.10
   0   3  -8  503.85   38.60
   0   3   8  435.46   43.30
  -1   3  -8   65.69   19.40
   1   3   8   90.99   22.20
   2   3   8  -16.70   20.80
  -2   3  -8   12.80   16.80
   3  -3   8  546.35   53.79
  -3   3  -8  559.54   35.80
   3   3   8  475.55   54.89
   4  -3   8   -8.20   29.60
  -4   3  -8   15.50   17.80
   4   3   8   72.39   29.40
   5  -3   8   36.00   35.20
   5  -4  -8   56.89   44.40
   5   4  -8    1.10   23.40
  -5   4   8   -2.80   32.50
   4  -4  -8   68.19   43.30
  -4   4   8   -3.70   27.60
   4   4  -8   55.29   22.10
  -3   4   8  139.89   31.30
   3   4  -8   83.09   22.40
   2  -4  -8  318.47   54.69
  -2   4   8  279.77   44.60
   2   4  -8  172.98   28.70
  -1  -4   8   71.19   66.89
   1  -4  -8    7.20   35.40
  -1   4   8   42.20   21.80
   1   4  -8   32.30   21.10
   0  -4   8  181.28   72.49
   0  -4  -8  171.78   43.50
   0   4  -8  137.09   25.30
   1  -4   8   -2.60   69.09
   1   4   8   41.90   23.30
  -1   4  -8   74.39   21.80
   2  -4   8  166.58   74.39
  -2   4  -8  223.38   32.40
   2   4   8  199.98   36.80
   3  -4   8   86.09   75.19
   3   4   8   45.10   26.60
  -3   4  -8    1.90   19.80
   4  -4   8   58.59   74.19
   4   4   8  126.89   39.00
  -4   4  -8   33.50   22.10
   3  -5  -8   -7.10   48.20
   3   5  -8  -28.60   22.10
   2  -5  -8   82.39   42.50
  -2   5   8   47.20   30.00
   2   5  -8    0.00   21.60
   1  -5  -8  295.47   59.59
  -1   5   8  296.17   55.09
   1   5  -8  254.57   35.90
   0  -5  -8  240.08   63.69
   0  -5   8  442.96   84.49
   0   5   8  133.19   40.60
   0   5  -8  222.98   31.20
   1  -5   8  155.88   80.69
   1   5   8  102.79   35.90
   2  -5   8  119.59   80.19
  -2   5  -8   98.39   27.20
   6   0  -9  462.55   46.00
  -6   0   9  607.04   82.39
   5   0  -9    1.60   23.80
  -5   0   9  -13.10   33.90
   4   0  -9    4.60   21.60
  -4   0   9   82.39   32.90
   3   0  -9  367.66   36.40
  -2   0   9  252.47   39.80
   2   0  -9  197.28   31.10
  -1   0   9  247.48   37.70
   1   0  -9  188.48   27.30
   0   0   9   55.59   21.30
   0   0  -9   58.39   19.90
   1   0   9  456.65   45.20
   2   0   9   60.59   24.80
   3   0   9   13.50   24.80
  -6  -1   9   11.20   44.70
   6  -1  -9   71.29   27.30
  -6   1   9   26.70   40.40
   6   1  -9  115.79   31.10
   5  -1  -9  123.19   30.20
  -5  -1   9   47.50   37.50
  -5   1   9   99.19   35.60
   5   1  -9   77.19   25.70
  -4  -1   9  166.18   38.00
   4  -1  -9  205.78   34.00
  -4   1   9  202.28   41.60
   4   1  -9  165.48   28.50
  -3  -1   9   88.09   27.10
  -3   1   9   62.19   26.00
   3   1  -9   65.99   22.70
  -2  -1   9  543.05   47.10
  -2   1   9  486.45   45.60
   2   1  -9  377.56   37.30
  -1  -1   9   34.10   18.80
  -1   1   9   17.80   18.90
   1   1  -9   34.40   18.90
   0  -1   9  201.48   36.30
   0   1  -9  128.59   22.80
   0   1   9  164.98   28.00
   1  -1   9  255.77   39.90
  -1   1  -9  274.27   28.90
   2   1   9   41.40   23.90
   3  -1   9  604.34   64.59
   3   1   9  667.43   60.29
   4  -1   9  236.78   41.50
   4   1   9  128.59   38.00
   5  -1   9  195.08   43.70
   5   1   9  122.59   39.40
   5  -2  -9   34.00   54.89
  -5  -2   9  -38.30   35.80
   5   2  -9   -6.30   28.10
  -5   2   9   52.69   34.40
  -4  -2   9   70.89   30.70
   4   2  -9   40.80   27.70
  -3   2   9  364.96   51.69
   3   2  -9  302.27   38.90
  -2  -2   9  114.89   29.10
   2   2  -9  142.29   26.80
  -1   2   9   81.29   22.00
   1   2  -9   60.89   21.40
   0  -2   9  -20.00   22.20
   0   2  -9    3.00   18.60
   0   2   9   37.20   20.10
   1  -2   9  350.06   42.80
   1   2   9  373.76   45.90
  -1   2  -9  405.06   34.30
  -2   2  -9   75.99   21.60
   2   2   9  119.89   31.80
   3  -2   9  -39.50   28.40
   4  -2   9   30.70   33.50
   4   2   9  -64.49   32.10
   4   3  -9   92.59   29.40
  -4   3   9  175.28   40.60
  -3   3   9   20.30   21.30
   3   3  -9   35.50   25.00
  -2   3   9  338.87   44.70
   2   3  -9  312.47   44.30
  -1   3   9  -32.60   18.50
   1   3  -9   19.50   22.70
   0   3  -9  117.89   25.30
   0   3   9  110.29   25.80
  -1   3  -9  117.89   23.60
  -2   3  -9   -0.50   19.80
   2   3   9  -21.30   26.60
  -3   3  -9  305.57   35.10
   3  -4  -9   47.20   62.09
   3   4  -9  200.28   34.10
  -2   4   9   59.19   29.50
   2   4  -9   62.39   27.00
   1  -4  -9   49.40   52.59
  -1  -4   9  193.58   87.89
   1   4  -9   69.39   27.70
  -1   4   9  149.69   33.00
   0  -4  -9   74.89   48.40
   0  -4   9  -26.10   91.09
   0   4   9   28.20   29.40
   0   4  -9   15.50   24.80
   1  -4   9  305.77  100.19
  -1   4  -9  228.78   38.00
   1   4   9  210.88   42.00
   2  -4   9  184.58   94.89
  -2   4  -9   18.00   22.80
   2   4   9   16.10   33.30
   4   0 -10  526.45   47.30
  -3   0  10  204.28   39.00
   2   0 -10   84.29   24.80
  -2   0  10   69.79   28.70
  -1   0  10  437.46   52.19
   1   0 -10  315.17   35.40
   0   0  10   -4.20   24.70
   1   0  10  612.44   63.69
   2   0  10   94.89   32.10
   3   0  10  217.38   42.40
  -4   1  10   40.00   35.40
  -3  -1  10   99.89   34.50
   3   1 -10   49.00   22.80
  -3   1  10   -6.60   28.90
  -2   1  10   41.30   28.50
   2   1 -10   41.90   22.00
  -1  -1  10   76.69   28.80
  -1   1  10   58.59   26.80
   1   1 -10   61.39   24.70
   0  -1  10  131.19   31.20
   0   1 -10  203.08   32.10
   0   1  10  152.48   33.50
   1  -1  10   53.19   29.20
   1   1  10  108.19   31.70
  -1   1 -10   60.79   23.40
   2  -1  10   66.49   34.00
   2   1  10   97.79   31.00
  -3   2  10  111.39   33.10
   3   2 -10   38.90   29.70
   2   2 -10   47.40   26.10
  -2   2  10   -7.30   26.80
  -1  -2  10  438.66   50.49
  -1   2  10  465.95   57.19
   1   2 -10  314.77   39.20
   0  -2  10   -9.20   25.20
   0   2  10    4.30   26.40
   0   2 -10   56.39   23.00
   1  -2  10  555.34   58.69
   1   2  10  553.04   62.89
   2  -2  10   -0.60   36.30
  -2   2 -10   59.89   23.10
   2   2  10   52.69   30.50
   0   0   0    0.00    0.00

_computing_structure_solution     'SHELXT 2014/5 (Sheldrick, 2014)'
;
_shelx_hkl_checksum              81423
loop_
_space_group_symop_operation_xyz
'x, y, z'
'-x, y+1/2, -z'
'-x, -y, -z'
'x, -y-1/2, z'
loop_
_atom_site_type_symbol
_atom_site_label
_atom_site_fract_x
_atom_site_fract_y
_atom_site_fract_z
_atom_site_U_iso_or_equiv
_atom_site_adp_type
_atom_site_calc_flag
_atom_site_refinement_flags_adp
_atom_site_refinement_flags_occupancy
_atom_site_refinement_flags_posn
_atom_site_occupancy
_atom_site_disorder_assembly
_atom_site_disorder_group
Ba Ba1 0.57828(13) 0.25 0.32900(12) 0.0132(3) Uani d T P S 1 . .
Ba Ba2 0.82539(15) 0.25 0.82278(13) 0.0174(3) Uani d T P S 1 . .
Sb Sb03 0.86183(15) 0.75 0.52847(14) 0.0121(3) Uani d T P S 1 . .
Br Br04 0.3918(3) 0.25 0.8949(3) 0.0283(5) Uani d T P S 1 . .
S S005 1.0237(6) 0.75 0.7999(5) 0.0182(10) Uani d T P S 1 . .
O O006 0.7027(10) 0.5115(12) 0.5785(9) 0.0120(16) Uani d . . . 1 . .
loop_
_atom_site_aniso_label
_atom_site_aniso_U_11
_atom_site_aniso_U_22
_atom_site_aniso_U_33
_atom_site_aniso_U_12
_atom_site_aniso_U_13
_atom_site_aniso_U_23
Ba1 0.0104(6) 0.0121(5) 0.0171(5) 0 0.0005(4) 0
Ba2 0.0203(6) 0.0152(5) 0.0161(5) 0 -0.0039(4) 0
Sb03 0.0100(6) 0.0106(5) 0.0158(6) 0 0.0011(5) 0
Br04 0.0292(12) 0.0223(10) 0.0332(11) 0 -0.0011(9) 0
S005 0.012(2) 0.022(2) 0.020(2) 0 -0.0051(19) 0
O006 0.002(4) 0.015(4) 0.018(4) -0.001(3) -0.001(3) 0.003(3)
loop_
_atom_type_symbol
_atom_type_description
_atom_type_scat_dispersion_real
_atom_type_scat_dispersion_imag
_atom_type_scat_source
Ba Ba -0.3244 2.2819 'International Tables Vol C Tables 4.2.6.8 and 6.1.1.4'
Br Br -0.2901 2.4595 'International Tables Vol C Tables 4.2.6.8 and 6.1.1.4'
O O 0.0106 0.0060 'International Tables Vol C Tables 4.2.6.8 and 6.1.1.4'
S S 0.1246 0.1234 'International Tables Vol C Tables 4.2.6.8 and 6.1.1.4'
Sb Sb -0.5866 1.5461 'International Tables Vol C Tables 4.2.6.8 and 6.1.1.4'
loop_
_geom_angle_atom_site_label_1
_geom_angle_atom_site_label_2
_geom_angle_atom_site_label_3
_geom_angle_site_symmetry_1
_geom_angle_site_symmetry_3
_geom_angle
O006 Ba1 O006 4_565 . 72.3(3)
O006 Ba1 O006 4_565 2_646 75.8(3)
O006 Ba1 O006 . 2_646 111.82(14)
O006 Ba1 O006 4_565 3_666 111.82(14)
O006 Ba1 O006 . 3_666 75.8(3)
O006 Ba1 O006 2_646 3_666 63.1(3)
O006 Ba1 S005 4_565 3_766 85.56(17)
O006 Ba1 S005 . 3_766 85.56(17)
O006 Ba1 S005 2_646 3_766 148.44(15)
O006 Ba1 S005 3_666 3_766 148.44(15)
O006 Ba1 Br04 4_565 3_656 80.66(16)
O006 Ba1 Br04 . 3_656 148.22(17)
O006 Ba1 Br04 2_646 3_656 76.20(16)
O006 Ba1 Br04 3_666 3_656 131.27(16)
S005 Ba1 Br04 3_766 3_656 75.81(5)
O006 Ba1 Br04 4_565 3_666 148.22(17)
O006 Ba1 Br04 . 3_666 80.66(16)
O006 Ba1 Br04 2_646 3_666 131.27(16)
O006 Ba1 Br04 3_666 3_666 76.20(16)
S005 Ba1 Br04 3_766 3_666 75.81(5)
Br04 Ba1 Br04 3_656 3_666 118.17(7)
O006 Ba1 Sb03 4_565 3_666 94.45(16)
O006 Ba1 Sb03 . 3_666 94.45(16)
O006 Ba1 Sb03 2_646 3_666 31.56(15)
O006 Ba1 Sb03 3_666 3_666 31.56(15)
S005 Ba1 Sb03 3_766 3_666 179.99(8)
Br04 Ba1 Sb03 3_656 3_666 104.18(4)
Br04 Ba1 Sb03 3_666 3_666 104.18(4)
O006 Ba1 Br04 4_565 1_554 143.71(16)
O006 Ba1 Br04 . 1_554 143.71(16)
O006 Ba1 Br04 2_646 1_554 88.38(16)
O006 Ba1 Br04 3_666 1_554 88.38(16)
S005 Ba1 Br04 3_766 1_554 92.16(9)
Br04 Ba1 Br04 3_656 1_554 63.77(4)
Br04 Ba1 Br04 3_666 1_554 63.77(4)
Sb03 Ba1 Br04 3_666 1_554 87.83(5)
O006 Ba1 Sb03 4_565 1_545 25.08(16)
O006 Ba1 Sb03 . 1_545 88.94(16)
O006 Ba1 Sb03 2_646 1_545 85.91(16)
O006 Ba1 Sb03 3_666 1_545 135.71(16)
S005 Ba1 Sb03 3_766 1_545 67.63(5)
Br04 Ba1 Sb03 3_656 1_545 60.31(4)
Br04 Ba1 Sb03 3_666 1_545 142.65(5)
Sb03 Ba1 Sb03 3_666 1_545 112.37(3)
Br04 Ba1 Sb03 1_554 1_545 123.52(3)
O006 Ba1 Sb03 4_565 . 88.94(16)
O006 Ba1 Sb03 . . 25.08(16)
O006 Ba1 Sb03 2_646 . 135.71(16)
O006 Ba1 Sb03 3_666 . 85.91(16)
S005 Ba1 Sb03 3_766 . 67.63(5)
Br04 Ba1 Sb03 3_656 . 142.65(5)
Br04 Ba1 Sb03 3_666 . 60.31(4)
Sb03 Ba1 Sb03 3_666 . 112.37(3)
Br04 Ba1 Sb03 1_554 . 123.52(3)
Sb03 Ba1 Sb03 1_545 . 97.51(5)
O006 Ba1 Ba2 4_565 . 36.16(16)
O006 Ba1 Ba2 . . 36.16(16)
O006 Ba1 Ba2 2_646 . 94.53(16)
O006 Ba1 Ba2 3_666 . 94.53(16)
S005 Ba1 Ba2 3_766 . 84.42(8)
Br04 Ba1 Ba2 3_656 . 115.19(4)
Br04 Ba1 Ba2 3_666 . 115.19(4)
Sb03 Ba1 Ba2 3_666 . 95.59(4)
Br04 Ba1 Ba2 1_554 . 176.58(4)
Sb03 Ba1 Ba2 1_545 . 55.06(2)
Sb03 Ba1 Ba2 . . 55.05(2)
O006 Ba2 O006 4_565 . 73.4(3)
O006 Ba2 S005 4_565 3_767 143.00(16)
O006 Ba2 S005 . 3_767 143.00(16)
O006 Ba2 S005 4_565 1_545 64.97(18)
O006 Ba2 S005 . 1_545 129.68(18)
S005 Ba2 S005 3_767 1_545 84.51(9)
O006 Ba2 S005 4_565 . 129.68(18)
O006 Ba2 S005 . . 64.97(18)
S005 Ba2 S005 3_767 . 84.51(9)
S005 Ba2 S005 1_545 . 125.23(14)
O006 Ba2 Br04 4_565 . 78.73(17)
O006 Ba2 Br04 . . 78.73(17)
S005 Ba2 Br04 3_767 . 99.12(10)
S005 Ba2 Br04 1_545 . 117.35(7)
S005 Ba2 Br04 . . 117.35(7)
O006 Ba2 Sb03 4_565 3_766 71.34(17)
O006 Ba2 Sb03 . 3_766 71.34(17)
S005 Ba2 Sb03 3_767 3_766 118.51(10)
S005 Ba2 Sb03 1_545 3_766 69.53(7)
S005 Ba2 Sb03 . 3_766 69.53(7)
Br04 Ba2 Sb03 . 3_766 142.37(5)
O006 Ba2 Sb03 4_565 . 93.29(17)
O006 Ba2 Sb03 . . 28.05(16)
S005 Ba2 Sb03 3_767 . 122.85(4)
S005 Ba2 Sb03 1_545 . 128.09(8)
S005 Ba2 Sb03 . . 38.79(8)
Br04 Ba2 Sb03 . . 101.90(3)
Sb03 Ba2 Sb03 3_766 . 58.74(3)
O006 Ba2 Sb03 4_565 1_545 28.05(16)
O006 Ba2 Sb03 . 1_545 93.29(17)
S005 Ba2 Sb03 3_767 1_545 122.85(4)
S005 Ba2 Sb03 1_545 1_545 38.79(8)
S005 Ba2 Sb03 . 1_545 128.09(8)
Br04 Ba2 Sb03 . 1_545 101.90(4)
Sb03 Ba2 Sb03 3_766 1_545 58.74(3)
Sb03 Ba2 Sb03 . 1_545 103.67(5)
O006 Ba2 Ba1 4_565 . 36.71(16)
O006 Ba2 Ba1 . . 36.71(16)
S005 Ba2 Ba1 3_767 . 175.09(9)
S005 Ba2 Ba1 1_545 . 97.69(8)
S005 Ba2 Ba1 . . 97.69(8)
Br04 Ba2 Ba1 . . 75.97(5)
Sb03 Ba2 Ba1 3_766 . 66.40(4)
Sb03 Ba2 Ba1 . . 59.00(3)
Sb03 Ba2 Ba1 1_545 . 59.00(3)
O006 Ba2 Ba1 4_565 3_656 34.71(16)
O006 Ba2 Ba1 . 3_656 89.11(17)
S005 Ba2 Ba1 3_767 3_656 118.37(6)
S005 Ba2 Ba1 1_545 3_656 72.58(8)
S005 Ba2 Ba1 . 3_656 153.98(8)
Br04 Ba2 Ba1 . 3_656 50.71(3)
Sb03 Ba2 Ba1 3_766 3_656 105.65(4)
Sb03 Ba2 Ba1 . 3_656 116.10(4)
Sb03 Ba2 Ba1 1_545 3_656 51.62(3)
Ba1 Ba2 Ba1 . 3_656 58.55(3)
O006 Ba2 Ba1 4_565 3_666 89.11(17)
O006 Ba2 Ba1 . 3_666 34.71(16)
S005 Ba2 Ba1 3_767 3_666 118.37(6)
S005 Ba2 Ba1 1_545 3_666 153.98(8)
S005 Ba2 Ba1 . 3_666 72.58(8)
Br04 Ba2 Ba1 . 3_666 50.71(3)
Sb03 Ba2 Ba1 3_766 3_666 105.65(4)
Sb03 Ba2 Ba1 . 3_666 51.62(3)
Sb03 Ba2 Ba1 1_545 3_666 116.10(4)
Ba1 Ba2 Ba1 . 3_666 58.55(2)
Ba1 Ba2 Ba1 3_656 3_666 84.84(5)
O006 Sb03 O006 4_575 . 95.0(4)
O006 Sb03 S005 4_575 . 97.0(2)
O006 Sb03 S005 . . 97.0(2)
O006 Sb03 Ba1 4_575 3_666 47.5(2)
O006 Sb03 Ba1 . 3_666 47.5(2)
S005 Sb03 Ba1 . 3_666 99.95(12)
O006 Sb03 Ba2 4_575 3_766 126.0(2)
O006 Sb03 Ba2 . 3_766 126.0(2)
S005 Sb03 Ba2 . 3_766 109.24(12)
Ba1 Sb03 Ba2 3_666 3_766 150.81(4)
O006 Sb03 Ba2 4_575 1_565 39.5(2)
O006 Sb03 Ba2 . 1_565 112.8(2)
S005 Sb03 Ba2 . 1_565 60.81(5)
Ba1 Sb03 Ba2 3_666 1_565 73.17(3)
Ba2 Sb03 Ba2 3_766 1_565 121.26(3)
O006 Sb03 Ba2 4_575 . 112.8(2)
O006 Sb03 Ba2 . . 39.5(2)
S005 Sb03 Ba2 . . 60.81(5)
Ba1 Sb03 Ba2 3_666 . 73.17(3)
Ba2 Sb03 Ba2 3_766 . 121.26(3)
Ba2 Sb03 Ba2 1_565 . 103.67(5)
O006 Sb03 Ba1 4_575 . 107.1(2)
O006 Sb03 Ba1 . . 35.5(2)
S005 Sb03 Ba1 . . 126.58(5)
Ba1 Sb03 Ba1 3_666 . 67.63(3)
Ba2 Sb03 Ba1 3_766 . 94.00(4)
Ba2 Sb03 Ba1 1_565 . 140.79(4)
Ba2 Sb03 Ba1 . . 65.95(4)
O006 Sb03 Ba1 4_575 1_565 35.5(2)
O006 Sb03 Ba1 . 1_565 107.1(2)
S005 Sb03 Ba1 . 1_565 126.58(5)
Ba1 Sb03 Ba1 3_666 1_565 67.63(3)
Ba2 Sb03 Ba1 3_766 1_565 94.00(4)
Ba2 Sb03 Ba1 1_565 1_565 65.95(4)
Ba2 Sb03 Ba1 . 1_565 140.79(4)
Ba1 Sb03 Ba1 . 1_565 97.51(5)
Ba2 Br04 Ba1 . 3_656 79.86(4)
Ba2 Br04 Ba1 . 3_666 79.86(4)
Ba1 Br04 Ba1 3_656 3_666 118.17(7)
Ba2 Br04 Ba1 . 1_556 79.39(5)
Ba1 Br04 Ba1 3_656 1_556 116.23(4)
Ba1 Br04 Ba1 3_666 1_556 116.23(4)
Sb03 S005 Ba2 . 3_767 170.73(19)
Sb03 S005 Ba1 . 3_766 99.95(14)
Ba2 S005 Ba1 3_767 3_766 89.33(12)
Sb03 S005 Ba2 . 1_565 80.39(9)
Ba2 S005 Ba2 3_767 1_565 95.49(9)
Ba1 S005 Ba2 3_766 1_565 116.81(7)
Sb03 S005 Ba2 . . 80.39(9)
Ba2 S005 Ba2 3_767 . 95.49(9)
Ba1 S005 Ba2 3_766 . 116.81(7)
Ba2 S005 Ba2 1_565 . 125.23(14)
Sb03 O006 Ba2 . . 112.5(3)
Sb03 O006 Ba1 . . 119.5(3)
Ba2 O006 Ba1 . . 107.1(3)
Sb03 O006 Ba1 . 3_666 101.0(3)
Ba2 O006 Ba1 . 3_666 112.2(3)
Ba1 O006 Ba1 . 3_666 104.2(3)
loop_
_geom_bond_atom_site_label_1
_geom_bond_atom_site_label_2
_geom_bond_site_symmetry_2
_geom_bond_distance
Ba1 O006 4_565 2.661(8)
Ba1 O006 . 2.661(8)
Ba1 O006 2_646 2.736(8)
Ba1 O006 3_666 2.736(8)
Ba1 S005 3_766 3.296(5)
Ba1 Br04 3_656 3.4993(18)
Ba1 Br04 3_666 3.4993(18)
Ba1 Sb03 3_666 3.645(2)
Ba1 Br04 1_554 3.651(3)
Ba1 Sb03 1_545 3.9927(16)
Ba1 Sb03 . 3.9927(16)
Ba1 Ba2 . 4.254(2)
Ba2 O006 4_565 2.626(7)
Ba2 O006 . 2.626(7)
Ba2 S005 3_767 3.144(5)
Ba2 S005 1_545 3.381(3)
Ba2 S005 . 3.381(3)
Ba2 Br04 . 3.434(3)
Ba2 Sb03 3_766 3.782(2)
Ba2 Sb03 . 3.8183(16)
Ba2 Sb03 1_545 3.8183(16)
Ba2 Ba1 3_656 4.4504(18)
Ba2 Ba1 3_666 4.4504(18)
Sb03 O006 4_575 1.943(7)
Sb03 O006 . 1.943(7)
Sb03 S005 . 2.426(5)
Sb03 Ba1 3_666 3.645(2)
Sb03 Ba2 3_766 3.782(2)
Sb03 Ba2 1_565 3.8183(17)
Sb03 Ba1 1_565 3.9927(17)
Br04 Ba1 3_656 3.4993(18)
Br04 Ba1 3_666 3.4993(18)
Br04 Ba1 1_556 3.651(3)
S005 Ba2 3_767 3.144(5)
S005 Ba1 3_766 3.296(5)
S005 Ba2 1_565 3.381(3)
O006 Ba1 3_666 2.736(8)
