#------------------------------------------------------------------------------
#$Date: 2021-04-14 10:49:51 +0300 (Wed, 14 Apr 2021) $
#$Revision: 264126 $
#$URL: file:///home/coder/svn-repositories/cod/cif/1/56/17/1561722.cif $
#------------------------------------------------------------------------------
#
# This file is available in the Crystallography Open Database (COD),
# http://www.crystallography.net/
#
# All data on this site have been placed in the public domain by the
# contributors.
#
data_1561722
loop_
_publ_author_name
'Prakash, Jai'
'Mesbah, Adel'
'Beard, Jessica'
'Leb\`egue, S\'ebastien'
'Malliakas, Christos D.'
'Ibers, James A.'
_publ_section_title
;
 Synthesis, crystal structure, optical, and electronic study of the new
 ternary thorium selenide Ba3ThSe3(Se2)2
;
_journal_name_full               'Journal of Solid State Chemistry'
_journal_page_first              163
_journal_page_last               168
_journal_paper_doi               10.1016/j.jssc.2015.08.012
_journal_volume                  231
_journal_year                    2015
_chemical_formula_sum            'Ba3 Se7 Th'
_chemical_formula_weight         1196.78
_chemical_name_common            Ba3ThSe7
_space_group_crystal_system      orthorhombic
_space_group_IT_number           44
_space_group_name_Hall           'I 2 -2'
_space_group_name_H-M_alt        'I m m 2'
_atom_sites_solution_hydrogens   .
_atom_sites_solution_primary     direct
_atom_sites_solution_secondary   difmap
_cell_angle_alpha                90
_cell_angle_beta                 90
_cell_angle_gamma                90
_cell_formula_units_Z            2
_cell_length_a                   12.42134(17)
_cell_length_b                   5.79110(10)
_cell_length_c                   9.50388(14)
_cell_measurement_reflns_used    8637
_cell_measurement_temperature    100(2)
_cell_measurement_theta_max      33.16
_cell_measurement_theta_min      3.28
_cell_volume                     683.645(18)
_computing_cell_refinement       'Bruker SAINT'
_computing_data_collection       'Bruker APEX2'
_computing_data_reduction        'Bruker SAINT'
_computing_molecular_graphics    'Bruker SHELXTL'
_computing_publication_material  'Bruker SHELXTL'
_computing_structure_refinement  'SHELXL-2014/7 (Sheldrick, 2014)'
_computing_structure_solution    'SHELXL-2012/1 (Sheldrick, 2012)'
_diffrn_ambient_temperature      100(2)
_diffrn_measured_fraction_theta_full 0.989
_diffrn_measured_fraction_theta_max 0.993
_diffrn_measurement_device_type  'Bruker APEX-II CCD'
_diffrn_measurement_method       '\f and \w scans'
_diffrn_radiation_type           MoK\a
_diffrn_radiation_wavelength     0.71073
_diffrn_reflns_av_R_equivalents  0.0227
_diffrn_reflns_av_unetI/netI     0.0245
_diffrn_reflns_Laue_measured_fraction_full 0.989
_diffrn_reflns_Laue_measured_fraction_max 0.993
_diffrn_reflns_limit_h_max       17
_diffrn_reflns_limit_h_min       -17
_diffrn_reflns_limit_k_max       8
_diffrn_reflns_limit_k_min       -8
_diffrn_reflns_limit_l_max       13
_diffrn_reflns_limit_l_min       -13
_diffrn_reflns_number            7909
_diffrn_reflns_point_group_measured_fraction_full 0.951
_diffrn_reflns_point_group_measured_fraction_max 0.962
_diffrn_reflns_theta_full        25.242
_diffrn_reflns_theta_max         30.053
_diffrn_reflns_theta_min         3.280
_diffrn_source                   'fine-focus sealed tube'
_exptl_absorpt_coefficient_mu    37.950
_exptl_absorpt_correction_T_max  0.55200
_exptl_absorpt_correction_T_min  0.30559
_exptl_absorpt_correction_type   numerical
_exptl_absorpt_process_details   'face indexed (SADABS; Sheldrick, 2012/1)'
_exptl_crystal_colour            'dark orange'
_exptl_crystal_density_diffrn    5.814
_exptl_crystal_density_method    'not measured'
_exptl_crystal_description       irregular
_exptl_crystal_F_000             992
_exptl_crystal_size_max          0.074
_exptl_crystal_size_mid          0.047
_exptl_crystal_size_min          0.033
_refine_diff_density_max         0.512
_refine_diff_density_min         -0.640
_refine_diff_density_rms         0.122
_refine_ls_abs_structure_details
;
 Flack x determined using 489 quotients [(I+)-(I-)]/[(I+)+(I-)]
 (Parsons, Flack and Wagner, Acta Cryst. B69 (2013) 249-259).
;
_refine_ls_abs_structure_Flack   0.044(3)
_refine_ls_extinction_coef       0.00051(5)
_refine_ls_extinction_expression Fc^*^=kFc[1+0.001xFc^2^\l^3^/sin(2\q)]^-1/4^
_refine_ls_extinction_method     'SHELXL-2014/7 (Sheldrick 2014'
_refine_ls_goodness_of_fit_ref   0.688
_refine_ls_hydrogen_treatment    undef
_refine_ls_matrix_type           full
_refine_ls_number_parameters     38
_refine_ls_number_reflns         1099
_refine_ls_number_restraints     1
_refine_ls_restrained_S_all      0.687
_refine_ls_R_factor_all          0.0083
_refine_ls_R_factor_gt           0.0080
_refine_ls_shift/su_max          0.000
_refine_ls_shift/su_mean         0.000
_refine_ls_structure_factor_coef Fsqd
_refine_ls_weighting_details
'w=1/[\s^2^(Fo^2^)] where P=(1.0000Fo^2^+0.0000Fc^2^)'
_refine_ls_weighting_scheme      calc
_refine_ls_wR_factor_gt          0.0171
_refine_ls_wR_factor_ref         0.0172
_reflns_Friedel_coverage         0.838
_reflns_Friedel_fraction_full    0.907
_reflns_Friedel_fraction_max     0.928
_reflns_number_gt                1084
_reflns_number_total             1099
_reflns_threshold_expression     'I > 2\s(I)'
_cod_data_source_file            JSSC-2015-231-163.cif
_cod_data_source_block           Ba3ThSe7
_cod_depositor_comments
;
The following automatic conversions were performed:

data item '_exptl_crystal_density_meas' value 'not measured' was
changed to '?' -- the value is perceived as not measured.

Automatic conversion script
Id: cif_fix_values 8369 2020-08-20 11:38:08Z andrius 
;
_cod_database_code               1561722
_shelx_space_group_comment
;
The symmetry employed for this shelxl refinement is uniquely defined
by the following loop, which should always be used as a source of
symmetry information in preference to the above space-group names.
They are only intended as comments.
;
_shelx_res_file
;

    Ba3ThSe7.res created by SHELXL-2014/7

TITL Ba3ThSe7 in Imm2 after abs. correction
CELL 0.71073 12.42134 5.7911 9.50388 90 90 90
ZERR 2 0.00017 0.0001 0.00014 0 0 0
LATT -2
SYMM -X,-Y,+Z
SYMM -X,+Y,+Z
SYMM +X,-Y,+Z

SFAC Se Ba Th
UNIT 14 6 2
L.S. 4
PLAN  20
TEMP -173.14
BOND
fmap 2
acta

WGHT    0.000000    0.000000    0.000000    0.000000    0.000000    1.000000
EXTI    0.000512
FVAR       0.17571
TH1   3    0.000000    0.000000    0.000000    10.25000    0.00397    0.00381 =
         0.00362    0.00000    0.00000    0.00000
BA1   2    0.239772    0.000000    0.384479    10.50000    0.00513    0.00639 =
         0.00587    0.00000   -0.00049    0.00000
BA2   2    0.500000    0.000000    0.091917    10.25000    0.00551    0.00461 =
         0.00448    0.00000    0.00000    0.00000
SE1   1    0.095549    0.000000    0.704425    10.50000    0.00637    0.00596 =
         0.00569    0.00000    0.00090    0.00000
SE2   1    0.233725    0.000000    0.041564    10.50000    0.00482    0.00639 =
         0.00605    0.00000   -0.00058    0.00000
SE3   1    0.000000    0.205237    0.291193    10.50000    0.00700    0.00570 =
         0.00525   -0.00111    0.00000    0.00000
SE4   1    0.500000    0.000000    0.439441    10.25000    0.00543    0.00407 =
         0.00547    0.00000    0.00000    0.00000
HKLF 4

REM  Ba3ThSe7 in Imm2 after abs. correction
REM R1 =  0.0080 for    1084 Fo > 4sig(Fo)  and  0.0083 for all    1099 data
REM     38 parameters refined using      1 restraints

END

WGHT      0.0000      0.0000

REM Highest difference peak  0.512,  deepest hole -0.640,  1-sigma level  0.122
Q1    1   0.1337  0.1029  0.7048  11.00000  0.05    0.51
Q2    1   0.1895  0.0772  0.3797  11.00000  0.05    0.49
Q3    1   0.0501  0.1046 -0.0024  11.00000  0.05    0.47
Q4    1   0.3121  0.0000  0.4421  10.50000  0.05    0.46
Q5    1   0.4256  0.0000  0.2756  10.50000  0.05    0.42
Q6    1   0.0680  0.0000  0.0805  10.50000  0.05    0.40
Q7    1   0.0634  0.0000  0.1623  10.50000  0.05    0.40
Q8    1   0.4328  0.0735  0.3638  11.00000  0.05    0.38
Q9    1   0.4194  0.0000  0.0133  10.50000  0.05    0.38
Q10   1   0.1078  0.0000  0.3555  10.50000  0.05    0.37
Q11   1   0.0656  0.0000 -0.0680  10.50000  0.05    0.37
Q12   1   0.0601  0.0000  0.8147  10.50000  0.05    0.35
Q13   1   0.3736  0.0000  0.3539  10.50000  0.05    0.34
Q14   1   0.0475  0.2912  0.2974  11.00000  0.05    0.34
Q15   1   0.0652  0.2245  0.2067  11.00000  0.05    0.34
Q16   1   0.1665  0.0000  0.2218  10.50000  0.05    0.33
Q17   1   0.3126  0.0000 -0.0224  10.50000  0.05    0.33
Q18   1   0.1688  0.2160  0.4990  11.00000  0.05    0.32
Q19   1   0.1876  0.0000  0.6223  10.50000  0.05    0.32
Q20   1   0.1806  0.0000  0.4695  10.50000  0.05    0.31
;
_shelx_res_checksum              52036
_shelx_hkl_file
;
   2   0   0 870.110 41.1536   4
   4   0   0 9115.29 418.118   4
   6   0   0 40.2405 7.01289   4
   6   0   0 41.8473 6.67164   6
   8   0   0 6967.84 311.162   2
   8   0   0 6995.30 318.863   4
   8   0   0 7088.43 296.663   6
  10   0   0 1302.68 61.4111   2
  10   0   0 1274.88 62.3970   2
  10   0   0 1296.05 63.5314   6
  10   0   0 1299.35 67.3156   4
  12   0   0 4326.10 194.486   6
  12   0   0 4466.40 200.600   2
  14   0   0 389.818 30.4260   6
  16   0   0 1042.43 62.3442   6
   3   1   0 181.109 12.7941   2
   3   1   0 172.309 11.2321   7
   5  -1   0 23.3401 4.51580   6
   5   1   0 19.1187 5.20075   6
  -5  -1   0 19.0265 3.75649   9
  -5  -1   0 25.5715 6.52483   1
   5   1   0 28.6588 6.11705   2
   5  -1   0 23.6306 5.50665   4
   5  -1   0 27.9092 5.79696   3
  -7  -1   0 639.712 31.2032   9
   7   1   0 636.492 34.5122   6
   7  -1   0 631.071 34.9255   3
   7  -1   0 672.173 36.5003   4
   7  -1   0 655.638 32.6443   6
  -7  -1   0 657.824 31.6617   9
  -7  -1   0 640.091 36.1060   1
   7   1   0 650.112 34.3817   2
   7   1   0 635.553 35.4118   2
   9  -1   0 1349.93 68.1210   4
   9   1   0 1313.59 64.1818   6
  -9  -1   0 1256.38 60.6194   9
   9  -1   0 1326.33 61.9430   6
   9   1   0 1323.52 65.0418   2
  -9  -1   0 1298.65 60.4579   9
  -9  -1   0 1298.98 66.8721   1
   9   1   0 1268.36 65.9704   2
 -11  -1   0 95.0999 12.7541   1
  11  -1   0 85.0414 12.7992   4
  11   1   0 85.2715 13.1437   6
 -11  -1   0 85.6624 8.55357   9
  11  -1   0 98.1593 12.4315   6
  11   1   0 83.3775 12.1262   2
  13  -1   0 803.186 45.3566   6
  13  -1   0 745.691 47.4105   4
 -13  -1   0 765.340 40.2647   9
  13   1   0 762.831 44.4939   2
 -13  -1   0 772.832 43.8345   1
  13   1   0 787.882 47.3919   6
  15  -1   0 725.652 49.0609   4
  15   1   0 774.905 50.0392   6
 -15  -1   0 745.834 41.2353   9
  15   1   0 776.978 44.7536   2
  15  -1   0 755.702 47.6161   6
  17  -1   0 357.277 32.4970   6
  17   1   0 349.276 32.9901   6
  17   1   0 326.570 24.5103   2
 -17  -1   0 325.402 24.9388   9
   0  -2   0 9715.33 435.586   2
   0  -2   0 9478.02 454.836   8
   0   2   0 9999.99 438.796   7
  -2  -2   0 102.546 12.0804   8
   2   2   0 94.9331 11.9425   7
   2   2   0 84.5770 11.1877   2
  -2   2   0 88.3655 9.63921   7
  -2   2   0 92.1106 8.50570   9
   2  -2   0 100.935 10.2725   2
   2  -2   0 106.194 10.0096   8
   4   2   0 3614.79 170.149   7
  -4  -2   0 3831.24 178.803   8
  -4  -2   0 3712.31 166.283   9
   4   2   0 3586.68 170.331   2
   4  -2   0 3802.02 166.484   2
  -4   2   0 3733.09 168.744   1
  -4   2   0 3600.42 166.413   7
  -4  -2   0 3485.58 171.728   1
  -4   2   0 3753.59 161.656   9
   4  -2   0 3661.66 166.914   2
   6  -2   0 507.958 29.9733   3
  -6  -2   0 540.983 34.1201   8
   6  -2   0 511.680 26.2899   2
   6  -2   0 529.257 27.6092   2
  -6   2   0 542.865 27.4623   1
   6   2   0 511.752 30.1168   6
   6   2   0 543.629 29.3956   7
   6  -2   0 517.073 26.2654   2
   6  -2   0 528.167 26.7696   6
   6   2   0 531.731 32.4958   2
  -6  -2   0 486.176 32.4160   1
  -6  -2   0 525.613 29.4269   9
  -8  -2   0 3173.02 153.306   1
  -8  -2   0 3119.17 145.601   9
   8  -2   0 3207.94 151.928   4
   8   2   0 3199.39 151.906   2
  -8  -2   0 3308.90 158.985   8
   8   2   0 3220.06 152.135   8
   8   2   0 3190.64 142.932   6
   8  -2   0 3156.89 148.217   3
   8  -2   0 3154.26 138.183   6
  10  -2   0 159.840 14.2903   6
  10  -2   0 144.741 16.2399   4
  10  -2   0 133.082 15.0490   3
  10   2   0 149.142 16.6645   6
 -10  -2   0 138.879 13.3875   9
  10   2   0 135.918 16.4679   2
 -10  -2   0 152.723 17.7478   1
 -12  -2   0 1988.44 94.3101   9
  12   2   0 1973.23 96.5233   6
  12   2   0 1910.09 99.7356   2
  12  -2   0 1912.29 91.4167   6
 -12  -2   0 1919.30 99.8045   1
  12  -2   0 1918.04 100.753   4
  14   2   0 5.97003 8.59448   6
  14  -2   0 11.4850 8.23056   6
 -14  -2   0 14.3623 7.49922   9
  14  -2   0 5.83768 7.53902   4
  14   2   0 12.3603 8.25936   2
 -14  -2   0 8.12277 8.76620   1
  16  -2   0 211.753 26.0354   4
  16   2   0 282.603 26.2793   2
 -16  -2   0 278.034 24.1389   9
  -1   3   0 23.6925 6.66780   9
   1   3   0 25.3058 8.14869   1
  -1   3   0 20.0579 7.46541   1
  -1  -3   0 29.8320 8.36905   8
   1  -3   0 22.4443 7.53993   2
  -1  -3   0 20.8248 8.03439   1
  -1  -3   0 22.1804 7.69165   2
   1   3   0 28.3500 8.71682   7
  -1   3   0 25.8000 7.58058   7
  -3   3   0 621.419 37.6096   1
  -3  -3   0 668.171 40.6677   1
   3   3   0 660.146 39.5362   2
  -3   3   0 676.976 37.5798   7
  -3  -3   0 645.845 40.7935   8
   3  -3   0 666.125 36.7319   8
  -3   3   0 660.746 35.1416   9
   3   3   0 650.453 39.8762   1
   3  -3   0 692.857 32.8489   6
   3  -3   0 623.615 36.7724   2
   3   3   0 654.441 39.6891   7
  -5  -3   0 132.296 14.1555   9
  -5   3   0 108.165 9.56732   9
   5   3   0 128.985 15.3619   2
   5   3   0 114.617 14.1871   7
  -5   3   0 124.973 11.7979   7
   5   3   0 124.660 15.1142   1
  -5  -3   0 123.139 15.3439   8
   5  -3   0 133.474 12.8100   2
   5  -3   0 114.313 11.8569   2
  -5   3   0 132.377 13.0926   1
   5  -3   0 129.125 10.1571   6
  -5  -3   0 115.857 15.3513   1
   5  -3   0 116.371 12.9664   3
  -7  -3   0 1239.43 69.8529   1
   7   3   0 1240.89 65.7309   7
  -7  -3   0 1152.94 64.7444   9
  -7   3   0 1269.27 63.0400   1
  -7   3   0 1293.14 58.6256   9
   7  -3   0 1301.33 63.8189   2
   7  -3   0 1267.93 58.6882   6
   7  -3   0 1269.12 65.7875   3
   7   3   0 1306.56 69.3577   2
   7  -3   0 1260.55 62.9487   2
   7   3   0 1279.05 68.5355   1
  -7   3   0 1362.35 63.9181   7
  -7  -3   0 1245.58 71.5981   8
  -9  -3   0 393.673 31.4327   1
   9  -3   0 398.931 29.7773   4
   9  -3   0 389.794 24.1664   2
   9  -3   0 410.757 24.6735   2
   9  -3   0 409.332 24.7657   6
   9  -3   0 420.672 29.2173   3
   9   3   0 415.427 31.2746   2
  -9  -3   0 397.980 27.9886   9
  -9  -3   0 423.463 33.1009   8
 -11  -3   0 364.459 30.5054   1
  11  -3   0 352.753 27.7341   3
 -11  -3   0 355.638 27.0972   9
  11  -3   0 354.035 29.3985   4
  11   3   0 368.926 30.7127   2
  13   3   0 265.212 27.0100   2
  13  -3   0 244.275 24.6147   3
 -13  -3   0 250.105 23.3499   9
 -13  -3   0 262.498 26.8511   1
  13  -3   0 255.632 25.8999   4
 -15  -3   0 1044.11 64.3488   1
  15   3   0 1049.68 65.3100   2
 -15  -3   0 1058.14 62.3285   9
  15  -3   0 1044.72 66.0504   4
   0   4   0 9414.13 422.606   1
   0   4   0 9602.49 423.198   7
   0  -4   0 9449.22 422.948   1
   0  -4   0 9050.30 418.991   2
   0  -4   0 9057.19 436.716   8
   0   4   0 8811.14 410.463   9
   2  -4   0 176.950 17.9883   2
  -2  -4   0 159.618 18.1816   8
  -2   4   0 169.585 17.8399   1
   2  -4   0 154.079 16.4302   8
   2   4   0 162.501 18.0885   1
   2  -4   0 171.747 17.4244   1
  -2   4   0 157.910 15.3138   9
   2   4   0 160.301 18.5446   7
  -2  -4   0 152.952 18.1343   1
  -2   4   0 169.538 17.7486   7
   2   4   0 175.152 18.2118   2
   4   4   0 4474.66 207.980   1
   4  -4   0 4460.05 187.388   6
   4  -4   0 4527.10 209.528   8
  -4  -4   0 4371.88 208.343   1
   4  -4   0 4270.83 203.803   2
  -4  -4   0 4226.07 215.437   8
   4   4   0 4450.34 208.340   7
  -4   4   0 4287.44 198.867   9
  -4   4   0 4199.16 204.987   1
  -4   4   0 4379.75 205.416   7
   6   4   0 16.4309 8.14096   2
   6   4   0 4.46025 6.97909   7
   6  -4   0 3.03003 3.84192   6
  -6   4   0 4.59111 6.09762   7
  -6  -4   0 3.10023 6.05601   9
  -6   4   0 10.2718 7.27731   1
   6  -4   0 9.05576 6.22551   2
   6   4   0 7.66990 7.30367   1
  -6  -4   0 10.9197 7.82471   8
  -6   4   0 10.5580 5.68686   9
  -6  -4   0 7.68309 7.65506   1
   6  -4   0 9.39427 6.96971   3
   8  -4   0 3699.93 178.620   2
  -8  -4   0 3994.33 194.502   8
  -8   4   0 3948.69 179.449   1
  -8  -4   0 3719.82 186.131   1
  -8   4   0 3622.06 173.192   9
   8   4   0 3788.02 182.876   7
  -8  -4   0 3870.91 181.950   9
   8   4   0 3920.45 185.621   2
   8  -4   0 3823.94 180.454   3
 -10   4   0 541.831 32.0332   9
 -10  -4   0 592.409 44.4989   8
  10  -4   0 571.800 35.2780   2
  10  -4   0 586.170 39.9417   3
 -10   4   0 566.534 31.5202   9
 -10  -4   0 582.259 42.3589   1
  10   4   0 583.215 42.1540   2
 -10  -4   0 589.915 40.9326   9
  12  -4   0 2438.45 127.360   3
 -12  -4   0 2652.91 129.906   9
  12  -4   0 2451.49 131.171   4
  12   4   0 2519.26 131.626   2
  12  -4   0 2535.18 120.335   2
 -12  -4   0 2566.96 132.657   1
  14  -4   0 146.235 21.3425   3
 -14  -4   0 169.319 23.9003   1
  14  -4   0 163.225 23.6008   4
  14   4   0 182.718 24.5467   2
 -14  -4   0 170.065 23.3518   9
  -1  -5   0 673.898 44.5835   1
   1  -5   0 631.639 42.4945   2
  -1   5   0 655.527 43.4091   7
   1   5   0 649.387 43.7288   7
   1  -5   0 649.928 43.1066   8
   1  -5   0 671.989 43.3586   1
   1   5   0 622.946 42.9650   1
  -1  -5   0 641.832 44.1646   8
  -1   5   0 664.718 40.5928   9
  -1   5   0 620.716 42.6358   1
  -1  -5   0 670.428 43.9595   2
   3   5   0 6.88398 7.50661   7
  -3   5   0 7.04870 7.45607   1
  -3  -5   0 7.04951 7.38105   8
   3   5   0 9.70233 8.09066   1
  -3   5   0 4.95844 7.77438   7
  -3  -5   0 8.01749 8.40611   1
   3  -5   0 7.70646 6.25096   8
  -3   5   0 5.14918 6.49491   9
   3  -5   0 3.72333 6.24762   6
   3  -5   0 5.37174 7.17849   2
   5  -5   0 141.304 20.1936   3
  -5  -5   0 162.722 21.0201   1
   5  -5   0 134.287 17.4820   2
  -5   5   0 155.629 18.9735   7
  -5   5   0 154.476 16.5827   9
   5   5   0 143.446 19.6797   7
   5   5   0 157.180 20.2736   1
  -5   5   0 129.469 18.2562   1
   5  -5   0 144.996 14.7807   8
  -5  -5   0 143.380 19.8286   8
   7  -5   0 91.7418 16.5602   3
   7   5   0 93.8801 16.9917   7
  -7  -5   0 78.9990 16.7563   8
   7   5   0 97.0086 17.0208   2
   7   5   0 85.7472 17.1481   1
   7  -5   0 85.7046 14.6512   2
  -7   5   0 94.5602 15.6545   7
  -7   5   0 99.9804 14.0931   9
  -7   5   0 98.1370 15.4741   1
  -7  -5   0 87.7239 18.2313   1
   9   5   0 1147.76 68.3071   2
   9  -5   0 1097.25 61.4777   2
  -9   5   0 1028.70 60.9993   1
  -9   5   0 1070.55 59.5609   9
   9  -5   0 1128.00 66.4522   3
  -9  -5   0 1130.10 69.0124   1
   9   5   0 1164.07 66.7774   7
  -9  -5   0 1081.76 70.3731   8
 -11   5   0 3.22892 6.24171   9
  11  -5   0 9.91787 10.1828   3
  11  -5   0 2.54687 9.16877   4
 -11  -5   0 6.93087 10.6261   8
 -11  -5   0 7.82059 9.69850   1
  11  -5   0 7.21467 7.34594   2
  11   5   0 1.97557 8.58734   2
 -13   5   0 704.051 42.2719   9
  13  -5   0 731.760 42.7099   2
  13  -5   0 678.684 50.0683   3
 -13  -5   0 691.655 51.1402   1
  13  -5   0 740.214 53.9891   4
  13   5   0 679.141 51.0961   2
   0   6   0 4877.90 233.332   7
   0  -6   0 5002.13 233.954   1
   0  -6   0 4757.34 239.167   8
   0   6   0 4849.01 233.614   1
   0  -6   0 4703.73 231.023   2
  -2   6   0 64.4307 15.1979   7
   2  -6   0 60.6349 13.9310   8
   2  -6   0 53.1864 14.6755   2
   2   6   0 44.3247 13.0983   7
  -2  -6   0 58.6021 15.0528   8
  -2   6   0 45.9075 13.7856   1
  -2  -6   0 53.0093 14.6268   1
   2   6   0 53.5870 15.0627   1
  -4  -6   0 2314.54 127.001   8
   4  -6   0 2366.73 120.541   8
   4   6   0 2395.57 124.082   1
  -4  -6   0 2345.01 123.242   1
   4  -6   0 2381.66 120.858   2
  -4   6   0 2193.44 120.431   1
  -4   6   0 2390.44 116.948   9
   4   6   0 2262.26 122.213   7
  -4   6   0 2350.32 121.351   7
   6   6   0 9.16548 9.44703   7
   6  -6   0 11.9367 8.76800   2
  -6   6   0 15.8645 10.1055   7
   6  -6   0 9.40257 10.8953   3
  -6   6   0 20.8214 9.33675   9
  -6  -6   0 16.5041 10.2236   1
  -6   6   0 8.36136 8.81280   1
   6   6   0 10.4068 9.66567   1
  -6  -6   0 19.1547 11.5933   8
  -8  -6   0 2191.27 123.618   8
   8  -6   0 2106.56 118.245   3
  -8  -6   0 2187.68 118.920   1
   8  -6   0 2131.74 113.035   2
  -8   6   0 2264.86 110.680   9
   8   6   0 2309.66 118.756   7
  -8   6   0 2178.68 114.380   1
 -10  -6   0 289.119 32.6936   8
  10  -6   0 286.228 30.8530   3
 -10   6   0 285.231 26.8000   1
 -10  -6   0 277.757 30.7562   1
 -10   6   0 280.644 26.7659   1
 -10   6   0 292.295 25.6961   9
  10  -6   0 275.978 25.7390   2
   1   7   0 6.57857 9.32759   1
   1  -7   0 8.32113 8.92939   8
  -1   7   0 5.27001 8.41694   7
  -1  -7   0 10.1872 10.3139   1
  -1   7   0 5.59547 8.75475   1
   1   7   0 2.44159 8.16555   7
  -1  -7   0 3.71165 8.14824   8
   3  -7   0 221.933 25.4267   2
   3   7   0 207.353 25.2208   7
  -3  -7   0 244.387 27.6730   1
  -3   7   0 240.924 26.8097   1
  -3   7   0 219.278 25.8917   7
   3  -7   0 241.238 24.3142   8
  -3  -7   0 206.472 25.4935   8
   3   7   0 215.530 26.1541   1
   5  -7   0 53.0200 20.6510   3
  -5   7   0 57.2041 16.1250   7
   5  -7   0 53.3564 14.4122   2
   5   7   0 47.9076 14.2810   7
   5   7   0 49.5419 15.3411   1
  -5  -7   0 53.5486 16.5335   1
  -5  -7   0 39.5036 14.3412   8
  -5   7   0 45.1160 14.8381   1
   7  -7   0 451.024 36.8858   2
  -7   7   0 470.717 38.7825   1
  -7  -7   0 452.629 41.7916   8
   7  -7   0 446.309 43.4489   3
  -7   7   0 498.624 37.1681   9
   7   7   0 478.036 40.8732   1
   7   7   0 460.090 39.1362   7
  -7  -7   0 462.147 40.7607   1
  -9   7   0 140.324 20.1387   9
   0   8   0 2020.70 115.181   7
   0   8   0 2063.78 116.135   1
   0  -8   0 2231.08 118.742   8
   2  -8   0 3.15990 7.68665   8
   2   8   0 6.61024 10.4423   1
   2   8   0 4.75423 9.97646   7
  -2   8   0 1.88084 8.88601   7
  -2  -8   0 3.19112 8.64305   8
  -2   8   0 -0.5704 9.33206   1
   3   0  -1 286.576 15.7767   4
   3   0   1 291.332 16.5257   4
   3   0   1 303.316 14.2524   2
   3   0  -1 300.504 15.0850   2
   5   0   1 1525.56 68.8160   4
   5   0  -1 1382.07 65.4127   2
   5   0  -1 1377.60 64.7205   2
   5   0  -1 1365.91 67.5844   4
   5   0   1 1554.00 63.8499   6
   5   0  -1 1354.64 63.4046   6
   7   0  -1 209.394 15.2951   4
   7   0  -1 211.147 13.0062   2
   7   0  -1 222.189 15.3287   6
   7   0   1 203.354 15.0221   6
  -7   0   1 213.786 12.8692   1
   7   0   1 194.920 15.6936   4
   7   0  -1 228.388 12.4616   2
   9   0  -1 146.032 13.9686   4
   9   0   1 197.810 16.0123   4
   9   0  -1 146.981 14.1488   6
   9   0   1 196.276 15.0716   6
   9   0  -1 140.474 11.3048   2
   9   0  -1 158.192 10.8421   2
  11   0  -1 478.145 29.5828   6
  11   0   1 367.286 27.2758   6
  11   0  -1 456.739 29.2701   4
  11   0  -1 440.503 24.1753   2
 -11   0   1 370.959 25.3627   1
  11   0  -1 453.815 24.1280   2
  13   0  -1 262.036 23.5046   6
  13   0  -1 237.549 16.3379   2
  15   0   1 127.720 18.7893   6
  15   0  -1 157.500 12.7014   2
  15   0  -1 168.010 21.4599   6
  17   0   1 442.296 37.0963   6
   2   1  -1 1336.85 60.3177   7
   2  -1   1 1264.24 59.2779   2
   2  -1  -1 1322.66 58.8881   2
   2   1   1 1276.00 60.0284   2
   2   1   1 1206.72 61.9331   7
  -4  -1  -1 3274.00 158.772   9
   4  -1   1 3678.15 159.820   3
   4  -1   1 3599.26 163.779   4
   4  -1   1 3764.96 151.505   6
   4   1  -1 3613.93 168.124   8
   4   1  -1 3553.29 163.008   2
   4   1   1 3698.27 162.570   7
   4  -1  -1 3317.71 162.288   5
   4   1   1 3742.00 161.374   2
   4   1   1 3767.96 152.423   6
   4  -1  -1 3359.87 158.984   2
  -4  -1   1 3798.37 171.192   8
   4  -1  -1 3429.33 159.462   3
  -4  -1   1 3744.50 158.122   9
   4  -1  -1 3328.75 159.201   2
  -6  -1  -1 1265.21 61.8392   1
   6  -1   1 1230.33 62.2171   4
   6   1  -1 1270.83 60.1608   8
   6  -1   1 1213.40 60.2403   3
   6   1  -1 1301.77 59.5192   6
   6   1  -1 1245.32 61.6339   2
   6  -1   1 1278.26 57.2332   6
  -6  -1  -1 1279.19 57.8705   9
   6  -1  -1 1261.24 61.9375   4
   6  -1  -1 1239.80 55.7585   6
  -6  -1   1 1238.43 64.7107   8
  -6  -1   1 1216.66 60.7616   1
   6   1   1 1216.58 58.0515   6
   6   1   1 1230.24 59.7498   2
   6  -1  -1 1235.12 60.0768   3
  -6  -1   1 1200.29 57.0925   9
   8   1  -1 937.734 53.4549   2
   8   1  -1 980.146 52.7461   6
  -8  -1  -1 959.976 53.5034   1
   8  -1   1 1117.88 54.4236   3
  -8  -1  -1 900.451 49.1544   9
   8   1  -1 987.712 51.9511   2
   8  -1   1 1096.27 55.8808   4
   8  -1   1 1091.25 50.8764   6
   8   1   1 1120.00 52.6531   6
  -8  -1   1 1125.38 51.3277   9
  -8  -1   1 1169.48 57.7929   8
   8  -1  -1 964.983 49.7440   6
   8   1   1 1123.07 54.9588   2
   8   1   1 1154.04 53.1762   2
   8  -1  -1 978.449 54.6740   4
   8  -1  -1 978.154 53.4555   3
  -8  -1   1 1100.97 49.5197   9
  -8  -1   1 1147.86 54.4710   1
 -10  -1  -1 684.651 37.3646   1
 -10  -1  -1 670.369 33.9532   9
  10   1  -1 699.037 39.8729   6
  10   1  -1 689.667 38.3296   2
  10  -1   1 637.581 40.3484   4
  10  -1   1 658.484 37.1572   6
  10  -1  -1 693.120 40.2811   4
  10   1   1 678.945 38.1827   2
 -10  -1   1 683.459 39.3063   1
 -10  -1   1 638.296 33.4628   9
 -10  -1   1 620.625 35.3925   9
  10   1   1 648.419 38.3685   6
  10  -1  -1 697.345 36.9424   6
  12  -1   1 319.379 22.8945   6
  12  -1   1 318.214 24.8331   4
  12   1  -1 236.219 20.4313   2
 -12  -1  -1 255.613 19.9972   1
 -12  -1  -1 246.598 17.3130   9
  12   1  -1 244.234 23.1826   6
 -12  -1  -1 248.477 17.8655   9
  12   1   1 318.932 23.1335   2
  12  -1  -1 228.368 22.3009   4
  12  -1  -1 241.416 21.2998   6
 -12  -1   1 303.521 17.8892   9
  12   1   1 345.948 25.2652   6
 -12  -1   1 314.403 23.3940   1
 -14  -1  -1 600.166 34.3246   9
  14  -1   1 586.306 41.2083   4
  14   1  -1 596.940 41.0742   6
  14  -1   1 599.654 38.8546   6
  14   1  -1 575.658 35.8759   2
  14   1   1 584.036 38.0215   2
  14  -1  -1 616.091 39.8637   6
 -14  -1   1 605.921 33.5143   9
  14  -1  -1 583.243 40.2487   4
  14   1   1 606.117 40.6767   6
 -16  -1  -1 481.486 32.5034   9
  16   1  -1 480.202 32.0239   2
  16  -1   1 556.189 39.1941   6
 -16  -1   1 569.901 32.7428   9
  16   1   1 548.302 40.7644   6
  16   1   1 522.815 34.4771   2
  16  -1  -1 469.142 37.7653   4
  -1  -2  -1 2162.81 102.209   8
   1  -2   1 1948.68 97.3717   2
   1   2  -1 2179.17 98.8720   7
  -1   2   1 1900.28 96.5939   7
   1  -2   1 2037.80 100.489   8
   1  -2  -1 2275.97 102.388   8
   1  -2  -1 2137.17 96.6282   2
   1   2   1 1973.05 98.9270   7
  -1  -2   1 1917.66 101.984   8
  -1   2  -1 2179.33 98.9059   7
   3  -2   1 1224.83 57.0587   6
   3  -2   1 1148.92 61.3641   2
  -3  -2  -1 1323.36 66.0357   8
  -3  -2  -1 1407.23 65.8187   1
  -3   2   1 1128.25 59.5325   9
   3   2  -1 1359.05 64.9442   2
  -3   2   1 1200.96 60.3376   7
   3   2  -1 1392.23 63.6153   7
  -3   2   1 1224.52 61.4334   1
   3  -2  -1 1370.68 60.5695   2
  -3   2  -1 1366.83 63.0738   7
  -3  -2   1 1145.60 66.4449   8
   3   2   1 1188.36 62.6197   2
   3   2   1 1198.05 58.1410   6
  -3   2  -1 1389.46 61.9890   1
   3   2   1 1188.88 65.1520   7
   3  -2  -1 1302.05 63.6381   8
   3  -2  -1 1384.56 61.8686   3
  -3   2  -1 1357.07 58.2071   9
  -3  -2   1 1199.42 63.8727   1
   5   2  -1 740.512 41.8406   2
  -5  -2  -1 718.259 41.8573   1
   5  -2   1 748.296 35.9601   6
   5  -2   1 718.814 35.8694   2
   5  -2   1 736.594 39.1666   3
  -5   2   1 751.218 36.8293   1
  -5   2   1 747.823 36.8227   1
  -5   2   1 748.825 36.0301   7
  -5  -2  -1 726.126 41.7121   8
   5  -2   1 702.735 37.3964   2
  -5  -2  -1 761.836 40.3119   9
   5   2  -1 735.041 38.5928   7
   5   2   1 759.478 40.3558   2
   5   2   1 741.274 37.9907   6
   5  -2  -1 743.174 36.1354   2
  -5   2  -1 748.219 37.4435   1
  -5   2  -1 775.727 38.9863   7
   5  -2  -1 732.605 37.0140   2
  -5  -2   1 737.579 41.3802   1
   5  -2  -1 744.043 38.8337   3
   5   2   1 708.626 40.2781   7
  -5  -2   1 702.975 43.3173   8
  -5  -2   1 741.272 37.8934   9
   7  -2   1 936.418 46.9096   6
  -7  -2  -1 1036.55 54.7469   8
   7   2  -1 1100.11 51.6818   8
  -7  -2  -1 981.911 53.9190   1
  -7   2   1 938.368 46.5189   1
  -7  -2  -1 987.027 50.1967   9
   7  -2   1 932.918 50.7799   3
   7  -2   1 879.811 51.7174   4
   7   2  -1 1007.91 53.8319   2
  -7  -2   1 936.356 55.7873   8
   7   2   1 934.237 49.4198   6
   7  -2  -1 1054.10 46.4302   2
   7   2   1 903.692 51.5002   2
   7  -2  -1 1057.43 45.7528   6
  -7  -2   1 904.725 52.9439   1
   7  -2  -1 1104.54 51.9363   3
   7   2   1 922.722 48.7879   7
  -7  -2   1 904.659 48.5585   9
   7  -2  -1 1030.93 47.0037   2
   9  -2   1 484.577 29.8016   6
   9  -2   1 489.124 33.6222   4
   9  -2   1 468.281 31.9507   3
  -9  -2  -1 566.892 35.3816   1
   9   2  -1 596.914 29.3156   8
  -9  -2  -1 601.525 32.2482   9
   9   2  -1 617.239 36.1278   2
   9   2   1 493.343 28.4129   8
   9  -2  -1 608.696 35.1784   4
   9   2   1 470.372 32.7716   2
  -9  -2   1 480.492 29.8110   9
   9  -2  -1 599.854 29.6299   6
   9  -2  -1 569.096 33.0608   3
  -9  -2   1 497.828 34.5608   1
  -9  -2   1 480.138 36.2777   8
   9   2   1 479.642 32.2667   6
 -11  -2  -1 1592.69 78.2466   9
 -11  -2  -1 1626.50 82.4883   1
  11  -2   1 1499.91 75.4340   6
  11   2  -1 1642.62 83.0801   2
  11  -2   1 1503.41 80.5785   3
  11  -2   1 1447.81 82.7092   4
 -11  -2   1 1560.71 76.9824   9
  11   2   1 1492.21 81.7312   2
  11  -2  -1 1756.23 76.0693   6
  11  -2  -1 1683.91 83.9208   4
  11   2   1 1500.74 78.8157   6
 -11  -2   1 1462.12 82.3716   1
  11  -2  -1 1670.67 81.6539   3
 -13  -2  -1 242.833 21.9018   1
  13  -2   1 190.255 22.1042   4
  13   2  -1 214.911 21.8208   2
  13  -2   1 207.322 19.9743   6
 -13  -2  -1 224.646 19.5644   9
 -13  -2   1 213.702 18.4417   9
  13  -2  -1 214.258 21.9282   4
 -13  -2   1 212.878 22.9366   1
  13   2   1 206.903 22.7460   6
  13   2   1 190.474 21.5728   2
  15  -2   1 434.078 33.5265   6
  15  -2   1 432.625 36.0163   4
  15   2  -1 492.515 34.9180   2
 -15  -2  -1 514.424 33.8502   9
  15   2   1 443.009 36.6088   6
  15   2   1 436.303 34.9891   2
 -15  -2   1 411.415 34.4369   1
 -15  -2   1 445.389 31.5376   9
  15  -2  -1 554.287 38.7885   4
   0   3   1 458.124 28.0012   1
   0  -3  -1 352.904 25.8899   2
   0   3  -1 362.151 26.9027   7
   0   3   1 466.403 27.7743   7
   0  -3  -1 364.416 27.0344   8
   0   3  -1 359.413 26.4894   1
   0  -3   1 478.588 28.3900   1
   0  -3  -1 333.135 25.7751   1
   0  -3   1 437.314 27.4796   2
   2   3  -1 1765.19 87.6763   2
   2   3  -1 1749.61 87.9934   7
  -2   3   1 1728.38 86.5233   1
   2  -3   1 1698.97 86.2717   2
  -2  -3  -1 1818.95 88.8083   2
   2   3  -1 1737.14 88.3534   1
  -2   3   1 1718.55 85.4969   7
   2  -3   1 1765.22 88.0256   8
  -2   3   1 1644.56 83.2972   9
  -2   3  -1 1672.84 82.0137   9
   2   3   1 1837.59 88.6243   1
  -2  -3   1 1735.02 91.3149   8
  -2  -3   1 1722.52 88.2957   1
   2  -3  -1 1825.17 89.4921   8
  -2   3  -1 1772.97 87.5088   7
  -2  -3   1 1726.59 87.7189   2
  -2   3  -1 1769.88 87.0304   1
   2   3   1 1741.66 88.9522   7
   2  -3  -1 1746.13 85.4631   2
  -4   3   1 1613.16 73.7579   7
  -4   3   1 1581.70 72.2999   9
  -4  -3  -1 1354.67 79.3386   8
   4   3  -1 1408.75 76.3057   7
   4  -3   1 1630.22 68.7826   6
  -4  -3  -1 1400.09 77.9661   1
   4  -3   1 1660.45 73.5815   8
   4   3  -1 1337.36 76.4012   1
  -4  -3  -1 1416.53 76.3508   9
   4  -3   1 1595.89 74.9892   2
  -4   3   1 1618.80 74.9915   1
   4   3  -1 1414.62 77.1531   2
  -4  -3   1 1571.84 74.4108   9
   4   3   1 1641.42 79.3617   7
   4  -3  -1 1399.44 74.7674   8
   4   3   1 1552.16 77.3734   1
   4  -3  -1 1360.55 72.9640   2
   4   3   1 1663.46 77.6472   2
  -4   3  -1 1395.21 70.1279   9
  -4   3  -1 1419.05 75.2036   7
  -4   3  -1 1390.52 74.6737   1
  -4  -3   1 1618.62 79.0368   1
   4  -3  -1 1370.84 73.5888   3
  -6   3   1 1188.27 54.2347   9
   6   3  -1 1149.80 60.6392   7
  -6  -3  -1 1221.92 66.0173   8
   6  -3   1 1144.69 54.4416   6
   6  -3   1 1091.59 58.0843   2
   6   3  -1 1160.87 63.2302   1
   6  -3   1 1132.52 57.4839   2
  -6   3   1 1154.30 56.9907   7
  -6  -3  -1 1154.35 64.0746   1
   6  -3   1 1139.35 59.8702   3
  -6  -3  -1 1192.38 61.7515   9
  -6   3   1 1130.42 56.0488   9
   6   3  -1 1151.15 63.3086   2
  -6   3   1 1166.76 57.9837   1
  -6  -3   1 1090.41 63.1291   1
   6   3   1 1088.65 61.6699   2
  -6   3  -1 1093.94 58.2183   1
  -6   3  -1 1181.32 53.9932   9
   6   3   1 1191.09 62.0746   1
   6  -3  -1 1186.87 51.9606   6
   6   3   1 1084.79 61.5748   7
  -6   3  -1 1153.43 54.4339   9
  -6  -3   1 1124.49 59.3694   9
   6  -3  -1 1109.32 57.7922   2
  -6  -3   1 1140.94 65.9236   8
   6  -3  -1 1140.20 59.4803   3
  -6   3  -1 1181.06 59.2306   7
   6  -3  -1 1160.37 57.0682   2
   8  -3   1 531.491 28.1112   2
  -8  -3  -1 413.452 33.5412   8
   8  -3   1 497.234 27.8487   2
   8   3  -1 421.056 32.9711   2
   8  -3   1 513.003 27.8980   6
   8  -3   1 514.526 32.9016   4
  -8   3   1 487.197 25.7549   9
  -8  -3  -1 379.694 32.3981   1
  -8  -3  -1 427.114 31.3993   9
   8  -3   1 501.044 31.4381   3
  -8   3   1 524.867 26.7441   1
  -8   3  -1 411.598 27.0584   1
  -8  -3   1 522.392 36.3276   8
   8   3   1 531.469 31.9810   6
   8  -3  -1 395.237 25.9667   2
   8   3   1 505.191 33.3020   2
  -8  -3   1 505.668 34.5316   1
   8  -3  -1 396.888 26.6395   2
  -8  -3   1 483.734 30.3811   9
   8  -3  -1 403.240 29.8473   3
   8   3   1 516.577 30.6848   7
  10  -3   1 1070.42 59.5303   3
 -10  -3  -1 1062.20 61.9375   1
 -10  -3  -1 1066.36 59.6008   9
  10  -3   1 1037.09 60.7624   4
  10  -3   1 1041.47 53.4833   6
  10   3  -1 1122.93 62.5567   2
  10   3  -1 1073.09 56.7373   8
  10  -3  -1 1088.54 59.2593   3
  10  -3  -1 1068.93 52.5868   2
  10  -3  -1 1070.28 61.1244   4
 -10  -3   1 998.396 61.8687   1
  10   3   1 1036.19 57.9640   6
 -10  -3   1 1050.17 57.4059   9
  10   3   1 1017.45 60.7320   2
  12  -3   1 149.632 16.2980   6
  12   3  -1 114.408 18.3388   2
  12  -3   1 158.244 18.4144   3
  12  -3   1 154.055 19.2742   4
 -12  -3  -1 98.8939 17.8624   1
 -12  -3  -1 115.136 17.1842   9
  12   3   1 142.127 19.3634   2
 -12  -3   1 185.331 21.9523   1
  12  -3  -1 120.972 17.1473   3
  12  -3  -1 119.746 18.1501   4
 -12  -3   1 159.828 17.6181   9
  12   3   1 163.007 20.0190   6
  14  -3   1 557.399 43.1193   4
  14   3  -1 614.783 44.5261   2
 -14  -3  -1 611.957 43.2453   1
 -14  -3  -1 623.841 42.7532   9
 -14  -3   1 600.685 43.6214   1
 -14  -3   1 575.179 40.2948   9
  14   3   1 602.508 44.0834   2
  14  -3  -1 583.291 43.6323   4
 -16  -3  -1 232.413 26.2063   9
  16   3  -1 219.191 26.2775   2
  16  -3   1 278.032 29.6603   4
 -16  -3  -1 241.068 26.5602   1
  16   3   1 285.683 28.9196   2
  16  -3  -1 206.707 26.7291   4
 -16  -3   1 293.392 26.9210   9
 -16  -3   1 282.306 28.8737   1
   1  -4   1 270.188 23.9580   1
   1   4  -1 311.492 24.4778   1
  -1   4   1 264.873 23.9208   1
  -1  -4  -1 357.863 26.7125   2
  -1  -4  -1 346.324 26.0845   1
   1  -4   1 253.591 23.0428   2
   1   4  -1 340.479 25.8194   7
  -1  -4  -1 334.450 25.8545   8
  -1   4   1 276.703 22.2461   9
  -1   4   1 268.175 23.5016   7
  -1   4  -1 332.848 24.7089   1
  -1  -4   1 278.589 24.9052   8
   1  -4  -1 338.632 25.2074   8
  -1  -4   1 255.449 23.9740   2
   1  -4  -1 335.462 25.1532   1
  -1   4  -1 343.406 23.4732   9
   1   4   1 258.076 24.1873   7
   1   4   1 259.868 24.2427   1
   1  -4  -1 337.638 24.7396   2
  -1  -4   1 250.137 24.1783   1
  -1   4  -1 354.883 26.2689   7
  -3   4   1 191.257 19.2783   1
   3  -4   1 204.683 18.0644   8
   3   4  -1 249.003 21.9916   2
   3   4  -1 246.789 22.2281   7
  -3  -4  -1 232.859 21.8828   8
  -3  -4  -1 251.400 22.8000   2
   3   4  -1 231.320 21.1488   1
  -3  -4  -1 237.442 22.3945   1
  -3   4   1 193.682 19.2586   7
   3  -4   1 213.461 19.9166   2
  -3   4   1 207.663 18.3128   9
   3  -4   1 209.105 17.6612   6
  -3  -4   1 185.529 20.8050   1
   3  -4  -1 262.830 20.2759   8
   3   4   1 197.794 20.7831   7
  -3   4  -1 238.227 18.3516   9
  -3   4  -1 254.050 21.4998   7
   3  -4  -1 246.672 19.9704   1
   3   4   1 209.429 20.6097   2
   3  -4  -1 244.531 15.7856   6
  -3   4  -1 234.904 20.1998   1
  -3  -4   1 189.306 21.3532   8
   3  -4  -1 219.290 19.6514   2
  -5   4   1 600.200 36.5102   1
  -5  -4  -1 513.787 38.9402   8
   5   4  -1 548.264 38.5791   1
   5  -4   1 625.490 36.7708   2
   5   4  -1 513.174 37.5275   7
  -5   4   1 601.014 34.5894   9
  -5   4   1 625.615 35.9660   7
   5   4  -1 546.735 38.7628   2
   5  -4   1 621.279 32.4350   6
  -5  -4  -1 501.867 38.4210   1
   5  -4   1 614.009 38.3649   3
   5   4   1 618.845 39.8616   7
   5  -4  -1 545.081 36.6652   3
  -5   4  -1 499.807 35.2748   1
  -5  -4   1 623.376 40.6573   1
  -5   4  -1 508.863 32.2556   9
  -5  -4   1 620.635 41.3458   8
   5   4   1 606.497 38.9423   2
   5  -4  -1 512.912 34.9006   2
   5  -4  -1 568.336 33.3694   8
   5   4   1 621.111 39.3822   1
  -5   4  -1 568.673 37.0948   7
  -7   4   1 196.062 17.8785   1
  -7  -4  -1 221.537 22.1063   9
   7   4  -1 231.771 22.5278   1
  -7   4   1 174.185 16.3815   9
  -7   4   1 191.076 17.4968   7
  -7  -4  -1 217.771 22.6688   8
   7  -4   1 184.348 17.8528   2
  -7  -4  -1 210.689 22.6176   1
   7   4  -1 206.483 20.5910   7
   7  -4   1 168.672 15.4874   6
   7   4  -1 235.221 23.2286   2
   7  -4   1 167.629 18.9003   3
   7   4   1 167.361 20.0775   1
  -7   4  -1 209.301 15.1418   9
   7   4   1 170.510 20.3639   2
  -7  -4   1 164.553 21.3418   8
  -7  -4   1 165.548 18.9955   9
  -7   4  -1 218.008 19.3305   1
   7  -4  -1 208.872 19.8777   3
   7  -4  -1 219.653 18.3751   2
  -7  -4   1 174.387 21.3676   1
   7   4   1 177.892 20.0517   7
  -9  -4  -1 115.331 18.3783   1
   9  -4   1 120.182 13.8304   2
  -9  -4  -1 109.112 17.4904   9
  -9  -4  -1 115.837 18.5212   8
   9  -4   1 118.096 13.7136   6
   9   4  -1 134.072 18.9779   2
  -9   4   1 112.986 12.7237   1
   9  -4   1 116.324 16.1168   3
  -9   4   1 114.330 13.0025   9
   9  -4  -1 121.764 16.1665   3
  -9  -4   1 127.116 20.1031   8
  -9   4  -1 110.594 11.1714   9
   9  -4  -1 117.075 13.8972   2
  -9  -4   1 118.766 16.4242   9
   9   4   1 112.438 17.4675   2
  -9   4  -1 121.104 13.8945   1
  -9  -4   1 107.275 18.2930   1
   9   4   1 109.954 15.8035   7
  11  -4   1 455.049 36.9703   4
  11  -4   1 434.313 35.6710   3
 -11   4   1 454.801 29.7718   9
 -11  -4  -1 558.771 39.9823   1
  11  -4   1 448.775 30.1391   2
 -11  -4  -1 558.519 39.2654   9
  11   4  -1 530.188 39.6772   2
  11   4  -1 551.886 34.7564   8
  11  -4  -1 526.242 31.6572   2
 -11  -4   1 419.055 37.4981   1
  11  -4  -1 554.812 39.7575   4
 -11  -4   1 450.520 35.4121   9
  11   4   1 443.076 36.9562   2
  11  -4  -1 528.460 37.4235   3
 -13  -4  -1 123.364 21.4834   1
  13   4  -1 115.228 20.7666   2
  13  -4   1 155.123 20.3352   3
  13  -4   1 167.160 22.3306   4
 -13  -4  -1 125.011 20.5420   9
 -13  -4   1 176.607 21.9305   9
  13  -4  -1 111.741 20.3942   4
  13   4   1 183.589 23.1092   2
 -13  -4   1 186.898 23.8093   1
  13  -4  -1 102.213 18.1136   3
  15   4  -1 193.518 26.1945   2
  15  -4   1 130.609 21.5505   3
 -15  -4  -1 179.844 24.3637   9
  15  -4   1 127.283 23.4167   4
 -15  -4  -1 188.291 25.5683   1
 -15  -4   1 136.187 23.1472   1
  15  -4  -1 161.782 24.0098   4
  15   4   1 136.759 22.4124   2
 -15  -4   1 144.525 22.5504   9
   0  -5   1 822.374 48.1671   1
   0  -5  -1 704.411 47.0538   2
   0  -5   1 798.030 48.0188   8
   0   5   1 785.685 48.3467   7
   0  -5   1 825.845 48.6811   2
   0   5  -1 639.841 45.7279   1
   0  -5  -1 630.788 45.6982   8
   0  -5  -1 661.200 46.4515   1
   0   5   1 744.199 47.2727   1
   0   5  -1 652.610 45.8589   7
  -2  -5  -1 368.446 30.5434   1
  -2   5   1 343.409 26.7252   9
   2  -5   1 338.265 27.9254   8
   2  -5   1 336.401 28.1554   2
   2   5  -1 343.350 29.6513   7
   2   5  -1 375.542 30.4347   1
  -2   5   1 354.329 29.2062   7
  -2  -5  -1 372.425 30.4085   8
   2  -5   1 375.458 29.7017   1
  -2   5   1 330.099 28.6510   1
  -2  -5   1 333.827 29.2232   1
   2   5   1 340.980 29.2882   1
   2  -5  -1 380.142 29.9572   2
   2   5   1 328.348 28.8779   7
  -2   5  -1 371.438 30.0623   7
  -2   5  -1 346.707 26.7394   9
   2  -5  -1 374.214 28.8720   8
   2  -5  -1 363.974 29.3075   1
  -2   5  -1 382.282 29.8856   1
  -2  -5   1 327.271 29.5887   8
  -4   5   1 2151.18 102.075   9
   4   5  -1 1938.99 107.051   7
  -4   5   1 2086.85 106.144   1
  -4  -5  -1 1897.43 110.675   8
  -4  -5  -1 1883.69 107.215   1
   4  -5   1 2239.28 106.036   2
   4   5  -1 1951.26 107.390   1
   4  -5   1 2242.02 98.1152   6
  -4   5   1 2156.56 106.781   7
   4  -5   1 2186.74 105.315   8
   4  -5  -1 1931.95 104.572   2
   4   5   1 2140.25 107.979   7
  -4   5  -1 1861.43 104.819   1
   4   5   1 2107.35 108.061   1
  -4   5  -1 2011.28 105.742   7
  -4  -5   1 2183.47 112.828   8
   4  -5  -1 1886.50 104.417   8
  -4  -5   1 2165.52 109.547   1
  -4   5  -1 1915.44 101.101   9
   6  -5   1 662.351 46.7736   3
  -6  -5  -1 656.449 47.0897   1
  -6   5   1 645.453 43.8592   1
   6   5  -1 693.954 47.1812   7
  -6  -5  -1 711.602 49.4474   8
   6   5  -1 696.595 46.9682   1
   6  -5   1 698.709 43.7194   2
  -6   5   1 703.630 44.8076   7
  -6   5   1 655.974 41.4453   9
   6   5   1 726.428 47.3705   7
  -6   5  -1 688.636 44.1543   1
  -6   5  -1 675.352 41.5130   9
   6   5   1 698.773 46.9330   1
  -6  -5   1 682.686 49.1110   8
   6  -5  -1 675.042 43.7322   2
  -6  -5   1 670.755 47.6449   1
  -6   5  -1 754.411 45.6946   7
   6  -5  -1 719.088 46.9765   3
  -8   5   1 933.024 51.8135   1
  -8   5   1 957.951 52.0660   1
  -8   5   1 910.735 49.6393   9
  -8  -5  -1 767.804 56.7953   8
  -8  -5  -1 770.834 54.6537   1
   8   5  -1 763.863 53.1385   7
   8  -5   1 924.053 51.0376   2
   8  -5   1 922.239 55.6175   3
   8   5  -1 747.649 53.9268   2
   8  -5  -1 770.522 49.9641   2
   8   5   1 952.116 56.2283   7
  -8  -5   1 882.529 56.7106   1
   8   5   1 945.300 56.4055   2
   8  -5  -1 776.466 52.9431   3
  -8   5  -1 742.689 47.0627   9
  -8  -5   1 908.624 59.2851   8
  -8   5  -1 769.225 50.4483   1
  10  -5   1 262.490 23.0709   2
 -10   5   1 261.088 22.5848   9
 -10  -5  -1 268.145 28.6526   1
  10  -5   1 241.086 26.2589   3
  10   5  -1 266.453 28.4370   2
 -10   5   1 265.194 22.5513   1
 -10  -5  -1 285.710 30.1805   8
  10  -5   1 240.489 27.6559   4
 -10   5  -1 271.247 21.8577   9
 -10   5  -1 264.923 23.0919   1
  10   5   1 251.097 27.4604   2
 -10  -5   1 280.907 30.6850   8
  10  -5  -1 265.448 23.7112   2
  10  -5  -1 247.577 26.4285   3
 -10  -5   1 252.499 28.2001   1
  12  -5   1 345.390 33.0819   4
 -12   5   1 339.545 25.4909   9
  12  -5   1 334.449 31.9145   3
  12  -5   1 344.817 24.6328   2
  12   5  -1 272.461 26.9809   8
  12   5  -1 261.499 30.3610   2
 -12  -5  -1 271.362 30.8969   1
  12  -5  -1 272.375 29.2612   3
  12  -5  -1 268.432 31.2535   4
  12   5   1 319.066 31.2123   2
 -12  -5   1 332.603 32.4819   1
  12  -5  -1 274.130 24.4907   2
 -12   5  -1 249.263 22.4033   9
  -1   6   1 228.869 26.0242   1
   1   6  -1 286.561 27.5866   7
   1   6  -1 308.696 28.3945   1
   1  -6   1 243.126 25.5862   8
  -1   6   1 225.579 25.7698   7
  -1  -6  -1 296.278 27.5985   8
   1  -6   1 246.391 26.3075   2
  -1  -6   1 242.118 26.4170   1
   1  -6  -1 324.707 28.3908   2
  -1   6  -1 309.172 28.0758   1
   1   6   1 227.921 25.7450   7
  -1   6  -1 305.251 27.5561   7
  -1  -6   1 239.103 25.8860   8
   1  -6  -1 340.759 32.9326   1
   1  -6  -1 315.898 27.3451   8
   1   6   1 227.643 25.9795   1
  -3  -6  -1 198.550 23.7446   8
  -3  -6  -1 241.531 26.0998   1
  -3   6   1 158.676 21.8692   1
  -3   6   1 176.925 22.9072   7
   3   6  -1 229.782 24.7439   7
   3  -6   1 167.776 20.2727   8
   3   6  -1 213.741 24.1952   1
   3  -6   1 180.625 22.0661   2
   3  -6  -1 227.719 21.7741   8
  -3  -6   1 164.276 22.1599   8
  -3  -6   1 168.230 22.8569   1
   3   6   1 154.742 20.9978   7
  -3   6  -1 220.857 23.6480   1
  -3   6  -1 231.655 23.6449   7
  -3   6  -1 221.470 22.0829   9
   3   6   1 164.894 22.3351   1
   3  -6  -1 216.890 23.9228   2
  -5   6   1 309.234 29.4342   7
  -5  -6  -1 277.468 29.7503   1
   5   6  -1 276.548 28.9000   1
   5  -6   1 322.746 33.9017   3
  -5   6   1 344.644 27.4853   9
   5  -6   1 352.672 26.0249   8
  -5  -6  -1 251.696 28.7749   8
   5  -6   1 327.276 28.4116   2
   5   6  -1 288.871 29.6626   7
  -5   6   1 320.071 29.6254   1
  -5   6  -1 283.596 26.0399   9
  -5  -6   1 344.474 31.8028   1
   5  -6  -1 264.890 31.3401   3
   5   6   1 325.691 29.3656   7
   5  -6  -1 285.678 24.5128   8
  -5  -6   1 326.090 31.2029   8
  -5   6  -1 297.144 28.3652   7
   5   6   1 341.726 31.4041   1
  -5   6  -1 290.451 27.9083   1
   5  -6  -1 284.876 28.2223   2
  -7  -6  -1 191.848 24.9574   8
   7  -6   1 162.552 24.2548   3
  -7   6   1 176.269 20.5480   9
  -7   6   1 184.615 22.7260   1
  -7  -6  -1 191.716 24.7146   1
  -7   6   1 164.007 22.3240   7
   7   6  -1 206.757 25.0586   7
   7   6  -1 221.947 26.0374   1
   7  -6   1 157.585 20.5495   2
   7   6   1 157.452 21.9619   7
   7   6   1 179.064 24.0304   1
  -7  -6   1 147.691 23.4523   8
  -7  -6   1 174.619 24.3026   1
  -7   6  -1 224.171 23.8481   1
   7  -6  -1 194.862 22.7284   2
   7  -6  -1 206.678 25.6426   3
  -7   6  -1 211.997 21.4401   9
  -9  -6  -1 104.915 20.8215   8
   9  -6   1 92.6067 16.4884   2
  -9   6   1 89.1667 17.6487   1
  -9   6   1 91.4572 17.3341   1
  -9   6   1 99.4452 16.5407   9
  -9  -6  -1 99.0803 20.5802   1
   9   6  -1 113.404 20.1804   7
   9  -6   1 90.4916 21.7969   3
  -9  -6   1 91.5919 20.1734   8
  -9  -6   1 87.3109 20.2044   1
  -9   6  -1 103.160 17.6491   1
  -9   6  -1 106.826 16.5363   9
   9  -6  -1 105.500 17.1207   2
   9   6   1 102.919 18.9233   7
   9  -6  -1 100.565 19.8771   3
 -11   6   1 395.486 32.1506   9
  11   6  -1 464.403 39.4780   8
 -11  -6  -1 452.953 41.6142   8
  11  -6   1 368.794 37.7751   3
  11  -6   1 377.774 39.5769   4
 -11  -6  -1 453.737 39.8377   1
  11  -6   1 390.905 31.4190   2
 -11  -6   1 414.966 39.9993   8
  11  -6  -1 434.095 33.0336   2
 -11   6  -1 470.883 32.8847   9
  11  -6  -1 469.181 40.3219   3
 -11  -6   1 390.965 38.4085   1
   0   7  -1 131.895 21.2043   7
   0   7   1 192.113 24.2976   1
   0   7   1 177.674 23.5442   7
   0  -7  -1 137.785 20.6138   8
   0   7  -1 135.811 21.6456   1
   0  -7   1 188.870 23.3593   8
  -2  -7  -1 653.685 49.1661   8
  -2  -7  -1 734.908 51.3225   1
   2  -7   1 679.349 48.3561   2
   2  -7   1 670.766 46.7291   8
  -2   7   1 665.848 48.6813   1
   2   7  -1 692.361 49.5908   1
  -2   7   1 619.135 47.7851   7
   2   7  -1 659.503 47.9577   7
   2   7   1 637.881 47.5135   7
  -2   7  -1 663.470 47.5178   7
  -2  -7   1 658.692 49.0578   8
   2  -7  -1 695.117 49.5148   2
  -2  -7   1 674.915 49.0628   1
   2   7   1 648.137 48.8157   1
  -2   7  -1 686.082 48.8005   1
   2  -7  -1 664.775 46.2958   8
   4  -7   1 580.957 41.5491   2
  -4   7   1 575.256 42.8550   1
  -4  -7  -1 458.486 41.0474   1
  -4  -7  -1 421.242 40.4728   8
   4   7  -1 451.726 40.5625   1
  -4   7   1 601.619 43.2141   7
   4   7  -1 398.198 38.2654   7
   4  -7   1 582.090 38.5604   8
  -4   7  -1 472.885 40.1318   1
   4   7   1 545.750 41.1352   7
   4   7   1 563.669 43.1281   1
  -4  -7   1 565.712 43.3155   1
  -4  -7   1 517.843 42.1560   8
  -4   7  -1 436.472 38.5669   7
   4  -7  -1 481.773 37.0336   8
   4  -7  -1 479.203 40.0660   2
  -6   7   1 511.252 41.7805   7
   6  -7   1 489.058 46.6771   3
   6   7  -1 536.534 43.3967   1
  -6  -7  -1 536.414 43.7362   1
  -6   7   1 499.859 41.3121   1
  -6  -7  -1 543.763 45.1187   8
   6   7  -1 512.085 41.9344   7
   6  -7   1 529.352 40.3585   2
  -6  -7   1 483.918 42.5864   8
   6  -7  -1 495.517 46.4002   3
  -6  -7   1 494.263 42.6353   1
   6   7   1 527.676 43.5313   1
  -6   7  -1 548.672 41.2936   7
  -6   7  -1 490.416 39.7845   1
   6  -7  -1 498.035 40.3608   2
  -6   7  -1 562.167 39.9417   9
   6   7   1 490.573 40.2790   7
  -8  -7  -1 144.482 25.6191   8
  -8   7   1 216.711 23.8240   9
  -8   7   1 216.615 25.7145   1
  -8  -7  -1 167.152 25.5995   1
   8  -7   1 220.211 24.3632   2
   8   7  -1 191.571 25.9118   7
   8  -7   1 223.683 30.7939   3
  -8   7   1 197.651 24.9612   1
  -8   7  -1 167.667 22.1148   9
   8  -7  -1 168.293 23.0257   2
   8   7   1 203.809 25.1481   7
  -8  -7   1 232.033 28.3215   1
  -8  -7   1 217.340 28.1619   8
   8  -7  -1 164.701 27.6585   3
  -8   7  -1 150.538 22.6837   1
  -1  -8  -1 353.609 32.9653   8
   1  -8   1 293.675 30.3600   8
  -1   8   1 258.443 30.2331   7
   1   8  -1 357.970 33.3161   7
  -1   8   1 257.006 31.0815   1
   1   8  -1 341.027 33.6521   1
   1   8   1 270.285 31.6498   1
   1   8   1 272.417 30.8528   7
   1  -8  -1 356.749 31.9710   8
  -1   8  -1 345.472 33.4238   1
  -1   8  -1 345.086 32.9403   7
  -1  -8   1 299.302 31.6943   8
   3   8  -1 265.092 29.9448   1
   3  -8   1 209.101 24.5075   8
  -3  -8  -1 265.462 30.2949   1
  -3  -8  -1 257.251 29.0238   8
  -3   8   1 184.670 26.0774   7
   3   8  -1 254.216 28.6560   7
  -3   8   1 183.412 26.7234   1
   3   8   1 202.512 26.6910   7
  -3   8  -1 256.707 28.5756   1
   3   8   1 204.948 28.0916   1
  -3  -8   1 197.492 27.0775   8
  -3   8  -1 257.457 28.5798   7
   3  -8  -1 256.506 25.8324   8
  -3  -8   1 222.191 28.6580   1
   2   0  -2 663.589 33.5718   8
  -2   0  -2 644.138 32.6852   5
   2   0   2 714.828 32.0416   2
  -2   0   2 686.381 32.9619   5
   2   0  -2 635.186 32.2427   2
  -4   0   2 3259.23 149.564   9
   4   0  -2 3432.71 154.098   4
   4   0   2 3315.82 151.946   2
  -4   0  -2 3527.51 155.312   5
   4   0  -2 3540.33 159.127   8
   4   0  -2 3619.89 153.072   2
  -4   0   2 3290.14 155.822   5
   4   0   2 3335.37 144.588   6
  -4   0  -2 3325.46 150.236   9
   6   0   2 420.468 20.4733   2
  -6   0   2 412.315 19.2582   9
   6   0  -2 322.066 20.5560   2
   6   0   2 428.774 22.7139   6
  -6   0  -2 319.409 19.8708   1
  -6   0   2 433.692 21.3389   1
   6   0   2 399.544 23.8346   4
   6   0  -2 324.818 21.9073   6
   6   0   2 415.979 19.9720   2
  -6   0   2 424.929 21.1181   9
   8   0  -2 1085.27 51.0079   6
   8   0   2 944.280 47.9308   2
   8   0  -2 1041.45 48.8856   2
   8   0  -2 1025.57 51.6683   4
   8   0  -2 1052.70 48.5666   2
  -8   0   2 989.182 49.1454   1
  -8   0   2 951.438 46.1064   9
   8   0   2 953.649 49.3516   6
   8   0   2 989.406 47.4502   2
  -8   0  -2 1091.89 48.1952   1
  -8   0   2 926.861 47.9976   9
 -10   0  -2 368.620 20.9503   1
 -10   0   2 413.569 23.2607   1
 -10   0   2 411.965 23.1833   9
  10   0   2 414.372 26.2528   6
  10   0  -2 376.806 22.3635   2
  10   0   2 418.279 22.1400   2
  10   0  -2 363.794 25.3678   4
  10   0  -2 352.359 22.2145   2
 -10   0   2 392.944 20.2463   9
  10   0  -2 367.989 26.2380   6
  10   0   2 418.769 21.7734   2
  12   0   2 228.019 15.9476   2
  12   0   2 241.856 21.2507   6
  12   0  -2 266.913 16.9547   2
 -12   0   2 227.695 17.8271   9
  12   0   2 241.768 16.9583   2
  12   0  -2 270.073 21.4125   4
 -12   0   2 234.288 18.1171   1
  12   0  -2 273.114 22.9406   6
  14   0  -2 222.692 17.5248   2
 -14   0   2 280.643 16.8178   9
  14   0   2 297.666 25.1679   6
 -16   0   2 453.832 27.3074   9
  16   0  -2 498.999 28.3993   2
  16   0   2 478.751 37.0826   6
   1  -1   2 46.8512 4.99547   4
  -1   1   2 45.7251 5.64795   7
   1   1  -2 50.1601 6.03929   8
   1  -1   2 45.4629 5.53071   2
   1  -1  -2 48.9838 5.52727   2
  -1  -1   2 42.5945 6.20728   8
   1   1   2 45.2713 6.03748   7
   1  -1  -2 51.5906 5.77711   8
  -1   1  -2 45.4833 5.38511   7
   3  -1   2 83.8302 7.73607   3
   3  -1   2 83.0677 8.09197   4
   3  -1   2 95.9222 6.90369   2
   3  -1   2 87.2329 7.95741   6
  -3  -1   2 91.6033 9.21502   8
   3   1   2 90.7933 9.38182   7
   3   1   2 87.2683 7.70472   2
   3   1   2 84.4438 7.60397   6
  -5   1   2 1321.99 62.9715   1
   5  -1   2 1246.48 65.9306   4
   5  -1   2 1321.16 61.5397   2
   5  -1   2 1320.88 61.4763   6
  -5   1   2 1300.11 60.7854   9
   5  -1   2 1276.75 62.6309   5
   5  -1   2 1290.53 61.6561   2
  -5   1   2 1266.94 60.5492   9
   5   1  -2 1510.85 66.4854   8
  -5  -1  -2 1479.19 65.4787   1
   5   1  -2 1441.22 65.5534   2
  -5  -1  -2 1351.68 65.0123   9
  -5  -1  -2 1511.12 67.2985   8
   5  -1   2 1312.27 64.2624   3
  -5  -1   2 1325.32 68.4296   8
   5   1   2 1225.27 64.7564   7
  -5  -1   2 1269.28 64.8485   1
   5  -1  -2 1416.49 62.6619   2
   5   1   2 1277.70 63.7581   2
   5   1   2 1311.41 61.6297   6
  -5  -1   2 1258.90 62.1217   9
   5  -1  -2 1449.63 63.9793   5
   5  -1  -2 1437.82 64.0088   3
   5  -1  -2 1490.83 62.7913   2
   7  -1   2 35.0572 6.75766   3
   7  -1   2 38.7462 7.16725   6
  -7   1   2 36.6813 4.87569   1
   7  -1   2 27.9170 6.90870   4
   7   1   2 35.3723 7.27878   6
  -7  -1   2 37.7271 7.88300   8
   7   1   2 28.9622 6.56690   2
  -7  -1   2 34.5248 6.78890   1
   7   1   2 30.4501 5.57749   2
  -7  -1   2 29.7448 7.59225   9
   7   1   2 36.5461 7.41766   2
  -7  -1   2 35.6172 4.95084   9
  -9   1   2 144.782 10.0634   1
   9  -1   2 145.697 13.7971   6
   9  -1   2 137.875 14.6256   4
   9   1   2 150.134 14.0544   2
  -9  -1   2 133.335 13.4462   9
   9   1   2 145.434 12.1236   2
  -9  -1   2 140.528 13.3072   1
  -9  -1   2 140.710 10.6619   9
   9   1   2 133.709 14.0139   6
  11  -1   2 304.160 22.6187   6
 -11  -1  -2 271.118 19.4317   1
  11   1  -2 273.188 20.4110   2
  11  -1   2 294.218 23.6958   4
 -11  -1  -2 246.027 18.6602   9
  11  -1  -2 270.536 16.4478   2
  11  -1  -2 275.032 22.1431   4
  11  -1  -2 286.256 22.0433   6
  11   1   2 283.804 20.3196   2
 -11  -1   2 281.074 17.6276   9
  11   1   2 284.502 22.6083   6
  11  -1  -2 282.696 16.5754   2
 -11  -1   2 292.027 21.6608   1
  13  -1   2 342.583 29.6973   4
  13   1  -2 438.913 26.8348   2
  13  -1   2 344.303 27.5240   6
 -13  -1  -2 424.849 26.2606   9
 -13  -1  -2 439.779 25.2092   1
 -13  -1   2 329.257 23.1218   9
  13   1   2 334.317 26.8031   2
  13  -1  -2 474.926 31.3555   4
  13  -1  -2 446.668 22.3361   2
 -13  -1   2 362.463 28.9033   1
  13   1   2 319.987 28.4344   6
  15   1  -2 12.7721 6.97690   2
 -15  -1  -2 13.3842 8.09817   9
  15  -1   2 4.55018 7.52687   6
  15   1   2 3.65722 7.70509   6
  15   1   2 2.08017 7.25944   2
 -15  -1   2 3.33200 5.03312   9
  15  -1  -2 4.64682 7.78171   4
 -17  -1  -2 580.573 37.1836   9
  17   1  -2 580.751 33.3928   2
  17  -1   2 478.481 38.6517   6
 -17  -1   2 469.216 32.1848   9
  17   1   2 462.650 39.5658   6
  17   1   2 457.104 33.7914   2
   0  -2  -2 2914.22 133.248   2
   0   2   2 2803.15 133.776   7
   0   2  -2 2970.25 134.160   1
   0  -2   2 2870.89 133.263   2
   0  -2  -2 2929.29 133.388   2
   0  -2   2 2856.15 138.981   8
   0   2  -2 2968.26 134.434   7
   0  -2  -2 2956.86 139.383   8
   0   2   2 2832.69 133.928   1
   0   2   2 2824.45 133.893   1
   2  -2   2 2182.99 91.6402   6
  -2  -2  -2 1891.84 98.3940   1
  -2  -2  -2 1944.85 101.552   8
  -2   2   2 2220.05 97.2976   1
   2   2  -2 1906.47 97.7059   7
   2   2  -2 1937.70 98.5651   1
   2   2  -2 1860.12 97.5759   2
   2  -2   2 2151.14 96.9182   2
  -2   2   2 2195.13 97.0419   7
  -2   2   2 2217.91 97.3374   1
  -2   2   2 2250.11 95.4303   9
  -2   2  -2 2039.49 93.8316   9
   2   2   2 2233.03 90.1512   6
   2   2   2 2188.04 97.5535   2
   2  -2  -2 1946.13 100.887   8
  -2  -2   2 2190.34 103.443   8
  -2  -2   2 2199.07 98.8368   1
  -2   2  -2 1933.83 97.3438   7
  -2   2  -2 1938.11 96.8641   1
   2  -2  -2 1962.14 96.0311   2
   2   2   2 2153.08 99.5226   7
  -4  -2  -2 5409.93 239.597   1
  -4   2   2 5180.60 235.680   1
   4  -2   2 4969.17 220.049   6
  -4   2   2 5335.08 235.198   7
  -4   2   2 5315.63 231.050   9
  -4  -2  -2 4877.86 234.847   9
  -4  -2  -2 5214.35 247.050   8
   4   2  -2 5535.13 238.643   2
   4  -2   2 4899.78 232.376   3
   4  -2   2 5071.09 234.005   2
  -4   2  -2 5446.98 235.499   1
  -4   2  -2 5450.65 236.245   7
  -4   2  -2 5263.48 228.602   9
  -4  -2   2 4967.60 238.126   1
   4   2   2 5168.78 235.903   2
   4  -2  -2 5255.52 233.757   2
   4  -2  -2 5388.10 245.181   8
  -4   2  -2 4934.85 230.607   9
   4   2   2 5161.64 240.488   7
  -4  -2   2 5355.64 231.982   9
  -4  -2   2 5039.27 248.733   8
   4   2   2 5286.99 220.835   6
   4  -2  -2 5390.83 232.262   3
  -6   2   2 2237.17 92.1355   9
  -6   2   2 2117.04 95.3013   1
   6   2  -2 1968.87 100.959   8
   6  -2   2 2086.50 96.9817   3
  -6   2   2 2097.19 93.4186   9
   6  -2   2 2221.54 93.8683   2
   6   2  -2 1855.51 99.4180   2
   6  -2   2 2182.83 99.9849   4
  -6  -2  -2 1810.93 98.2540   9
  -6  -2  -2 1915.65 102.163   8
  -6  -2  -2 1855.30 99.4784   1
   6  -2   2 2054.46 94.2740   2
   6  -2   2 2179.54 92.0271   6
   6  -2  -2 1935.71 95.8845   5
   6  -2  -2 1903.44 94.2507   2
  -6  -2   2 2118.30 95.4346   9
  -6  -2   2 2222.35 105.685   8
   6   2   2 2223.84 93.5408   6
  -6   2  -2 1947.41 95.3294   7
   6  -2  -2 1911.68 94.4785   2
   6  -2  -2 1971.38 96.3666   3
   6   2   2 2199.44 98.5559   2
  -6  -2   2 2098.91 99.9398   1
   6   2   2 2174.44 99.9535   7
  -6   2  -2 2014.38 94.9458   1
   8  -2   2 2158.94 106.679   3
   8  -2   2 2196.71 109.633   4
   8   2  -2 2218.00 108.469   8
   8  -2   2 2181.13 100.569   6
  -8  -2  -2 2348.69 113.021   8
  -8  -2  -2 2194.47 109.112   1
  -8  -2  -2 2249.88 107.706   9
   8   2  -2 2221.32 109.750   2
  -8   2   2 2289.05 103.123   1
   8   2   2 2216.32 107.514   2
   8  -2  -2 2286.61 106.460   3
  -8  -2   2 2216.97 103.860   9
   8  -2  -2 2298.60 98.1209   6
  -8  -2   2 2135.32 114.296   8
  -8  -2   2 2162.06 109.046   1
   8  -2  -2 2262.23 102.472   2
   8   2   2 2205.04 104.350   7
   8  -2  -2 2336.36 102.661   2
 -10  -2  -2 1030.22 60.3725   1
  10   2  -2 1051.66 61.6898   2
 -10   2   2 1233.46 54.1395   1
  10  -2   2 1204.50 63.2598   4
  10  -2   2 1236.78 57.7836   6
 -10  -2  -2 1010.31 59.3992   9
  10  -2   2 1194.15 60.9168   3
  10   2   2 1190.61 59.8822   6
  10   2   2 1216.27 61.3251   2
  10  -2  -2 1074.35 53.7928   2
 -10  -2   2 1222.09 62.9902   1
 -10  -2   2 1155.72 56.9691   9
  10  -2  -2 1055.91 59.6578   3
  10  -2  -2 1051.46 53.6664   2
  10  -2  -2 982.602 60.4560   4
 -12  -2  -2 858.641 50.2337   9
 -12  -2  -2 923.459 50.3975   1
  12  -2   2 881.832 48.2458   6
  12   2  -2 834.881 50.7325   2
  12  -2   2 817.630 52.7014   4
  12   2   2 836.761 50.3240   6
  12   2   2 845.870 50.5688   2
  12  -2  -2 855.898 51.9684   4
 -12  -2   2 874.160 52.8038   1
 -12  -2   2 889.639 47.1522   9
  14  -2   2 1052.49 62.8336   4
 -14  -2  -2 986.286 57.6354   1
  14   2  -2 937.570 58.8482   2
 -14  -2  -2 935.474 58.2928   9
  14  -2   2 1079.59 58.2731   6
  14   2   2 1063.97 61.3962   2
 -14  -2   2 1086.03 62.6300   1
 -14  -2   2 1123.91 57.0195   9
  14  -2  -2 951.651 60.8472   4
  14   2   2 1078.47 61.4670   6
  16   2  -2 926.839 55.6713   2
  16  -2   2 944.931 57.0124   6
 -16  -2  -2 938.167 57.1414   9
  16  -2   2 897.896 60.3226   4
  16   2   2 900.483 57.8391   2
 -16  -2   2 942.196 54.0107   9
  16  -2  -2 959.655 60.0212   4
  16   2   2 939.146 60.0178   6
   1   3  -2 151.807 15.1006   7
   1  -3   2 147.001 13.9738   8
   1  -3   2 153.150 14.6880   2
  -1   3   2 159.328 13.6979   9
  -1  -3  -2 145.995 15.0875   1
   1   3  -2 142.501 14.8301   1
  -1  -3  -2 144.636 15.2338   2
  -1   3   2 164.958 14.8479   1
   1  -3   2 159.146 15.5116   1
  -1   3   2 149.114 14.0672   7
  -1  -3  -2 135.254 14.6210   8
   1   3   2 166.251 14.7052   2
  -1  -3   2 147.597 15.1680   1
  -1   3  -2 136.998 14.7025   7
   1   3   2 152.008 14.8867   1
  -1  -3   2 144.149 15.2127   8
   1  -3  -2 148.741 14.3346   1
   1   3   2 161.653 15.4686   7
  -1  -3   2 157.081 15.0640   2
   1  -3  -2 145.016 14.5561   8
  -1   3  -2 146.172 14.2225   1
   1  -3  -2 157.282 14.4672   2
   3   3  -2 341.728 24.7872   1
   3  -3   2 315.488 22.4031   2
  -3   3   2 336.875 22.4463   1
  -3   3   2 316.127 21.6234   9
  -3  -3  -2 318.709 23.9407   8
  -3  -3  -2 309.499 24.1147   1
   3  -3   2 309.216 20.4912   8
   3   3  -2 327.974 23.5112   7
   3  -3   2 328.921 21.2520   6
  -3   3   2 310.920 21.1135   7
  -3  -3   2 307.081 24.9817   8
  -3  -3   2 322.990 24.1495   1
  -3   3  -2 329.613 19.7852   9
   3   3   2 322.599 23.1013   2
  -3  -3   2 347.671 23.9369   2
   3  -3  -2 318.764 22.9061   8
   3   3   2 319.497 24.6537   7
  -3   3  -2 323.360 22.1099   1
  -3   3  -2 312.582 22.5324   7
   3  -3  -2 335.493 21.5601   2
   3   3   2 335.406 23.9041   1
   3  -3  -2 328.742 21.3431   2
  -5  -3  -2 1661.26 80.2521   9
   5   3  -2 1621.17 81.6628   1
  -5  -3  -2 1608.26 82.6419   8
  -5   3   2 1472.01 75.4994   1
   5   3  -2 1634.78 78.7542   7
  -5   3   2 1512.54 75.0300   7
   5  -3   2 1506.29 74.6401   2
  -5  -3  -2 1619.85 81.4532   1
  -5   3   2 1482.08 72.3535   9
   5  -3   2 1524.65 77.3149   3
  -5   3   2 1502.36 74.6421   9
   5   3  -2 1663.63 81.5509   2
  -5   3   2 1456.37 75.3587   1
   5  -3   2 1476.25 75.9440   2
   5  -3   2 1489.81 71.3756   6
   5   3   2 1477.93 72.6125   6
   5   3   2 1564.16 78.8749   2
  -5   3  -2 1580.28 76.5528   1
  -5   3  -2 1584.73 71.8234   9
  -5  -3   2 1415.01 79.6254   1
   5   3   2 1493.40 80.8113   7
   5  -3  -2 1551.42 76.9121   8
  -5   3  -2 1613.61 77.4719   7
  -5  -3   2 1514.26 76.2723   9
  -5  -3   2 1419.78 83.0971   8
  -5   3  -2 1651.33 75.3743   9
   5  -3  -2 1622.46 76.5373   3
   5   3   2 1523.79 78.9862   1
   5  -3  -2 1610.39 75.2660   2
  -7   3   2 203.724 13.4448   9
  -7  -3  -2 191.524 19.9076   1
   7   3  -2 188.164 19.6800   2
   7   3  -2 200.653 19.8839   1
  -7   3   2 205.823 14.7511   7
  -7  -3  -2 199.118 20.2772   9
  -7  -3  -2 180.785 19.1786   8
   7  -3   2 211.808 16.2752   6
   7  -3   2 182.879 17.8368   4
   7  -3   2 187.217 17.6835   3
  -7   3   2 210.493 15.1980   1
   7  -3   2 199.440 14.7297   2
   7  -3   2 201.761 15.5696   2
  -7   3   2 183.807 15.1586   9
   7   3  -2 192.646 17.6894   8
   7   3   2 207.356 17.9671   6
  -7   3  -2 187.839 12.1817   9
   7   3   2 217.517 18.6009   1
  -7   3  -2 200.608 14.5627   9
   7  -3  -2 196.960 17.2319   3
   7   3   2 211.325 18.4753   1
   7   3   2 208.199 19.2640   7
   7  -3  -2 197.316 14.6872   2
  -7  -3   2 196.614 21.2815   8
  -7  -3   2 196.597 19.9411   1
  -7   3  -2 190.813 16.1104   1
   7   3   2 199.178 18.6849   2
  -7  -3   2 201.352 17.2639   9
   9  -3   2 322.158 27.1172   4
   9   3  -2 419.138 30.7023   2
  -9  -3  -2 397.941 29.9534   1
  -9   3   2 318.732 19.2966   9
  -9  -3  -2 400.270 30.1247   8
   9   3  -2 400.476 25.5199   8
   9  -3   2 324.577 26.1444   3
  -9  -3  -2 398.428 29.3023   9
   9  -3   2 333.877 21.4765   2
  -9   3   2 313.880 21.5466   9
  -9   3   2 337.078 21.2467   1
   9  -3   2 314.217 23.5161   6
   9  -3   2 324.024 21.0255   2
  -9   3  -2 389.476 23.0111   1
  -9  -3   2 336.708 28.9048   1
   9  -3  -2 388.947 22.0751   2
   9   3   2 343.340 26.5865   6
   9  -3  -2 420.053 27.7754   3
  -9  -3   2 341.788 30.1670   8
  -9  -3   2 340.291 25.1867   9
   9   3   2 325.064 27.1584   2
  11   3  -2 130.993 12.9977   8
 -11  -3  -2 126.283 18.5750   1
  11   3  -2 128.916 19.1367   2
  11  -3   2 170.897 18.4240   3
 -11  -3  -2 126.597 18.0281   9
  11  -3   2 173.331 19.4307   4
  11   3   2 159.852 19.0636   2
  11  -3  -2 111.425 17.0400   4
  11  -3  -2 127.328 11.6998   2
  11  -3  -2 124.123 16.3706   3
 -13  -3  -2 583.217 40.0179   9
  13  -3   2 513.851 39.1578   4
  13   3  -2 555.160 40.0791   2
  13  -3   2 466.149 36.7737   3
 -13  -3  -2 599.411 39.5432   1
  13  -3   2 486.349 34.3142   6
 -13  -3   2 502.346 35.5147   9
  13   3   2 493.604 37.8609   6
  13  -3  -2 592.876 40.5824   4
 -13  -3   2 457.868 38.7355   1
  13   3   2 452.591 37.2119   2
  15  -3   2 89.1337 18.6942   4
 -15  -3  -2 82.2419 18.0262   9
  15   3  -2 84.1621 17.9705   2
 -15  -3  -2 81.0200 17.2469   1
 -15  -3   2 110.741 17.0290   9
  15  -3  -2 81.2833 17.9925   4
 -15  -3   2 108.462 20.3170   1
  15   3   2 94.3949 17.8306   2
  15   3   2 115.541 19.8441   6
   0   4  -2 770.395 42.7775   9
   0   4   2 698.231 44.3497   7
   0  -4  -2 716.083 44.2488   2
   0   4   2 680.499 43.8772   1
   0   4  -2 765.811 45.4841   1
   0  -4  -2 717.600 44.1905   1
   0  -4  -2 757.805 46.0226   8
   0  -4   2 723.752 45.6729   8
   0  -4   2 697.825 44.1590   2
   0  -4   2 720.108 44.7531   1
   0   4  -2 778.155 45.7525   7
   0   4   2 741.649 42.6074   9
  -2   4   2 534.328 32.6462   7
  -2   4   2 530.995 31.4734   9
   2  -4   2 566.054 34.4377   1
   2   4  -2 440.824 33.3939   1
   2   4  -2 423.590 32.5084   7
  -2   4   2 505.855 32.9861   1
  -2  -4  -2 437.587 33.4478   1
   2  -4   2 519.418 33.3080   2
  -2  -4  -2 422.220 33.3286   8
   2  -4   2 524.169 32.0202   8
  -2   4  -2 406.724 31.4895   1
   2  -4  -2 426.009 31.3003   2
  -2   4  -2 415.465 28.9697   9
  -2   4  -2 420.574 31.6522   7
  -2  -4   2 507.994 34.4935   1
   2  -4  -2 453.980 31.7390   1
   2   4   2 542.951 33.7049   2
   2   4   2 522.721 34.1254   1
   2  -4  -2 400.999 31.0598   8
   2   4   2 509.558 34.2864   7
  -2  -4   2 495.565 34.7812   8
   4  -4   2 2158.69 108.671   2
  -4   4   2 2252.04 108.580   7
  -4   4   2 2223.41 106.355   9
  -4  -4  -2 2177.84 115.880   8
   4   4  -2 2282.75 112.559   1
   4   4  -2 2306.70 112.484   2
  -4   4   2 2218.84 109.285   1
  -4  -4  -2 2228.62 112.970   1
   4  -4   2 2204.26 101.739   6
   4   4  -2 2169.91 111.357   7
  -4  -4   2 2138.15 112.148   1
   4  -4  -2 2213.81 107.828   2
  -4   4  -2 2164.47 103.687   9
   4   4   2 2106.52 111.743   7
   4   4   2 2106.88 111.076   1
  -4   4  -2 2215.34 109.724   1
   4   4   2 2127.99 110.081   2
  -4  -4   2 2061.53 115.408   8
  -4   4  -2 2253.46 109.795   7
   4  -4  -2 2304.81 111.288   8
   6  -4   2 559.128 31.3083   6
  -6  -4  -2 441.931 36.2241   8
  -6   4   2 539.552 32.6357   1
  -6   4   2 546.903 32.2084   9
   6  -4   2 553.782 33.2915   2
   6   4  -2 432.743 35.1265   2
  -6   4   2 586.367 32.8937   7
   6   4  -2 394.978 33.4723   1
   6  -4   2 558.892 35.5624   3
   6   4  -2 404.575 33.0659   7
  -6  -4  -2 420.660 35.2945   1
  -6   4   2 555.987 32.8087   1
   6   4   2 576.884 37.3256   7
   6  -4  -2 412.233 31.5912   3
   6  -4  -2 431.155 31.3202   2
  -6  -4   2 587.659 39.5184   8
  -6   4  -2 424.782 28.5444   9
   6   4   2 572.970 36.6632   1
  -6   4  -2 421.748 31.7782   7
  -6  -4   2 535.204 37.4678   1
   6   4   2 565.167 36.5652   2
   8  -4   2 823.516 47.5952   2
  -8   4   2 841.183 47.1626   1
   8   4  -2 894.725 53.6038   8
  -8   4   2 819.747 46.9712   9
   8  -4   2 834.909 45.9036   6
  -8  -4  -2 854.871 54.6778   1
  -8  -4  -2 892.087 56.7913   8
   8   4  -2 944.317 55.6616   2
   8  -4   2 813.783 50.8213   3
  -8  -4  -2 916.457 53.8983   9
  -8  -4   2 834.942 54.4262   1
  -8   4  -2 893.479 44.3212   9
   8  -4  -2 855.508 50.1265   3
  -8  -4   2 829.653 53.6804   9
   8   4   2 840.041 52.1345   7
  -8  -4   2 814.154 55.7821   8
   8   4   2 836.658 52.9504   2
  -8   4  -2 876.405 48.6122   1
   8  -4  -2 862.341 47.9500   2
 -10  -4  -2 332.901 32.8818   8
  10   4  -2 364.987 33.2525   2
 -10   4   2 420.659 25.0294   1
  10  -4   2 420.249 27.9658   6
 -10  -4  -2 347.653 31.7697   9
  10   4  -2 327.530 28.0368   8
  10  -4   2 411.258 25.7506   2
  10  -4   2 400.001 31.9012   4
 -10   4   2 400.296 26.6421   9
  10  -4   2 425.387 32.1355   3
 -10  -4  -2 320.771 31.5388   1
 -10  -4   2 422.297 31.1189   9
 -10  -4   2 394.308 33.4725   1
  10   4   2 392.310 32.2296   2
 -10  -4   2 414.169 35.5215   8
  10  -4  -2 333.862 29.2828   3
 -10   4  -2 350.501 22.6454   9
  10  -4  -2 340.510 25.9950   2
 -12   4   2 256.227 20.9522   9
  12  -4   2 251.653 26.3072   3
  12   4  -2 288.721 30.1410   2
  12  -4   2 275.696 27.9673   4
 -12  -4  -2 325.690 30.4413   9
  12  -4   2 260.081 19.1597   2
 -12  -4  -2 285.126 29.2789   1
  12   4   2 273.370 28.0216   2
 -12  -4   2 282.161 26.8504   9
  12  -4  -2 302.086 22.0676   2
  12  -4  -2 301.014 29.3092   4
 -12  -4   2 277.611 29.5930   1
  12  -4  -2 279.837 26.2288   3
  14  -4   2 401.394 34.6608   4
 -14  -4  -2 285.698 31.4815   1
  14  -4   2 377.044 32.9525   3
  14   4  -2 297.226 32.4442   2
 -14  -4  -2 299.671 31.9252   9
 -14  -4   2 412.814 33.1359   9
  14  -4  -2 290.213 29.9886   3
  14   4   2 378.555 33.0202   2
 -14  -4   2 369.648 34.0606   1
  14  -4  -2 310.241 32.6511   4
  -1  -5  -2 144.229 19.3497   1
  -1   5   2 134.136 18.1710   7
  -1  -5  -2 140.438 18.3113   8
  -1  -5  -2 149.729 19.7759   2
   1   5  -2 124.380 17.7676   1
  -1   5   2 119.981 17.6715   1
   1  -5   2 135.769 18.3473   1
   1  -5   2 128.490 17.6436   2
   1   5  -2 143.728 18.8336   7
   1  -5   2 132.412 17.4456   8
  -1   5  -2 135.791 17.9625   1
  -1  -5   2 132.078 18.5515   1
   1   5   2 116.405 17.8460   1
   1  -5  -2 130.956 17.5560   2
  -1   5  -2 148.407 17.1190   9
  -1   5  -2 147.681 18.9945   7
   1   5   2 131.143 18.4056   7
  -1  -5   2 140.094 18.6733   8
   1  -5  -2 135.717 18.3892   1
  -1  -5   2 126.282 17.9185   2
   1  -5  -2 137.557 17.6460   8
  -3  -5  -2 146.571 19.0828   8
   3  -5   2 97.4519 14.5640   8
   3   5  -2 160.494 19.9240   7
   3  -5   2 112.879 16.4505   2
  -3   5   2 95.6291 14.4495   9
   3   5  -2 138.010 18.1920   1
  -3   5   2 103.417 16.3997   1
  -3   5   2 101.079 16.3365   7
   3  -5   2 97.5035 15.3894   6
  -3  -5  -2 165.071 20.8819   1
  -3   5  -2 143.563 16.2717   9
   3  -5  -2 153.609 18.1615   2
   3  -5  -2 144.427 16.6103   8
  -3  -5   2 86.2010 17.1473   1
   3   5   2 96.2287 17.0437   1
  -3   5  -2 144.268 17.9362   7
  -3  -5   2 111.082 17.6133   8
  -3   5  -2 132.443 17.2724   1
   3   5   2 106.387 17.2505   7
   5   5  -2 584.352 40.9614   1
   5  -5   2 532.090 41.1879   3
   5  -5   2 507.611 36.8947   2
  -5  -5  -2 604.770 42.2271   1
  -5   5   2 491.695 35.5257   9
   5   5  -2 597.407 41.2407   7
  -5   5   2 494.810 37.1660   7
  -5  -5  -2 603.939 42.7233   8
   5  -5   2 516.848 34.8223   6
  -5   5   2 502.404 37.4973   1
  -5   5  -2 567.186 37.7770   1
  -5   5  -2 616.531 39.3779   7
   5  -5  -2 602.097 38.7034   2
   5   5   2 492.445 39.3644   1
  -5   5  -2 604.418 36.1012   9
  -5  -5   2 492.671 40.5610   8
   5  -5  -2 588.601 35.4820   8
  -5  -5   2 496.223 40.0765   1
   5   5   2 477.907 38.3142   7
   5  -5  -2 585.087 40.1468   3
  -7  -5  -2 100.436 18.2525   8
  -7   5   2 77.8162 14.3328   1
  -7   5   2 61.4877 13.0372   9
   7   5  -2 108.379 18.2445   1
  -7   5   2 65.7373 13.9305   1
  -7  -5  -2 105.189 18.6973   1
   7   5  -2 107.257 17.6499   7
  -7   5   2 77.0073 14.4789   7
   7  -5   2 64.2248 15.5129   3
   7  -5   2 70.3486 13.5899   2
   7  -5   2 70.9351 13.9381   6
   7   5   2 81.6863 17.0627   1
  -7  -5   2 77.1291 17.4600   1
   7  -5  -2 103.506 16.4570   3
   7   5   2 70.0381 16.3856   2
  -7  -5   2 72.9107 17.0270   8
   7  -5  -2 108.244 15.9148   2
   7   5   2 81.9529 15.8414   7
   9   5  -2 140.930 20.3899   8
  -9   5   2 102.604 15.5390   9
   9  -5   2 100.387 18.5911   3
  -9   5   2 99.5902 15.3403   1
   9   5  -2 155.263 22.4443   2
  -9  -5  -2 153.284 22.2706   1
  -9  -5  -2 149.358 22.2957   8
   9  -5   2 92.4356 18.3144   4
   9  -5   2 96.4773 14.8122   2
  -9  -5   2 101.400 22.0411   8
  -9  -5   2 80.2969 18.7635   1
   9  -5  -2 144.124 17.5530   2
   9   5   2 107.132 19.4232   2
   9  -5  -2 132.964 18.6082   3
  -9   5  -2 133.330 17.3908   1
  -9   5  -2 140.435 14.8321   9
   9   5   2 113.366 18.7116   7
  11  -5   2 251.524 28.0666   4
 -11   5   2 241.157 22.2929   9
  11   5  -2 250.075 29.6195   2
  11  -5   2 239.688 21.5725   2
  11   5  -2 267.513 26.4283   8
 -11  -5  -2 259.879 29.3066   1
  11  -5   2 241.337 27.4434   3
 -11  -5   2 269.791 30.9497   8
  11   5   2 247.139 27.8534   2
  11  -5  -2 237.553 22.6494   2
 -11  -5   2 236.160 28.4825   1
 -11   5  -2 242.919 20.2094   9
  11  -5  -2 248.911 26.9244   3
  13   5  -2 288.487 30.9857   2
 -13  -5  -2 249.292 29.2330   1
  13  -5   2 167.192 24.8757   3
  13  -5   2 190.852 27.1225   4
  13  -5   2 207.707 19.1177   2
 -13   5   2 178.522 20.5937   9
  13  -5  -2 269.554 22.9985   2
  13   5   2 212.729 26.8939   2
 -13  -5   2 190.715 26.8215   1
  13  -5  -2 292.513 31.6998   4
 -13   5  -2 281.331 21.2368   9
  13  -5  -2 278.839 27.9462   3
   0  -6   2 534.121 40.9316   1
   0   6  -2 556.874 42.0334   1
   0  -6   2 537.978 41.3410   2
   0  -6   2 560.896 42.0128   8
   0   6   2 526.388 41.6657   1
   0   6  -2 600.229 42.6775   7
   0  -6  -2 609.273 43.6745   1
   0   6   2 572.534 42.7547   7
   0  -6  -2 564.325 41.5790   8
   2  -6   2 445.492 33.9116   2
   2   6  -2 335.497 32.5256   1
  -2   6   2 430.268 34.7923   7
  -2   6   2 433.381 34.7729   1
   2  -6   2 409.445 31.8266   8
   2  -6   2 453.530 33.2931   6
   2   6  -2 355.552 33.0064   7
  -2  -6  -2 304.085 31.4140   8
  -2  -6  -2 359.683 33.7651   1
  -2  -6   2 435.877 35.6614   8
   2  -6  -2 316.821 29.8578   8
   2   6   2 404.217 33.9350   7
   2   6   2 431.685 35.5984   1
   2  -6  -2 347.684 32.6870   2
  -2   6  -2 340.416 32.0158   1
  -2  -6   2 439.543 35.1041   1
  -2   6  -2 343.869 32.1342   7
  -4   6   2 1464.26 84.7058   7
  -4  -6  -2 1519.73 87.0759   1
   4   6  -2 1512.63 86.4242   7
   4  -6   2 1441.45 81.2045   8
  -4   6   2 1462.20 84.5031   1
  -4   6   2 1456.37 79.6688   9
  -4  -6  -2 1458.34 88.4396   8
   4  -6   2 1453.12 78.7433   6
   4  -6   2 1417.45 82.2543   2
   4   6  -2 1504.10 86.1644   1
  -4   6  -2 1550.51 84.4311   7
   4  -6  -2 1534.33 82.0541   8
   4   6   2 1492.06 86.1222   1
  -4  -6   2 1483.87 88.2425   8
   4  -6  -2 1528.69 84.6445   2
  -4   6  -2 1588.31 81.6017   9
  -4   6  -2 1562.94 84.4524   1
  -4  -6   2 1429.08 85.6502   1
   4   6   2 1396.66 83.8744   7
  -6  -6  -2 364.865 36.4128   1
  -6  -6  -2 382.551 37.8642   8
   6   6  -2 366.248 35.5159   1
  -6   6   2 462.789 36.4921   1
  -6   6   2 474.146 36.7742   1
  -6   6   2 498.266 34.5733   9
   6  -6   2 520.260 36.1465   2
   6  -6   2 463.817 40.6048   3
  -6   6   2 522.717 38.3226   7
   6   6  -2 390.923 36.6676   7
   6   6   2 493.436 39.3204   1
  -6   6  -2 394.198 33.0152   9
   6   6   2 508.938 37.5678   7
  -6   6  -2 409.763 34.6931   7
   6  -6  -2 381.717 36.8748   3
  -6   6  -2 401.815 34.1597   1
   6  -6  -2 386.617 34.3855   2
  -6  -6   2 494.711 39.9680   1
  -6  -6   2 507.420 40.4683   8
  -8   6   2 592.329 41.9121   9
   8  -6   2 611.591 48.9585   3
   8  -6   2 625.632 43.4227   2
  -8   6   2 617.317 44.3625   1
   8   6  -2 646.133 47.8249   7
  -8  -6  -2 686.721 50.2318   1
  -8  -6  -2 670.342 51.5317   8
  -8  -6   2 617.578 49.6551   8
   8  -6  -2 658.189 48.6784   3
  -8  -6   2 636.729 48.8126   1
   8   6   2 633.024 45.6605   7
   8  -6  -2 660.632 45.4044   2
  -8   6  -2 681.909 43.7918   9
  -8   6  -2 711.669 45.4455   1
  10   6  -2 272.144 31.5208   8
  10  -6   2 353.153 35.0266   4
 -10  -6  -2 255.681 31.1138   1
 -10   6   2 365.108 29.6494   1
  10  -6   2 352.227 34.5195   3
  10  -6   2 347.292 28.2778   2
 -10  -6  -2 280.535 33.1817   8
 -10   6   2 351.666 28.4996   9
 -10  -6   2 327.135 33.6196   1
 -10  -6   2 373.273 36.2759   8
 -10   6  -2 264.917 26.9356   1
  10  -6  -2 270.539 30.2734   3
  10  -6  -2 269.411 27.5816   2
 -10   6  -2 263.871 26.0133   9
   1   7  -2 82.2166 18.4125   1
  -1   7   2 81.9952 19.2851   1
   1   7  -2 85.3539 18.5515   7
  -1  -7  -2 85.5562 19.6386   1
  -1   7   2 95.2918 20.7360   7
  -1  -7  -2 87.5574 18.0861   8
   1  -7   2 92.1308 17.3124   8
   1   7   2 81.1679 18.5682   7
  -1  -7   2 99.9952 20.1832   1
   1  -7  -2 92.9572 17.5307   8
  -1  -7   2 99.6297 18.8280   8
   1   7   2 86.6305 19.1278   1
  -1   7  -2 89.4240 18.5691   7
  -1   7  -2 81.4866 18.3606   1
   3  -7   2 174.721 21.3594   8
   3   7  -2 165.888 24.1166   1
  -3  -7  -2 183.311 24.8899   1
  -3   7   2 147.221 23.4187   1
   3  -7   2 183.035 23.5049   2
  -3   7   2 146.723 23.5687   7
   3   7  -2 154.468 23.1710   7
  -3  -7  -2 157.532 23.0628   8
   3   7   2 143.374 22.9350   1
  -3   7  -2 160.543 22.8160   7
   3  -7  -2 175.840 21.1211   8
   3   7   2 156.663 22.2581   7
   3  -7  -2 156.763 23.3928   2
  -3   7  -2 168.599 23.1243   1
  -3  -7   2 166.593 23.9189   8
  -3  -7   2 171.900 24.5289   1
  -5  -7  -2 632.670 49.5303   8
  -5  -7  -2 631.633 48.3527   1
   5  -7   2 563.584 44.1246   2
  -5   7   2 582.242 46.2025   1
   5   7  -2 653.075 48.2784   1
  -5   7   2 618.787 47.9712   7
   5  -7   2 577.833 51.9375   3
  -5   7   2 567.102 45.8837   1
   5   7  -2 701.278 49.2314   7
  -5   7  -2 651.776 46.4846   7
   5   7   2 526.634 43.8148   7
   5  -7  -2 689.094 48.1404   2
  -5  -7   2 565.925 47.8572   8
   5  -7  -2 613.651 51.4629   3
   5   7   2 608.342 47.7229   1
  -5   7  -2 652.946 45.9358   1
  -5  -7   2 598.234 47.7509   1
   7  -7   2 107.370 18.4080   2
  -7   7   2 122.898 22.6237   7
  -7   7   2 117.269 18.9945   9
  -7  -7  -2 115.532 22.1989   1
   7  -7   2 114.471 25.8744   3
  -7  -7  -2 122.553 22.8400   8
  -7   7   2 115.460 21.1602   1
   7   7  -2 111.826 21.9579   1
   7   7  -2 114.616 21.6866   7
  -7   7  -2 110.872 20.4118   1
   7   7   2 123.918 22.0135   1
  -7   7  -2 115.995 19.5598   9
  -7  -7   2 117.719 22.1813   1
   7  -7  -2 117.776 20.5493   2
   7   7   2 114.540 19.6966   7
   7  -7  -2 99.0592 24.1677   3
  -7  -7   2 117.142 21.9840   8
   7   7   2 126.656 22.9402   1
   0   8   2 501.419 43.2096   7
   0  -8  -2 546.164 42.4956   8
   0   8  -2 513.660 43.7202   1
   0   8   2 509.326 44.0261   1
   0  -8   2 490.021 40.9864   8
   0   8  -2 524.884 42.9335   7
  -2  -8  -2 334.203 35.9580   8
  -2   8   2 458.185 39.8003   1
   2   8  -2 320.906 34.6444   7
  -2   8   2 466.532 39.9324   7
  -2   8   2 419.295 38.8053   1
   2   8  -2 354.127 37.0354   1
   2  -8   2 449.773 36.0196   8
   2   8   2 418.283 37.1243   7
  -2   8  -2 361.551 35.7812   7
  -2  -8   2 439.236 38.0852   8
   2   8   2 464.530 40.5218   1
  -2   8  -2 345.372 35.9567   1
   2  -8  -2 369.323 33.8451   8
  -1   0   3 3893.74 192.633   5
   1   0  -3 4260.98 189.158   2
   1   0  -3 4276.47 193.102   5
   1   0  -3 4544.99 197.979   8
   1   0   3 4062.25 188.620   2
  -1   0  -3 4195.94 192.721   5
  -3   0   3 3273.90 149.197   9
  -3   0  -3 3507.78 154.639   5
   3   0  -3 3563.73 158.619   8
  -3   0   3 3156.76 154.586   5
  -3   0  -3 3661.85 158.567   8
  -3   0  -3 3543.65 152.737   1
   3   0   3 3198.04 150.948   2
   3   0   3 3213.91 152.025   7
  -3   0   3 3121.03 152.637   1
   3   0  -3 3513.40 152.020   2
   3   0   3 3120.72 142.403   6
  -3   0  -3 3335.24 148.995   9
   5   0  -3 2519.59 109.478   2
  -5   0   3 2214.19 110.754   5
   5   0  -3 2540.05 113.166   8
   5   0   3 2327.89 103.927   6
  -5   0  -3 2399.28 110.401   5
  -5   0   3 2356.27 106.455   9
  -5   0  -3 2465.82 109.223   1
   5   0  -3 2336.09 108.966   4
  -5   0  -3 2388.18 106.113   9
  -5   0   3 2235.50 109.451   1
   5   0   3 2287.32 107.919   2
  -5   0  -3 2396.56 107.047   9
   7   0   3 2646.57 127.476   2
   7   0   3 2613.78 127.192   2
  -7   0   3 2669.26 125.489   9
  -7   0   3 2668.50 126.909   9
   7   0  -3 2912.29 129.140   2
   7   0  -3 2961.52 130.690   4
   7   0   3 2657.11 123.509   6
  -7   0  -3 2983.42 130.079   5
  -7   0   3 2793.91 135.105   8
  -7   0  -3 3047.14 128.975   1
  -7   0   3 2618.92 129.366   1
  -7   0  -3 2987.76 124.355   9
  -7   0  -3 2765.84 126.822   9
   7   0  -3 2975.98 128.750   2
   9   0  -3 2704.51 129.638   4
  -9   0   3 2655.53 123.114   9
   9   0   3 2705.76 123.117   6
  -9   0  -3 2843.68 126.168   1
  -9   0   3 2695.27 127.563   1
  -9   0   3 2759.02 125.408   9
   9   0   3 2710.63 125.525   2
   9   0  -3 2836.93 127.197   2
   9   0   3 2785.20 125.256   2
  11   0  -3 1751.67 78.5262   2
 -11   0  -3 1750.60 76.5638   1
  11   0   3 1546.94 79.0624   6
 -11   0   3 1514.52 78.6650   1
  11   0   3 1532.86 76.4717   2
 -11   0   3 1518.70 75.0630   9
 -11   0   3 1550.44 77.8300   9
  11   0  -3 1766.36 82.2475   4
 -13   0   3 1553.15 73.5199   9
  13   0  -3 1583.47 76.2677   2
  13   0   3 1552.93 75.6940   2
  13   0   3 1552.52 79.1880   6
 -13   0   3 1513.80 77.3575   1
  13   0  -3 1585.17 81.2951   4
 -15   0   3 1400.63 71.0667   9
  15   0  -3 1594.96 73.7654   2
  15   0   3 1431.55 78.6073   6
  17   0  -3 727.138 40.9647   2
 -17   0   3 747.626 40.9854   9
  17   0   3 751.912 50.8131   6
   0   1  -3 9217.71 437.213   8
   0  -1   3 9699.69 418.182   4
   0  -1   3 9444.53 415.456   2
   0  -1  -3 9071.81 437.214   8
   0   1   3 9335.89 420.978   7
   2  -1   3 154.965 11.3341   6
  -2   1   3 161.038 11.3240   1
   2  -1   3 154.431 10.6700   2
   2  -1   3 156.624 10.6733   4
   2   1   3 161.019 11.8746   7
  -2  -1   3 154.774 11.6698   1
   2   1   3 147.013 10.9130   2
  -2  -1   3 150.422 12.3319   8
   2   1   3 153.713 10.1247   6
  -4  -1  -3 3290.23 156.313   8
   4  -1   3 3383.43 151.535   4
   4   1  -3 3194.95 156.100   8
   4  -1   3 3434.25 141.467   6
  -4   1   3 3455.69 150.034   1
   4   1  -3 3264.18 150.425   2
  -4  -1  -3 3093.73 150.631   1
  -4  -1  -3 3089.68 148.642   9
   4  -1   3 3525.48 148.398   2
   4  -1   3 3419.31 147.437   3
   4  -1   3 3351.80 151.173   5
   4   1   3 3389.85 151.894   7
   4  -1  -3 3074.29 146.145   3
  -4   1  -3 3265.20 149.369   1
  -4   1  -3 3154.24 145.146   9
   4  -1  -3 3170.25 151.690   5
  -4  -1   3 3349.52 150.900   1
   4  -1  -3 3180.34 148.643   2
  -4  -1   3 3382.38 146.776   9
  -4  -1   3 3353.40 157.573   8
   4   1   3 3264.84 149.189   2
   4   1   3 3368.92 140.650   6
   4  -1  -3 3058.48 154.785   8
  -6  -1  -3 679.178 36.2178   9
   6   1  -3 710.425 35.9274   2
   6  -1   3 598.275 34.4040   3
  -6  -1  -3 719.822 35.5271   1
   6  -1   3 608.090 36.3711   4
   6  -1   3 616.999 32.2587   2
  -6   1   3 612.663 33.5230   1
  -6  -1  -3 745.962 36.4052   8
   6  -1   3 613.843 34.0769   6
   6  -1   3 611.786 32.2389   2
   6   1  -3 748.116 35.7036   8
  -6   1   3 600.074 32.1372   9
  -6  -1   3 642.213 35.4752   1
   6   1   3 596.622 34.0562   2
  -6  -1   3 617.647 33.0907   9
   6   1   3 648.846 35.5308   7
  -6   1  -3 725.953 33.0953   1
   6  -1  -3 693.251 33.5454   2
  -6  -1   3 625.215 37.1014   8
   6  -1  -3 692.314 33.6875   2
   6   1   3 618.916 34.0513   6
   6  -1  -3 737.863 35.1838   3
  -8   1   3 2931.85 126.707   9
  -8   1   3 2824.38 126.093   9
  -8  -1  -3 2696.34 131.461   1
  -8  -1  -3 2548.90 131.097   9
   8   1  -3 2566.52 131.365   2
   8  -1   3 2910.96 135.614   4
   8   1  -3 2703.14 133.918   8
   8  -1   3 2878.67 127.607   2
   8  -1   3 2994.25 127.964   2
   8  -1   3 2887.65 131.375   3
  -8  -1  -3 2765.97 127.083   9
  -8   1   3 2948.79 130.226   1
   8  -1   3 2928.23 126.115   6
  -8  -1   3 2929.04 132.161   9
   8   1   3 2839.45 125.975   6
   8  -1  -3 2724.50 128.985   2
  -8  -1   3 3038.21 139.300   8
   8  -1  -3 2645.09 132.970   4
   8  -1  -3 2685.06 128.910   2
   8   1   3 3008.58 131.081   2
  -8  -1   3 3008.07 133.555   1
  -8  -1   3 2851.25 127.972   9
  -8   1  -3 2660.92 128.261   1
 -10  -1  -3 116.316 11.4387   1
 -10   1   3 112.155 9.32285   9
 -10   1   3 115.826 8.84264   9
  10   1  -3 105.735 11.8476   2
  10  -1   3 109.552 14.3830   4
 -10   1   3 120.168 10.3876   1
  10  -1   3 113.830 13.5396   6
 -10  -1  -3 108.249 13.3509   9
  10   1   3 117.054 11.5460   2
  10   1   3 115.019 13.6831   6
 -10  -1   3 109.073 10.3324   9
  10  -1  -3 107.632 9.75616   2
 -10  -1   3 109.073 12.7974   1
  10  -1  -3 109.957 13.2150   4
 -12  -1  -3 1497.36 82.6866   9
  12   1  -3 1579.88 82.7662   2
 -12   1   3 1687.49 77.8670   9
 -12  -1  -3 1585.32 81.0240   1
  12  -1   3 1742.12 83.0948   6
  12  -1   3 1681.46 88.4327   4
 -12   1   3 1669.42 76.5915   9
 -12  -1   3 1749.85 84.8740   1
 -12  -1   3 1720.51 79.5393   9
  12  -1  -3 1602.18 85.7510   4
  12   1   3 1787.52 84.1641   6
  12  -1  -3 1557.30 78.8708   2
  12   1   3 1758.17 83.0181   2
  14  -1   3 7.50791 7.74247   6
 -14  -1  -3 29.6041 10.3694   9
 -14   1   3 7.42862 4.19645   9
  14   1  -3 16.5694 6.77751   2
  14  -1  -3 11.9335 4.99395   2
  14   1   3 11.1211 7.53408   2
  14   1   3 5.37080 7.59531   6
 -14  -1   3 5.88499 8.29018   1
 -14  -1   3 7.15752 5.18849   9
  14  -1  -3 21.5829 9.54491   4
  16   1  -3 148.232 16.8795   2
  16  -1   3 209.294 23.8189   6
 -16  -1  -3 162.132 20.7024   9
  16   1   3 204.656 24.2870   6
  16  -1  -3 166.629 14.1671   2
  16  -1  -3 161.184 21.2235   4
  16   1   3 209.932 21.7497   2
 -16  -1   3 201.756 17.7678   9
  -1   2   3 918.738 48.6816   1
  -1  -2  -3 963.231 49.4056   2
  -1  -2  -3 983.241 49.5507   2
  -1   2   3 964.207 48.9245   7
   1   2  -3 991.253 49.8050   1
  -1  -2  -3 949.428 49.3902   1
   1  -2   3 963.255 48.6004   2
  -1  -2  -3 941.909 50.9538   8
   1  -2  -3 986.446 48.6988   2
   1   2   3 945.588 49.5384   7
  -1  -2   3 954.577 48.9635   2
  -1  -2   3 961.479 51.3970   8
   1  -2  -3 989.297 50.8635   8
  -1   2  -3 937.515 48.6327   7
   1   2   3 934.973 48.6374   2
  -1   2  -3 984.339 47.1121   9
  -1   2  -3 1008.57 49.0681   1
   3   2  -3 529.767 30.3031   2
   3  -2   3 468.189 28.4081   4
   3   2  -3 575.502 31.1355   1
   3   2  -3 562.322 31.5505   8
   3  -2   3 491.995 29.1076   3
   3  -2   3 494.371 28.2882   6
  -3  -2  -3 573.539 31.5168   8
  -3  -2  -3 571.664 30.9971   1
  -3   2   3 470.486 28.1613   7
  -3   2   3 476.105 28.5048   1
   3  -2   3 462.055 28.0039   2
   3  -2  -3 602.360 28.3999   3
  -3   2  -3 572.319 28.9141   1
  -3  -2   3 451.710 29.6371   1
  -3  -2   3 461.986 31.3352   8
   3  -2  -3 560.475 30.1507   8
   3   2   3 473.531 29.1551   2
   3   2   3 463.668 30.5031   7
   3   2   3 449.734 29.1586   1
   3   2   3 474.369 26.4009   6
  -3   2  -3 587.195 27.2700   9
   3  -2  -3 596.964 29.1476   2
  -3   2  -3 571.368 29.1859   7
  -5  -2  -3 320.799 21.2170   8
   5  -2   3 280.229 19.0192   6
   5   2  -3 309.447 20.4619   8
  -5   2   3 288.376 18.2713   7
   5   2  -3 307.055 21.5755   2
  -5   2   3 287.239 18.3816   1
   5  -2   3 273.445 19.6130   3
   5  -2   3 276.502 17.2735   2
   5  -2   3 270.485 17.5320   2
   5  -2   3 270.108 19.9863   4
  -5  -2  -3 312.186 21.4321   1
   5   2  -3 321.038 21.8686   1
  -5   2  -3 311.173 18.1029   1
   5   2   3 264.118 21.7573   7
  -5   2  -3 314.333 18.3399   9
   5   2   3 271.748 18.5248   6
   5  -2  -3 315.424 18.9348   8
  -5   2  -3 306.398 16.2602   9
   5  -2  -3 312.238 19.1475   3
  -5  -2   3 267.637 20.3332   1
  -5  -2   3 302.401 22.7868   8
   5  -2  -3 324.838 18.6454   2
   5   2   3 256.907 19.3273   2
  -5   2  -3 298.380 18.1280   7
   5  -2  -3 300.808 18.6465   5
  -7   2   3 765.458 41.8617   1
   7  -2   3 759.892 44.2212   3
  -7  -2  -3 887.382 46.6642   1
   7  -2   3 770.075 45.7662   4
   7  -2   3 764.954 40.3225   2
   7   2  -3 876.292 45.2285   8
   7  -2   3 800.440 40.7105   5
  -7  -2  -3 856.898 47.2913   9
   7  -2   3 724.251 42.0126   6
   7   2  -3 921.308 48.0065   1
  -7   2   3 797.187 40.1532   9
  -7  -2  -3 926.568 47.4568   8
   7  -2   3 793.762 40.8203   2
   7   2  -3 919.282 47.5752   2
   7  -2  -3 897.733 42.2894   2
  -7   2  -3 938.769 41.8432   1
   7   2   3 725.035 42.2632   6
   7  -2  -3 882.818 42.4819   5
   7  -2  -3 908.496 44.7769   3
  -7  -2   3 801.401 49.1313   8
   7   2   3 770.673 44.2084   2
   7  -2  -3 886.701 42.2253   2
   7   2   3 761.382 45.3928   7
  -7   2  -3 906.606 41.6189   7
  -7  -2   3 736.506 45.3907   1
  -7  -2   3 759.011 42.5709   9
   9  -2   3 1295.11 67.5159   3
   9  -2   3 1359.37 70.6600   4
   9  -2   3 1317.93 61.7754   2
  -9  -2  -3 1212.20 68.2147   1
   9  -2   3 1316.73 61.8165   2
   9   2  -3 1287.29 69.4893   2
   9   2  -3 1282.95 66.4768   8
   9  -2   3 1316.59 64.8749   6
  -9   2   3 1359.55 61.7874   9
  -9   2   3 1351.39 63.9415   1
  -9  -2  -3 1305.25 70.1261   9
   9   2   3 1323.34 67.7892   2
   9  -2  -3 1327.77 67.3624   3
   9  -2  -3 1305.45 63.5300   2
  -9  -2   3 1385.40 74.3897   8
  -9  -2   3 1312.70 69.4523   1
  -9  -2   3 1296.93 65.0451   9
   9   2   3 1294.25 65.5729   6
 -11   2   3 319.814 19.6183   1
  11  -2   3 333.450 25.7863   3
 -11   2   3 322.579 19.0418   9
  11  -2   3 334.334 25.0578   6
  11  -2   3 308.828 26.6812   4
  11   2   3 318.488 25.7870   6
  11   2   3 321.043 24.6413   2
 -11  -2   3 336.381 22.9066   9
 -11  -2   3 311.768 25.9107   1
  13   2  -3 799.190 48.1289   2
 -13  -2  -3 798.206 49.8949   9
 -13  -2  -3 766.669 45.9031   1
  13  -2   3 780.178 46.6017   6
  13  -2   3 784.109 50.6598   4
  13  -2  -3 751.476 49.0433   4
  13  -2  -3 771.346 40.6366   2
  13   2   3 816.392 49.3917   6
  13   2   3 797.803 48.2109   2
 -13  -2   3 789.341 44.4035   9
 -13  -2   3 785.571 50.1708   1
 -15  -2  -3 832.924 51.9286   9
  15  -2   3 747.671 48.4567   6
  15   2  -3 870.774 50.2867   2
  15  -2   3 723.237 51.8234   4
 -15  -2   3 805.318 46.6116   9
  15   2   3 680.179 47.9999   2
  15  -2  -3 878.415 52.8820   4
 -15  -2   3 737.371 50.5681   1
  15   2   3 722.305 50.3737   6
   0  -3  -3 6525.24 315.764   8
   0   3   3 6687.94 304.098   7
   0  -3   3 7105.67 302.680   2
   0  -3  -3 6555.87 302.041   2
   0   3   3 6803.38 304.076   1
   0   3  -3 6499.37 304.209   1
   0   3   3 6663.25 303.824   1
   0   3  -3 6797.64 296.836   9
   0  -3   3 6780.11 315.591   8
   0  -3  -3 6198.58 303.344   1
   0  -3   3 6876.61 304.420   1
   0   3  -3 6363.84 304.008   7
  -2   3   3 201.567 15.3606   9
   2   3  -3 165.022 16.8701   1
  -2  -3  -3 175.141 16.9699   8
  -2  -3  -3 173.771 17.3079   1
   2   3  -3 191.088 17.0709   7
   2  -3   3 203.267 16.9889   6
   2  -3   3 197.314 16.3496   2
  -2   3   3 202.416 16.2206   1
   2   3  -3 185.706 16.9923   2
  -2   3   3 200.476 16.1125   7
  -2  -3  -3 192.006 17.6749   2
   2   3   3 205.804 16.9881   1
  -2  -3   3 203.917 17.3163   2
   2   3   3 198.716 13.7462   6
  -2   3  -3 176.539 15.7605   1
   2  -3  -3 196.964 16.7913   8
   2  -3  -3 176.340 15.4682   2
   2   3   3 202.748 16.9951   1
   2   3   3 182.901 17.1746   7
  -2   3  -3 182.492 14.5029   9
  -2   3  -3 189.412 16.6772   7
   2  -3  -3 181.664 15.4085   1
  -2  -3   3 190.394 17.0196   1
   2  -3  -3 186.248 15.6673   2
   2   3   3 212.082 16.8607   2
  -2  -3   3 210.223 18.4566   8
  -4   3   3 2777.31 127.834   1
   4   3  -3 2585.15 130.589   1
  -4  -3  -3 2672.89 129.392   9
  -4  -3  -3 2388.30 129.702   1
   4  -3   3 2754.51 126.819   2
   4  -3   3 2829.75 128.033   3
   4   3  -3 2555.99 130.027   2
  -4   3   3 2813.88 126.964   7
  -4   3   3 2762.92 125.076   9
   4  -3   3 2786.40 120.730   6
  -4  -3  -3 2687.95 134.798   8
   4  -3  -3 2603.19 125.093   3
   4  -3  -3 2446.82 125.337   2
  -4   3  -3 2449.93 122.102   9
   4  -3  -3 2511.87 131.827   8
   4   3   3 2795.10 132.117   7
   4   3   3 2828.78 119.182   6
   4   3   3 2926.46 130.345   1
  -4   3  -3 2595.98 127.850   7
  -4   3  -3 2554.55 127.082   1
  -4  -3   3 2806.22 130.847   1
   4   3   3 2919.54 130.410   1
   4   3   3 2782.75 128.851   2
  -4  -3   3 2802.23 137.540   8
   6   3  -3 588.310 36.9382   8
   6  -3   3 536.567 34.7015   3
  -6  -3  -3 610.737 38.3405   8
   6  -3   3 554.444 32.8055   6
  -6  -3  -3 615.724 38.2367   9
   6  -3   3 542.865 32.1434   2
  -6  -3  -3 565.256 37.0565   1
  -6   3   3 570.652 32.5521   9
  -6   3   3 572.201 32.9311   1
   6  -3   3 556.230 35.0067   4
  -6   3   3 593.830 32.8166   7
   6   3  -3 589.740 38.0633   1
   6  -3  -3 578.016 32.3055   8
   6  -3  -3 599.003 34.3335   3
   6   3   3 570.990 35.8855   2
  -6  -3   3 531.561 36.5162   1
   6  -3  -3 587.903 32.7461   5
  -6   3  -3 590.149 33.6840   7
  -6  -3   3 549.613 39.3999   8
   6  -3  -3 576.423 32.5845   2
  -6   3  -3 581.824 32.9762   9
   6   3   3 579.931 37.9864   7
   6   3   3 593.682 35.7823   1
  -6  -3   3 551.469 33.8025   9
  -6   3  -3 598.404 33.3742   1
   6   3   3 557.367 32.9298   6
  -6   3  -3 600.723 30.2032   9
   8  -3   3 2543.95 113.744   2
  -8  -3  -3 2317.45 119.326   9
  -8  -3  -3 2243.96 120.436   1
  -8  -3  -3 2429.51 125.443   8
   8  -3   3 2473.16 111.080   6
   8   3  -3 2270.64 121.423   8
  -8   3   3 2493.27 114.829   1
  -8   3   3 2550.35 113.381   9
   8  -3   3 2531.41 120.932   4
   8   3  -3 2246.01 120.807   2
   8  -3   3 2474.63 117.527   3
  -8  -3   3 2412.66 121.641   1
   8   3   3 2540.58 119.833   2
   8   3   3 2589.52 120.717   7
  -8   3  -3 2384.55 115.044   1
   8  -3  -3 2396.97 115.081   5
  -8  -3   3 2536.15 128.586   8
   8   3   3 2531.96 112.781   6
  -8  -3   3 2603.82 116.642   9
   8  -3  -3 2317.95 113.963   2
  -8   3  -3 2359.69 109.609   9
   8  -3  -3 2363.11 116.450   3
  -8   3  -3 2203.51 111.898   9
  10  -3   3 162.740 12.4970   2
  10  -3   3 151.096 17.4553   3
  10  -3   3 155.937 16.3957   6
 -10   3   3 156.097 13.2117   1
 -10   3   3 143.908 13.3094   9
  10  -3   3 156.449 18.6271   4
 -10  -3   3 165.437 16.6935   9
 -10  -3   3 154.748 21.6572   8
 -10  -3   3 154.783 19.4415   1
  10   3   3 156.621 18.1905   6
  10   3   3 136.782 17.5852   2
 -12  -3  -3 1457.35 82.0410   9
  12  -3   3 1569.10 84.0007   4
  12  -3   3 1516.74 80.7438   3
  12  -3   3 1509.31 76.0165   6
  12   3  -3 1447.88 83.3264   2
 -12  -3  -3 1430.17 81.7802   1
 -12  -3   3 1628.23 79.0623   9
  12   3   3 1561.88 79.6564   6
  12  -3  -3 1419.46 72.6977   2
  12   3   3 1479.09 81.7628   2
 -12  -3   3 1526.96 84.7155   1
  12  -3  -3 1434.09 79.6079   3
  12  -3  -3 1414.09 81.7674   4
 -14  -3  -3 35.2291 12.6991   9
  14  -3   3 54.6307 14.4884   4
  14   3  -3 25.5131 11.3930   2
  14  -3   3 54.1149 13.4864   6
 -14  -3  -3 24.9033 11.3061   1
 -14  -3   3 46.6390 14.9484   1
  14   3   3 51.4878 13.6039   2
  14   3   3 40.4392 13.4615   6
  14  -3  -3 28.1352 7.01103   2
  14  -3  -3 30.4032 12.0603   4
 -14  -3   3 63.2630 13.7801   9
   1   4  -3 1559.52 81.8796   7
  -1   4   3 1500.19 80.1434   1
   1  -4   3 1581.41 81.5760   1
  -1  -4  -3 1596.00 81.8022   2
   1  -4   3 1477.52 80.0714   2
  -1   4   3 1518.97 77.2567   9
  -1   4   3 1510.49 80.3053   1
  -1  -4  -3 1577.14 82.2129   1
  -1  -4  -3 1585.32 83.8115   8
   1  -4   3 1497.89 81.8531   8
  -1   4   3 1497.98 80.1531   7
   1   4  -3 1530.33 81.4160   1
   1  -4  -3 1648.31 81.0345   1
  -1  -4   3 1501.87 83.6080   8
   1  -4  -3 1550.16 83.1284   8
   1   4   3 1481.02 80.6249   1
  -1   4  -3 1491.17 80.1682   1
  -1   4  -3 1610.68 77.2148   9
  -1  -4   3 1501.63 81.4220   1
  -1   4  -3 1583.43 81.6116   7
  -1  -4   3 1436.40 80.1243   2
   1  -4  -3 1581.77 80.2928   2
   1   4   3 1502.76 80.7923   1
   1   4   3 1477.56 81.0798   7
  -3  -4  -3 1214.35 68.3712   1
  -3   4   3 1136.33 65.0333   1
  -3   4   3 1135.03 64.9489   1
  -3  -4  -3 1311.36 70.6523   8
  -3   4   3 1133.26 64.5223   7
   3  -4   3 1177.93 65.5657   2
   3  -4   3 1139.14 62.1798   6
   3   4  -3 1303.21 69.2323   1
   3   4  -3 1286.49 68.6248   7
  -3   4   3 1235.89 64.2023   9
  -3  -4   3 1170.27 67.7390   1
  -3  -4   3 1131.85 70.4064   8
   3  -4  -3 1316.96 65.7261   2
   3   4   3 1169.97 66.3009   2
  -3   4  -3 1301.16 62.9143   9
   3  -4  -3 1298.45 68.2678   8
   3  -4  -3 1346.67 65.6347   1
   3   4   3 1135.40 66.6640   1
  -3   4  -3 1262.30 66.2779   1
  -3   4  -3 1251.60 66.6400   7
   3   4   3 1165.21 66.9003   1
   5  -4   3 871.239 51.2529   2
   5  -4   3 892.909 49.2259   6
  -5  -4  -3 881.785 54.9593   1
   5   4  -3 964.909 56.1245   2
  -5   4   3 877.933 51.0679   1
   5   4  -3 913.547 54.0122   7
   5   4  -3 966.791 56.6720   1
  -5   4   3 887.052 50.4783   9
  -5   4   3 910.325 50.5893   7
  -5  -4  -3 939.372 56.7228   8
   5  -4   3 894.296 53.5647   3
   5  -4  -3 933.490 50.9013   2
  -5   4  -3 948.257 52.2500   1
   5   4   3 911.354 53.9471   2
   5   4   3 898.276 53.9335   1
  -5  -4   3 891.193 55.4000   1
   5  -4  -3 938.893 51.6383   3
  -5   4  -3 953.749 52.7147   7
  -5   4  -3 938.785 48.2710   9
  -5  -4   3 864.057 57.6024   8
   5   4   3 887.932 53.7364   1
   5  -4  -3 976.945 52.2434   8
   5  -4  -3 954.509 51.4205   2
   5   4   3 860.038 54.7892   7
   7  -4   3 1209.90 64.8406   6
   7  -4   3 1184.51 69.6535   4
  -7   4   3 1227.35 66.4644   9
  -7  -4  -3 1265.53 73.0195   1
  -7  -4  -3 1459.39 76.8216   8
   7   4  -3 1372.41 74.0001   1
  -7   4   3 1185.16 66.4267   1
   7   4  -3 1358.87 74.2088   2
   7   4  -3 1393.68 74.8164   8
   7  -4   3 1221.86 69.8346   3
   7  -4   3 1196.75 66.4232   2
  -7   4   3 1248.50 66.9850   7
  -7   4  -3 1404.24 64.3268   9
  -7  -4   3 1234.29 73.7120   1
   7   4   3 1239.51 71.4839   2
   7   4   3 1243.97 71.8928   7
   7   4   3 1222.39 70.6467   1
  -7   4  -3 1338.53 68.8053   1
   7   4   3 1177.15 70.0372   1
   7  -4  -3 1406.23 69.4239   3
   7  -4  -3 1397.57 67.7807   2
  -7  -4   3 1183.75 75.8034   8
   7  -4  -3 1396.94 67.6067   2
  -9  -4  -3 1488.75 81.2625   9
  -9   4   3 1408.07 74.1406   9
   9   4  -3 1405.53 80.8974   8
   9   4  -3 1505.67 83.5398   2
   9  -4   3 1400.12 78.4308   3
   9  -4   3 1502.64 74.1237   6
  -9   4   3 1457.91 74.1331   1
   9  -4   3 1460.43 80.6222   4
   9  -4   3 1459.15 74.0165   2
  -9  -4  -3 1506.12 85.6604   8
  -9  -4  -3 1436.79 82.3588   1
  -9  -4   3 1458.31 87.1402   8
   9   4   3 1434.93 81.3071   2
   9  -4  -3 1494.00 78.2803   3
   9   4   3 1483.90 75.6704   6
  -9   4  -3 1470.72 70.6895   9
  -9   4  -3 1478.36 76.0740   1
  -9  -4   3 1475.10 84.1544   1
   9  -4  -3 1464.28 74.7476   2
   9  -4  -3 1470.24 74.9695   2
   9   4   3 1504.15 80.3989   7
  11  -4   3 735.865 46.3512   6
  11  -4   3 716.415 51.0627   4
 -11  -4  -3 847.261 54.3093   1
 -11   4   3 725.331 43.3482   1
  11   4  -3 888.636 55.9155   2
 -11   4   3 745.610 44.4803   9
  11  -4   3 727.561 42.6824   2
  11   4  -3 912.191 49.8828   8
  11  -4   3 695.557 49.8724   3
 -11  -4  -3 892.339 53.5425   9
  11  -4  -3 892.924 46.3480   2
 -11  -4   3 738.270 53.4044   1
  11   4   3 712.806 48.3472   6
 -11   4  -3 861.974 41.4790   9
  11  -4  -3 891.789 51.3778   3
  11   4   3 714.258 51.3596   2
  11  -4  -3 849.824 45.7493   2
 -13  -4  -3 904.510 58.0262   9
 -13  -4  -3 929.590 60.5321   1
  13  -4   3 882.149 58.7905   4
  13   4  -3 914.044 61.3432   2
  13  -4   3 897.052 54.4387   6
  13  -4   3 873.581 56.7793   3
  13   4   3 880.882 58.3430   2
  13  -4  -3 893.166 49.7576   2
 -13  -4   3 913.973 60.6600   1
  13  -4  -3 910.685 56.7700   3
  13  -4  -3 894.660 59.4150   4
   0  -5   3 4047.25 194.194   8
   0   5  -3 3706.36 187.736   7
   0  -5  -3 3855.63 188.923   1
   0  -5  -3 3568.92 193.195   8
   0   5   3 3880.61 188.414   1
   0  -5  -3 3743.39 186.706   2
   0   5   3 4025.36 188.960   7
   0  -5   3 3939.99 188.088   1
   0   5  -3 3654.59 188.054   1
   0  -5   3 4172.54 188.596   2
   0   5   3 3923.04 188.735   1
   2  -5   3 168.774 19.9482   6
  -2   5   3 160.117 19.9097   1
   2  -5   3 185.650 20.5618   2
  -2   5   3 179.988 18.8604   9
  -2   5   3 174.887 20.4582   1
  -2   5   3 176.276 20.4896   7
   2  -5   3 178.427 19.3316   8
   2   5   3 159.012 20.6952   1
  -2  -5   3 174.811 21.4436   1
   2   5   3 175.814 21.0104   1
  -2  -5   3 162.107 21.1316   8
   4   5  -3 1401.86 84.1825   7
  -4   5   3 1584.94 83.0167   1
  -4   5   3 1618.43 83.4138   1
   4   5  -3 1410.65 84.2233   1
  -4   5   3 1722.04 81.6225   9
   4  -5   3 1635.67 79.7920   6
  -4  -5  -3 1385.20 84.5476   1
  -4  -5  -3 1429.71 87.6736   8
   4  -5   3 1589.88 82.4421   2
  -4   5   3 1583.77 82.8887   7
  -4   5  -3 1453.50 82.7938   1
  -4   5  -3 1398.42 77.9581   9
   4  -5  -3 1428.75 81.7066   2
   4   5   3 1631.84 85.9769   1
   4  -5  -3 1414.62 82.0782   8
  -4   5  -3 1436.87 82.1308   7
  -4  -5   3 1583.81 86.6361   1
  -4  -5   3 1559.86 89.3378   8
   4   5   3 1620.61 85.8979   1
   4   5   3 1575.54 85.7827   7
   6  -5   3 351.705 28.4080   6
  -6   5   3 344.663 29.4793   1
   6   5  -3 435.203 33.9920   1
   6  -5   3 358.426 29.4761   2
   6   5  -3 406.830 33.1951   7
  -6   5   3 347.958 28.8680   9
  -6  -5  -3 439.876 35.1762   1
  -6  -5  -3 408.975 35.4298   8
  -6   5   3 336.153 29.1323   7
   6  -5   3 338.259 32.0726   3
   6  -5  -3 464.244 31.8400   2
   6  -5  -3 460.708 27.9731   8
   6   5   3 341.535 30.9366   7
  -6  -5   3 342.647 33.8771   8
   6   5   3 338.781 31.5514   1
   6   5   3 328.230 31.3253   1
  -6  -5   3 341.986 33.0629   1
  -6   5  -3 431.330 27.6684   9
   6  -5  -3 419.716 31.6354   3
  -6   5  -3 445.016 32.0132   7
  -8  -5  -3 1450.68 91.2028   8
  -8   5   3 1598.18 81.8009   9
   8  -5   3 1651.10 87.7124   3
  -8   5   3 1687.90 83.1415   1
   8  -5   3 1635.87 80.2676   6
  -8  -5  -3 1435.88 87.5432   1
   8  -5   3 1616.20 87.1982   4
   8  -5   3 1621.81 82.1878   2
   8   5  -3 1367.97 88.2078   8
  -8  -5   3 1583.44 89.7173   1
   8  -5  -3 1413.69 81.3431   2
   8   5   3 1604.61 85.6764   7
  -8  -5   3 1713.75 94.7599   8
   8   5   3 1641.75 88.3286   2
  -8   5  -3 1361.25 80.8068   1
  -8   5  -3 1470.86 77.9453   9
   8  -5  -3 1427.55 82.7603   3
  10   5  -3 172.628 24.0490   2
 -10  -5  -3 155.984 23.7190   1
  10   5  -3 155.140 21.3551   8
  10  -5   3 167.522 22.2886   3
 -10  -5  -3 171.310 25.1881   8
 -10   5   3 155.749 17.4901   1
 -10   5   3 149.205 18.6577   9
  10  -5   3 147.520 22.0214   4
  10  -5   3 163.916 17.9149   2
  10  -5  -3 161.229 19.1511   2
  10   5   3 169.501 23.3983   2
 -10  -5   3 163.009 25.6664   8
 -10  -5   3 147.964 23.5415   1
  10  -5  -3 178.518 21.8336   3
 -10   5  -3 178.868 17.2114   9
 -10   5  -3 173.127 19.9285   1
  12  -5   3 1079.23 66.8607   3
  12  -5   3 1083.62 56.6767   2
 -12   5   3 1063.01 58.1762   9
  12   5  -3 983.512 67.6605   2
  12   5  -3 955.322 62.0056   8
 -12  -5  -3 971.775 66.4755   1
  12  -5   3 1088.38 67.7016   4
  12   5   3 1105.33 67.5501   2
  12  -5  -3 914.685 58.0038   2
 -12   5  -3 964.037 54.6126   9
  12  -5  -3 970.994 62.7452   3
 -12  -5   3 1100.40 69.5135   1
   1  -6   3 725.836 50.9322   8
   1   6  -3 790.276 52.1650   1
   1  -6   3 754.804 51.5790   2
  -1   6   3 747.528 52.1810   1
  -1  -6  -3 879.175 55.9990   1
  -1   6   3 748.426 52.4950   7
  -1  -6  -3 760.666 52.8647   8
   1   6  -3 800.847 53.3414   7
  -1   6   3 738.010 52.0551   1
   1  -6  -3 804.799 55.8152   1
  -1  -6   3 792.959 53.2615   1
   1   6   3 724.763 52.1781   1
   1   6   3 700.546 51.8905   7
  -1   6  -3 801.035 52.7353   7
  -1  -6   3 748.288 52.7163   8
   1  -6  -3 822.451 53.7705   2
   1   6   3 705.724 52.0008   1
   1  -6  -3 801.093 52.1498   8
  -1   6  -3 782.041 51.5520   1
   3  -6   3 553.472 41.8864   2
  -3   6   3 500.610 41.5257   1
   3   6  -3 624.720 44.9057   7
   3  -6   3 527.509 39.7618   8
  -3   6   3 520.901 42.0275   1
   3  -6   3 599.864 42.0860   6
  -3   6   3 554.313 43.0006   7
  -3  -6  -3 629.326 45.8166   8
  -3  -6  -3 652.014 46.3461   1
   3   6  -3 600.833 44.1200   1
  -3  -6   3 574.250 44.7901   1
  -3  -6   3 508.196 43.5336   8
   3  -6  -3 640.173 41.7227   8
  -3   6  -3 589.448 42.1046   1
   3   6   3 512.022 42.7241   1
   3  -6  -3 645.874 44.0360   2
  -3   6  -3 690.251 44.9875   7
   3   6   3 547.151 43.7881   1
   3   6   3 552.519 43.2327   7
   5  -6   3 385.746 39.0306   3
   5   6  -3 490.279 39.4661   7
  -5   6   3 426.999 34.2710   9
  -5  -6  -3 471.719 39.8051   8
  -5   6   3 400.334 35.6859   1
  -5  -6  -3 442.799 38.7669   1
   5  -6   3 460.663 35.9265   2
  -5   6   3 426.632 36.4146   7
   5  -6   3 423.541 34.6471   6
   5   6  -3 467.675 38.7473   1
  -5   6  -3 457.060 35.6960   1
  -5  -6   3 417.071 38.7624   8
   5   6   3 417.095 37.4151   1
   5  -6  -3 464.181 36.7117   2
  -5   6  -3 471.663 34.8653   9
   5   6   3 414.503 36.0143   7
  -5   6  -3 518.805 37.8438   7
  -5  -6   3 406.437 38.0801   1
   5  -6  -3 453.291 38.7076   3
   5  -6  -3 497.827 33.5291   8
   5   6   3 441.022 38.0565   1
  -7   6   3 628.535 46.9508   7
   7  -6   3 591.136 49.0068   3
   7  -6   3 607.722 44.3534   2
  -7   6   3 626.193 46.1241   1
   7   6  -3 731.184 50.9470   1
  -7  -6  -3 729.968 51.6521   1
  -7   6   3 661.948 44.8625   9
  -7  -6  -3 734.625 52.6894   8
  -7  -6   3 597.816 50.2733   8
   7  -6  -3 703.731 47.2478   2
  -7   6  -3 764.762 47.7274   1
   7   6   3 609.432 47.7113   1
   7   6   3 581.872 45.3096   7
   7   6   3 633.477 48.1909   1
  -7   6  -3 716.144 44.8344   9
   7  -6  -3 703.695 48.9543   3
  -7  -6   3 675.155 51.3528   1
   9  -6   3 848.914 53.0809   2
   9  -6   3 858.892 59.4804   4
  -9   6   3 872.527 53.7778   9
  -9  -6  -3 816.854 59.5063   1
  -9  -6  -3 842.708 61.9622   8
   9   6  -3 799.359 60.0188   8
  -9   6   3 925.963 55.7553   1
   9  -6   3 870.971 60.3913   3
   9  -6  -3 816.992 56.2791   3
   9   6   3 862.768 55.5601   7
   9  -6  -3 799.796 54.1101   2
  -9  -6   3 858.879 61.1106   1
  -9  -6   3 852.296 62.7142   8
  -9   6  -3 867.820 52.3799   9
  -9   6  -3 876.400 53.8572   1
  11  -6   3 381.756 39.2843   3
 -11   6   3 403.509 32.8102   1
  11  -6   3 411.990 40.6544   4
 -11   6   3 366.707 32.7384   9
  11  -6   3 357.015 31.8592   2
 -11  -6  -3 517.491 45.4874   8
  11   6  -3 503.358 40.9898   8
 -11  -6  -3 512.025 42.7541   1
 -11  -6   3 394.542 39.8034   1
  11  -6  -3 483.460 39.9841   3
 -11   6  -3 498.698 34.3179   9
 -11  -6   3 415.728 42.3191   8
  11  -6  -3 464.823 35.4088   2
   0  -7  -3 2156.97 126.153   8
   0   7   3 2406.01 127.649   7
   0   7   3 2461.55 127.746   1
   0   7   3 2447.66 127.498   1
   0   7  -3 2280.24 125.695   1
   0  -7   3 2354.62 127.079   8
   0   7  -3 2219.38 124.952   7
   2  -7   3 82.5710 18.2515   2
   2  -7   3 71.4785 15.9350   8
  -2   7   3 76.9754 18.3783   1
   2  -7   3 95.0260 19.7783   6
  -2   7   3 82.0033 19.8315   7
  -2  -7  -3 55.6922 17.0685   8
   2   7  -3 39.6339 14.7032   7
   2   7  -3 57.6292 17.1447   1
  -2   7   3 54.6801 16.1556   1
  -2  -7  -3 60.8399 18.1638   1
   2  -7  -3 55.9945 14.7935   8
   2   7   3 62.3156 17.2312   7
   2   7   3 76.0555 18.9095   1
  -2  -7   3 85.5489 19.3368   1
   2   7   3 82.5587 19.4881   1
  -2   7  -3 55.1324 16.0412   7
  -2  -7   3 70.4872 17.1771   8
  -2   7  -3 43.9173 15.0458   1
  -4  -7  -3 985.812 68.4568   1
   4   7  -3 1029.54 68.5267   1
   4   7  -3 978.631 67.3849   7
  -4  -7  -3 1010.64 69.6904   8
  -4   7   3 1086.24 68.6139   7
  -4   7   3 1023.64 67.2871   1
   4  -7   3 1079.60 66.1565   2
  -4   7   3 1039.57 67.2344   1
   4   7   3 1076.96 67.6690   7
  -4  -7   3 1127.51 69.3916   1
  -4   7  -3 997.005 65.7633   7
  -4   7  -3 956.608 65.0534   1
   4  -7  -3 976.396 66.7324   2
   4  -7  -3 1007.81 62.0217   8
   4   7   3 1079.08 68.8633   1
  -4  -7   3 1051.14 69.2396   8
   4  -7  -3 1016.73 70.9442   3
   4   7   3 1079.07 68.9879   1
  -6   7   3 162.161 24.6597   1
  -6  -7  -3 190.957 27.3226   8
  -6  -7  -3 199.178 27.5677   1
  -6   7   3 199.382 26.0348   7
   6  -7   3 178.575 29.0935   3
   6   7  -3 188.525 26.3806   7
   6   7  -3 187.620 26.2948   1
   6  -7   3 188.992 23.9832   2
  -6   7  -3 190.218 25.3903   7
   6   7   3 154.141 22.9747   7
  -6  -7   3 172.769 26.1900   1
  -6   7  -3 181.092 24.1651   1
   6   7   3 180.815 25.8647   1
   6  -7  -3 172.278 26.5315   3
  -6  -7   3 171.222 26.1662   8
   6  -7  -3 209.734 26.6902   2
   6   7   3 173.231 25.5403   1
  -8   7   3 1146.69 65.2233   9
   8  -7   3 1029.14 72.5757   3
   8  -7   3 1096.11 64.7768   2
  -8  -7  -3 965.552 71.3564   8
   8   7  -3 990.678 70.8906   8
  -8   7   3 1046.12 66.9009   1
  -8  -7  -3 962.767 68.6709   1
  -8  -7   3 1042.70 70.0606   1
  -8   7  -3 1031.73 63.8945   9
  -8   7  -3 997.187 63.7309   1
   8  -7  -3 982.067 65.9565   2
  -8  -7   3 1114.40 73.5020   8
   8  -7  -3 939.189 69.1759   3
   8   7   3 1055.26 65.5024   7
   0   0   4 246.802 16.4848   5
   0   0   4 248.089 15.7781   2
   0   0   4 269.988 15.0452   6
  -2   0  -4 1926.91 90.1024   9
  -2   0  -4 1930.03 95.8223   8
  -2   0  -4 1958.76 92.4292   1
   2   0   4 2028.09 86.2592   6
  -2   0   4 1964.57 93.9892   5
  -2   0   4 2052.32 92.8962   1
   2   0   4 2076.19 92.3297   7
  -2   0  -4 1845.21 93.2779   5
   2   0   4 2001.96 91.5370   2
   2   0  -4 1916.36 91.9975   2
   2   0   4 1930.14 93.4454   5
   2   0  -4 1984.81 96.1596   8
   4   0  -4 991.630 54.4827   2
   4   0   4 1294.10 54.8590   2
  -4   0   4 1281.51 56.1027   1
  -4   0  -4 1045.43 56.5921   8
  -4   0  -4 1032.87 53.3644   9
  -4   0  -4 992.472 55.0173   5
   4   0  -4 1042.12 56.6592   8
  -4   0  -4 1020.21 54.5529   1
  -4   0   4 1258.75 53.7338   9
   4   0   4 1270.57 55.0006   7
  -6   0  -4 1295.11 65.1704   1
   6   0   4 1409.61 65.0573   2
   6   0  -4 1344.21 64.9201   4
  -6   0  -4 1390.24 68.1209   8
   6   0   4 1449.14 64.4291   6
  -6   0   4 1394.43 64.0154   9
  -6   0   4 1405.22 66.4759   1
  -6   0  -4 1334.05 64.4016   9
  -6   0  -4 1258.95 62.6330   9
  -6   0  -4 1312.11 65.9523   5
   6   0  -4 1405.50 67.7755   8
   6   0  -4 1324.34 65.9739   2
  -8   0  -4 192.221 12.4330   9
   8   0  -4 206.854 15.2466   2
   8   0  -4 196.715 14.5868   4
  -8   0  -4 188.183 14.2426   9
  -8   0  -4 199.043 14.0034   1
   8   0  -4 202.387 12.8862   8
 -10   0  -4 1059.32 51.6820   9
 -10   0  -4 1060.01 53.7142   1
 -10   0   4 1146.71 53.7589   9
  10   0   4 1129.80 56.9155   6
 -10   0   4 1101.75 56.0571   1
  10   0   4 1119.46 54.0547   2
 -10   0  -4 1029.18 54.2219   9
  10   0  -4 1077.13 55.6236   2
  10   0  -4 1079.35 56.5065   4
  12   0   4 78.9787 13.6301   6
 -12   0  -4 44.0362 8.78504   9
 -12   0  -4 43.4762 6.80707   9
  12   0  -4 50.6223 8.82256   2
  12   0  -4 50.7949 10.4695   4
 -14   0   4 595.276 32.8995   9
 -14   0  -4 527.770 33.9814   9
  14   0   4 616.531 39.9237   6
  14   0  -4 547.214 33.7869   2
  14   0   4 597.689 33.6001   2
  16   0   4 191.721 18.5272   2
  16   0   4 202.460 23.8783   6
 -16   0   4 190.828 16.9024   9
   1   1  -4 1686.70 82.5722   8
  -1   1   4 1622.96 79.2604   1
   1  -1   4 1579.24 74.5334   6
  -1  -1  -4 1682.96 80.8662   5
  -1  -1  -4 1720.14 80.0043   1
   1  -1   4 1643.20 78.6634   2
   1   1  -4 1628.05 79.5937   1
   1   1  -4 1706.17 79.3333   2
  -1  -1  -4 1725.19 82.7765   8
   1   1   4 1584.49 78.5035   2
  -1  -1   4 1584.78 79.3259   1
   1   1   4 1631.52 72.2960   6
  -1   1  -4 1692.42 79.3219   1
   1  -1  -4 1782.46 82.7761   8
   1   1   4 1650.60 79.3540   1
   1  -1  -4 1690.61 80.9139   5
   1   1   4 1587.71 79.2927   7
  -1  -1   4 1653.34 78.9669   2
   1  -1  -4 1708.59 78.9923   2
  -1   1  -4 1634.05 82.1875   8
   1  -1  -4 1734.01 79.8948   1
  -3  -1  -4 1249.88 58.8373   1
   3  -1   4 1166.96 55.2092   3
   3   1  -4 1223.44 60.6024   8
   3   1  -4 1218.09 58.7096   2
  -3   1   4 1157.59 55.8413   9
   3  -1   4 1126.37 56.6679   2
  -3   1   4 1126.57 57.5959   1
   3   1  -4 1199.73 58.8421   1
  -3  -1  -4 1244.16 60.5968   8
   3  -1   4 1151.91 57.9734   5
  -3  -1  -4 1086.39 56.8159   9
   3  -1   4 1130.52 57.1830   4
   3  -1   4 1114.34 54.6096   6
  -3  -1  -4 1200.80 59.0847   5
   3   1   4 1167.14 57.4576   2
  -3   1  -4 1172.55 55.5348   9
   3  -1  -4 1177.75 59.8102   8
  -3   1  -4 1217.76 57.7236   1
   3   1   4 1141.17 58.1981   7
  -3   1  -4 1184.44 59.4845   8
  -3  -1   4 1129.93 58.2882   1
   3  -1  -4 1221.13 57.7151   2
   3   1   4 1183.79 53.8661   6
   3  -1  -4 1202.71 58.8810   5
   5  -1   4 881.357 43.2361   5
  -5  -1  -4 829.453 45.4090   8
  -5   1   4 890.222 41.9971   9
   5  -1   4 870.244 42.3674   2
   5  -1   4 870.263 40.9092   7
   5  -1   4 861.920 42.7115   3
  -5   1   4 826.797 43.2604   1
  -5  -1  -4 811.376 44.0069   9
   5  -1   4 874.876 45.0755   4
   5   1  -4 818.067 44.4985   2
   5   1  -4 807.431 44.9382   8
  -5  -1  -4 838.932 44.3343   1
   5   1   4 871.365 45.1129   7
  -5   1  -4 836.222 41.1529   9
  -5   1  -4 824.918 40.9176   9
   5   1   4 840.144 43.2995   2
  -5  -1   4 834.904 44.3159   1
   5   1   4 876.089 42.1328   6
   5  -1  -4 850.696 44.2567   8
   5  -1  -4 824.027 44.0158   5
  -5   1  -4 872.346 44.4553   8
  -5   1  -4 829.645 42.6383   1
  -5  -1   4 886.503 47.1307   8
  -5  -1   4 882.346 42.6656   9
   5  -1  -4 790.314 42.9095   2
   7  -1   4 976.533 46.9377   2
  -7  -1  -4 997.800 50.8937   8
  -7   1   4 913.544 48.1077   1
  -7  -1  -4 964.912 50.1501   9
   7  -1   4 923.357 48.5601   3
  -7   1   4 959.567 47.0446   9
  -7   1   4 922.803 46.1900   9
  -7  -1  -4 994.134 49.5951   1
   7  -1   4 912.911 47.8714   6
   7   1  -4 977.664 49.9844   8
  -7  -1  -4 976.574 46.8608   9
   7   1  -4 927.572 49.5272   2
   7  -1   4 932.829 51.2886   4
   7  -1   4 915.968 46.4453   2
   7   1   4 940.676 47.9469   6
  -7   1  -4 934.585 45.2652   9
   7   1   4 928.681 48.4124   2
   7   1   4 955.028 49.4282   7
  -7   1  -4 975.606 47.1548   1
   7  -1  -4 971.836 47.6133   8
  -7  -1   4 945.980 47.3813   9
  -7   1  -4 951.872 45.0745   9
   7  -1  -4 968.656 48.1685   2
  -7  -1   4 942.390 50.0038   1
  -7  -1   4 955.925 52.5226   8
  -9   1   4 519.270 28.9883   9
  -9  -1  -4 530.374 32.5633   9
  -9   1   4 479.625 27.9120   9
  -9   1   4 511.682 29.7526   1
  -9  -1  -4 560.893 31.3576   1
   9  -1   4 533.880 32.4264   6
   9   1  -4 553.328 29.3698   8
   9   1  -4 551.217 32.1388   2
   9  -1   4 521.412 34.2585   4
   9  -1   4 532.619 28.4424   2
   9  -1   4 503.879 28.0333   2
  -9   1  -4 568.452 28.6054   1
   9   1   4 529.122 32.5493   6
   9   1   4 517.910 30.6370   2
  -9  -1   4 504.909 29.5150   9
  -9   1  -4 535.197 26.7614   9
   9  -1  -4 550.614 30.0429   2
   9  -1  -4 569.475 32.5511   4
  -9  -1   4 512.350 32.0605   1
  11  -1   4 1308.67 68.3391   6
  11  -1   4 1317.99 64.0653   2
  11   1  -4 1347.23 68.9931   2
 -11   1   4 1340.61 64.2179   9
 -11   1   4 1339.76 66.8089   1
 -11  -1  -4 1448.81 68.4909   1
 -11  -1  -4 1291.50 69.1684   9
  11   1   4 1314.55 67.9244   2
  11  -1  -4 1347.58 66.4114   2
 -11  -1   4 1330.21 66.2312   9
  11   1   4 1292.11 68.1093   6
 -11  -1   4 1331.04 70.0747   1
  11  -1  -4 1444.71 71.4056   4
  13   1  -4 230.996 19.7803   2
  13  -1   4 221.915 22.1998   6
 -13  -1  -4 225.492 18.0145   1
 -13  -1  -4 215.422 20.6547   9
 -13   1   4 227.945 16.1793   9
  13   1   4 220.939 22.4408   6
  13   1   4 219.699 19.1029   2
 -13  -1   4 211.117 20.4444   1
 -13  -1   4 207.195 17.2793   9
  13  -1  -4 215.998 16.9545   2
  13  -1  -4 227.169 21.4572   4
  15  -1   4 543.557 38.6492   6
 -15   1   4 537.235 31.0162   9
  15   1  -4 528.710 34.8917   2
 -15  -1  -4 546.050 37.0249   9
 -15  -1   4 518.554 33.3186   9
  15  -1  -4 547.216 31.9642   2
  15   1   4 524.584 39.2069   6
 -15  -1   4 540.811 38.1715   1
  15   1   4 511.527 35.3294   2
   0   2   4 257.205 17.4259   2
   0   2   4 245.378 17.3043   1
   0   2   4 241.404 17.5686   7
   0  -2   4 251.879 14.0844   4
   0  -2   4 247.230 17.3017   2
   0  -2   4 254.688 17.6096   1
   2   2  -4 1101.60 60.3432   8
   2  -2   4 1125.72 57.0380   2
  -2  -2  -4 1112.97 58.5143   1
   2  -2   4 1183.55 56.1416   4
   2  -2   4 1123.96 55.6174   6
  -2   2   4 1166.91 57.7440   7
  -2   2   4 1113.46 57.5942   1
  -2  -2  -4 1198.38 61.1174   8
   2   2  -4 1142.82 58.8738   1
  -2  -2   4 1135.84 61.0478   8
   2  -2  -4 1200.42 58.1539   1
   2   2   4 1168.34 58.3151   1
   2  -2  -4 1109.43 59.6117   8
  -2   2  -4 1144.86 60.0683   8
   2   2   4 1192.87 52.2114   6
  -2   2  -4 1158.33 57.5829   1
  -2   2  -4 1146.17 55.5492   9
   2   2   4 1105.54 58.7094   7
   2  -2  -4 1169.35 54.5465   3
   2  -2  -4 1154.90 57.4298   2
   2   2   4 1163.54 57.8201   2
  -4  -2  -4 278.959 21.9702   9
  -4  -2  -4 285.599 21.2209   1
  -4   2   4 347.338 20.5867   7
   4  -2   4 329.137 19.7589   2
  -4  -2  -4 290.273 21.7417   8
   4  -2   4 350.703 20.7291   3
   4   2  -4 274.184 21.1035   8
   4  -2   4 325.688 20.6393   4
   4  -2   4 332.644 20.8870   6
   4   2  -4 282.420 21.7262   1
  -4   2   4 331.708 20.5275   1
   4  -2  -4 291.500 18.5457   3
   4  -2  -4 278.615 19.5952   2
  -4   2  -4 315.184 19.9947   1
   4   2   4 348.411 21.4375   2
   4   2   4 355.368 21.4979   1
  -4   2  -4 285.659 18.1639   9
  -4  -2   4 324.118 21.8788   1
  -4   2  -4 291.579 20.5197   8
   4  -2  -4 285.150 20.1390   5
   4  -2  -4 290.133 20.3466   8
   4   2   4 336.805 22.9696   7
   4   2   4 330.962 19.3103   6
  -4  -2   4 343.532 23.6938   8
  -4  -2   4 340.566 20.6265   9
   6  -2   4 239.187 15.7281   2
   6  -2   4 247.749 18.6149   4
   6  -2   4 240.141 18.2533   6
   6   2  -4 234.610 19.5687   1
   6  -2   4 258.971 16.1318   5
   6  -2   4 235.243 17.5197   3
  -6   2   4 269.250 17.3745   1
  -6  -2  -4 221.439 19.5709   9
  -6  -2  -4 214.096 18.1056   1
   6  -2   4 241.025 15.8250   2
   6   2  -4 216.893 17.6453   8
   6   2  -4 218.904 18.6756   2
  -6  -2  -4 220.465 18.5054   8
   6  -2  -4 218.981 16.3368   2
  -6  -2   4 262.163 19.5183   1
   6   2   4 237.121 20.1697   7
   6   2   4 265.423 17.9907   1
   6   2   4 248.444 18.2403   2
   6  -2  -4 229.564 16.4651   8
   6   2   4 236.037 17.1745   6
  -6   2  -4 238.290 16.2610   1
   6  -2  -4 231.333 16.7809   3
  -6   2  -4 220.587 14.6175   9
   6  -2  -4 229.079 16.7320   5
  -6  -2   4 245.897 20.4228   8
  -6  -2   4 245.745 17.2307   9
  -6   2  -4 227.864 15.4394   9
  -8   2   4 76.8534 9.35627   1
   8  -2   4 78.2704 10.9150   3
   8  -2   4 72.4386 11.5385   4
   8  -2   4 73.4119 8.24779   2
   8  -2   4 74.0065 11.3672   6
  -8  -2   4 62.4738 11.4267   1
   8   2   4 82.0818 12.0472   7
  -8  -2   4 74.6818 12.6944   8
  -8  -2   4 77.8835 9.89455   9
   8   2   4 76.3072 10.5367   2
   8   2   4 81.5111 11.3882   6
  10   2  -4 785.802 42.8341   8
  10  -2   4 789.681 39.5488   2
 -10  -2  -4 785.364 44.9975   1
 -10   2   4 755.354 41.3107   1
  10  -2   4 783.579 44.3847   6
 -10   2   4 745.888 39.7185   9
  10  -2   4 777.011 45.3055   3
  10   2  -4 776.692 46.2830   2
 -10  -2  -4 743.134 46.6497   9
  10  -2   4 792.494 47.6267   4
  10   2   4 784.725 44.8064   6
  10  -2  -4 826.006 46.7640   4
 -10  -2   4 762.052 46.3331   1
  10  -2  -4 780.499 41.4580   2
 -10  -2   4 769.446 42.7018   9
  10   2   4 754.400 44.3149   2
 -10   2  -4 787.646 39.7156   1
  12  -2   4 101.296 9.12024   2
  12  -2   4 112.676 15.6695   6
 -12   2   4 98.1996 10.3545   9
  12  -2   4 88.5792 15.7754   4
 -12   2   4 95.0939 11.2093   1
 -12  -2   4 91.3209 15.7002   1
  12   2   4 105.537 14.6478   2
 -12  -2   4 97.7785 12.8780   9
  12   2   4 92.4867 15.3452   6
 -14   2   4 118.647 11.8663   9
 -14  -2  -4 114.766 18.4160   9
  14  -2   4 143.023 18.6671   6
  14   2  -4 100.767 15.9535   2
 -14  -2  -4 114.775 15.6239   1
  14  -2   4 130.679 19.2918   4
 -14  -2   4 138.882 19.6392   1
  14   2   4 132.350 17.4832   2
  14  -2  -4 117.488 12.4569   2
  14  -2  -4 112.208 17.6452   4
 -14  -2   4 136.220 15.7322   9
  14   2   4 140.573 19.4927   6
 -16   2   4 34.9569 8.07464   9
  16   2  -4 46.3315 12.5322   2
 -16  -2  -4 50.2638 14.4238   9
  16  -2   4 57.4369 15.1079   6
 -16  -2   4 40.0710 11.4912   9
  16   2   4 32.3807 11.7343   2
  16   2   4 31.2616 13.0077   6
 -16  -2   4 33.7276 14.3273   1
  -1  -3  -4 1145.57 60.0548   1
  -1  -3  -4 1170.29 61.9662   8
   1  -3   4 1090.68 58.6781   1
   1   3  -4 1122.85 58.9847   2
  -1   3   4 1070.23 58.5484   7
   1  -3   4 1103.02 58.6897   2
   1   3  -4 1134.70 59.7835   1
  -1   3   4 1008.65 58.1856   1
  -1  -3   4 1109.24 59.2271   2
   1  -3  -4 1202.91 61.7314   8
  -1  -3   4 1105.46 59.4430   1
  -1   3  -4 1150.78 59.3428   7
   1   3   4 1129.14 58.5500   2
  -1   3  -4 1189.21 57.5454   9
   1  -3  -4 1158.92 58.8052   2
   1  -3  -4 1157.68 59.2314   1
   1   3   4 1126.76 51.4148   6
  -1  -3   4 1067.28 61.5533   8
   1   3   4 1112.59 59.4581   1
  -1   3  -4 1163.47 59.7075   1
   1   3   4 1029.70 58.9875   7
  -3  -3  -4 655.243 38.8321   8
  -3   3   4 583.110 35.4031   1
   3  -3   4 572.888 35.1556   6
   3   3  -4 640.349 38.9904   8
   3   3  -4 625.924 38.4086   1
  -3   3   4 566.092 34.9643   7
  -3  -3  -4 622.017 37.7652   1
   3   3  -4 642.317 37.8815   2
   3  -3   4 597.543 35.4058   2
  -3  -3   4 595.561 37.2239   1
   3  -3  -4 635.512 35.6030   1
  -3   3  -4 614.145 33.4029   9
   3   3   4 594.749 31.7535   6
  -3  -3   4 586.083 36.7873   2
   3  -3  -4 639.888 34.4020   3
   3   3   4 570.345 37.5924   7
   3  -3  -4 653.289 37.7195   8
  -3   3  -4 591.121 35.2665   1
   3  -3  -4 629.677 35.5257   2
   3   3   4 624.484 36.5048   2
  -3   3  -4 616.744 35.8574   7
  -5  -3  -4 167.835 17.0917   8
   5  -3   4 164.207 14.4218   2
  -5  -3  -4 155.020 16.8030   1
   5  -3   4 167.179 15.7125   6
   5  -3   4 167.446 15.8755   3
  -5  -3  -4 157.774 17.5412   9
   5   3  -4 153.129 16.9626   2
  -5   3   4 165.839 14.5464   1
  -5   3   4 164.995 14.6981   7
   5   3  -4 163.794 17.8951   1
   5  -3   4 163.845 15.1704   4
   5   3  -4 171.142 17.1154   8
  -5  -3   4 173.606 17.2244   1
   5  -3  -4 160.341 14.5694   5
   5  -3  -4 162.940 15.0916   8
   5   3   4 167.277 14.2986   6
   5   3   4 168.564 18.1453   7
   5  -3  -4 157.849 14.3687   3
   5   3   4 172.175 16.4178   1
  -5   3  -4 166.535 14.4319   1
  -5  -3   4 186.534 19.3623   8
  -5   3  -4 166.331 14.7144   7
   5  -3  -4 158.936 14.4870   2
  -5   3  -4 153.059 12.7372   9
  -5  -3   4 161.582 15.4408   9
  -7   3   4 501.987 31.4517   1
   7  -3   4 499.782 32.6667   6
  -7  -3  -4 554.073 37.5076   9
   7   3  -4 578.316 37.6112   1
  -7  -3  -4 578.912 37.1829   8
   7   3  -4 526.133 36.0902   2
   7  -3   4 508.946 34.1630   4
   7  -3   4 530.050 30.2790   5
  -7  -3  -4 525.216 35.7837   1
  -7   3   4 525.154 31.6188   7
   7  -3   4 522.792 31.0271   2
   7   3  -4 565.213 35.4660   8
   7  -3   4 516.178 33.6972   3
   7  -3  -4 582.837 32.4522   5
  -7   3  -4 521.523 28.9055   9
  -7  -3   4 522.551 38.3587   8
   7   3   4 492.030 31.7563   6
  -7   3  -4 556.400 31.7391   7
  -7   3  -4 548.164 31.8659   1
   7  -3  -4 543.485 31.9016   2
   7  -3  -4 582.416 33.4807   3
  -7  -3   4 512.563 35.7825   1
   7   3   4 555.504 36.9840   7
   7   3   4 521.253 34.7049   2
  -7  -3   4 534.004 33.5361   9
  -9  -3  -4 364.102 27.9615   1
  -9  -3  -4 372.290 29.5586   9
   9  -3   4 298.634 25.4737   3
   9  -3   4 288.597 20.5442   2
   9  -3   4 290.452 24.3303   6
  -9  -3  -4 383.488 29.2024   8
   9   3  -4 367.506 25.1783   8
  -9   3   4 288.387 21.7938   1
   9  -3   4 275.336 25.4328   4
   9   3  -4 348.125 28.1713   2
  -9  -3   4 288.449 26.8749   1
  -9  -3   4 298.880 24.2947   9
  -9   3  -4 361.739 22.6507   1
   9  -3  -4 351.659 21.8462   5
  -9   3  -4 348.063 22.5770   9
   9   3   4 284.257 24.1145   6
   9  -3  -4 361.262 23.0954   2
  -9  -3   4 313.049 29.4209   8
  -9   3  -4 361.457 20.0124   9
   9   3   4 313.063 26.1061   2
   9  -3  -4 359.596 25.3458   3
  11  -3   4 1091.15 66.1002   4
  11  -3   4 1052.51 63.1971   3
 -11  -3  -4 1230.72 67.9921   9
  11  -3   4 1162.36 57.0674   2
  11  -3   4 1108.21 61.3306   6
 -11   3   4 1149.75 58.8490   1
  11   3  -4 1176.13 67.6539   2
  11   3  -4 1169.84 61.8694   8
 -11  -3  -4 1149.00 65.8188   1
 -11  -3   4 1156.29 67.8859   1
  11  -3  -4 1195.29 64.2500   3
  11  -3  -4 1155.70 59.2882   2
 -11   3  -4 1130.57 55.1067   9
 -11  -3   4 1176.35 63.1067   9
  11   3   4 1104.16 65.1681   2
  11   3   4 1159.66 63.2178   6
 -11   3  -4 1142.33 57.4976   9
  13  -3   4 71.4051 15.6616   6
  13  -3   4 66.5917 15.9580   4
 -13  -3  -4 102.583 17.0676   1
 -13  -3  -4 97.7595 18.1368   9
  13  -3   4 55.9876 14.9430   3
  13   3  -4 82.2987 16.4543   2
  13   3   4 59.3387 14.9895   2
  13  -3  -4 107.259 17.7778   4
  13   3   4 57.8033 15.4131   6
 -13  -3   4 72.5684 14.3073   9
 -13  -3   4 75.0203 17.5966   1
  13  -3  -4 93.1360 11.4323   2
 -15   3   4 328.573 22.6934   9
  15   3  -4 337.761 32.0865   2
  15  -3   4 339.655 30.5345   6
  15  -3   4 327.905 32.5010   4
 -15  -3  -4 333.833 32.1474   9
 -15  -3  -4 352.939 30.3004   1
  15   3   4 318.242 31.8592   6
  15  -3  -4 369.210 33.2356   4
  15   3   4 317.255 30.5662   2
 -15  -3   4 334.818 29.3559   9
  15  -3  -4 322.158 23.1115   2
 -15  -3   4 334.924 33.2523   1
   0   4   4 36.2403 10.0008   1
   0   4   4 37.4551 9.69144   7
   0   4  -4 25.1118 9.21706   1
   0  -4  -4 28.9451 9.38311   1
   0  -4   4 36.4995 9.89325   8
   0  -4  -4 41.4725 10.6100   2
   0  -4  -4 29.4268 9.45363   8
   0   4  -4 29.9912 9.93139   7
   0  -4   4 31.5704 9.72267   1
   0   4  -4 32.4228 8.51424   9
   0  -4   4 29.1401 9.23372   2
  -2  -4  -4 866.242 53.8904   8
   2   4  -4 863.000 52.4109   7
   2  -4   4 947.538 52.3346   1
   2   4  -4 847.137 52.7221   1
  -2   4   4 901.326 51.6220   1
   2  -4   4 884.088 50.5860   6
   2  -4   4 941.222 52.0537   2
  -2   4   4 893.571 50.8194   7
  -2  -4  -4 820.343 52.1707   1
   2   4   4 877.795 52.9702   7
   2  -4  -4 885.632 51.1116   2
  -2   4  -4 834.188 51.4116   7
   2   4   4 911.451 52.6136   1
  -2  -4   4 942.391 53.3473   1
   2  -4  -4 913.304 51.2221   1
  -2   4  -4 890.288 48.8560   9
  -2   4  -4 831.995 51.1250   1
  -2  -4   4 956.112 53.6739   2
   2  -4  -4 857.724 52.4931   8
  -4  -4  -4 304.359 27.0228   1
   4   4  -4 329.438 27.9188   1
   4   4  -4 313.489 27.5799   8
  -4  -4  -4 337.917 28.0072   8
   4  -4  -4 331.755 25.7941   8
   4  -4  -4 323.338 24.2289   3
  -4   4  -4 314.718 22.5511   9
   4  -4  -4 305.437 24.3161   2
  -4   4  -4 316.114 25.1805   1
   4  -4  -4 332.847 24.6872   2
  -4   4  -4 324.325 25.3862   7
   6  -4   4 579.986 38.1116   3
   6   4  -4 546.442 40.3033   1
   6  -4   4 613.122 36.2291   2
   6  -4   4 602.600 37.4686   4
  -6   4   4 612.981 36.0867   7
  -6  -4  -4 536.658 39.9797   8
   6  -4   4 578.270 35.9809   6
  -6  -4  -4 533.440 39.9251   1
   6   4  -4 550.954 40.0420   8
  -6   4   4 571.907 35.7824   1
   6   4  -4 544.769 39.8830   2
   6  -4  -4 499.722 34.5346   2
   6   4   4 586.763 38.8385   2
  -6  -4   4 621.484 43.2185   8
  -6   4  -4 553.988 36.1856   1
  -6   4  -4 515.786 32.5236   9
   6  -4  -4 552.356 35.0545   8
   6   4   4 592.402 40.4558   7
  -6   4  -4 536.458 35.9137   7
   6   4   4 586.130 34.6003   6
   6  -4  -4 536.550 35.4925   3
   6   4   4 641.206 39.7281   1
  -6  -4   4 571.721 40.2238   1
   6  -4  -4 497.339 34.5044   2
  -8   4   4 89.5068 12.6410   7
   8  -4   4 83.7675 14.6558   4
  -8   4   4 83.3056 12.4123   1
   8  -4   4 90.5596 14.6543   6
   8  -4   4 80.5149 11.9985   2
   8  -4   4 85.1611 15.0360   3
   8   4   4 102.324 16.5108   7
  -8  -4   4 75.7731 16.6078   1
  -8  -4   4 83.4720 17.5654   8
   8   4   4 90.3766 14.0893   6
   8   4   4 87.3055 15.3683   2
  10  -4   4 682.415 44.6115   3
  10  -4   4 646.934 44.6008   4
 -10  -4  -4 601.005 45.4107   1
 -10  -4  -4 649.315 49.0924   9
  10  -4   4 658.832 37.9276   2
 -10   4   4 654.822 38.7521   1
  10   4  -4 644.944 42.7922   8
  10  -4   4 671.549 41.9616   6
  10   4  -4 613.482 46.3162   2
  10  -4  -4 642.605 42.2217   3
 -10   4  -4 647.844 36.1222   9
 -10  -4   4 693.822 48.8364   1
  10   4   4 645.166 42.3567   6
 -10  -4   4 673.552 50.1246   8
  10   4   4 688.163 46.0599   2
  10  -4  -4 600.125 38.5885   2
 -10   4  -4 644.323 40.2852   1
 -12  -4  -4 16.8844 11.1442   1
  12  -4   4 11.4291 9.71999   4
  12  -4   4 14.4571 9.58211   6
  12   4  -4 15.2114 10.7856   2
  12  -4   4 18.3055 6.17587   2
  12  -4   4 19.9324 11.0750   3
 -12  -4  -4 19.1280 11.6546   9
 -12   4  -4 13.6408 5.72694   9
  12   4   4 18.4977 10.8652   2
  12  -4  -4 7.08423 6.56247   2
  12  -4  -4 10.6407 6.85954   2
 -12  -4   4 17.5544 12.5837   1
  12   4   4 17.8388 10.6121   6
  12  -4  -4 17.0308 10.1908   3
  14  -4   4 330.039 29.5249   6
 -14  -4  -4 288.715 30.9895   9
 -14  -4  -4 254.358 29.6470   1
  14  -4   4 315.267 30.4405   3
  14  -4   4 301.988 31.3745   4
  14   4  -4 263.598 30.7386   2
 -14  -4   4 314.539 32.6686   1
  14  -4  -4 263.930 22.5978   2
  14   4   4 310.837 30.7937   2
  14  -4  -4 257.165 22.3499   2
  14   4   4 322.649 30.8922   6
  14  -4  -4 271.756 30.4862   4
   1   5  -4 985.954 60.4968   1
   1  -5   4 944.574 59.0588   8
   1   5  -4 957.856 60.0449   7
   1  -5   4 925.263 58.5164   2
  -1  -5  -4 990.503 60.1617   1
  -1   5   4 939.982 58.5333   1
  -1   5   4 957.617 58.5546   7
  -1  -5  -4 972.800 61.3990   8
   1  -5   4 986.175 59.4027   1
  -1  -5   4 952.064 60.9177   8
   1  -5  -4 969.307 60.7766   8
  -1   5  -4 951.077 59.2610   1
   1   5   4 947.002 59.9776   7
  -1  -5   4 1017.90 61.6985   2
  -1  -5   4 974.019 60.4505   1
   1  -5  -4 1053.56 60.5625   2
   1  -5  -4 1039.19 60.1326   1
   1   5   4 971.299 59.5962   1
  -1   5  -4 976.868 59.4010   7
  -3  -5  -4 826.521 55.0226   1
   3  -5   4 845.804 52.8003   2
   3   5  -4 824.480 54.5489   7
   3   5  -4 878.765 56.2046   1
   3  -5   4 850.389 52.2163   6
  -3   5   4 852.601 53.1526   7
  -3   5   4 862.068 53.1847   1
  -3  -5  -4 868.077 56.5673   8
  -3  -5   4 861.588 56.0321   1
  -3   5  -4 814.267 53.0416   1
   3   5   4 878.821 55.0555   1
   3   5   4 828.294 55.0226   7
   3  -5  -4 866.034 53.5171   8
  -3  -5   4 835.651 56.3820   8
  -3   5  -4 917.599 54.5852   7
   3  -5  -4 868.127 53.0765   2
  -3   5  -4 868.976 49.8563   9
   5  -5   4 774.439 52.4858   3
  -5  -5  -4 776.512 54.2748   8
  -5   5   4 843.222 50.4556   7
   5   5  -4 825.179 54.9975   1
   5  -5   4 811.186 49.9935   2
  -5   5   4 816.901 50.8696   1
   5  -5   4 842.500 49.8568   6
  -5  -5  -4 758.206 53.5531   1
   5  -5  -4 778.324 50.2757   2
  -5  -5   4 804.022 55.4917   8
  -5   5  -4 808.761 50.8367   7
  -5   5  -4 747.377 49.7691   1
   5   5   4 833.469 52.8611   1
  -5  -5   4 806.947 54.5149   1
   5   5   4 804.941 53.0601   7
  -5   5  -4 791.089 46.8328   9
   5  -5  -4 760.488 48.9559   3
   5  -5  -4 766.733 48.3919   8
  -7  -5  -4 838.329 55.8752   1
  -7   5   4 779.105 48.8844   7
   7  -5   4 825.118 49.4694   6
  -7   5   4 816.078 49.6661   1
  -7  -5  -4 782.053 55.3486   8
   7  -5   4 795.112 51.1541   4
   7  -5   4 757.435 48.4864   2
   7   5  -4 754.465 54.6900   8
   7   5  -4 793.518 54.0298   1
   7  -5   4 794.284 52.2580   3
   7  -5  -4 778.666 49.2911   2
   7   5   4 844.786 53.5106   1
  -7  -5   4 756.086 55.7480   8
   7  -5  -4 755.107 49.1943   3
   7   5   4 789.413 51.6465   7
  -7   5  -4 807.302 46.1946   9
  -7  -5   4 821.975 56.0780   1
  -7   5  -4 754.946 49.7734   1
   9  -5   4 468.906 33.4225   2
   9  -5   4 444.180 37.4052   3
  -9   5   4 465.558 33.4835   1
  -9  -5  -4 472.269 40.7617   1
  -9  -5  -4 495.407 42.5986   8
   9   5  -4 466.148 38.6833   8
   9  -5   4 478.105 38.4321   4
   9  -5   4 452.761 34.9961   6
   9  -5  -4 509.036 35.6751   2
  -9   5  -4 515.192 35.6120   1
   9   5   4 471.920 39.1311   2
   9   5   4 462.166 36.0725   7
  -9   5  -4 499.156 32.3630   9
  -9  -5   4 453.364 40.4078   1
   9  -5  -4 473.594 36.0782   3
  -9  -5   4 471.479 42.0928   8
  11  -5   4 894.789 59.7666   3
 -11   5   4 926.744 52.5924   1
  11  -5   4 934.638 52.5731   2
  11   5  -4 882.977 58.7235   8
  11  -5   4 911.768 60.5002   4
 -11  -5  -4 889.360 61.9832   1
  11  -5   4 893.629 55.5128   6
  11   5  -4 867.693 61.9218   2
 -11  -5   4 953.685 66.7272   8
  11  -5  -4 958.757 56.0636   2
  11  -5  -4 923.923 57.7275   3
 -11   5  -4 936.671 51.3369   9
  11   5   4 902.211 60.8933   2
 -11  -5   4 893.415 62.6972   1
   0   6   4 8.76622 9.83937   1
   0  -6   4 3.39558 8.32414   8
   0   6   4 1.21877 8.65495   7
   0  -6   4 8.56196 10.0607   1
   0   6  -4 21.0130 11.1276   7
   0  -6  -4 16.0428 10.1968   8
   0  -6  -4 30.1185 12.8560   1
   0   6  -4 23.0081 11.8388   1
  -2  -6  -4 474.457 40.6072   8
   2  -6   4 498.928 39.1995   2
  -2  -6  -4 475.627 40.4338   1
  -2   6   4 511.775 40.1241   1
   2   6  -4 470.816 39.9275   7
   2   6  -4 478.979 40.5800   1
   2  -6   4 529.601 39.6690   6
  -2   6   4 513.349 40.3286   7
   2  -6  -4 476.698 38.1235   8
  -2   6  -4 489.183 40.0046   1
  -2   6  -4 450.678 38.4719   7
   2   6   4 484.574 40.2729   1
  -2  -6   4 507.905 40.5226   8
   2   6   4 523.709 41.1656   7
  -2  -6   4 538.152 41.3151   1
   2  -6  -4 477.069 39.5661   2
   4   6  -4 111.624 21.0396   1
  -4  -6  -4 136.355 22.4942   8
  -4  -6  -4 142.669 23.1227   1
   4   6  -4 125.142 21.1905   7
  -4   6  -4 143.162 20.1433   9
  -4   6  -4 134.612 20.5333   7
   4  -6  -4 132.913 21.5035   3
   4  -6  -4 132.286 17.9577   8
  -4   6  -4 130.263 20.7893   1
   4  -6  -4 136.251 21.0091   2
  -6   6   4 303.416 29.2633   7
   6   6  -4 266.774 31.0600   8
   6  -6   4 295.732 28.1520   2
   6   6  -4 277.424 30.4254   1
   6  -6   4 303.478 29.0264   6
  -6  -6  -4 268.192 31.7857   1
  -6  -6  -4 268.499 31.6955   8
  -6   6   4 307.036 29.5406   1
   6  -6   4 295.260 32.4837   3
   6  -6  -4 259.534 28.2250   3
   6   6   4 308.447 29.7850   7
  -6  -6   4 280.043 31.2360   8
   6  -6  -4 274.982 28.7654   2
   6   6   4 316.283 31.5636   1
  -6   6  -4 243.524 27.1507   1
  -6   6  -4 263.991 25.9477   9
  -6   6  -4 274.876 28.6133   7
  -6  -6   4 290.083 31.3645   1
   8  -6   4 34.3897 13.1937   6
  -8  -6  -4 3.97997 11.4792   1
   8  -6   4 32.9525 15.2679   3
   8   6  -4 3.22774 9.42674   8
  -8  -6  -4 3.79606 10.5755   8
   8  -6   4 36.4618 12.3836   2
   8  -6   4 43.8884 14.2277   4
  -8   6   4 37.5789 13.1847   1
  -8  -6   4 18.2600 12.3769   8
   8  -6  -4 1.16361 8.80828   2
  -8   6  -4 11.1500 8.73476   9
   8   6   4 30.3281 12.3155   7
  -8   6  -4 13.4360 10.1192   1
  -8  -6   4 27.6843 14.3725   1
   8  -6  -4 8.29763 10.5259   3
  10  -6   4 407.099 32.7049   2
 -10  -6  -4 355.531 38.7111   8
  10  -6   4 411.555 38.4528   3
 -10   6   4 422.808 33.3447   1
 -10  -6  -4 377.377 38.5069   1
  10   6  -4 361.444 36.6557   8
  10  -6   4 426.989 38.8836   4
 -10   6  -4 384.297 31.1429   9
 -10  -6   4 425.132 40.6034   1
  10  -6  -4 385.965 35.7551   3
 -10   6  -4 390.109 32.9753   1
 -10  -6   4 413.555 40.6335   8
  10  -6  -4 385.046 34.2873   2
  -1   7   4 382.243 38.2485   7
   1   7  -4 464.127 40.1085   7
   1  -7   4 468.582 38.7555   6
  -1  -7  -4 505.764 42.7540   1
   1   7  -4 454.508 39.5405   1
  -1  -7  -4 455.412 39.9129   8
   1  -7   4 406.506 36.4276   8
  -1   7   4 413.704 38.9394   1
  -1   7  -4 460.278 39.1804   1
  -1   7  -4 450.389 39.3383   7
   1   7   4 408.418 39.0682   1
  -1  -7   4 396.473 37.6052   8
   1   7   4 406.761 39.1816   7
   1  -7  -4 474.466 38.9806   8
  -3  -7  -4 281.542 32.0076   1
  -3  -7  -4 262.160 30.8710   8
   3  -7   4 264.592 29.9838   6
   3   7  -4 261.004 30.1832   7
   3  -7   4 251.899 28.5282   2
   3   7  -4 262.798 30.9528   1
  -3   7   4 250.674 29.8431   7
  -3   7   4 221.488 28.6699   1
  -3  -7   4 243.385 30.1617   1
  -3   7  -4 263.288 29.1858   1
   3   7   4 236.441 28.7954   7
  -3   7  -4 258.871 29.0540   7
   3  -7  -4 255.465 26.6732   8
   3   7   4 239.008 29.9063   1
  -5   7   4 49.9099 16.0055   1
  -5  -7  -4 69.7154 18.5170   8
   5  -7   4 65.8180 16.9515   2
   5  -7   4 71.1657 18.5052   6
  -5  -7  -4 75.5247 19.7242   1
   5   7  -4 70.0897 19.6300   1
   5  -7   4 53.9294 20.1648   3
  -5   7   4 47.4486 16.1748   7
   5   7   4 66.3575 17.9512   1
  -5   7  -4 66.4413 16.9925   1
   5  -7  -4 44.9063 15.3692   2
  -5  -7   4 68.7304 19.1826   1
  -5   7  -4 65.4617 17.2302   7
   5   7   4 66.2504 17.9897   7
  -5  -7   4 53.3469 16.1956   8
   5  -7  -4 86.1057 22.6422   3
   7   7  -4 284.988 33.4227   8
   7  -7   4 206.675 31.6404   3
   7   7  -4 289.312 32.9083   1
   7  -7   4 242.662 29.5860   4
  -7  -7  -4 261.614 32.1301   1
  -7  -7  -4 246.111 32.1671   8
  -7   7   4 244.473 29.5983   1
  -7   7   4 249.598 30.1764   7
   7  -7   4 249.462 28.0626   2
  -7   7  -4 273.030 32.6472   9
  -7  -7   4 227.863 30.5092   8
   7   7   4 230.124 27.6276   7
  -7   7  -4 261.319 29.0438   1
  -7  -7   4 259.674 32.4072   1
   7  -7  -4 235.877 28.7102   2
   7  -7  -4 266.040 31.6708   3
   1   0   5 78.7665 8.22748   6
   1   0   5 70.3202 8.58429   2
  -1   0   5 77.6085 9.32535   5
   1   0  -5 98.1142 10.1499   8
   1   0  -5 103.395 10.0372   2
  -1   0  -5 92.6059 9.58237   5
  -1   0   5 69.1044 8.96469   1
   1   0  -5 92.7035 9.72748   1
  -1   0   5 74.1808 8.74186   2
  -1   0  -5 98.6471 9.99320   1
  -1   0  -5 105.840 10.2370   8
  -1   0   5 74.6783 8.06769   6
   1   0   5 75.8555 9.04123   1
   1   0   5 65.6548 8.59529   5
  -3   0   5 250.447 17.6933   1
  -3   0  -5 258.758 16.6793   9
   3   0   5 244.898 16.7364   2
  -3   0   5 235.085 17.7246   5
   3   0   5 247.449 17.0212   7
  -3   0  -5 256.818 17.4704   5
  -3   0  -5 274.682 17.8066   1
   3   0   5 245.296 16.6569   6
  -3   0  -5 260.672 18.1592   8
  -3   0   5 257.702 16.6615   9
   3   0  -5 278.666 18.3776   1
   3   0  -5 269.653 17.9864   2
   3   0  -5 270.593 18.2975   8
   5   0   5 1464.00 70.2415   7
   5   0   5 1438.07 67.6728   6
   5   0  -5 1431.90 73.1907   8
  -5   0  -5 1446.66 69.3632   9
  -5   0   5 1418.25 71.2433   1
  -5   0  -5 1449.97 70.8627   1
  -5   0   5 1433.03 68.8983   9
  -5   0  -5 1438.01 71.3276   5
   5   0  -5 1465.88 71.2338   2
   5   0   5 1395.54 69.8860   2
  -5   0  -5 1496.68 73.5024   8
   5   0  -5 1492.15 71.7378   1
   7   0  -5 197.920 13.1937   4
   7   0   5 148.887 14.7793   6
   7   0  -5 187.630 14.9946   2
  -7   0   5 155.008 14.2238   1
  -7   0  -5 190.130 13.8564   5
  -7   0   5 148.072 12.9723   9
   7   0  -5 193.099 14.1635   8
   7   0   5 154.455 13.2374   2
  -7   0  -5 176.992 13.7823   9
  -7   0  -5 185.656 14.1370   1
  -7   0  -5 210.051 15.5937   8
  -9   0   5 294.472 21.9247   1
   9   0   5 298.475 23.0605   6
  -9   0  -5 328.244 21.0185   9
   9   0  -5 336.042 21.1482   4
  -9   0  -5 330.452 20.7582   1
   9   0   5 303.022 20.3855   2
  -9   0   5 312.233 20.6261   9
   9   0  -5 328.014 21.9819   2
  11   0   5 204.145 20.1637   6
  11   0   5 202.619 16.3997   2
 -11   0  -5 242.166 17.9646   9
 -11   0   5 194.056 17.9235   1
 -11   0  -5 253.219 17.0966   1
  11   0  -5 236.857 18.2685   2
 -11   0   5 198.953 16.1146   9
 -13   0  -5 595.523 34.2790   9
  13   0  -5 593.635 35.1166   2
  13   0   5 539.178 32.9386   2
  13   0   5 542.222 38.4529   6
 -13   0   5 546.336 32.8275   9
 -13   0   5 565.435 35.8278   1
 -15   0   5 48.6469 9.85713   9
 -15   0  -5 73.1018 12.0983   9
  15   0   5 47.4303 13.5913   6
  15   0  -5 51.8337 10.4273   2
  15   0   5 42.9504 9.32497   2
   0   1  -5 490.604 30.1463   8
   0  -1   5 496.361 27.9211   6
   0   1   5 511.458 29.5493   7
   0   1   5 525.885 25.3593   6
   0  -1  -5 517.402 30.5295   8
   0  -1   5 529.898 29.2746   2
   0   1   5 506.388 29.3542   1
   0  -1   5 513.926 29.8080   5
   0  -1  -5 509.024 30.2493   5
   0   1  -5 502.637 29.4539   1
   0   1   5 513.568 28.8085   2
   0  -1  -5 520.256 29.8426   1
   0  -1  -5 506.255 29.2875   2
   0  -1   5 530.610 29.4459   1
  -2  -1  -5 775.444 41.8145   1
   2  -1   5 761.958 41.5505   5
   2  -1   5 789.755 40.7414   2
   2   1  -5 751.963 41.1934   2
  -2  -1  -5 759.577 42.0511   5
   2  -1   5 780.675 40.7455   1
  -2   1   5 763.615 41.3157   1
   2   1  -5 760.990 42.8340   8
  -2  -1  -5 772.211 42.9209   8
   2   1  -5 777.057 41.7811   1
   2  -1   5 755.586 39.2029   6
   2  -1  -5 780.436 41.3808   1
   2   1   5 806.499 41.4675   1
   2  -1  -5 762.206 42.5629   8
   2   1   5 807.453 41.0932   2
   2   1   5 794.042 37.4094   6
  -2  -1   5 775.805 42.4069   5
   2  -1  -5 765.186 42.0689   5
   2  -1  -5 772.375 41.1599   2
  -2   1  -5 784.686 39.9236   9
  -2   1  -5 786.644 42.6432   8
  -2  -1   5 807.328 41.4127   2
   2   1   5 781.103 41.5993   7
  -2   1  -5 786.432 41.3617   1
  -2  -1   5 781.816 41.6030   1
  -4   1   5 1938.11 96.6103   1
   4   1  -5 2064.56 97.6083   2
   4  -1   5 2066.16 95.4097   7
   4   1  -5 2013.46 97.9035   1
  -4   1   5 2018.60 93.9915   9
   4  -1   5 2075.91 95.7394   2
   4  -1   5 2061.78 93.2017   3
   4  -1   5 1984.82 91.6140   6
  -4  -1  -5 2097.49 95.9844   9
   4  -1   5 2001.06 97.5163   5
  -4  -1  -5 2053.10 98.6568   5
  -4  -1  -5 2008.79 97.4386   1
   4   1  -5 2022.06 100.942   8
  -4  -1  -5 2037.23 100.946   8
  -4   1  -5 2075.30 96.9972   1
   4   1   5 2033.66 96.7543   1
  -4  -1   5 1953.06 94.2803   9
   4  -1  -5 1961.32 96.2489   2
   4  -1  -5 2036.76 98.3541   5
   4  -1  -5 2064.59 100.344   8
  -4   1  -5 2064.37 93.9799   9
  -4  -1   5 1955.93 97.5141   1
  -4   1  -5 2056.10 100.155   8
   4  -1  -5 2038.48 96.8737   1
   4   1   5 2012.27 96.2608   2
   4   1   5 2005.71 90.4729   6
   4   1   5 2010.63 97.5769   7
  -6  -1  -5 93.0210 10.8079   1
  -6  -1  -5 114.605 11.3727   5
  -6  -1  -5 97.9960 11.1259   8
   6   1  -5 98.3542 11.0244   8
   6   1  -5 103.193 11.6085   2
   6   1  -5 110.380 12.1521   1
  -6  -1  -5 98.6856 11.2905   9
  -6   1  -5 107.569 9.38243   9
  -6   1  -5 94.0536 9.82965   1
   6  -1  -5 101.697 10.1369   8
  -6   1  -5 95.4776 8.89212   9
  -6   1  -5 102.779 10.3617   8
   6  -1  -5 93.9366 10.5002   2
  -8  -1  -5 577.513 34.9462   1
   8  -1   5 623.521 35.9972   6
  -8   1   5 591.899 32.6879   9
   8   1  -5 609.414 34.6204   8
   8   1  -5 596.418 36.1243   2
  -8   1   5 600.289 34.4305   1
  -8  -1  -5 599.535 35.8313   9
   8  -1   5 585.427 32.5063   2
   8   1   5 610.395 35.0695   6
  -8   1  -5 617.602 31.5497   9
  -8   1  -5 619.345 32.2506   9
   8  -1  -5 624.716 32.8098   8
  -8  -1   5 634.499 34.1505   9
  -8  -1   5 618.936 36.2548   1
   8  -1  -5 613.527 34.5529   2
   8   1   5 592.271 34.4252   2
  -8   1  -5 582.108 32.8898   1
 -10   1   5 524.887 29.0828   9
  10   1  -5 478.190 31.9977   2
  10   1  -5 496.572 29.9924   8
 -10  -1  -5 489.166 30.6211   1
 -10   1   5 510.064 30.3039   1
 -10  -1  -5 495.672 32.0167   9
  10  -1   5 519.173 28.3364   2
  10  -1   5 498.048 32.5337   6
  10   1   5 515.755 30.9350   2
 -10  -1   5 522.166 32.6778   1
  10   1   5 514.708 33.1884   6
  10  -1  -5 499.757 31.5706   4
 -10  -1   5 513.915 29.9462   9
  10  -1  -5 474.919 29.9971   2
 -10   1  -5 494.171 28.5647   1
 -10   1  -5 465.008 26.7768   9
 -10   1  -5 482.217 27.6984   9
  12   1  -5 146.866 15.9445   2
 -12  -1  -5 135.483 16.2193   9
 -12   1   5 138.806 14.5064   1
 -12  -1  -5 139.323 14.3809   1
 -12   1   5 139.024 12.9127   9
  12  -1   5 126.673 12.0974   2
  12  -1   5 130.635 16.8955   6
  12   1   5 147.028 17.5299   6
 -12   1  -5 130.882 11.9904   9
 -12  -1   5 133.282 16.4280   1
  12   1   5 140.911 14.6761   2
  12  -1  -5 143.097 14.1046   2
 -12  -1   5 139.834 14.4690   9
 -14   1   5 161.505 14.9022   9
  14  -1   5 164.741 14.1571   2
  14  -1   5 169.421 21.0505   6
  14   1   5 157.131 20.8051   6
 -14  -1   5 165.113 19.3371   1
  14   1   5 148.230 16.7017   2
 -14  -1   5 165.137 16.2576   9
 -16   1   5 315.983 22.8136   9
  16   1  -5 304.670 25.4012   2
 -16  -1  -5 323.392 27.2747   9
  16  -1   5 309.345 29.4389   6
  16   1   5 317.296 26.4155   2
 -16   1  -5 304.612 21.4254   9
 -16  -1   5 313.497 24.7211   9
  16  -1  -5 320.792 23.5219   2
  16   1   5 293.366 29.8360   6
  -1   2   5 1149.86 61.2290   7
  -1  -2  -5 1292.18 62.2175   2
   1  -2   5 1178.51 59.1163   6
   1  -2   5 1239.18 61.6332   1
  -1  -2  -5 1199.27 64.0505   8
   1   2  -5 1243.86 62.2574   1
  -1   2   5 1161.29 61.3014   1
   1   2  -5 1250.04 64.5800   8
  -1  -2  -5 1240.45 62.4274   1
   1   2  -5 1243.18 61.7159   2
   1  -2   5 1164.31 60.6450   2
   1  -2   5 1219.67 57.8147   4
   1   2   5 1186.74 61.0908   2
   1   2   5 1156.76 53.7826   6
  -1   2  -5 1211.28 61.6586   1
   1  -2  -5 1253.93 62.8760   5
   1  -2  -5 1238.78 62.0833   1
   1  -2  -5 1273.19 61.7827   2
  -1  -2   5 1152.92 61.6298   1
   1   2   5 1131.77 61.4805   7
   1  -2  -5 1216.41 63.8881   8
  -1   2  -5 1229.70 63.9873   8
   1   2   5 1163.90 61.5125   1
  -3   2   5 1747.85 85.7565   7
   3  -2   5 1748.68 82.8512   3
  -3  -2  -5 1775.56 87.0775   1
   3  -2   5 1689.19 81.3817   6
  -3   2   5 1645.24 85.2281   1
   3   2  -5 1697.13 89.1435   8
   3   2  -5 1777.34 87.1323   1
  -3  -2  -5 1745.30 89.5074   8
   3  -2   5 1645.29 84.1100   2
  -3   2   5 1656.66 82.5887   9
   3  -2   5 1745.94 84.0523   4
   3  -2   5 1739.69 86.4169   5
  -3  -2  -5 1764.31 85.6743   9
   3   2   5 1724.71 78.1742   6
   3   2   5 1769.20 85.8221   2
   3   2   5 1688.01 86.7370   7
  -3  -2   5 1790.90 86.8610   1
   3  -2  -5 1841.46 87.4310   5
  -3   2  -5 1811.05 85.6114   1
  -3   2  -5 1802.77 88.8268   8
   3  -2  -5 1750.38 88.6827   8
   3  -2  -5 1809.94 80.5155   3
   3   2   5 1733.23 86.0089   1
  -3   2  -5 1784.57 82.8767   9
   3  -2  -5 1809.68 85.4504   2
  -3  -2   5 1743.21 85.8511   2
   3  -2  -5 1832.73 86.0221   1
  -5   2   5 3473.55 170.596   1
   5  -2   5 3618.15 167.084   3
   5  -2   5 3750.39 167.765   7
   5  -2   5 3667.28 171.637   4
  -5  -2  -5 3584.41 172.659   1
   5  -2   5 3662.38 169.219   2
   5   2  -5 3616.37 172.198   2
  -5   2   5 3610.22 166.467   9
   5  -2   5 3677.11 172.125   5
  -5  -2  -5 3626.41 178.831   8
   5  -2   5 3592.52 161.478   6
   5   2  -5 3605.74 178.342   8
   5   2  -5 3820.54 173.795   1
  -5  -2  -5 3800.50 171.194   9
  -5  -2   5 3663.08 180.472   8
  -5  -2   5 3623.24 167.570   9
  -5  -2   5 3580.68 172.705   1
  -5   2  -5 3640.04 165.777   9
  -5   2  -5 3841.10 177.448   8
   5  -2  -5 3723.49 176.742   8
   5   2   5 3689.87 171.179   2
   5  -2  -5 3785.14 165.721   3
   5  -2  -5 3768.60 170.070   2
   5   2   5 3578.25 173.414   7
  -5   2  -5 3650.27 170.245   1
   5   2   5 3710.00 159.693   6
   5   2   5 3827.25 171.748   1
   5  -2  -5 3760.17 173.542   5
   7   2  -5 1319.72 67.3020   1
  -7  -2  -5 1286.53 67.6087   8
  -7  -2  -5 1237.38 65.1450   1
  -7  -2  -5 1241.23 65.9631   9
   7  -2   5 1202.52 62.9477   3
   7  -2   5 1185.78 64.7838   4
  -7   2   5 1163.56 60.3268   9
   7   2  -5 1230.24 65.7486   8
   7   2  -5 1213.33 65.2406   2
   7  -2   5 1215.48 61.2262   2
  -7   2   5 1214.75 62.8844   1
   7  -2   5 1246.40 61.8672   5
   7  -2   5 1183.84 61.5945   6
   7   2   5 1192.03 60.5660   6
   7  -2  -5 1258.93 63.3402   8
  -7   2  -5 1257.81 59.7063   9
  -7  -2   5 1192.74 65.5342   1
   7  -2  -5 1319.87 62.0055   3
   7   2   5 1204.77 66.3049   7
   7  -2  -5 1239.27 63.3522   5
  -7  -2   5 1207.27 68.7943   8
  -7   2  -5 1254.72 61.8906   1
   7  -2  -5 1280.58 62.8499   2
  -7  -2   5 1198.07 62.4594   9
   7   2   5 1255.46 64.2702   2
  -9  -2  -5 1476.19 76.7326   9
   9  -2   5 1483.03 70.8733   2
   9   2  -5 1503.49 75.9024   8
   9  -2   5 1422.69 72.4152   6
  -9  -2  -5 1437.52 75.4719   1
   9  -2   5 1349.56 76.3910   4
   9   2  -5 1422.12 76.0724   2
  -9   2   5 1412.54 70.2250   9
   9  -2   5 1383.39 73.5926   3
  -9   2   5 1398.77 72.2316   1
   9  -2  -5 1504.87 72.7772   2
   9   2   5 1433.32 74.5936   2
  -9   2  -5 1493.76 69.0641   9
  -9  -2   5 1435.76 76.7637   1
   9   2   5 1404.37 71.7443   6
  -9  -2   5 1576.87 81.7536   8
  -9   2  -5 1521.41 71.6776   1
  -9  -2   5 1432.47 72.8287   9
 -11   2   5 247.846 18.5884   9
 -11   2   5 250.631 19.7053   1
  11  -2   5 240.276 23.9544   4
 -11  -2  -5 302.482 23.3531   1
  11   2  -5 290.036 23.8099   2
  11  -2   5 244.290 23.1073   6
  11  -2   5 243.776 22.7724   3
 -11  -2  -5 294.493 25.4461   9
  11  -2   5 246.804 17.7491   2
 -11   2  -5 294.698 17.3891   9
 -11  -2   5 231.921 20.2825   9
  11  -2  -5 310.563 20.8767   2
  11   2   5 256.244 22.1646   2
  11   2   5 239.674 23.0680   6
 -11  -2   5 248.367 23.7748   1
  11  -2  -5 297.880 23.9386   4
 -13   2   5 1428.92 73.7827   9
  13   2  -5 1555.95 82.3641   2
  13  -2   5 1434.74 78.7828   6
 -13  -2  -5 1577.63 83.3355   9
  13  -2   5 1473.35 72.7578   2
 -13  -2  -5 1646.41 80.8655   1
  13  -2  -5 1601.01 83.0105   4
  13   2   5 1492.74 79.9471   6
  13   2   5 1426.20 80.0539   2
 -13  -2   5 1478.37 77.9983   9
 -13  -2   5 1461.17 82.5441   1
  13  -2  -5 1588.46 76.5274   2
 -15  -2  -5 406.738 34.0792   9
  15  -2   5 394.255 33.5987   6
  15   2  -5 442.564 33.2899   2
 -15   2   5 402.894 26.7723   9
 -15  -2  -5 430.763 30.6156   1
  15   2   5 401.501 34.7171   6
  15  -2  -5 403.008 27.0294   2
 -15  -2   5 411.219 30.5897   9
  15   2   5 385.141 31.9790   2
 -15  -2   5 385.260 34.4277   1
   0   3  -5 955.545 54.9125   8
   0  -3   5 985.914 52.7872   1
   0   3   5 949.310 52.5811   7
   0  -3  -5 937.759 52.1209   2
   0  -3  -5 972.000 52.9276   1
   0  -3   5 995.613 52.4474   2
   0  -3  -5 932.754 54.0624   8
   0   3  -5 956.746 50.9141   9
   0   3   5 919.469 51.7723   1
   0  -3   5 951.567 46.9163   4
   0   3  -5 928.239 52.3751   1
  -2   3   5 102.227 12.3441   7
   2  -3   5 118.371 13.1169   1
   2   3  -5 93.8199 13.1373   8
  -2   3   5 102.931 12.1065   1
   2  -3   5 103.069 10.2492   4
  -2  -3  -5 94.0477 12.8430   8
   2  -3   5 99.9334 13.4843   6
   2  -3   5 102.717 12.3495   2
  -2  -3  -5 87.9306 12.7254   1
   2   3  -5 108.514 13.8687   1
  -2  -3   5 106.291 12.8068   2
   2   3   5 111.370 9.72450   6
  -2  -3   5 109.582 14.2153   8
  -2   3  -5 91.8153 10.7239   9
  -2  -3   5 99.2965 13.0608   1
   2  -3  -5 83.4872 11.6322   1
   2   3   5 94.8415 12.7415   7
  -2   3  -5 92.2260 12.0942   1
   2   3   5 100.847 12.7638   1
   2  -3  -5 92.6385 11.9534   2
   2  -3  -5 87.5861 12.1611   8
  -2   3  -5 91.6768 12.6402   8
  -4   3   5 2600.97 124.907   7
   4  -3   5 2572.64 123.516   2
   4   3  -5 2510.78 131.018   8
   4   3  -5 2642.43 128.372   1
   4  -3   5 2617.50 123.864   4
  -4  -3  -5 2549.86 131.159   8
   4   3  -5 2586.65 126.642   2
  -4   3   5 2494.23 124.460   1
   4  -3   5 2583.89 123.251   3
   4  -3   5 2577.06 119.195   6
  -4  -3  -5 2549.04 127.194   1
  -4  -3   5 2550.62 127.209   1
   4  -3  -5 2723.95 120.742   3
   4  -3  -5 2671.98 124.417   2
   4   3   5 2672.15 125.958   2
   4   3   5 2553.88 114.595   6
   4   3   5 2581.34 127.977   7
   4  -3  -5 2698.36 124.526   1
   4  -3  -5 2554.79 126.064   5
  -4   3  -5 2655.38 130.215   8
  -4   3  -5 2507.01 124.212   1
   4   3   5 2613.88 126.097   1
  -4  -3   5 2640.82 133.331   8
  -4   3  -5 2543.61 120.324   9
   4  -3  -5 2645.11 129.757   8
   6   3  -5 105.603 15.6097   1
   6   3  -5 101.944 14.8283   2
  -6  -3  -5 102.603 14.3459   8
  -6  -3  -5 101.199 15.8026   9
  -6  -3  -5 102.577 14.6134   1
   6   3  -5 106.958 14.0476   8
   6  -3  -5 98.9472 12.3805   2
  -6   3  -5 99.2137 12.1734   1
   6  -3  -5 111.813 12.3028   3
  -6   3  -5 99.2707 10.7010   9
   6  -3  -5 105.737 12.5581   5
   6  -3  -5 105.236 12.4143   8
   8  -3   5 1094.60 55.1922   5
   8  -3   5 1063.47 58.5903   3
   8  -3   5 1041.10 54.8061   2
   8   3  -5 1139.14 63.2452   2
  -8   3   5 1046.03 56.6379   1
   8   3  -5 1043.39 60.2067   8
  -8  -3  -5 1101.29 62.2662   9
  -8  -3  -5 1127.60 63.2680   8
  -8   3   5 1108.56 57.2316   7
   8  -3   5 1038.04 56.9291   6
  -8  -3  -5 1016.17 60.6830   1
   8  -3   5 1020.87 59.5609   4
  -8  -3   5 1027.12 57.6976   9
  -8   3  -5 1076.56 53.6551   9
  -8   3  -5 1048.88 55.9817   1
   8   3   5 1068.66 61.2595   7
  -8  -3   5 1039.82 61.2317   1
   8   3   5 1038.71 55.8087   6
   8   3   5 1047.17 59.3054   2
   8  -3  -5 1044.70 56.5001   5
   8  -3  -5 1117.95 57.0261   3
   8  -3  -5 1039.08 56.3524   2
  -8  -3   5 1088.61 65.6392   8
 -10  -3  -5 94.9744 17.0442   9
 -10   3   5 108.742 12.3463   9
  10   3  -5 81.6662 12.7264   8
 -10   3   5 118.746 13.3203   1
  10  -3   5 112.486 15.4849   3
  10  -3   5 112.935 11.7626   2
  10  -3   5 113.522 15.8939   6
  10   3  -5 87.6241 16.4866   2
 -10  -3  -5 79.2986 14.8304   1
  10  -3   5 130.678 17.4054   4
  10  -3  -5 104.791 14.4374   3
 -10  -3   5 111.291 17.4767   1
 -10   3  -5 95.6731 10.5867   9
  10   3   5 111.294 15.8205   2
  10  -3  -5 87.6054 12.0211   2
 -10   3  -5 81.0160 11.3905   1
  10   3   5 109.072 15.5552   6
 -10  -3   5 115.074 19.2829   8
 -10  -3   5 113.313 15.0713   9
  12  -3   5 382.426 31.8989   4
 -12  -3  -5 406.980 33.6643   9
 -12   3   5 360.775 25.3404   1
 -12  -3  -5 400.621 31.4681   1
  12   3  -5 388.958 32.5318   2
  12  -3   5 357.858 29.9552   3
  12  -3   5 363.317 23.2343   2
 -12   3   5 376.442 25.0557   9
  12  -3   5 338.792 29.3144   6
 -12   3  -5 377.172 22.9032   9
 -12  -3   5 372.317 29.1789   9
  12   3   5 341.517 29.9237   6
  12  -3  -5 346.362 25.2709   2
  12  -3  -5 360.537 31.0503   4
 -12  -3   5 334.508 31.6794   1
  12   3   5 355.085 30.3498   2
  14   3  -5 95.6569 18.1937   2
 -14  -3  -5 94.5360 19.5357   9
 -14  -3  -5 98.3601 17.5939   1
  14  -3  -5 112.962 19.4233   4
 -14   3  -5 95.9530 10.6311   9
  14  -3  -5 93.6060 12.9422   2
  -1  -4  -5 197.133 20.6090   8
   1  -4   5 174.616 19.8530   6
  -1   4   5 172.518 18.6861   1
   1   4  -5 202.956 20.7476   1
   1  -4   5 188.387 19.6339   2
   1   4  -5 197.784 20.9263   8
  -1   4   5 174.132 18.2777   7
  -1  -4  -5 190.716 20.1145   1
   1  -4   5 179.692 18.9594   1
   1  -4  -5 196.237 19.6218   1
   1  -4  -5 194.374 19.5684   2
   1  -4  -5 207.828 20.6196   8
  -1  -4   5 187.880 20.3969   8
   1   4   5 184.391 20.0215   7
  -1   4  -5 216.051 18.7726   9
  -1   4  -5 189.598 19.5938   1
   1   4   5 188.498 19.6009   1
  -1  -4   5 181.957 19.5116   1
  -1  -4   5 177.526 19.9367   2
   3   4  -5 400.582 32.2536   8
  -3   4   5 378.137 28.7397   7
   3  -4   5 381.402 29.6416   6
  -3   4   5 373.689 28.6424   1
  -3  -4  -5 417.376 31.8734   8
  -3  -4  -5 416.232 31.6478   1
   3  -4   5 378.493 26.4278   4
   3  -4   5 399.178 29.3308   2
   3   4  -5 431.645 32.4806   1
   3  -4  -5 401.347 28.7021   1
   3   4   5 381.932 24.1458   6
   3  -4  -5 416.288 29.3933   2
   3   4   5 389.688 30.1847   1
   3  -4  -5 429.906 30.5201   8
  -3   4  -5 385.883 29.0858   1
  -3   4  -5 391.540 29.2409   7
  -3  -4   5 370.233 30.1301   1
   3   4   5 376.322 30.6708   7
  -3   4  -5 391.182 27.0602   9
  -3  -4   5 376.105 31.7598   8
   3  -4  -5 411.237 27.4461   3
   3  -4  -5 408.216 29.2496   2
  -5  -4  -5 1341.97 76.6725   1
  -5   4   5 1337.10 72.4440   7
  -5   4   5 1304.84 72.1110   1
   5  -4   5 1429.12 74.6935   3
   5  -4   5 1350.01 72.6798   2
   5   4  -5 1423.79 78.0156   1
   5  -4   5 1360.68 72.3204   4
   5   4  -5 1392.57 79.0166   8
   5  -4   5 1338.83 71.0408   6
  -5  -4  -5 1397.07 78.8816   8
   5  -4  -5 1383.41 70.5244   3
  -5  -4   5 1333.91 76.1268   1
  -5   4  -5 1377.84 69.7517   9
   5  -4  -5 1369.14 74.8278   8
  -5   4  -5 1414.69 73.5527   7
   5   4   5 1347.63 67.0773   6
   5   4   5 1366.93 74.8462   2
   5   4   5 1392.09 75.6833   1
  -5   4  -5 1410.29 73.4987   1
   5   4   5 1346.90 76.9435   7
  -5  -4   5 1357.51 80.5239   8
   5  -4  -5 1364.17 72.3406   2
   5  -4  -5 1402.21 73.4455   5
   7  -4   5 278.369 25.2370   3
   7  -4   5 288.873 25.1017   6
  -7  -4  -5 299.902 27.9218   8
   7   4  -5 288.552 27.8124   2
   7  -4   5 268.567 24.0239   4
   7  -4   5 248.957 21.7873   2
  -7   4   5 269.556 22.4746   7
   7   4  -5 283.442 28.2655   1
   7   4  -5 306.413 26.9010   8
  -7  -4  -5 281.831 27.1253   1
  -7   4   5 264.109 22.3786   1
   7  -4  -5 283.860 22.5899   5
   7  -4  -5 290.135 22.9251   2
  -7   4  -5 282.386 20.5288   9
   7  -4  -5 300.215 23.3587   3
   7   4   5 265.181 22.2974   6
  -7  -4   5 271.913 28.5739   8
  -7  -4   5 255.865 26.3223   1
  -7   4  -5 285.674 23.6236   1
   7   4   5 279.943 26.9113   7
   7   4   5 269.496 25.5930   2
   9   4  -5 466.934 37.7206   2
  -9  -4  -5 517.641 38.8148   8
   9  -4   5 417.365 28.9477   2
  -9  -4  -5 442.622 36.1312   1
  -9   4   5 415.715 30.1739   1
   9  -4   5 445.557 34.3999   4
   9  -4   5 446.248 34.1402   3
   9  -4   5 436.386 32.8948   6
   9   4  -5 454.972 34.1577   8
  -9  -4   5 428.660 36.5422   1
   9  -4  -5 458.480 32.2126   3
   9  -4  -5 459.524 30.7582   2
   9   4   5 408.027 34.0247   2
   9   4   5 439.714 31.9036   6
  -9   4  -5 441.481 28.0918   9
  -9   4  -5 469.850 31.7049   1
  -9  -4   5 417.481 38.2639   8
  11  -4   5 77.6825 16.9902   3
 -11   4   5 88.4746 14.0749   1
  11  -4   5 98.6694 16.9007   6
 -11  -4  -5 118.677 20.0493   1
  11  -4   5 73.0428 16.2533   4
  11   4  -5 126.930 16.7340   8
  11   4  -5 122.254 20.9986   2
  11  -4   5 87.5608 12.2569   2
  11   4   5 84.5080 17.4954   6
  11   4   5 95.8959 18.0279   2
 -11   4  -5 113.484 12.3779   9
 -11  -4   5 87.5490 19.4039   1
  11  -4  -5 134.207 17.5589   3
 -11  -4   5 92.0221 21.1001   8
  11  -4  -5 118.245 14.6836   2
  13  -4   5 591.694 44.4584   3
 -13  -4  -5 662.346 47.3587   1
  13  -4   5 586.289 45.7672   4
  13  -4   5 605.462 35.7472   2
  13   4  -5 660.157 49.9803   2
  13  -4   5 633.577 44.1328   6
 -13   4   5 638.329 39.0328   9
 -13   4  -5 608.362 35.4764   9
  13   4   5 594.702 44.4595   6
  13  -4  -5 681.431 48.3302   4
  13  -4  -5 621.334 39.0883   2
  13   4   5 609.659 46.7242   2
 -13  -4   5 619.275 49.3524   1
   0   5   5 161.787 20.7473   1
   0   5  -5 145.347 20.3749   1
   0  -5  -5 154.716 20.7098   1
   0  -5   5 183.360 22.2550   1
   0   5   5 172.265 20.9909   7
   0   5  -5 136.508 19.7803   7
   0  -5   5 181.482 21.7486   2
   0  -5  -5 154.007 20.3264   8
   2  -5   5 728.234 47.2783   2
  -2   5   5 714.980 46.7570   7
   2  -5   5 672.634 45.8589   6
  -2  -5  -5 692.960 48.1266   1
  -2  -5  -5 652.748 47.8832   8
  -2   5   5 691.042 46.6222   1
   2   5  -5 704.129 48.3567   1
  -2  -5   5 682.219 48.8917   8
  -2   5  -5 670.048 46.5144   7
   2   5   5 697.801 48.5215   7
   2  -5  -5 639.759 46.4592   8
  -2  -5   5 736.820 48.5368   1
  -2   5  -5 655.513 45.9049   1
   2   5   5 728.839 48.1219   1
   2  -5  -5 702.976 46.5957   1
   2  -5  -5 709.534 47.2799   2
   4   5  -5 677.060 50.2019   8
  -4   5   5 655.880 45.6250   1
  -4   5   5 713.727 45.9509   7
   4  -5   5 740.273 46.7325   2
   4   5  -5 702.485 49.6279   1
   4  -5   5 677.923 46.1757   6
  -4  -5  -5 665.414 48.5565   1
  -4  -5  -5 676.099 49.3779   8
   4   5   5 730.310 48.5815   1
   4  -5  -5 694.309 46.2048   8
  -4   5  -5 660.002 42.6231   9
  -4   5  -5 685.168 46.1788   1
  -4  -5   5 718.877 49.3019   1
   4   5   5 684.352 48.5960   7
   4  -5  -5 692.203 45.5409   2
   4  -5  -5 716.799 44.8333   3
  -4   5  -5 688.397 46.3887   7
  -4  -5   5 721.170 51.2280   8
   6  -5   5 224.315 24.2689   3
   6   5  -5 177.635 24.8287   1
  -6  -5  -5 168.155 23.6943   1
  -6   5   5 224.573 22.0578   1
   6  -5   5 215.390 21.9319   2
   6  -5   5 236.721 24.0942   6
  -6   5   5 235.618 22.0438   7
   6   5  -5 160.823 23.7966   8
  -6  -5  -5 162.384 23.6325   8
   6   5   5 241.099 25.4267   1
  -6   5  -5 166.662 20.8732   1
  -6   5  -5 165.599 18.7178   9
  -6  -5   5 212.846 25.7674   1
  -6   5  -5 154.600 20.7160   7
   6   5   5 237.699 25.6361   7
   6  -5  -5 167.516 19.1047   8
   6  -5  -5 157.777 19.4632   3
   6  -5  -5 169.709 20.5320   2
  -8   5   5 202.982 21.4078   1
   8  -5   5 208.279 23.5062   4
  -8  -5  -5 191.165 25.8743   8
  -8  -5  -5 171.124 24.5398   1
   8   5  -5 176.205 23.9328   8
   8  -5   5 221.364 25.1690   3
  -8   5   5 208.043 21.2647   7
   8  -5   5 208.152 21.5381   2
   8  -5   5 210.292 23.7774   6
  -8  -5   5 205.661 27.3630   8
   8  -5  -5 181.382 21.3522   2
  -8  -5   5 190.726 26.5956   1
   8  -5  -5 189.402 21.4255   3
  -8   5  -5 206.815 19.3008   9
  -8   5  -5 206.799 22.8861   1
   8   5   5 215.675 24.0681   7
  10   5  -5 473.287 39.2860   8
 -10   5   5 503.168 35.0088   1
  10  -5   5 485.542 33.8523   2
  10  -5   5 550.366 41.3233   4
  10  -5   5 500.540 40.2751   3
  10  -5   5 488.102 38.0927   6
 -10  -5  -5 522.945 44.3754   8
 -10  -5  -5 447.320 41.0378   1
 -10   5  -5 516.979 37.4078   1
  10  -5  -5 457.126 36.5799   3
  10  -5  -5 483.348 36.0649   2
 -10   5  -5 472.976 32.6365   9
 -10  -5   5 509.839 44.9702   8
 -10  -5   5 503.245 44.1775   1
  10   5   5 513.369 42.1394   2
  12  -5   5 63.0934 17.7151   3
 -12  -5  -5 33.7188 15.2085   1
  12   5  -5 38.1895 13.3643   8
  12  -5   5 52.6132 15.5091   6
  12  -5   5 38.9665 9.88324   2
  12  -5   5 31.0556 13.2072   4
  12  -5  -5 28.9738 10.7956   2
  12  -5  -5 34.9760 13.4720   3
 -12   5  -5 34.6183 9.79782   9
  12   5   5 47.3325 15.9844   2
 -12  -5   5 52.7323 17.9717   1
  -1  -6  -5 215.649 26.9133   1
   1   6  -5 212.785 26.2136   7
   1   6  -5 223.858 27.7298   1
  -1  -6  -5 215.908 26.9258   8
  -1   6   5 210.427 26.4078   7
   1  -6   5 209.938 26.0712   6
   1  -6   5 217.889 26.7421   2
  -1   6   5 190.895 25.0641   1
  -1   6  -5 228.976 27.4587   1
   1   6   5 196.023 25.7262   1
  -1  -6   5 198.517 25.3982   8
   1  -6  -5 220.685 25.9847   8
   1   6   5 213.590 26.3648   7
  -1  -6   5 228.849 27.4061   1
  -1   6  -5 227.797 26.4304   7
   3   6  -5 379.162 36.8034   1
  -3   6   5 365.140 33.4810   7
   3  -6   5 384.444 34.2457   2
  -3  -6  -5 397.046 36.6843   1
  -3  -6  -5 388.637 36.7647   8
  -3   6   5 353.491 33.5548   1
   3  -6   5 347.017 33.2735   6
  -3   6  -5 358.930 33.3035   7
   3   6   5 328.845 33.5002   7
   3  -6  -5 363.490 32.1869   8
  -3  -6   5 327.673 33.9708   8
   3   6   5 345.803 34.4474   1
   3  -6  -5 405.885 35.4780   2
  -3  -6   5 386.339 36.0450   1
  -3   6  -5 371.862 34.5014   1
  -5  -6  -5 1077.43 72.1292   8
   5  -6   5 1026.21 64.5795   6
   5   6  -5 1031.80 71.5115   8
  -5  -6  -5 1056.68 69.6846   1
   5  -6   5 1057.41 69.6302   3
  -5   6   5 1060.54 66.1322   7
  -5   6   5 1089.32 67.0088   1
   5  -6   5 1068.36 65.7693   2
   5  -6   5 1075.60 65.5634   4
   5   6  -5 1099.63 70.8390   1
  -5   6  -5 1069.78 66.5597   7
  -5   6  -5 1041.90 66.7288   1
  -5  -6   5 1041.32 69.5769   1
   5  -6  -5 1034.79 64.4638   3
   5   6   5 1068.47 68.3072   7
  -5   6  -5 1071.93 63.2179   9
   5  -6  -5 1026.41 66.0846   2
   5  -6  -5 1096.85 63.9885   8
  -5  -6   5 993.966 70.0937   8
   5   6   5 1064.31 68.9209   1
  -7   6   5 279.743 28.9808   7
   7  -6   5 248.548 30.0590   3
   7  -6   5 267.487 27.5288   2
  -7  -6  -5 282.612 32.1434   1
  -7  -6  -5 278.441 33.0177   8
   7   6  -5 273.893 32.6877   8
   7  -6   5 250.958 28.8975   6
   7  -6   5 285.826 28.9071   4
  -7   6   5 269.504 28.0430   1
   7   6  -5 282.814 31.5484   1
  -7  -6   5 282.872 32.8475   1
   7  -6  -5 272.274 28.1652   3
  -7   6  -5 281.446 25.6604   9
   7  -6  -5 291.728 29.1554   2
  -7   6  -5 253.753 28.4926   1
   7   6   5 270.542 28.8581   7
  -9   6   5 393.915 34.2593   1
   9   6  -5 385.119 38.7956   8
   9  -6   5 397.546 38.7790   3
   9  -6   5 445.355 35.3111   2
   9  -6   5 404.116 36.4032   6
  -9  -6  -5 439.455 40.8760   1
   9  -6   5 396.586 37.2450   4
  -9  -6  -5 409.656 41.4926   8
  -9  -6   5 409.412 40.3427   1
   9  -6  -5 422.528 36.1831   3
  -9   6  -5 411.728 31.5185   9
  -9   6  -5 427.906 34.4102   1
   9  -6  -5 408.913 35.4796   2
   0   7   5 422.134 39.8932   1
   0   7  -5 421.267 38.8516   7
   0  -7   5 421.485 36.5414   6
   0   7  -5 393.502 38.4426   1
   0   7   5 393.677 38.5629   7
   0  -7  -5 439.222 39.1836   8
  -2   7   5 33.4146 15.0829   7
   2  -7   5 48.2796 16.4241   6
   2   7  -5 15.6629 12.7981   1
  -2  -7  -5 19.4357 14.4746   1
  -2   7   5 23.2978 13.1553   1
  -2  -7  -5 12.6474 11.1637   8
   2   7   5 30.1930 15.0953   7
  -2  -7   5 27.1543 14.3592   1
  -2   7  -5 23.8051 13.3958   1
  -2   7  -5 17.2781 12.7812   7
  -2  -7   5 25.9222 12.9957   8
   2   7   5 34.9274 14.8147   1
   2  -7  -5 17.8963 10.9760   8
  -4   7   5 1064.62 70.1795   1
  -4   7   5 997.403 69.2943   7
  -4  -7  -5 1112.11 73.1752   1
   4  -7   5 1134.35 69.2458   6
  -4  -7  -5 1015.70 71.8853   8
   4  -7   5 1088.80 69.2772   2
   4   7  -5 1047.20 73.8088   8
   4  -7   5 980.210 72.7021   3
   4   7  -5 1041.99 70.5962   1
  -4   7  -5 1040.35 67.9882   1
   4   7   5 1033.51 69.5320   7
  -4  -7   5 1002.44 70.8715   8
  -4   7  -5 1069.67 69.2705   7
  -4  -7   5 1090.75 72.5634   1
   4  -7  -5 1109.04 71.1082   3
   4  -7  -5 1111.42 65.9815   8
  -6   7   5 99.6116 22.0173   7
   6  -7   5 98.2497 25.0822   3
   6  -7   5 105.652 22.3578   6
  -6   7   5 93.9585 21.1131   1
  -6  -7  -5 43.9861 17.2450   1
  -6  -7  -5 49.3917 17.4591   8
   6   7  -5 30.0048 15.3494   8
   6   7  -5 60.5055 18.7501   1
   6  -7  -5 52.2976 18.4074   3
   6   7   5 102.580 22.7673   1
  -6   7  -5 40.6848 15.3171   1
  -6   7  -5 51.3795 17.0613   7
   6  -7  -5 61.0809 17.8865   2
  -6  -7   5 107.648 23.4054   1
   0   0  -6 750.981 46.2096   8
   0   0   6 925.158 45.2891   2
   0   0   6 939.957 46.8620   5
   0   0  -6 749.457 44.9280   1
   0   0  -6 787.041 44.8319   2
   0   0   6 947.919 42.0304   6
  -2   0   6 3180.76 144.400   6
   2   0   6 3276.45 156.646   1
   2   0   6 3172.53 145.294   6
  -2   0   6 3238.08 159.178   5
  -2   0  -6 3553.82 163.416   8
  -2   0   6 3212.06 155.425   2
  -2   0  -6 3669.08 153.980   9
  -2   0  -6 3509.62 157.716   1
   2   0  -6 3631.95 158.534   1
   2   0  -6 3578.94 157.140   2
  -2   0  -6 3475.08 159.520   5
  -2   0   6 3268.11 157.254   1
   2   0   6 3157.50 155.135   2
   2   0   6 3135.07 156.037   7
   2   0  -6 3428.24 163.252   8
   4   0   6 36.5646 7.20591   2
  -4   0   6 46.1395 7.61822   9
  -4   0   6 36.4309 8.07061   1
  -4   0  -6 52.2089 8.29745   5
   4   0   6 45.1059 7.92223   1
   4   0  -6 53.9258 8.60094   2
   4   0   6 44.9441 7.96769   6
   4   0  -6 61.9831 8.96150   8
  -4   0  -6 52.9319 8.45659   1
  -4   0  -6 49.1443 7.84731   9
  -4   0  -6 58.4890 8.81016   8
   4   0  -6 59.7279 9.19933   1
  -4   0   6 41.1739 8.17246   5
   6   0  -6 4382.02 191.769   2
  -6   0  -6 4351.11 187.687   9
  -6   0   6 3887.07 186.624   9
   6   0   6 3869.96 189.251   2
   6   0  -6 4334.53 198.613   8
   6   0   6 3939.51 179.709   6
  -6   0   6 3796.05 191.279   1
  -6   0  -6 4016.74 190.929   1
   6   0  -6 4400.50 192.785   1
  -6   0  -6 4336.97 198.994   8
  -8   0  -6 41.2756 8.45188   9
   8   0  -6 38.6273 7.70833   8
   8   0  -6 30.3170 7.75997   2
  -8   0   6 60.5826 9.94713   1
  -8   0  -6 32.8371 7.87206   1
  10   0   6 704.116 42.9541   2
 -10   0  -6 918.903 44.5496   1
  10   0  -6 895.818 46.2330   2
  10   0   6 725.549 45.1833   6
 -10   0   6 741.238 42.9298   9
 -10   0   6 726.533 45.1587   1
 -10   0  -6 886.311 44.2655   9
 -12   0   6 35.8498 8.60172   9
 -12   0   6 42.8423 10.5706   1
  12   0   6 43.3231 9.00301   2
  12   0   6 30.1099 10.1643   6
 -14   0  -6 849.118 44.8639   9
 -14   0   6 719.780 46.1008   1
  14   0   6 723.133 43.5982   2
 -14   0   6 725.956 43.3886   9
  14   0  -6 856.622 46.8640   2
  14   0   6 723.264 48.4810   6
   1   1  -6 1848.53 89.4051   2
   1  -1   6 1843.73 89.2166   1
   1  -1   6 1920.81 89.0678   2
  -1   1   6 1862.77 88.4583   2
  -1  -1  -6 1824.96 88.9482   2
   1  -1   6 1838.47 84.0940   6
  -1  -1  -6 1746.52 90.8271   5
  -1   1   6 1889.45 80.0938   6
  -1  -1  -6 1788.30 89.5474   1
  -1  -1  -6 1822.52 92.9538   8
  -1   1   6 1799.18 89.2608   1
  -1  -1   6 1822.39 89.4876   1
   1   1   6 1868.89 89.6712   7
  -1   1  -6 1708.21 88.9845   1
   1   1   6 1869.29 88.7582   2
  -1   1  -6 1768.88 92.3490   8
   1  -1  -6 1803.44 90.9729   5
   1   1   6 1906.21 89.8557   1
  -1  -1   6 1872.52 91.1127   5
   1  -1  -6 1781.89 92.5830   8
  -1   1  -6 1807.22 87.2649   9
   1  -1  -6 1784.14 88.6657   2
   1   1   6 1890.11 81.2002   6
   1  -1  -6 1796.35 89.4740   1
  -1  -1   6 1847.82 84.0389   6
   3  -1   6 1318.58 65.9323   6
   3  -1   6 1385.51 71.0277   5
  -3   1   6 1471.19 68.4618   9
   3   1  -6 1399.45 70.7638   2
  -3   1   6 1447.61 61.9339   6
   3  -1   6 1421.88 65.0361   3
  -3  -1  -6 1438.57 73.4224   8
  -3  -1  -6 1408.19 71.9597   5
  -3  -1  -6 1331.31 70.3904   1
  -3   1   6 1317.44 70.1235   1
   3   1  -6 1378.42 71.0068   1
   3  -1   6 1397.21 69.4881   1
   3   1  -6 1447.90 73.8010   8
  -3  -1  -6 1375.71 68.9922   9
   3  -1   6 1342.76 69.0993   2
  -3   1  -6 1332.59 67.6184   9
   3   1   6 1398.20 69.7437   2
   3   1   6 1402.49 64.7987   6
   3   1   6 1405.16 70.3574   1
   3  -1  -6 1376.05 71.3429   5
   3  -1  -6 1397.77 72.6897   8
  -3  -1   6 1412.99 71.7927   5
  -3   1  -6 1402.44 72.5593   8
   3  -1  -6 1456.52 70.9532   1
   3   1   6 1420.47 70.7601   7
   3  -1  -6 1433.11 70.2927   2
  -3   1  -6 1396.27 70.4684   1
  -3  -1   6 1329.65 70.4372   1
  -5  -1  -6 868.822 49.2169   8
   5   1  -6 864.853 48.1338   1
   5  -1   6 904.437 46.1918   6
   5   1  -6 817.130 47.4297   2
   5   1  -6 829.827 49.0492   8
   5  -1   6 904.439 47.0434   5
  -5  -1  -6 845.378 46.7923   9
   5  -1   6 933.670 45.4475   7
   5  -1   6 859.488 45.9900   2
  -5   1   6 891.810 45.7049   9
   5  -1   6 874.339 43.6279   3
  -5  -1  -6 794.064 47.1385   1
  -5   1   6 856.075 46.8874   1
  -5   1  -6 834.893 46.6750   1
  -5   1  -6 889.078 48.7161   8
   5   1   6 938.212 47.3473   1
   5  -1  -6 807.354 47.7407   8
  -5  -1   6 890.380 45.9496   9
   5  -1  -6 836.843 46.8515   2
   5   1   6 916.289 44.8607   6
  -5  -1   6 832.954 47.8408   1
  -5   1  -6 870.102 45.2219   9
   5   1   6 922.008 47.3002   2
   5   1   6 907.340 47.8329   7
   5  -1  -6 923.410 47.8923   1
  -7  -1  -6 1551.75 77.0694   8
   7   1  -6 1469.85 74.2982   2
   7  -1   6 1388.00 71.1220   2
   7   1  -6 1488.73 75.5945   8
  -7   1   6 1389.79 73.2433   1
   7  -1   6 1397.91 70.9350   6
  -7  -1  -6 1448.86 72.6040   9
  -7   1   6 1420.64 70.8577   9
  -7  -1  -6 1492.17 74.0926   1
  -7  -1   6 1469.79 71.6712   9
   7  -1  -6 1507.44 74.4363   8
   7   1   6 1373.72 69.6419   6
   7   1   6 1389.78 72.3717   2
  -7  -1   6 1364.87 73.7477   1
   7  -1  -6 1528.87 73.5082   2
  -7   1  -6 1495.25 72.5037   1
   7   1   6 1411.61 73.9332   7
  -7   1  -6 1458.88 70.2014   9
  -9  -1  -6 1516.11 79.5972   1
   9  -1   6 1576.27 78.1903   6
  -9  -1  -6 1520.82 79.3238   9
  -9   1   6 1630.47 79.7722   1
  -9   1   6 1636.24 77.3115   9
   9   1  -6 1517.25 80.1113   8
   9  -1   6 1614.76 77.3732   2
   9   1  -6 1489.13 80.3014   2
  -9   1  -6 1587.71 76.2415   9
   9  -1  -6 1531.96 79.0469   2
  -9   1  -6 1527.82 77.8518   1
   9   1   6 1592.86 79.2960   2
  -9  -1   6 1634.18 78.0624   9
   9   1   6 1598.94 77.7556   6
  -9  -1   6 1640.20 81.7341   1
 -11  -1  -6 1076.99 56.7920   9
 -11   1   6 981.060 52.6202   9
  11  -1   6 957.650 55.8292   6
 -11  -1  -6 1053.05 55.5441   1
 -11   1   6 996.123 55.0122   1
  11   1  -6 1012.77 56.6638   2
  11  -1   6 985.518 52.3898   2
  11   1   6 1004.31 55.2404   2
 -11  -1   6 939.996 56.6374   1
  11   1   6 1007.32 56.6055   6
 -11   1  -6 1068.34 52.4827   9
 -11   1  -6 1047.57 53.1229   1
 -11  -1   6 995.359 54.4150   9
  11  -1  -6 1045.18 55.4258   2
 -13   1   6 965.224 50.5889   9
 -13  -1  -6 869.839 53.4555   9
  13  -1   6 920.237 54.5706   6
  13   1  -6 820.732 52.8079   2
  13  -1   6 974.474 49.6014   2
 -13  -1  -6 932.594 51.9437   1
 -13   1   6 925.518 51.8327   1
 -13   1  -6 875.016 48.6945   9
  13   1   6 938.757 55.1016   6
  13  -1  -6 880.408 51.6644   2
  13   1   6 990.048 53.4924   2
 -13  -1   6 1018.30 52.6784   9
 -13  -1   6 1002.32 56.1687   1
  15  -1   6 1043.45 63.2977   6
 -15   1   6 1027.74 56.4005   9
  15   1  -6 997.446 59.3296   2
  15  -1   6 1045.66 55.2869   2
 -15  -1  -6 1144.18 61.6027   9
  15  -1  -6 1105.85 58.7573   2
 -15  -1   6 1053.36 58.7847   9
  15   1   6 1017.42 62.9482   6
 -15  -1   6 1010.50 61.6153   1
 -15   1  -6 1124.02 55.6773   9
  15   1   6 1011.43 59.4292   2
   0  -2   6 2847.25 125.143   6
   0  -2  -6 2604.10 131.924   1
   0  -2   6 2911.45 132.089   1
   0   2   6 3025.56 118.160   6
   0  -2  -6 2622.54 133.601   5
   0   2   6 2825.39 132.237   7
   0   2  -6 2603.68 128.334   9
   0   2  -6 2593.44 131.625   1
   0   2   6 2944.74 132.327   1
   0  -2  -6 2634.11 130.830   2
   0   2   6 2946.13 130.990   2
   0  -2   6 3010.60 131.754   2
   0   2  -6 2509.97 136.062   8
   0  -2  -6 2576.33 136.183   8
  -2  -2  -6 956.453 50.2771   5
  -2  -2  -6 975.389 51.3313   8
   2  -2   6 826.496 44.6667   3
  -2   2   6 779.272 47.4167   1
  -2   2   6 788.171 47.5590   7
   2  -2   6 811.724 48.2334   5
  -2   2   6 835.636 46.0725   9
   2  -2   6 807.403 46.3684   6
   2  -2   6 849.276 47.7449   1
   2   2  -6 968.462 49.4160   2
   2   2  -6 967.225 51.1948   8
   2   2  -6 973.026 49.9341   1
  -2  -2  -6 964.515 49.9660   1
   2  -2   6 787.441 47.0460   2
  -2   2  -6 954.440 50.5725   8
  -2  -2   6 796.601 48.0572   1
  -2   2  -6 988.790 47.2944   9
   2   2   6 780.541 48.0996   7
   2  -2  -6 960.092 49.2729   1
   2   2   6 805.357 47.9131   1
   2  -2  -6 978.333 50.7511   8
   2   2   6 802.695 47.4451   2
  -2  -2   6 860.006 48.3206   2
  -2   2  -6 971.706 49.1503   1
   2  -2  -6 1029.16 51.0259   5
   2  -2  -6 969.566 48.8029   2
   2   2   6 818.556 42.1092   6
  -4   2   6 748.626 37.4225   9
  -4  -2  -6 602.957 38.4472   9
   4  -2   6 750.456 39.1110   5
  -4  -2  -6 610.975 39.8825   8
  -4   2   6 717.549 38.7550   7
   4  -2   6 741.406 36.4241   3
   4   2  -6 561.704 38.3622   2
  -4  -2  -6 572.064 38.3319   1
   4  -2   6 749.859 38.4650   2
   4   2  -6 572.540 39.3155   8
   4  -2   6 724.601 37.3757   4
  -4   2   6 710.572 38.9029   1
   4  -2   6 736.478 38.5136   6
   4   2  -6 562.862 38.4309   1
   4  -2  -6 604.092 38.3551   5
  -4   2  -6 600.686 38.6728   8
   4  -2  -6 585.695 37.3275   2
   4   2   6 775.511 39.8616   1
  -4  -2   6 691.834 39.8260   1
   4  -2  -6 578.997 38.4319   8
  -4   2  -6 592.087 35.7425   9
   4   2   6 736.324 35.3981   6
   4   2   6 759.278 39.7599   2
   4   2   6 684.862 39.5526   7
  -4   2  -6 594.356 37.3404   1
   4  -2  -6 602.855 37.5604   1
  -6  -2  -6 1498.34 74.3764   9
   6   2  -6 1509.23 75.9988   8
   6   2  -6 1588.66 76.0996   1
  -6   2   6 1331.09 69.5893   9
   6  -2   6 1339.53 71.8154   5
  -6  -2  -6 1573.48 75.3398   1
  -6  -2  -6 1556.26 77.3023   8
   6  -2   6 1391.46 70.2212   3
   6  -2   6 1307.65 70.5207   2
   6  -2   6 1300.61 72.1736   4
  -6   2   6 1302.55 71.9052   1
   6   2   6 1347.93 68.1030   6
   6  -2  -6 1513.63 72.6065   2
   6  -2  -6 1489.19 73.6724   5
  -6  -2   6 1310.81 71.0600   9
   6   2   6 1304.23 73.8670   7
  -6   2  -6 1502.80 69.6274   9
   6   2   6 1373.44 73.2200   2
  -6  -2   6 1294.60 73.6943   1
   6   2   6 1371.34 73.1000   1
   6  -2  -6 1501.42 74.2672   8
  -6   2  -6 1555.56 72.4889   1
  -8   2   6 827.523 42.8532   1
   8  -2   6 787.740 42.2988   3
   8   2  -6 681.377 44.2320   2
  -8   2   6 800.054 41.0492   9
   8  -2   6 801.053 41.2974   2
  -8  -2  -6 697.279 45.3678   8
  -8  -2  -6 637.980 43.1097   1
   8  -2   6 830.856 44.5517   6
   8  -2   6 798.865 45.2358   4
  -8  -2  -6 644.120 43.8353   9
   8   2  -6 622.599 42.6877   8
  -8  -2   6 812.504 45.8415   1
   8  -2  -6 655.446 41.3239   2
  -8   2  -6 651.290 38.8692   9
  -8  -2   6 833.934 43.7201   9
   8  -2  -6 656.676 40.4811   8
   8   2   6 821.718 42.7542   6
   8   2   6 814.858 44.1698   2
  -8   2  -6 647.971 40.3458   1
  10  -2   6 103.762 15.4138   6
 -10   2   6 103.137 13.4231   1
  10  -2   6 105.159 11.6578   2
 -10   2   6 105.962 12.2468   9
  10  -2   6 114.675 14.9295   3
 -10  -2   6 89.0275 15.2655   1
 -10  -2   6 105.103 13.7527   9
  10   2   6 97.4301 14.4805   6
  10   2   6 112.911 14.6034   2
  12  -2   6 487.946 28.0604   2
 -12  -2  -6 413.989 34.0226   9
 -12   2   6 505.207 30.7171   1
 -12  -2  -6 400.695 31.3399   1
 -12   2   6 497.886 29.8895   9
  12   2  -6 369.158 32.2680   2
  12  -2   6 463.094 34.0345   6
 -12  -2   6 495.147 35.8408   1
  12   2   6 481.522 33.0460   2
 -12  -2   6 478.133 31.7917   9
  12  -2  -6 377.003 28.9201   2
  12   2   6 506.899 35.1829   6
 -12   2  -6 387.187 26.4586   9
 -14   2   6 156.892 15.9351   9
  14  -2   6 145.454 19.9273   6
  14  -2   6 137.455 13.4734   2
 -14  -2   6 130.497 20.3225   1
  14   2   6 138.887 18.6949   2
  14   2   6 150.117 20.6275   6
 -14  -2   6 158.546 18.4726   9
  -1  -3  -6 2027.60 104.487   1
   1  -3   6 2142.95 98.2693   4
  -1   3   6 1997.91 103.447   1
   1  -3   6 2085.69 102.812   2
  -1   3   6 2108.22 103.777   7
   1   3  -6 2116.26 105.083   1
   1  -3   6 2214.89 104.441   1
  -1  -3  -6 2008.50 107.709   8
   1  -3   6 2110.46 100.137   6
   1  -3  -6 2046.68 103.981   1
  -1  -3   6 2178.44 104.802   1
   1  -3  -6 1975.81 107.009   8
  -1   3  -6 2008.29 103.470   1
   1   3   6 2182.91 104.526   1
  -1  -3   6 2129.04 103.444   2
  -1   3  -6 2108.67 108.157   8
   1  -3  -6 2015.68 105.237   5
   1  -3  -6 2099.49 103.772   2
   1   3   6 2180.49 105.574   7
  -1   3  -6 2087.67 101.005   9
  -3  -3  -6 1099.03 62.3388   1
   3   3  -6 1098.80 63.9574   8
   3  -3   6 1182.20 59.5541   3
  -3  -3  -6 1067.64 63.4362   8
   3  -3   6 1143.64 57.7228   4
  -3   3   6 1113.27 58.4652   9
  -3   3   6 1069.66 60.2459   1
   3   3  -6 1101.92 62.5782   1
  -3   3   6 1153.68 61.0057   7
   3  -3   6 1153.52 60.2014   6
   3   3   6 1151.50 61.5290   1
  -3   3  -6 1108.58 60.3606   1
   3  -3  -6 1160.10 62.8001   8
   3   3   6 1144.33 61.2105   2
   3  -3  -6 1155.44 60.7708   1
   3  -3  -6 1155.96 60.8323   2
  -3   3  -6 1129.63 58.3840   9
  -3  -3   6 1108.69 61.8570   1
   3   3   6 1134.96 53.6703   6
  -3   3  -6 1129.35 62.9967   8
   3   3   6 1077.62 62.1130   7
   3  -3  -6 1116.47 61.8429   5
  -5   3   6 953.785 53.4629   1
   5  -3   6 1000.89 53.5040   6
   5  -3   6 968.286 52.4809   2
  -5   3   6 975.708 53.6802   7
   5   3  -6 963.729 56.7583   1
  -5  -3  -6 927.038 55.6022   1
  -5  -3  -6 901.377 56.6281   8
   5  -3   6 1052.30 53.4562   4
   5   3  -6 976.446 56.8169   2
   5   3  -6 893.471 56.0391   8
  -5   3   6 1025.02 52.3762   9
   5  -3   6 1028.00 53.0760   3
   5  -3  -6 962.092 54.5863   5
   5   3   6 1025.46 55.1364   2
   5   3   6 1020.16 55.0785   1
  -5   3  -6 919.965 55.2002   8
  -5   3  -6 915.523 52.8240   1
  -5  -3   6 958.557 55.8152   1
   5   3   6 1025.72 49.7526   6
  -5   3  -6 925.266 50.6011   9
   5   3   6 989.208 56.8158   7
   5  -3  -6 943.913 53.4230   2
   5  -3  -6 956.101 54.7695   8
   7  -3   6 926.962 51.4271   2
   7  -3   6 967.058 53.5404   6
   7  -3   6 937.148 53.8541   4
   7   3  -6 900.967 55.9691   2
   7   3  -6 978.621 56.5430   8
  -7  -3  -6 932.398 57.0823   8
   7  -3   6 937.357 52.5003   3
  -7  -3  -6 949.055 56.0309   1
  -7   3   6 915.838 52.4751   1
   7   3  -6 1013.34 58.3074   1
  -7  -3  -6 965.468 57.2015   9
  -7   3   6 968.675 53.1577   7
  -7   3   6 945.796 51.0362   9
   7   3   6 906.733 49.9659   6
   7  -3  -6 972.355 53.2612   5
  -7   3  -6 950.802 52.0617   1
  -7  -3   6 964.333 59.6400   8
   7   3   6 903.730 56.2924   7
  -7   3  -6 971.787 49.8682   9
   7  -3  -6 957.053 50.2115   3
   7   3   6 935.251 54.7630   2
   7  -3  -6 920.726 52.3543   2
   7  -3  -6 976.462 53.1268   8
  -7  -3   6 908.181 55.9610   1
  -9  -3  -6 1883.00 106.004   8
   9  -3   6 2023.45 96.5843   2
   9  -3   6 2022.06 102.384   4
  -9   3   6 2004.15 98.5237   1
   9  -3   6 1969.12 97.4444   6
  -9   3   6 2003.05 96.0014   9
  -9   3   6 2049.74 99.4057   7
   9   3  -6 1788.80 102.324   2
  -9  -3  -6 1876.82 102.300   1
  -9  -3  -6 1916.67 103.718   9
   9   3  -6 1867.32 102.377   8
   9  -3   6 2087.74 100.049   3
   9   3   6 2025.05 95.7840   6
  -9  -3   6 2110.79 105.063   1
  -9  -3   6 2102.24 110.278   8
   9   3   6 2063.47 101.961   2
  -9   3  -6 1891.09 97.1889   1
   9  -3  -6 1841.72 97.8754   2
  -9   3  -6 1926.16 94.3556   9
   9  -3  -6 1993.84 97.3717   3
  11  -3   6 792.628 46.5118   2
  11   3  -6 895.067 51.7787   8
  11  -3   6 842.672 52.0680   6
  11  -3   6 833.471 54.2343   4
 -11   3   6 812.573 47.4870   9
 -11  -3  -6 898.086 54.5453   1
 -11  -3  -6 973.111 58.1203   9
  11  -3   6 838.409 51.9966   3
  11   3  -6 879.727 56.0011   2
 -11   3   6 872.946 49.5732   1
 -11   3  -6 906.563 46.4153   9
  11  -3  -6 855.327 49.6214   2
  11   3   6 857.521 53.5818   2
 -11  -3   6 894.987 56.3035   1
  11   3   6 822.407 51.3019   6
  13  -3   6 1194.80 68.3643   6
 -13  -3  -6 1186.55 70.2282   1
  13   3  -6 1156.35 72.3141   2
  13  -3   6 1207.62 61.5006   2
 -13   3   6 1251.81 63.7297   9
 -13  -3  -6 1173.01 72.5454   9
  13  -3   6 1222.35 72.5313   4
 -13   3  -6 1132.36 60.6613   9
  13   3   6 1270.10 69.7802   6
  13   3   6 1253.71 71.4375   2
 -13  -3   6 1273.78 74.1959   1
  13  -3  -6 1137.93 64.3079   2
   0  -4  -6 721.900 50.5798   8
   0   4  -6 750.035 52.1169   8
   0  -4   6 970.843 51.7838   1
   0   4   6 870.931 50.0824   1
   0  -4  -6 751.482 49.8999   1
   0  -4   6 902.219 50.9073   2
   0   4  -6 745.501 49.2737   1
   0   4   6 878.382 50.5200   7
   2  -4   6 1418.84 80.4453   2
   2   4  -6 1668.00 84.9576   1
   2   4  -6 1632.27 87.3544   8
   2  -4   6 1416.44 79.4731   6
  -2  -4  -6 1670.47 84.8700   1
  -2  -4  -6 1681.05 86.8235   8
  -2   4   6 1434.65 81.4007   7
  -2   4   6 1406.31 80.5133   1
   2   4   6 1361.20 80.8670   1
  -2   4  -6 1517.76 81.7431   1
  -2   4  -6 1623.36 79.4919   9
   2  -4  -6 1641.43 82.6093   2
   2   4   6 1428.46 82.9634   7
   2  -4  -6 1588.94 85.2560   8
  -2  -4   6 1409.48 81.9645   1
   2  -4  -6 1628.90 82.5308   1
   2  -4  -6 1641.68 82.6064   2
   4  -4   6 100.714 16.1642   6
  -4   4   6 90.7239 13.9228   1
   4   4  -6 61.3958 14.7970   1
  -4  -4  -6 51.1701 13.1615   1
  -4   4   6 90.6601 13.8638   7
  -4  -4  -6 56.5345 13.5287   8
   4  -4   6 85.7532 12.2221   4
   4  -4   6 96.2490 14.7938   3
   4  -4   6 80.9883 12.8892   2
   4   4  -6 54.1822 14.0789   8
   4   4   6 96.4488 11.7057   6
   4   4   6 87.0023 15.8419   7
   4  -4  -6 60.8551 12.8561   2
  -4  -4   6 97.1535 17.0220   8
  -4   4  -6 44.4270 11.1161   1
   4   4   6 85.6610 14.1364   1
   4  -4  -6 61.2908 13.0001   8
  -4   4  -6 63.1121 11.4468   9
   4  -4  -6 51.1479 12.3080   5
  -4  -4   6 94.4350 15.3537   1
  -4   4  -6 56.9665 13.1357   8
   6  -4   6 1881.77 101.100   2
  -6   4   6 1949.52 102.413   7
   6  -4   6 1963.17 100.205   6
   6  -4   6 1992.10 102.775   3
  -6   4   6 1929.75 102.637   1
   6  -4   6 1962.30 102.849   4
   6   4  -6 2223.22 110.572   1
  -6  -4  -6 2084.20 108.323   1
   6   4  -6 2171.98 111.189   8
  -6  -4  -6 2177.41 111.969   8
   6  -4  -6 2168.09 106.334   8
   6  -4  -6 2026.59 102.472   2
   6   4   6 1926.55 107.053   7
  -6  -4   6 1961.89 112.488   8
  -6   4  -6 2095.77 98.9731   9
  -6  -4   6 1916.19 106.562   1
  -6   4  -6 2116.59 103.421   1
   6   4   6 2023.84 95.6109   6
   6  -4  -6 2195.53 104.952   5
   6   4   6 1862.55 103.895   1
   6   4   6 1998.78 105.355   2
   8  -4   6 140.067 18.3023   3
  -8   4   6 158.867 17.1247   9
   8  -4   6 151.947 16.0577   2
  -8   4   6 144.563 17.1531   1
  -8   4   6 141.917 17.1229   7
   8  -4   6 173.074 20.6670   6
   8  -4   6 156.930 18.6985   4
  -8  -4   6 140.107 22.5209   8
  -8   4  -6 103.245 16.0214   1
   8   4   6 148.623 20.3982   7
  -8  -4   6 163.516 21.3031   1
   8   4   6 168.319 18.3078   6
   8   4   6 135.938 19.3511   2
  10   4  -6 446.294 32.6095   8
  10  -4   6 330.083 25.8054   2
 -10   4   6 337.128 27.7693   1
  10  -4   6 326.742 30.0921   3
 -10   4   6 335.065 27.2887   9
  10  -4   6 341.741 30.9852   6
  10   4  -6 421.675 35.8762   2
  10  -4   6 323.818 30.6920   4
 -10  -4  -6 435.206 35.0949   1
 -10   4  -6 429.725 29.7456   1
 -10  -4   6 345.971 36.0183   8
  10   4   6 329.299 31.5016   2
  10  -4  -6 422.848 29.4480   2
  10   4   6 302.908 28.4136   6
 -10  -4   6 302.916 32.2035   1
  10  -4  -6 420.651 30.2911   3
 -10   4  -6 399.047 26.0535   9
  12  -4   6 98.1188 13.1230   2
 -12   4   6 93.3802 14.6104   1
  12  -4   6 104.825 17.8759   3
 -12   4   6 106.045 15.0190   9
  12  -4   6 88.7576 18.3895   4
  12  -4   6 97.7142 19.0742   6
 -12  -4   6 110.686 22.8114   1
  12   4   6 94.2300 18.8496   6
  12   4   6 97.2085 18.8187   2
   1   5  -6 755.784 53.3441   1
  -1  -5  -6 824.435 54.6506   1
  -1   5   6 830.949 53.5746   7
  -1   5   6 824.632 53.3721   1
   1  -5   6 831.053 53.2827   6
   1   5  -6 771.657 56.0238   8
  -1  -5  -6 776.946 54.2045   8
   1  -5   6 873.909 54.3068   2
   1  -5  -6 786.939 53.9032   8
  -1   5  -6 798.213 53.4739   1
   1  -5  -6 854.495 54.2473   1
  -1   5  -6 803.748 55.8132   8
   1   5   6 777.049 53.0396   7
  -1  -5   6 904.857 55.2146   1
   1   5   6 845.527 53.9798   1
  -3  -5  -6 871.287 57.4125   1
   3  -5   6 862.539 54.8728   2
   3   5  -6 867.394 60.2192   8
   3  -5   6 840.832 54.9820   6
   3   5  -6 885.477 57.9578   1
  -3   5   6 862.798 54.4140   7
  -3  -5  -6 845.711 57.5973   8
  -3   5   6 857.671 54.2685   1
  -3  -5   6 848.134 56.6261   1
   3  -5  -6 861.429 55.7579   8
  -3  -5   6 864.405 59.1895   8
   3   5   6 898.345 56.6745   1
  -3   5  -6 902.524 58.5414   8
   3  -5  -6 916.254 55.4047   2
  -3   5  -6 881.015 55.8081   1
   3   5   6 818.160 56.9335   7
  -5  -5  -6 441.096 38.9934   1
  -5   5   6 481.990 36.6235   1
   5  -5   6 513.101 38.5027   6
  -5  -5  -6 463.943 39.7961   8
   5  -5   6 533.203 39.6889   3
   5   5  -6 481.143 40.6419   1
  -5   5   6 490.901 36.0564   7
   5  -5   6 519.582 37.3144   2
   5  -5  -6 451.823 35.8806   2
   5  -5  -6 471.276 36.5532   8
   5  -5  -6 464.859 36.3329   2
  -5  -5   6 510.363 40.5260   1
   5   5   6 488.191 39.8258   7
   5   5   6 522.998 39.6264   1
  -5  -5   6 505.763 42.3938   8
  -5   5  -6 509.151 38.1552   1
  -5   5  -6 505.511 34.9701   9
  -7   5   6 1020.35 60.8065   1
  -7  -5  -6 1056.99 68.2652   8
   7  -5   6 1003.38 63.2138   3
   7   5  -6 1044.68 67.5576   8
   7   5  -6 1049.42 68.3352   1
   7  -5   6 1016.53 62.1670   6
  -7  -5  -6 1014.68 66.3363   1
   7  -5   6 948.161 59.2128   2
   7  -5   6 1039.59 61.8209   4
  -7   5   6 1003.88 61.2299   7
  -7   5  -6 1054.44 62.2700   1
  -7  -5   6 1018.52 67.1144   1
   7  -5  -6 1032.03 61.4859   2
   7   5   6 999.656 64.6415   7
   7  -5  -6 1074.35 61.7333   2
  -7  -5   6 1022.52 69.9796   8
  -7   5  -6 1074.46 58.4219   9
   9  -5   6 715.513 43.9398   2
  -9  -5  -6 630.580 51.5052   8
   9   5  -6 612.092 48.3755   8
   9  -5   6 747.692 49.1225   3
  -9  -5  -6 627.410 49.9018   1
   9  -5   6 730.894 48.5360   4
   9  -5   6 711.958 48.2130   6
  -9   5   6 721.034 45.4927   1
  -9  -5   6 726.671 53.2735   1
   9  -5  -6 649.921 45.0990   2
  -9   5  -6 665.560 42.5625   9
  -9  -5   6 711.667 55.1879   8
   9  -5  -6 635.786 44.6131   2
  -9   5  -6 639.305 45.3543   1
  11   5  -6 754.689 52.7183   8
  11  -5   6 699.635 51.6357   4
 -11   5   6 726.523 46.7236   1
 -11  -5  -6 719.713 54.5443   1
  11  -5   6 736.190 51.1179   6
  11  -5   6 676.322 50.9737   3
 -11   5   6 743.326 47.7318   9
  11  -5   6 686.491 44.6335   2
 -11  -5   6 707.320 58.3706   8
 -11   5  -6 751.714 45.1156   9
  11  -5  -6 727.261 47.4534   2
  11   5   6 744.862 54.3761   2
 -11  -5   6 729.800 56.6001   1
  11  -5  -6 741.136 47.8889   2
   0   6   6 728.637 50.1213   7
   0   6  -6 568.014 48.8428   8
   0  -6   6 691.722 47.1049   6
   0   6  -6 538.621 46.2288   1
   0  -6  -6 579.106 47.3757   1
   0   6   6 693.320 49.0819   1
   0  -6  -6 563.752 47.1341   8
   2   6  -6 891.938 61.4990   8
   2  -6   6 714.462 53.3129   6
  -2   6   6 709.046 53.2173   7
  -2   6   6 733.384 54.3793   1
  -2  -6  -6 860.977 58.7331   8
   2   6  -6 825.782 57.7902   1
  -2  -6  -6 875.096 58.7435   1
   2  -6   6 740.459 55.0104   2
   2  -6  -6 903.003 57.5759   8
  -2  -6   6 752.430 56.4496   1
  -2   6  -6 836.835 56.6173   1
  -2   6  -6 854.246 59.3487   8
   2   6   6 725.233 55.1836   7
   2   6   6 725.486 54.8701   1
  -4  -6  -6 46.3206 16.4590   1
   4  -6   6 92.4942 20.1867   6
  -4  -6  -6 57.4427 17.4648   8
   4  -6   6 116.482 22.3217   3
   4   6  -6 54.5972 18.6463   8
  -4   6   6 102.662 19.0891   1
   4   6  -6 68.8474 19.5322   1
   4  -6   6 106.192 19.9400   2
   4   6   6 95.8396 20.2447   1
   4  -6  -6 60.3482 17.0387   2
  -4   6  -6 63.0302 17.3309   1
   4  -6  -6 67.8773 15.7474   8
   4   6   6 89.4902 20.1850   7
  -4  -6   6 115.321 23.5671   1
  -4  -6   6 104.013 20.5894   8
  -6  -6  -6 1160.20 74.1532   1
   6  -6   6 1058.83 67.7564   2
  -6   6   6 1057.17 68.4640   1
   6   6  -6 1186.94 76.4854   8
   6   6  -6 1248.74 76.9468   1
   6  -6   6 1039.00 70.1819   3
  -6  -6  -6 1179.31 75.9312   8
   6  -6   6 1023.23 67.1824   6
  -6   6   6 1047.04 67.9735   7
  -6  -6   6 1053.38 73.1577   1
   6  -6  -6 1144.50 69.5826   2
  -6   6  -6 1148.70 65.4607   9
  -6  -6   6 1043.85 74.2067   8
   6   6   6 1119.63 71.8665   1
  -6   6  -6 1134.07 69.8473   1
   6   6   6 1102.31 70.9423   7
   8  -6   6 154.733 24.9913   3
  -8   6   6 164.237 22.5438   1
   8   6  -6 104.373 22.2054   8
   8  -6   6 160.016 21.4222   2
   8  -6   6 145.087 24.2328   6
  -8   6   6 152.940 22.6635   7
   8   6   6 161.398 23.1568   7
  -8   6  -6 98.2560 21.4243   1
  -8  -6   6 154.745 26.4349   1
  -8  -6   6 151.572 26.1863   8
   1  -7   6 983.995 61.6575   6
  -1  -7  -6 857.495 63.3901   8
   1   7  -6 870.769 64.5423   1
   1   7  -6 889.244 66.7162   8
  -1  -7  -6 936.957 66.3556   1
  -1   7   6 948.331 64.9706   1
  -1   7   6 896.348 64.0354   7
   1   7   6 873.578 63.9354   1
   1   7   6 872.420 63.4089   7
  -1   7  -6 904.951 64.6720   1
  -1  -7   6 930.031 59.3528   6
  -1   7  -6 925.500 66.8950   8
   1  -7  -6 871.820 62.1709   8
  -3   7   6 519.414 45.3721   1
  -3  -7  -6 543.530 47.7075   1
  -3   7   6 536.962 45.5847   7
   3  -7   6 576.660 46.4739   6
  -3  -7  -6 531.289 47.0724   8
   3   7  -6 497.856 47.8623   8
   3   7  -6 534.585 46.9928   1
   3   7   6 529.974 46.5035   1
  -3  -7   6 501.664 45.6710   8
  -3  -7   6 545.042 46.7494   1
   3   7   6 508.622 45.8977   7
   3  -7  -6 538.921 42.9525   8
  -3   7  -6 502.087 45.0473   1
  -1   0  -7 1806.42 92.1454   1
   1   0  -7 1863.45 91.9705   2
   1   0   7 1825.17 93.0331   5
  -1   0   7 1816.04 83.9760   6
  -1   0   7 1879.64 91.1975   2
  -1   0   7 1864.10 92.1622   1
  -1   0  -7 1808.90 95.1248   8
  -1   0   7 1903.04 93.7225   5
   1   0   7 1892.48 92.2097   1
   1   0   7 1856.91 84.5192   6
   1   0  -7 1887.49 92.8899   1
   1   0   7 1869.56 91.1021   2
  -1   0  -7 1900.05 89.9147   9
   1   0  -7 1896.67 95.7685   8
   3   0   7 1137.15 59.6139   2
  -3   0   7 1205.08 55.1428   6
  -3   0   7 1206.49 61.2153   1
   3   0   7 1230.21 60.7962   1
  -3   0   7 1179.30 61.9356   5
  -3   0  -7 1106.17 60.4968   1
   3   0  -7 1111.65 60.8007   1
   3   0  -7 1081.48 62.2183   8
  -3   0  -7 1146.46 58.9028   9
   3   0   7 1199.72 56.7357   6
  -3   0  -7 1109.54 62.3649   8
   3   0  -7 1117.18 60.6947   2
   3   0   7 1151.65 59.9459   7
   5   0  -7 403.369 28.4624   8
   5   0   7 439.374 27.5550   2
  -5   0  -7 388.937 27.5829   1
   5   0   7 461.476 27.8501   6
   5   0  -7 429.611 28.9052   1
  -5   0  -7 428.765 27.3824   9
  -5   0   7 469.070 27.3728   9
   5   0   7 451.275 27.5696   7
  -5   0  -7 405.084 28.5517   8
   5   0  -7 407.875 28.4369   2
  -5   0   7 438.031 28.6868   1
   7   0   7 974.500 50.9301   2
  -7   0  -7 908.250 51.1182   1
   7   0  -7 921.883 52.2220   2
  -7   0   7 987.535 52.7508   1
  -7   0  -7 870.708 49.7109   9
   7   0  -7 902.081 52.1247   8
   7   0   7 950.385 50.4069   6
  -7   0   7 1001.42 50.4763   9
   9   0   7 747.186 42.4590   2
  -9   0  -7 766.056 43.2177   1
  -9   0   7 745.149 44.3313   1
   9   0  -7 776.475 43.1418   8
  -9   0   7 743.370 42.4334   9
   9   0   7 716.993 43.4088   6
   9   0  -7 745.282 44.5289   2
  -9   0  -7 743.457 42.6001   9
  11   0  -7 1355.45 75.6796   2
  11   0   7 1466.04 74.0525   2
 -11   0   7 1493.06 76.7831   1
 -11   0  -7 1406.28 74.0113   1
 -11   0   7 1518.82 73.9505   9
 -11   0  -7 1384.92 73.4909   9
  11   0   7 1483.49 75.4189   6
 -13   0   7 257.011 21.6834   9
  13   0  -7 264.874 23.2953   2
 -13   0   7 263.926 24.1612   1
 -13   0  -7 272.425 22.3678   9
  13   0   7 240.565 21.2568   2
  13   0   7 257.124 25.8085   6
 -13   0  -7 278.695 21.6697   1
   0   1   7 708.937 43.4919   2
   0  -1  -7 955.200 48.2187   8
   0   1   7 718.210 44.4061   7
   0  -1  -7 895.651 46.2384   1
   0  -1  -7 914.155 46.0212   2
   0  -1   7 709.442 43.9974   1
   0  -1   7 733.775 43.9788   2
   0   1   7 734.082 38.7427   6
   0   1   7 709.563 44.2494   1
   0  -1   7 728.100 41.7809   6
   0   1  -7 909.984 46.4022   1
   0  -1  -7 949.464 47.4985   5
   2  -1   7 1330.05 68.4270   2
   2   1  -7 1350.76 69.5860   2
  -2   1   7 1390.86 60.6594   6
  -2   1   7 1306.90 68.8837   1
   2  -1   7 1331.22 64.7556   6
  -2  -1  -7 1312.03 71.7352   8
  -2  -1  -7 1312.35 69.5260   1
   2   1  -7 1329.50 72.2535   8
   2  -1   7 1394.64 69.0654   1
   2   1  -7 1342.98 69.8995   1
   2  -1  -7 1308.06 69.5615   1
  -2  -1   7 1366.00 65.2087   6
   2  -1  -7 1262.61 68.4158   2
   2   1   7 1405.98 69.4389   1
  -2   1  -7 1351.95 67.1601   9
   2   1   7 1415.78 63.1548   6
   2   1   7 1348.42 68.5018   2
  -2   1  -7 1322.41 71.8389   8
   2  -1  -7 1324.92 71.4940   8
   2   1   7 1355.03 69.1912   7
  -2  -1   7 1366.41 69.5746   1
  -2   1  -7 1313.73 69.2649   1
   2  -1  -7 1317.82 70.3137   5
   4   1  -7 108.101 13.1277   2
   4   1  -7 111.932 13.6403   1
  -4  -1  -7 102.955 12.8276   1
  -4  -1  -7 117.871 13.5926   8
   4   1  -7 106.798 13.0204   8
  -4  -1  -7 105.580 12.1681   9
   4  -1  -7 100.987 12.6127   8
  -4   1  -7 113.405 13.3068   8
   4  -1  -7 107.986 13.0289   2
   4  -1  -7 122.261 13.6266   1
  -4   1  -7 107.315 11.7556   9
  -4   1  -7 110.543 12.7355   1
  -6   1   7 433.056 28.3400   1
   6  -1   7 422.202 27.7235   6
  -6  -1  -7 401.741 28.7830   8
   6   1  -7 368.474 27.7760   8
   6   1  -7 391.788 28.3764   2
   6   1  -7 397.302 28.4774   1
  -6  -1  -7 395.460 27.9559   1
   6  -1   7 408.553 26.4017   2
  -6   1   7 439.459 26.6533   9
  -6  -1  -7 387.389 27.3970   9
  -6   1  -7 397.883 27.2284   1
   6   1   7 425.897 27.7239   2
   6   1   7 447.420 27.0828   6
   6  -1  -7 400.647 27.3207   8
  -6  -1   7 436.795 27.0336   9
   6   1   7 417.955 27.9489   7
  -6   1  -7 366.236 25.5935   9
   6  -1  -7 382.625 27.5473   2
  -6   1  -7 403.986 28.3555   8
  -6  -1   7 428.635 28.9287   1
  -8   1   7 198.438 16.9522   9
   8  -1   7 197.261 17.0768   2
  -8   1   7 200.941 18.5159   1
   8  -1   7 199.834 19.2466   6
   8   1   7 207.731 18.1648   2
   8   1   7 208.697 18.8815   6
  -8  -1   7 199.453 18.9412   1
  -8  -1   7 208.658 17.8394   9
 -10   1   7 945.576 51.9346   9
 -10  -1  -7 923.123 54.2265   9
  10  -1   7 971.186 55.1051   6
  10  -1   7 988.801 52.3451   2
 -10  -1  -7 1011.43 54.9740   1
  10   1  -7 931.622 54.9278   2
  10   1  -7 993.979 53.7932   8
 -10   1   7 964.058 54.3171   1
 -10  -1   7 1024.57 54.0696   9
  10   1   7 980.071 54.2015   6
  10   1   7 1016.27 54.5168   2
  10  -1  -7 914.499 53.7569   2
 -10   1  -7 944.567 52.4414   1
 -10   1  -7 959.266 51.0581   9
 -10  -1   7 957.220 56.1017   1
  12  -1   7 314.504 23.4865   2
  12   1  -7 443.208 29.6801   2
 -12   1   7 321.449 26.2403   1
  12  -1   7 306.181 27.8738   6
 -12   1   7 346.077 25.1618   9
 -12  -1   7 336.623 28.1534   1
  12   1   7 331.167 28.6144   6
 -12  -1   7 314.926 25.7441   9
  12   1   7 313.252 25.5380   2
 -14  -1  -7 198.259 19.9970   1
 -14   1   7 211.456 19.0105   9
  14  -1   7 221.813 18.4865   2
  14  -1   7 193.226 23.3756   6
 -14   1   7 229.322 21.5410   1
  14   1  -7 169.192 20.4397   2
 -14  -1  -7 177.804 20.2349   9
  14   1   7 193.440 20.0373   2
  14  -1  -7 186.741 19.8879   2
  14   1   7 194.874 23.1393   6
 -14   1  -7 177.366 17.2029   9
 -14  -1   7 221.756 20.6593   9
 -14  -1   7 185.277 22.5677   1
  -1  -2  -7 273.941 22.2903   1
   1  -2   7 304.826 22.1052   1
  -1   2   7 279.161 21.9469   1
   1   2  -7 270.574 22.7565   8
  -1  -2  -7 274.541 22.7062   8
   1   2  -7 280.623 22.6089   1
   1  -2   7 287.629 22.3776   6
  -1   2   7 288.703 22.0972   7
   1  -2   7 306.176 22.3448   2
   1  -2  -7 272.207 22.2919   8
   1  -2  -7 271.507 21.9920   2
  -1  -2   7 289.483 22.7191   6
   1   2   7 300.125 22.5950   1
   1   2   7 282.308 22.3193   7
   1  -2  -7 283.510 22.3165   1
  -1   2  -7 274.842 22.1490   1
  -1   2  -7 284.671 23.1127   8
   1  -2  -7 276.411 23.4633   5
   1   2   7 335.322 24.9863   2
  -1  -2   7 298.471 22.3937   2
   1   2   7 291.506 17.6205   6
  -1  -2   7 278.977 21.9048   1
   3   2  -7 65.1711 11.7060   8
   3  -2   7 93.7797 11.7112   2
  -3   2   7 88.1298 12.2246   7
   3  -2   7 101.712 12.2762   1
  -3  -2  -7 56.3343 11.0070   8
  -3  -2  -7 57.8816 11.3290   1
  -3   2   7 90.2421 11.0165   9
  -3   2   7 91.0845 12.1885   1
   3  -2   7 86.2532 12.3723   6
   3   2  -7 62.6366 11.6512   1
   3   2   7 93.2982 9.95988   6
   3  -2  -7 69.0704 11.4055   1
  -3   2  -7 60.1007 9.75693   9
  -3   2  -7 66.8698 11.4994   8
   3  -2  -7 67.9661 11.2827   2
   3   2   7 81.6451 12.0478   1
   3   2   7 87.9956 11.9412   2
   3  -2  -7 63.7609 11.1798   5
  -3   2  -7 64.1188 11.1440   1
   3   2   7 95.3729 12.8912   7
   3  -2  -7 60.0672 10.7425   8
  -3  -2   7 80.4559 11.9183   1
   5   2  -7 97.5992 13.6077   8
   5  -2   7 125.373 12.2040   3
  -5  -2  -7 104.918 14.3545   8
   5  -2   7 128.401 12.7047   7
  -5  -2  -7 94.0932 13.5184   1
   5  -2   7 122.951 13.5171   2
  -5   2   7 132.846 14.6633   7
  -5  -2  -7 99.0162 13.9711   9
   5  -2   7 113.872 14.3781   6
  -5   2   7 123.327 12.9591   9
  -5   2   7 123.678 13.9707   1
   5   2  -7 103.999 14.4390   1
   5   2  -7 104.491 14.2249   2
   5  -2  -7 96.5895 13.1107   5
   5   2   7 118.970 14.2253   2
  -5   2  -7 99.9179 11.9232   9
   5  -2  -7 91.7661 12.8309   2
  -5   2  -7 90.8259 12.8132   1
  -5   2  -7 101.994 13.4863   8
   5   2   7 131.015 14.3283   1
   5   2   7 114.952 14.5498   7
   5   2   7 115.004 12.3080   6
   5  -2  -7 99.2685 13.3504   8
  -5  -2   7 128.537 15.1016   1
  -7  -2  -7 71.4038 12.7530   8
   7   2  -7 68.9399 13.4929   1
  -7  -2  -7 77.1773 12.6300   1
  -7   2   7 101.445 12.9745   1
   7   2  -7 71.6841 12.3381   8
  -7  -2  -7 74.1957 13.4269   9
   7  -2   7 108.879 14.5552   6
  -7   2   7 98.5890 11.9398   9
   7   2  -7 64.8122 12.8889   2
  -7   2  -7 63.9602 11.2169   1
  -7   2  -7 70.3865 10.3410   9
   7  -2  -7 70.6560 11.1016   8
   7  -2  -7 61.5071 11.2332   2
  -7  -2   7 101.023 14.5351   1
   7   2   7 110.457 15.7096   7
   9  -2   7 54.9265 9.99439   2
   9  -2   7 61.4389 11.6616   3
  -9  -2  -7 70.8049 14.8079   9
  -9  -2  -7 61.9897 12.2583   1
   9   2  -7 66.8431 13.6432   2
  -9   2   7 56.1257 10.6790   9
  -9   2   7 51.6626 11.1668   1
   9  -2   7 64.1280 13.9521   6
   9   2  -7 66.0545 11.9343   8
  -9  -2   7 60.4076 13.3116   1
   9   2   7 57.8464 12.2364   6
   9  -2  -7 65.3015 11.8898   2
  -9   2  -7 63.0381 10.1092   9
   9   2   7 58.9963 12.4288   2
  -9   2  -7 69.9484 11.5803   1
 -11  -2  -7 378.171 31.9163   9
 -11   2   7 471.655 30.6858   1
  11   2  -7 383.843 31.9261   2
  11   2  -7 385.023 28.3561   8
  11  -2   7 448.760 27.8843   2
  11  -2   7 441.079 32.8582   6
 -11   2   7 435.955 29.1201   9
 -11  -2  -7 372.907 30.1746   1
 -11   2  -7 387.367 26.6861   9
  11   2   7 446.115 31.6708   2
 -11   2  -7 387.366 27.5641   1
 -11  -2   7 461.233 31.3276   9
  11  -2  -7 384.451 29.1252   2
 -11  -2   7 451.950 33.9792   1
  11   2   7 405.868 31.1149   6
  13  -2   7 4.59154 5.32912   2
 -13   2   7 2.58240 7.02166   1
 -13   2   7 2.45159 5.46431   9
 -13  -2  -7 7.00354 8.29230   1
  13   2  -7 4.37525 7.54168   2
  13  -2   7 -1.6921 7.28790   6
 -13  -2  -7 10.0785 9.71879   9
 -13  -2   7 2.28062 8.90908   1
  13   2   7 2.39964 7.14920   2
 -13   2  -7 -1.5438 4.86773   9
  13   2   7 3.62833 8.16886   6
  13  -2  -7 6.08144 6.40313   2
 -13  -2   7 -0.8883 6.39634   9
   0  -3   7 392.415 28.3107   1
   0  -3   7 357.415 28.4103   6
   0   3   7 354.688 27.4261   7
   0   3   7 343.051 26.9395   1
   0  -3   7 387.433 28.0082   2
   2   3  -7 421.159 31.7159   1
  -2   3   7 456.273 31.3952   7
   2   3  -7 422.671 32.0036   8
  -2   3   7 451.497 31.0173   1
  -2  -3  -7 418.352 32.0750   8
   2  -3   7 477.039 31.5097   2
   2  -3   7 467.899 31.4394   1
   2  -3   7 475.579 32.5888   6
  -2  -3  -7 419.604 31.6055   1
   2   3   7 511.187 33.2000   7
   2  -3  -7 415.062 31.2296   8
   2  -3  -7 422.897 30.8658   1
  -2  -3   7 458.749 32.1678   1
  -2   3  -7 407.169 30.2439   1
  -2   3  -7 425.851 31.7468   8
   2  -3  -7 445.727 31.3488   2
   2   3   7 482.373 31.8940   1
  -4   3   7 225.176 20.5833   7
  -4  -3  -7 222.403 21.7681   1
  -4  -3  -7 231.525 22.2835   8
  -4   3   7 211.700 20.0960   1
   4  -3   7 214.622 21.0240   6
   4  -3   7 223.856 18.3196   4
  -4   3   7 217.296 19.3638   9
   4  -3   7 232.791 20.2609   2
   4   3  -7 239.949 22.3056   8
   4   3  -7 239.115 22.5416   1
   4  -3   7 221.218 18.7461   3
   4  -3  -7 243.620 21.1929   2
   4   3   7 216.226 17.1945   6
  -4   3  -7 247.542 19.6217   9
   4   3   7 224.800 20.9723   2
   4   3   7 225.668 22.2742   7
   4  -3  -7 249.387 22.0004   5
  -4   3  -7 240.307 21.6004   8
  -4  -3   7 218.622 21.7803   1
   4  -3  -7 242.910 21.3671   8
   4  -3  -7 261.536 23.5653   1
  -4   3  -7 236.827 20.6333   1
   4   3   7 213.248 20.5850   1
  -6  -3  -7 48.1134 12.6957   8
  -6   3   7 82.1860 12.7864   7
  -6  -3  -7 47.8908 12.3661   1
  -6   3   7 73.6015 12.5070   1
   6  -3   7 74.0169 11.7362   2
   6  -3   7 72.9950 11.5458   3
   6   3  -7 43.9911 11.7031   8
   6  -3   7 74.6817 12.1133   4
   6   3  -7 50.9777 13.0076   1
  -6   3   7 77.5422 11.7898   9
   6  -3   7 86.0551 14.4741   6
   6  -3  -7 55.6751 11.2929   2
   6   3   7 82.0426 15.1310   7
  -6   3  -7 48.9326 11.0375   1
   6   3   7 81.2277 11.8563   6
   6   3   7 78.7941 13.3567   2
  -6   3  -7 50.0934 9.97497   9
  -6  -3   7 70.0063 13.7728   1
   6  -3  -7 51.4000 11.1231   8
   6  -3  -7 57.8838 12.2797   5
  -8   3   7 155.473 16.3003   9
   8  -3   7 152.375 18.9968   6
   8  -3   7 161.106 17.4187   3
  -8   3   7 158.767 17.4944   7
   8  -3   7 162.980 18.2259   4
   8  -3   7 144.747 15.7096   2
  -8   3   7 149.007 16.8936   1
   8   3   7 147.391 18.1140   2
  -8  -3   7 137.471 19.1631   1
   8   3   7 151.385 17.1172   6
  10  -3   7 408.677 32.4676   6
  10   3  -7 398.707 34.1971   2
 -10   3   7 401.219 28.3436   9
 -10   3   7 388.473 29.0754   1
 -10  -3  -7 375.415 32.0046   1
  10   3  -7 379.045 30.3368   8
  10  -3   7 393.254 30.1335   3
  10  -3   7 403.001 27.6778   2
  10  -3   7 402.022 31.9225   4
  10   3   7 390.297 30.0675   6
  10  -3  -7 402.619 29.7942   2
  10   3   7 412.969 32.1505   2
 -10   3  -7 395.893 28.2828   1
 -10   3  -7 409.200 27.3514   9
 -10  -3   7 383.920 33.4354   1
  12  -3   7 191.679 23.3792   6
 -12   3   7 203.986 19.5257   9
  12  -3   7 183.134 17.6427   2
 -12   3   7 198.267 20.3005   1
  12   3   7 199.531 23.1860   2
 -12  -3   7 196.413 24.8885   1
  12   3   7 208.582 23.3706   6
  -1  -4  -7 757.767 50.0988   1
  -1   4   7 849.329 50.5483   7
   1  -4   7 853.747 50.3162   1
   1   4  -7 808.910 52.4443   8
  -1  -4  -7 759.217 50.9109   8
   1   4  -7 749.602 49.6460   1
   1  -4   7 799.820 50.0397   6
  -1   4   7 778.347 49.1714   1
   1   4   7 806.664 49.7745   1
  -1   4  -7 770.192 49.7755   1
   1  -4  -7 782.060 49.6252   1
  -1   4  -7 813.367 52.2415   8
  -1  -4   7 828.004 50.7304   1
   1  -4  -7 774.013 50.6764   8
   1   4   7 804.929 50.1066   7
  -3  -4  -7 445.336 35.5810   1
   3   4  -7 409.862 34.4842   1
   3  -4   7 487.462 33.3144   2
  -3   4   7 465.369 33.4489   1
  -3  -4  -7 424.590 34.7770   8
  -3   4   7 469.225 33.6291   7
   3   4  -7 412.112 35.1673   8
   3  -4   7 532.269 34.5690   3
   3  -4   7 475.830 35.6382   6
  -3  -4   7 485.115 35.6307   1
  -3   4  -7 428.558 34.3013   8
  -3   4  -7 426.654 32.0052   9
  -3   4  -7 426.179 33.1049   1
   3  -4  -7 419.227 32.5829   2
   3  -4  -7 443.397 34.1787   8
   3   4   7 468.438 34.3202   1
   3   4   7 491.868 36.2308   7
  -5   4   7 157.144 18.2462   1
  -5  -4  -7 135.163 19.8235   1
   5   4  -7 134.247 20.1938   1
   5   4  -7 129.914 18.8362   8
  -5  -4  -7 113.057 18.3328   8
   5  -4   7 169.455 18.4048   3
   5  -4   7 158.627 17.7626   2
   5  -4   7 152.643 19.9075   6
  -5   4   7 169.476 18.7819   7
   5  -4  -7 130.302 17.7375   8
  -5  -4   7 155.832 20.0636   1
  -5   4  -7 137.256 17.8243   1
  -5   4  -7 140.023 15.9934   9
   5   4   7 167.174 21.6181   7
   5   4   7 165.223 19.6570   1
   5  -4  -7 127.102 17.1803   2
   7  -4   7 445.317 32.1909   4
   7   4  -7 387.882 36.1078   1
  -7   4   7 462.954 32.9575   7
  -7   4   7 415.325 31.6877   1
  -7  -4  -7 387.836 35.0013   8
  -7   4   7 446.709 31.4646   9
   7  -4   7 440.395 34.5371   6
   7   4  -7 379.905 33.7818   8
  -7  -4  -7 379.477 34.5498   1
   7  -4   7 463.572 31.9128   2
   7  -4   7 475.641 32.6789   3
   7   4   7 481.630 35.7075   2
  -7   4  -7 403.593 29.5540   9
   7   4   7 470.804 36.6976   7
   7  -4  -7 388.634 30.6303   8
   7  -4  -7 383.288 31.4690   2
  -7   4  -7 392.241 31.2424   1
   7   4   7 456.121 30.3700   6
   9  -4   7 295.438 25.1680   2
   9   4  -7 322.270 29.8068   8
   9  -4   7 333.037 29.1908   4
  -9   4   7 324.935 27.7085   1
  -9   4   7 317.150 27.6377   7
   9  -4   7 338.203 30.2534   6
   9  -4   7 329.867 29.0514   3
  -9  -4  -7 331.984 32.8137   8
  -9   4   7 334.885 26.8317   9
  -9  -4  -7 322.551 31.7014   1
   9  -4  -7 334.288 27.9148   2
   9   4   7 334.676 30.2472   2
  -9   4  -7 343.866 27.7379   1
  -9  -4   7 320.001 31.6305   1
  -9   4  -7 346.532 25.4797   9
   9   4   7 328.880 27.3571   6
 -11   4   7 839.065 50.2299   1
  11  -4   7 806.953 52.0345   3
  11   4  -7 783.888 52.9890   8
  11  -4   7 814.301 47.7647   2
 -11   4   7 877.686 50.0117   9
 -11  -4  -7 762.423 55.4496   1
  11  -4   7 877.582 55.4426   4
  11  -4   7 826.355 53.6017   6
  11   4   7 847.209 52.1465   6
 -11   4  -7 741.587 46.2017   9
  11  -4  -7 732.745 49.6068   2
  11   4   7 854.023 55.9921   2
 -11  -4   7 849.822 58.1349   1
   0  -5  -7 747.637 49.6648   8
   0   5   7 602.955 45.7124   1
   0   5  -7 767.393 49.4568   1
   0   5   7 593.730 46.1812   7
   0   5  -7 794.522 52.1362   8
   0  -5   7 545.702 45.0263   6
   0  -5   7 607.795 46.1897   1
   0  -5  -7 760.572 49.6607   1
   2  -5   7 1141.61 68.3821   6
  -2   5   7 1139.03 68.6754   1
   2   5  -7 1074.49 72.1082   8
  -2  -5  -7 1075.50 71.3523   8
   2   5  -7 1117.29 70.8517   1
   2  -5   7 1264.66 70.1719   2
  -2  -5  -7 1143.16 71.2935   1
  -2   5  -7 1157.32 72.6703   8
   2   5   7 1219.38 70.1155   1
  -2  -5   7 1222.75 71.0879   1
  -2   5  -7 1118.61 68.8943   1
   2  -5  -7 1119.65 69.9940   8
   2   5   7 1163.79 70.3629   7
  -4   5   7 54.0148 14.3182   1
   4  -5   7 70.5101 17.0929   6
  -4   5   7 57.9861 14.3802   7
   4  -5   7 62.7488 14.5218   2
   4  -5   7 61.4415 16.2004   3
  -4  -5   7 65.1967 16.4406   1
   4   5   7 76.8485 18.5478   7
   4   5   7 69.5235 16.0917   1
   6  -5   7 524.692 38.8743   3
   6  -5   7 521.008 39.9858   6
  -6   5   7 525.890 38.1282   7
   6   5  -7 504.108 41.9391   8
  -6  -5  -7 445.337 40.7631   8
   6   5  -7 442.449 40.6786   1
  -6   5   7 496.243 37.3438   1
  -6  -5  -7 438.735 39.9272   1
   6  -5   7 464.332 35.6700   2
  -6  -5   7 529.656 41.7248   1
  -6   5  -7 438.201 36.6462   1
   6  -5  -7 465.599 36.5045   8
   6  -5  -7 449.484 36.6795   2
   6   5   7 502.361 40.5646   7
  -6   5  -7 461.007 34.3374   9
   6   5   7 552.372 41.0710   1
   6  -5  -7 460.357 37.1572   2
   8  -5   7 218.440 26.6831   6
  -8   5   7 211.585 24.4083   7
   8  -5   7 232.161 25.4667   3
  -8  -5  -7 306.375 31.5786   1
  -8   5   7 237.927 24.6355   1
   8  -5   7 213.825 22.8484   2
  -8  -5   7 205.912 27.9103   1
   8   5   7 234.650 26.9182   7
  -8  -5   7 216.144 30.3270   8
  10  -5   7 898.083 53.3612   2
  10  -5   7 900.937 58.6806   6
  10  -5   7 879.514 58.2398   3
 -10  -5  -7 836.670 62.9215   8
 -10   5   7 943.965 55.9170   9
 -10   5   7 869.859 54.9377   1
 -10  -5  -7 832.889 60.8941   1
  10  -5   7 920.254 62.4691   4
  10   5  -7 848.513 59.9183   8
 -10  -5   7 890.287 66.9428   8
  10   5   7 862.824 53.9171   6
 -10   5  -7 849.747 55.0628   1
 -10   5  -7 832.404 51.8594   9
  10  -5  -7 892.000 56.1878   2
  10  -5  -7 868.812 55.6965   2
 -10  -5   7 840.797 62.1818   1
  -1  -6  -7 379.327 37.2251   8
  -1   6   7 397.238 36.8006   7
   1   6  -7 388.554 40.0084   8
  -1  -6  -7 414.584 39.1857   1
   1  -6   7 425.869 37.9690   6
   1   6  -7 373.889 37.3668   1
  -1   6   7 435.797 37.5554   1
   1   6   7 411.006 37.0346   1
  -1   6  -7 391.216 37.3184   1
   1   6   7 469.205 39.9869   7
   1  -6  -7 398.527 37.4928   8
  -1   6  -7 427.853 41.3116   8
  -1  -6   7 430.270 36.9775   6
  -3  -6  -7 195.512 27.4228   8
   3  -6   7 238.461 29.4749   6
  -3   6   7 264.394 28.9281   7
   3  -6   7 252.019 28.1000   2
   3   6  -7 199.637 28.9010   8
  -3   6   7 266.586 29.0349   1
  -3  -6  -7 210.778 28.8899   1
   3   6  -7 236.904 30.1311   1
   3  -6  -7 203.497 26.6697   8
  -3   6  -7 212.314 29.7830   8
   3   6   7 256.035 30.0180   7
  -3  -6   7 255.010 30.8096   1
  -3   6  -7 218.357 27.4498   1
   5  -6   7 90.1264 21.8758   3
   5  -6   7 85.8123 18.6141   2
  -5   6   7 82.5589 18.9844   1
  -5  -6  -7 60.6814 18.5409   8
  -5   6   7 89.0645 19.6366   7
   5  -6   7 86.2443 20.1083   6
   5   6  -7 58.8417 19.1852   8
   5   6  -7 66.8629 20.3407   1
  -5  -6  -7 48.3865 17.3834   1
   5  -6  -7 67.8909 16.0264   8
   5  -6  -7 76.2033 18.9950   2
  -5  -6   7 71.5862 20.2913   1
   5   6   7 90.7208 21.0094   7
   5   6   7 80.7282 19.3713   1
  -5   6  -7 70.9511 18.2809   1
  -7  -6  -7 184.787 28.8121   8
   7  -6   7 258.947 30.2237   3
  -7   6   7 242.169 27.7864   7
   7   6  -7 234.693 32.5906   1
   7  -6   7 261.069 27.3581   2
   7   6  -7 204.082 29.6741   8
   7  -6   7 230.374 29.9099   6
  -7   6   7 240.048 27.7044   1
  -7  -6   7 263.634 32.6093   1
  -7   6  -7 199.261 27.1273   1
   7   6   7 280.587 30.4337   7
   7  -6  -7 190.439 26.6616   2
   0   0   8 195.823 18.0232   2
   0   0   8 201.371 15.7662   6
   0   0   8 184.208 17.2991   1
   0   0  -8 184.306 17.8657   1
   0   0  -8 174.914 17.6824   8
   2   0  -8 779.480 43.4902   8
   2   0   8 654.552 40.4279   7
  -2   0  -8 766.524 43.3787   8
   2   0   8 621.112 36.7309   6
   2   0   8 662.481 40.3447   1
   2   0   8 624.256 39.5067   2
   2   0  -8 763.778 42.7312   1
  -2   0   8 648.678 36.2362   6
  -2   0   8 604.727 40.0963   1
  -2   0  -8 732.499 41.7520   1
   4   0  -8 1118.72 61.0802   1
   4   0   8 1072.41 55.7735   6
  -4   0   8 1092.51 60.3588   1
   4   0  -8 1184.99 61.5260   2
  -4   0   8 1072.77 53.8701   6
  -4   0  -8 1057.27 59.8650   1
  -4   0  -8 1104.83 62.1112   8
   4   0  -8 1129.35 62.3699   8
  -4   0  -8 1098.99 58.4815   9
   4   0   8 1097.78 59.1700   2
   4   0   8 1142.55 59.6445   1
   4   0   8 1108.22 59.3199   7
   6   0   8 55.4228 10.3958   2
  -6   0   8 46.5176 10.4734   1
   6   0   8 53.7784 10.4216   7
   6   0   8 55.4520 11.1856   6
   8   0  -8 315.697 26.1691   2
   8   0   8 318.677 25.8191   6
   8   0   8 334.096 24.8648   2
  -8   0  -8 323.831 25.2998   1
   8   0  -8 339.033 25.1411   8
  -8   0   8 322.186 26.0980   1
  -8   0  -8 361.211 25.1363   9
  -8   0   8 349.668 24.8472   9
 -10   0   8 416.465 29.6297   9
  10   0  -8 486.565 33.1301   2
 -10   0  -8 483.015 30.8253   9
  10   0   8 399.544 29.4259   2
 -10   0   8 413.404 31.6815   1
  10   0   8 370.816 30.8221   6
 -10   0  -8 464.679 30.8434   1
  12   0   8 86.8971 15.5881   6
  12   0   8 71.4313 12.7834   2
 -12   0   8 90.6036 13.7846   9
 -12   0  -8 83.9653 13.6311   9
  12   0  -8 90.3681 14.9319   2
 -12   0  -8 83.9098 13.7602   1
 -12   0   8 76.4592 14.8633   1
  14   0   8 4.62514 6.65912   2
  14   0   8 6.82714 9.30703   6
 -14   0   8 3.40911 6.69409   9
  14   0  -8 12.7248 8.29149   2
 -14   0  -8 18.0398 8.58495   9
 -14   0   8 2.40423 8.38135   1
   1   1  -8 312.117 25.6792   8
  -1   1   8 355.741 25.3934   7
  -1   1   8 362.054 20.7399   6
   1  -1   8 356.057 25.3595   1
   1  -1   8 354.655 23.9303   6
  -1  -1  -8 302.237 24.9262   1
   1  -1   8 360.634 25.2643   2
  -1   1   8 352.164 24.9801   1
  -1  -1  -8 294.088 25.0389   8
   1   1  -8 312.515 25.3750   1
   1   1   8 343.594 24.8645   1
   1   1   8 356.125 25.0408   2
   1  -1  -8 305.196 25.0717   1
   1   1   8 360.324 21.5082   6
  -1   1  -8 314.824 24.7598   1
  -1  -1   8 375.921 25.8975   1
  -1  -1   8 364.173 24.2278   6
   1  -1  -8 317.255 25.4971   8
   1   1   8 364.162 25.6107   7
  -1   1  -8 297.897 25.5243   8
  -3  -1  -8 614.879 39.9899   8
   3   1  -8 588.344 39.7792   8
   3  -1   8 679.020 38.7394   2
   3   1  -8 587.819 39.1403   1
   3  -1   8 652.779 38.0306   7
  -3   1   8 641.619 39.0658   1
  -3  -1  -8 568.994 38.2428   1
   3  -1   8 674.420 37.3922   6
   3  -1   8 679.686 38.5325   1
   3   1   8 697.459 39.1791   2
   3   1   8 661.492 39.0563   7
  -3   1  -8 589.517 39.8058   8
  -3   1  -8 576.562 38.1343   1
  -3  -1   8 646.123 39.5201   1
   3   1   8 658.348 34.9672   6
   3  -1  -8 596.343 39.4180   8
   3  -1  -8 597.977 38.3676   2
   3   1   8 646.002 38.3927   1
  -3   1  -8 603.997 37.3947   9
  -3  -1   8 645.662 36.6703   6
   3  -1  -8 576.563 38.3551   1
   5  -1   8 1985.90 93.2202   7
   5   1  -8 1924.34 96.5773   1
   5   1  -8 1808.25 98.0242   8
   5  -1   8 1994.07 94.1139   2
  -5   1   8 1881.62 95.3218   1
  -5  -1  -8 1808.42 95.0171   1
   5   1  -8 1806.85 95.4751   2
  -5  -1  -8 1812.02 98.4425   8
  -5  -1  -8 1782.06 92.5915   9
   5  -1   8 1877.79 89.9385   6
   5   1   8 1972.81 94.7103   2
  -5  -1   8 1923.04 96.3031   1
   5   1   8 1970.03 88.6387   6
  -5   1  -8 1740.38 94.1871   1
  -5   1  -8 1805.27 91.4830   9
   5  -1  -8 1840.37 97.5049   8
   5   1   8 2001.27 95.4358   7
   5  -1  -8 1889.42 95.6773   1
   5  -1  -8 1842.25 94.6891   2
  -5   1  -8 1841.20 98.1960   8
  -7   1   8 470.646 29.6969   9
   7  -1   8 483.172 31.9024   6
  -7  -1  -8 435.801 30.8307   9
  -7   1   8 454.713 31.3035   1
   7   1  -8 395.229 30.4705   8
  -7  -1  -8 430.427 32.0519   8
   7   1  -8 425.304 31.4398   2
   7  -1   8 470.037 30.2218   2
  -7  -1  -8 424.361 30.9635   1
   7  -1  -8 463.872 31.7862   2
   7  -1  -8 428.060 29.9208   8
  -7   1  -8 401.128 29.6023   1
  -7   1  -8 430.510 29.2456   9
   7   1   8 472.332 30.1239   6
   7   1   8 460.599 30.6334   2
  -7  -1   8 460.448 32.1554   1
  -9  -1  -8 631.020 41.1058   9
  -9   1   8 704.294 40.2952   9
   9  -1   8 669.453 39.6639   2
   9   1  -8 649.680 40.8747   8
   9   1  -8 628.816 41.8002   2
   9  -1   8 678.817 42.0068   6
  -9  -1  -8 616.659 40.9973   1
  -9   1   8 702.888 42.1479   1
   9  -1  -8 680.256 40.1175   8
  -9  -1   8 699.466 42.9949   1
   9   1   8 688.156 41.4806   2
  -9   1  -8 640.787 39.2729   9
   9  -1  -8 641.139 41.6495   2
  -9   1  -8 593.295 39.2970   1
   9   1   8 638.786 39.9674   6
  11   1  -8 116.499 16.3711   2
  11  -1   8 71.3252 15.1527   6
 -11   1   8 93.3702 15.2335   1
 -11  -1  -8 134.490 16.7487   1
 -11   1   8 105.813 14.5763   9
  11  -1   8 88.7292 13.3644   2
 -11  -1  -8 132.460 17.0855   9
 -11   1  -8 120.413 14.6733   1
 -11  -1   8 90.9224 16.2450   1
  11   1   8 86.0234 15.6886   6
  11   1   8 100.004 15.0115   2
 -11   1  -8 130.591 15.0537   9
  11  -1  -8 133.457 16.8586   2
 -11  -1   8 92.8167 14.8571   9
  13  -1   8 821.956 53.2497   6
 -13  -1  -8 846.974 52.5263   9
 -13   1   8 930.248 52.9427   1
  13  -1   8 878.261 49.3585   2
 -13   1   8 880.390 50.4542   9
  13   1  -8 788.777 52.5323   2
 -13  -1  -8 847.184 50.8734   1
  13   1   8 826.568 52.9753   6
 -13  -1   8 862.300 54.8810   1
  13  -1  -8 861.452 52.4049   2
 -13  -1   8 878.452 51.7243   9
  13   1   8 851.646 51.8210   2
 -13   1  -8 841.601 49.1230   9
   0  -2  -8 448.698 31.1068   8
   0  -2   8 410.050 29.3568   2
   0   2  -8 401.874 29.9414   1
   0   2   8 406.952 29.4624   7
   0   2  -8 424.616 30.6295   8
   0  -2   8 410.276 29.1409   1
   0  -2  -8 423.456 30.2232   1
   0  -2   8 417.248 29.1129   6
   0   2   8 404.254 29.5698   1
   2   2  -8 1856.33 90.3672   1
   2  -2   8 1618.22 87.2850   2
  -2   2   8 1527.10 87.5404   1
  -2  -2  -8 1919.20 93.5618   8
  -2   2   8 1561.33 87.6358   7
   2  -2   8 1562.76 83.2205   6
   2  -2   8 1635.96 87.2578   1
  -2  -2  -8 1884.46 90.8325   1
   2   2  -8 1877.55 93.1303   8
  -2  -2   8 1578.05 87.7942   1
  -2  -2   8 1586.88 83.8903   6
   2  -2  -8 1868.43 90.0253   1
   2   2   8 1531.42 87.5705   7
  -2   2  -8 1853.14 89.7691   1
   2  -2  -8 1821.78 88.7467   2
  -2   2  -8 1937.90 93.1163   8
   2   2   8 1635.28 88.4029   1
   2   2   8 1622.96 78.2967   6
   2  -2  -8 1897.61 92.5800   8
  -4  -2  -8 928.500 55.4923   1
  -4   2   8 934.478 54.8469   7
   4  -2   8 918.749 52.6066   6
   4   2  -8 959.541 56.0426   1
  -4  -2  -8 1010.94 57.9955   8
   4   2  -8 954.211 57.5038   8
   4  -2   8 983.107 54.3180   2
  -4   2   8 927.513 54.6618   1
   4   2   8 1003.41 56.3627   7
  -4   2  -8 980.123 56.8356   8
  -4  -2   8 931.641 55.3472   1
  -4   2  -8 977.589 54.8438   1
   4  -2  -8 924.595 55.6017   8
   4   2   8 967.991 54.9217   2
   4   2   8 1007.26 55.6709   1
   4   2   8 986.992 49.4904   6
  -4   2  -8 977.208 53.1605   9
   4  -2  -8 1017.07 55.9436   1
   4  -2  -8 975.527 54.9648   2
  -6   2   8 671.597 43.7620   9
  -6  -2  -8 898.286 50.9879   8
   6  -2   8 676.130 44.1641   2
   6  -2   8 701.386 45.2152   6
   6   2  -8 850.386 49.6450   1
   6   2  -8 894.104 50.3394   8
   6   2  -8 841.102 48.7452   2
  -6  -2  -8 843.001 48.3591   1
  -6   2   8 685.036 45.7382   7
   6   2   8 710.086 42.2580   6
   6  -2  -8 873.370 47.6744   2
   6  -2  -8 829.443 47.5920   8
  -6  -2   8 670.958 46.6022   1
   6   2   8 670.721 46.7341   7
  -6   2  -8 835.920 46.5110   1
  -6   2  -8 892.372 45.5770   9
   6   2   8 670.543 45.5345   2
  -8  -2  -8 488.846 36.6096   8
   8  -2   8 471.207 34.8224   6
  -8   2   8 545.546 33.8355   9
   8   2  -8 519.332 35.5983   8
   8  -2   8 472.815 32.6509   2
  -8  -2  -8 488.863 35.3473   1
  -8   2   8 473.701 34.3260   1
  -8  -2  -8 528.421 36.8368   9
   8   2  -8 504.356 36.3969   2
   8  -2  -8 512.965 34.5825   2
   8  -2  -8 536.593 33.5945   8
   8   2   8 515.735 35.8079   2
  -8  -2   8 486.619 36.1824   1
  -8   2  -8 502.067 33.4369   1
   8   2   8 506.630 33.6708   6
  -8   2  -8 498.970 32.4292   9
 -10  -2  -8 1129.61 59.8699   1
  10  -2   8 907.220 57.1163   6
  10   2  -8 1077.37 58.5944   8
 -10   2   8 947.434 56.9974   1
  10   2  -8 1068.05 60.7827   2
 -10  -2  -8 1091.18 61.0535   9
 -10   2   8 905.321 54.6802   9
  10  -2   8 869.390 53.7757   2
  10   2   8 919.801 57.4691   2
 -10   2  -8 1065.96 54.4850   9
  10  -2  -8 1040.84 57.5766   2
 -10  -2   8 899.236 59.2298   1
  10   2   8 871.149 54.7669   6
 -10   2  -8 1092.14 56.2933   1
 -12   2   8 347.279 26.1968   9
 -12   2   8 320.077 27.2554   1
 -12  -2  -8 338.667 28.9293   1
 -12  -2  -8 361.484 31.3054   9
  12  -2   8 314.376 25.0369   2
  12  -2   8 312.348 29.6930   6
  12   2  -8 356.100 30.5776   2
  12   2   8 315.596 28.1811   2
 -12  -2   8 312.322 30.1203   1
  12  -2  -8 342.042 27.7218   2
 -12   2  -8 340.399 25.0735   9
 -12   2  -8 369.871 27.7516   1
  12   2   8 318.737 28.8493   6
   1   3  -8 433.015 33.3204   8
   1  -3   8 447.052 31.7310   2
   1  -3   8 435.505 32.4171   6
   1   3  -8 388.993 31.2107   1
  -1   3   8 449.479 31.9010   1
   1  -3   8 470.476 32.5128   1
  -1   3   8 424.461 31.5316   7
  -1  -3  -8 457.623 33.5482   8
  -1  -3  -8 421.492 31.9443   1
   1   3   8 417.330 31.7503   7
   1  -3  -8 420.074 32.3011   8
   1  -3  -8 430.160 32.2366   1
   1   3   8 453.703 32.1735   1
  -1   3  -8 406.556 31.2267   1
  -1  -3   8 424.162 32.5506   6
  -1  -3   8 458.525 32.4726   1
  -1   3  -8 434.278 32.9942   8
   3  -3   8 648.936 42.0405   6
  -3  -3  -8 632.189 42.9041   1
   3   3  -8 664.049 43.8800   1
  -3   3   8 694.902 42.8967   7
  -3  -3  -8 617.651 43.8022   8
  -3   3   8 674.684 42.2212   1
   3   3  -8 643.470 44.4555   8
   3  -3   8 697.377 41.9872   2
   3  -3  -8 639.422 42.1392   1
   3  -3  -8 665.893 43.1563   8
   3  -3  -8 621.117 41.7697   2
  -3  -3   8 664.482 43.1536   1
  -3   3  -8 623.435 41.3772   1
   3   3   8 667.186 42.9827   7
   3   3   8 684.798 42.8310   1
  -3   3  -8 669.958 44.0025   8
   5  -3   8 1434.83 76.4213   2
   5  -3   8 1515.12 76.5723   6
  -5   3   8 1440.47 77.5016   7
   5   3  -8 1405.01 80.3060   1
  -5  -3  -8 1319.56 78.4353   1
  -5  -3  -8 1421.40 81.9024   8
  -5   3   8 1461.34 78.1287   1
   5   3  -8 1340.85 80.7522   8
   5   3   8 1505.37 78.4556   1
  -5   3  -8 1444.93 74.8421   9
  -5   3  -8 1523.89 82.4588   8
   5   3   8 1515.10 80.8751   7
  -5   3  -8 1413.06 76.8346   1
   5  -3  -8 1426.61 79.2604   8
  -5  -3   8 1455.44 80.0235   1
   5  -3  -8 1377.16 77.1250   2
   5   3   8 1491.96 70.1221   6
  -7   3   8 553.187 38.0728   7
   7  -3   8 561.815 36.7260   2
   7   3  -8 557.330 41.9249   1
  -7   3   8 546.020 37.6330   1
  -7   3   8 565.083 36.0349   9
   7   3  -8 577.531 40.2607   8
   7  -3   8 565.398 39.5797   6
  -7  -3  -8 558.318 41.2266   8
  -7  -3  -8 519.859 39.1560   1
   7  -3  -8 571.913 37.6487   8
  -7  -3   8 550.103 40.0769   1
   7  -3  -8 546.818 37.9593   2
   7   3   8 580.200 35.6240   6
  -7   3  -8 567.907 36.0827   9
   7   3   8 585.483 41.9448   7
  -7   3  -8 541.683 36.8710   1
   7   3   8 583.589 39.7738   2
   9   3  -8 526.873 39.5144   8
  -9   3   8 613.281 38.7799   1
  -9  -3  -8 509.806 39.6472   1
   9  -3   8 555.302 40.0950   6
   9   3  -8 519.273 42.2212   2
  -9   3   8 557.497 36.6945   9
   9  -3   8 584.254 36.8614   2
  -9   3   8 640.418 40.0147   7
  -9   3  -8 535.643 35.4578   9
   9   3   8 601.415 41.0959   2
  -9   3  -8 527.439 36.6017   1
   9  -3  -8 504.533 37.5924   2
  -9  -3   8 591.832 42.5430   1
   9   3   8 585.212 38.0846   6
 -11   3   8 284.732 26.6458   1
  11  -3   8 276.323 24.0092   2
 -11   3   8 283.202 25.2431   9
  11  -3   8 272.103 28.6568   6
  11   3  -8 351.155 32.1159   2
  11   3  -8 344.793 27.7963   8
 -11  -3  -8 330.391 29.8690   1
 -11  -3   8 266.015 29.4536   1
 -11   3  -8 341.132 26.0995   1
  11  -3  -8 354.650 28.2746   2
  11   3   8 269.268 26.7096   6
 -11   3  -8 344.280 25.2295   9
  11   3   8 281.407 28.0456   2
   0   4  -8 110.024 17.8580   8
   0  -4   8 125.595 19.4342   6
   0   4   8 122.775 17.3417   1
   0  -4  -8 118.628 17.8411   1
   0  -4   8 113.955 17.9768   1
   0  -4  -8 119.885 17.8329   8
   0   4   8 110.035 16.9946   7
   0   4  -8 109.048 17.0848   1
   2  -4   8 559.527 42.6743   6
  -2  -4  -8 696.549 45.2362   1
  -2   4   8 515.552 40.2595   1
  -2  -4  -8 714.792 46.0655   8
  -2   4   8 530.723 40.7633   7
   2   4  -8 682.882 45.8521   8
   2   4  -8 668.210 44.7463   1
   2  -4   8 558.643 41.3146   2
  -2   4  -8 663.294 42.9718   1
   2  -4  -8 686.618 44.6858   8
   2  -4  -8 712.951 44.2123   1
  -2  -4   8 597.095 43.2120   1
  -2   4  -8 681.925 45.4584   8
   2   4   8 528.246 41.7396   7
   2   4   8 545.109 41.2668   1
  -4  -4  -8 654.334 46.4979   1
  -4   4   8 654.997 44.1857   1
   4  -4   8 698.142 44.4458   2
   4   4  -8 642.010 46.7104   1
  -4  -4  -8 640.571 46.8963   8
  -4   4   8 641.733 43.9031   7
   4   4  -8 661.394 46.9552   8
   4  -4   8 651.791 44.8627   6
   4  -4  -8 671.465 44.3940   2
   4  -4  -8 685.661 45.9295   8
  -4   4  -8 649.746 45.9357   8
   4   4   8 696.173 45.6057   1
   4   4   8 681.534 47.2347   7
  -4   4  -8 659.372 44.1307   1
  -4  -4   8 684.568 46.7485   1
   6   4  -8 197.539 23.9977   8
  -6  -4  -8 210.373 24.7273   8
  -6  -4  -8 196.379 24.0534   1
   6   4  -8 216.744 26.1382   1
  -6   4  -8 205.342 21.5796   1
   6  -4  -8 199.333 22.2649   2
   6  -4  -8 229.025 22.7475   8
   6   4   8 137.018 22.3525   7
  -6   4  -8 197.814 20.0140   9
   8  -4   8 240.555 26.8616   6
   8  -4   8 223.886 22.4291   2
  -8  -4  -8 237.537 27.1371   1
  -8   4   8 246.226 24.7116   1
   8   4  -8 258.276 26.8858   8
  -8   4   8 255.219 25.2410   7
  -8  -4  -8 230.591 27.4592   8
  -8  -4   8 246.948 27.5789   1
   8  -4  -8 265.284 25.1774   2
  -8   4  -8 240.988 22.5989   9
  -8   4  -8 259.352 24.8185   1
   8   4   8 242.750 22.9906   6
 -10   4   8 397.628 31.0904   9
  10  -4   8 349.903 34.4422   6
  10  -4   8 356.557 29.4018   2
 -10   4   8 339.836 30.7461   1
 -10  -4  -8 445.236 37.8282   1
  10   4  -8 479.257 36.6871   8
 -10   4  -8 438.320 30.3518   9
  10  -4  -8 462.944 33.7890   2
 -10   4  -8 457.291 32.6265   1
 -10  -4   8 335.678 34.9468   1
  10   4   8 350.965 33.7710   2
  10   4   8 376.316 31.6536   6
   1   5  -8 221.676 26.8173   1
  -1   5   8 278.272 27.2276   1
   1   5  -8 210.971 26.9278   8
  -1   5   8 248.824 26.5368   7
  -1  -5  -8 225.192 27.0461   1
   1  -5   8 275.108 29.5902   6
  -1  -5  -8 207.401 26.4440   8
  -1  -5   8 246.150 28.1836   6
  -1  -5   8 276.225 28.2567   1
   1   5   8 299.256 29.0594   7
  -1   5  -8 218.295 26.0674   1
   1  -5  -8 201.087 25.7722   8
   1  -5  -8 232.506 26.6817   1
   1   5   8 268.409 27.4869   1
  -1   5  -8 229.937 27.2546   8
  -3  -5  -8 339.203 34.6212   1
  -3   5   8 433.444 34.9041   1
   3  -5   8 438.076 34.7942   2
  -3   5   8 418.247 33.8367   7
   3   5  -8 353.366 35.6872   8
   3   5  -8 342.673 34.9779   1
   3  -5   8 396.688 35.7102   6
  -3  -5  -8 329.060 34.1539   8
   3   5   8 428.411 35.7985   1
  -3   5  -8 343.933 32.9449   1
  -3   5  -8 376.487 35.2130   8
   3  -5  -8 344.220 33.2121   8
   3   5   8 454.626 37.1544   7
  -3  -5   8 471.707 37.3542   1
   5  -5   8 1275.14 75.0310   3
  -5   5   8 1286.78 73.3466   7
   5   5  -8 1141.65 75.7348   1
  -5  -5  -8 1129.31 75.4035   1
  -5   5   8 1237.72 72.2230   1
   5   5  -8 1119.25 76.0938   8
   5  -5   8 1318.94 72.8840   2
   5  -5   8 1212.53 72.3648   6
  -5  -5  -8 1085.94 75.8158   8
  -5  -5   8 1293.91 76.2976   1
   5  -5  -8 1197.74 72.6450   2
   5  -5  -8 1157.31 72.4051   8
   5   5   8 1360.42 75.6665   1
   5   5   8 1248.06 75.9852   7
   5  -5  -8 1199.67 72.8175   2
  -5   5  -8 1180.57 72.4089   1
  -7  -5  -8 246.896 31.2034   1
   7  -5   8 303.293 31.7716   6
   7  -5   8 320.352 28.6658   2
   7  -5   8 317.250 31.9088   3
   7   5  -8 268.690 32.4688   1
   7   5  -8 236.812 29.8735   8
  -7  -5  -8 250.579 31.0427   8
  -7   5   8 313.375 28.9439   1
  -7   5   8 315.516 29.7944   7
   7  -5  -8 262.102 28.0489   2
  -7  -5   8 304.884 32.2687   1
  -7   5  -8 283.442 26.7381   9
   7  -5  -8 276.284 28.5401   2
  -7   5  -8 252.116 28.0434   1
   7   5   8 305.648 31.8689   7
   9  -5   8 521.184 37.7349   2
  -9   5   8 547.947 40.1921   1
  -9  -5  -8 481.039 44.6808   8
  -9  -5  -8 471.318 43.8644   1
   9   5  -8 480.409 42.2249   8
   9  -5   8 513.876 42.6765   6
  -9   5   8 548.867 40.4769   7
   9  -5  -8 480.690 39.1855   2
  -9   5  -8 494.610 39.9187   1
  -9  -5   8 506.917 44.4106   1
   9  -5  -8 481.113 39.2559   2
  -9   5  -8 495.370 36.7658   9
   0   6   8 95.0543 21.0118   7
   0  -6  -8 105.558 22.9611   1
   0  -6  -8 95.5720 20.8663   8
   0   6  -8 98.3165 21.3788   1
   0   6  -8 82.4720 20.7360   8
   0   6   8 103.260 21.4356   1
   0  -6   8 83.8490 20.1553   6
   2   6  -8 557.428 45.5164   1
  -2  -6  -8 598.251 47.1084   1
   2  -6   8 426.006 41.1465   6
  -2   6   8 414.134 39.8853   1
  -2  -6  -8 531.582 44.5943   8
   2   6  -8 561.037 47.2517   8
  -2   6   8 407.429 39.9966   7
   2   6   8 450.569 42.7564   7
   2   6   8 429.844 40.7561   1
  -2   6  -8 594.178 47.4762   8
  -2  -6   8 472.985 43.0508   1
   2  -6  -8 545.994 43.4281   8
  -2   6  -8 554.879 44.1429   1
  -2  -6   8 408.254 38.5595   6
   4  -6   8 422.392 37.6444   2
  -4  -6  -8 425.849 42.0561   1
   4  -6   8 420.180 38.7747   3
  -4   6   8 429.003 38.8939   7
  -4   6   8 406.705 38.2291   1
   4   6  -8 439.242 41.9440   1
   4  -6   8 393.792 38.6792   6
   4   6  -8 389.153 41.1856   8
  -4  -6  -8 413.237 40.6430   8
  -4  -6   8 417.465 40.3369   1
   4   6   8 444.880 40.9572   7
   4  -6  -8 440.446 38.6658   8
   4   6   8 444.070 40.0209   1
  -4   6  -8 422.035 38.8960   1
   1   0  -9 204.037 20.7945   8
   1   0   9 245.130 18.9802   6
  -1   0   9 239.208 21.2314   1
   1   0  -9 219.110 21.3793   1
  -1   0  -9 206.813 20.7074   1
  -1   0   9 246.561 18.3173   6
   1   0   9 237.534 20.7901   7
   1   0   9 262.331 21.7854   1
  -1   0  -9 192.635 20.2382   8
   3   0   9 36.3321 9.62572   2
   3   0   9 42.5557 10.4649   1
   3   0  -9 36.7654 10.1079   8
   3   0   9 33.5437 9.65687   7
  -3   0   9 37.6243 10.2966   1
  -3   0  -9 40.6479 10.3149   1
  -3   0   9 51.8058 9.76512   6
   3   0   9 33.6216 8.96934   6
   3   0  -9 41.3143 11.0611   1
  -3   0  -9 45.6980 11.4266   8
   5   0  -9 46.3510 11.2208   8
   5   0   9 31.3193 9.64897   6
   5   0  -9 64.3639 13.4102   1
   5   0  -9 58.8088 12.4774   2
   5   0   9 33.8586 9.35554   2
   5   0   9 34.8253 9.87648   7
  -5   0  -9 53.7003 12.3234   8
  -5   0   9 19.3418 8.24920   1
   7   0  -9 249.353 23.4351   2
   7   0   9 235.177 21.5820   6
  -7   0  -9 246.578 22.3397   1
  -7   0  -9 247.278 21.9808   9
   7   0  -9 257.205 22.2595   8
   7   0   9 217.982 20.9007   2
  -7   0   9 214.999 21.7663   1
   9   0   9 526.506 36.3701   6
  -9   0  -9 532.202 36.0783   9
  -9   0   9 571.671 38.4316   1
  -9   0  -9 504.199 35.8270   1
   9   0  -9 514.271 37.7458   2
   9   0  -9 524.134 35.6595   8
   9   0   9 562.305 36.2638   2
  11   0  -9 94.0777 16.5391   2
  11   0   9 100.437 14.7035   2
 -11   0  -9 91.0174 15.0389   1
  11   0   9 98.3702 16.9493   6
 -11   0   9 108.142 16.8832   1
 -11   0  -9 87.3064 14.6411   9
   0  -1   9 237.317 20.2136   1
   0   1  -9 141.575 18.1198   8
   0  -1  -9 153.340 18.2484   1
   0   1  -9 146.260 18.1573   1
   0  -1   9 241.223 19.2074   6
   0   1   9 221.700 15.8568   6
   0   1   9 209.492 19.5451   7
   0  -1  -9 142.407 17.9506   8
   2  -1   9 2679.02 131.180   2
   2  -1   9 2544.62 122.719   6
   2   1  -9 2793.35 138.249   8
   2  -1   9 2734.50 132.085   1
  -2  -1  -9 2815.94 138.154   8
  -2   1   9 2523.98 132.086   1
   2   1  -9 2755.95 133.657   1
  -2   1   9 2544.96 132.008   7
  -2  -1  -9 2661.62 133.267   1
   2   1   9 2660.84 132.135   1
   2  -1  -9 2755.83 133.323   1
   2   1   9 2715.56 120.630   6
   2  -1  -9 2751.44 137.709   8
  -2   1  -9 2727.36 132.678   1
  -2  -1   9 2622.64 132.643   1
  -2   1  -9 2864.65 138.430   8
   2   1   9 2622.09 131.916   7
  -2  -1   9 2651.87 122.711   6
   4  -1   9 40.4069 10.3341   2
  -4   1   9 41.6440 10.8087   1
   4  -1   9 46.7466 10.7840   7
   4  -1   9 42.0327 10.7001   6
  -4  -1   9 43.1452 11.2646   1
   4   1   9 54.1164 11.4835   7
   4   1   9 56.6042 12.1818   1
   4   1   9 46.7936 9.93896   6
  -4  -1   9 50.4812 11.3412   6
   4   1   9 48.1754 11.0555   2
  -6   1   9 2916.78 153.692   1
   6  -1   9 3023.70 144.858   6
   6  -1   9 3033.77 152.152   2
   6   1  -9 3139.17 159.820   8
  -6  -1  -9 3122.49 154.518   1
  -6  -1  -9 3329.44 161.513   8
   6   1  -9 3296.09 156.464   1
   6   1  -9 3131.57 155.223   2
  -6   1  -9 3253.92 154.364   1
   6   1   9 3152.24 154.006   7
   6   1   9 3127.03 143.320   6
   6   1   9 3139.85 153.131   2
  -6   1  -9 3240.20 150.499   9
   6  -1  -9 3233.80 154.628   2
  -6   1  -9 3397.92 160.998   8
  -6  -1   9 3104.30 155.497   1
   6  -1  -9 3295.38 159.269   8
   8  -1   9 5.22724 7.15911   6
  -8  -1  -9 13.9692 8.06465   1
   8   1  -9 18.6523 9.85541   2
  -8   1   9 6.76147 7.21286   1
  -8  -1  -9 16.0285 8.26849   9
   8   1  -9 20.1333 8.73895   8
   8  -1  -9 15.9344 7.84778   8
   8  -1  -9 18.6591 9.22662   2
  -8   1  -9 19.9098 8.33653   9
  -8  -1   9 1.06296 6.71321   1
  -8   1  -9 16.7599 8.18546   1
 -10   1   9 922.896 56.0362   1
  10  -1   9 905.280 53.4213   2
 -10  -1  -9 962.099 55.8799   9
  10   1  -9 967.315 55.0670   8
  10   1  -9 951.041 57.8689   2
  10  -1   9 873.366 55.0609   6
 -10  -1  -9 979.415 56.1058   1
  10   1   9 892.022 54.7864   2
  10   1   9 819.688 52.7049   6
  10  -1  -9 961.211 56.6823   2
 -10  -1   9 906.143 57.1465   1
 -10   1  -9 955.120 54.0465   1
 -10   1  -9 1037.32 54.4921   9
 -12   1   9 15.3084 8.70739   9
  12  -1   9 16.0925 8.10877   2
 -12  -1  -9 19.8579 9.47329   9
 -12   1   9 24.6498 11.0152   1
  12   1  -9 21.2549 10.5169   2
  12  -1   9 16.7740 10.3609   6
 -12  -1  -9 22.6431 10.2060   1
 -12   1  -9 22.8112 9.04336   9
 -12   1  -9 15.9246 8.86428   1
  12   1   9 13.5955 9.93284   6
  12   1   9 25.7607 9.92837   2
  12  -1  -9 18.7874 9.43282   2
 -12  -1   9 16.6160 10.2570   1
   1  -2   9 706.923 42.4520   1
   1   2  -9 596.315 43.3092   8
  -1   2   9 732.301 43.4320   1
   1  -2   9 716.728 41.5625   6
  -1   2   9 701.666 42.7004   7
  -1  -2  -9 593.497 42.6749   8
  -1  -2  -9 574.791 41.7623   1
   1   2  -9 604.657 42.3900   1
   1  -2   9 719.155 43.0324   2
   1  -2  -9 567.812 42.0444   8
   1   2   9 753.791 43.2740   1
  -1  -2   9 717.817 43.0448   1
   1  -2  -9 626.945 42.6714   1
   1   2   9 681.387 42.7645   7
  -1   2  -9 616.839 42.0769   1
  -1  -2   9 717.936 41.6945   6
  -1   2  -9 604.717 43.4370   8
   3  -2   9 552.364 35.2050   2
   3   2  -9 454.526 35.8277   8
   3  -2   9 515.423 34.0413   6
  -3  -2  -9 456.480 35.4253   8
  -3  -2  -9 448.413 34.7111   1
  -3   2   9 477.745 34.4067   7
  -3   2   9 528.863 35.3715   1
   3   2  -9 428.274 34.3030   1
   3   2   9 540.406 30.4226   6
   3   2   9 529.506 35.0509   1
   3  -2  -9 448.731 34.5385   8
   3   2   9 551.558 36.0327   7
   3  -2  -9 492.990 35.4812   1
  -3   2  -9 471.503 34.6303   1
  -3   2  -9 482.257 36.1962   8
  -3  -2   9 533.133 34.9617   6
  -3  -2   9 528.799 35.6919   1
   5   2  -9 162.373 20.4633   1
  -5  -2  -9 164.618 19.6807   1
  -5  -2  -9 165.802 20.3384   8
   5   2  -9 160.774 19.9424   8
  -5   2   9 242.979 21.8690   7
  -5   2   9 239.301 21.3446   1
   5  -2   9 240.184 22.1675   6
  -5   2  -9 185.375 20.9649   8
  -5  -2   9 250.526 23.1164   1
  -5   2  -9 183.875 19.7478   1
   5  -2  -9 156.283 18.7095   8
   5  -2  -9 175.909 19.8196   2
  -5   2  -9 168.048 18.4004   9
   5   2   9 239.755 21.7449   7
  -7  -2  -9 599.527 43.0176   1
  -7   2   9 674.566 43.4000   1
   7  -2   9 654.901 42.4682   6
   7   2  -9 623.085 43.4506   8
   7  -2   9 697.178 42.1202   2
  -7   2   9 657.503 43.1047   7
  -7  -2  -9 643.852 45.3217   8
   7   2   9 676.178 40.0049   6
  -7  -2   9 662.580 44.5198   1
   7   2   9 701.201 44.1294   2
  -7   2  -9 655.267 41.8614   1
   7  -2  -9 633.858 42.4794   2
   7  -2  -9 622.373 41.5622   8
  -7   2  -9 641.744 40.4311   9
   9  -2   9 682.218 43.8868   6
  -9   2   9 717.365 43.9516   1
  -9  -2  -9 551.574 41.9963   1
   9   2  -9 597.108 44.0852   2
   9  -2   9 683.385 41.2583   2
   9   2  -9 558.579 41.4596   8
   9   2   9 730.009 44.5400   2
  -9   2  -9 598.060 39.8586   9
  -9  -2   9 688.622 45.0583   1
   9   2   9 695.314 42.2148   6
  -9   2  -9 583.461 40.2419   1
   9  -2  -9 569.733 41.3587   2
  11  -2   9 546.574 39.8327   6
 -11   2   9 571.541 38.7383   1
  11   2  -9 503.204 38.0523   8
 -11  -2  -9 486.041 37.7545   1
  11  -2   9 537.380 35.4993   2
 -11   2   9 558.728 36.4821   9
  11   2  -9 518.876 40.3351   2
 -11   2  -9 506.913 34.8689   9
 -11   2  -9 483.250 35.1785   1
  11   2   9 499.268 36.9658   6
  11  -2  -9 524.293 37.8700   2
 -11  -2   9 528.560 40.6631   1
  11   2   9 514.720 38.3711   2
   0  -3  -9 210.861 22.3568   1
   0  -3  -9 211.653 22.7273   8
   0   3  -9 217.579 23.0071   8
   0   3  -9 215.722 22.3847   1
   2  -3   9 2566.55 126.414   6
  -2  -3  -9 2811.66 135.341   1
  -2  -3  -9 2767.70 139.742   8
   2   3  -9 2642.85 138.738   8
   2   3  -9 2709.62 134.538   1
  -2   3   9 2532.67 132.705   1
  -2   3   9 2453.02 132.085   7
   2  -3   9 2572.22 131.630   2
   2  -3  -9 2646.67 137.555   8
  -2  -3   9 2554.81 127.442   6
  -2   3  -9 2823.68 139.248   8
   2   3   9 2600.23 133.115   1
   2  -3  -9 2740.18 134.077   1
   2   3   9 2548.50 133.683   7
  -2   3  -9 2737.67 133.557   1
  -2  -3   9 2703.22 134.081   1
   4   3  -9 129.956 18.9410   1
  -4  -3  -9 105.091 16.7943   1
  -4   3   9 129.650 17.4658   1
  -4   3   9 114.579 16.7000   7
  -4  -3  -9 119.898 18.4595   8
   4  -3   9 110.859 16.1848   2
   4  -3   9 107.905 17.3368   6
   4   3  -9 110.707 17.3406   8
   4   3   9 111.309 17.0635   7
  -4   3  -9 112.740 17.8867   8
   4  -3  -9 106.547 16.3402   8
  -4  -3   9 108.811 17.3048   1
   4  -3  -9 130.095 17.6142   2
  -4   3  -9 108.188 16.5101   1
   4   3   9 112.973 17.0317   1
   6  -3   9 2886.51 141.324   6
  -6   3   9 2776.45 147.127   1
   6  -3   9 2889.25 145.329   2
   6   3  -9 3060.60 155.141   8
   6   3  -9 3095.90 152.512   1
  -6  -3  -9 3122.46 155.947   8
  -6  -3  -9 2893.62 149.414   1
  -6   3   9 2863.80 147.034   7
  -6   3  -9 2976.16 146.747   1
  -6   3  -9 3120.65 143.825   9
  -6  -3   9 2925.35 150.162   1
   6  -3  -9 3012.66 151.010   8
   6   3   9 2837.84 134.424   6
   6  -3  -9 3100.07 147.794   2
   6   3   9 3010.94 150.395   7
   8  -3   9 90.8737 17.9669   6
   8  -3   9 117.466 15.7721   2
  -8  -3  -9 74.1447 16.7899   8
  -8   3   9 103.886 16.7552   7
  -8  -3  -9 87.8544 17.1706   1
  -8   3   9 90.2466 15.6164   1
   8   3  -9 84.2852 16.2238   8
   8  -3  -9 83.8906 15.6175   2
  -8  -3   9 104.181 18.4048   1
  -8   3  -9 87.6475 14.3110   9
   8   3   9 103.590 17.4383   2
   8   3   9 103.751 15.7061   6
  -8   3  -9 79.4235 15.0873   1
 -10   3   9 1060.07 64.3942   1
  10  -3   9 1085.72 61.9906   2
  10   3  -9 1109.12 66.3975   8
 -10  -3  -9 1134.54 67.2649   1
  10  -3   9 1052.75 64.6713   6
 -10   3   9 1121.03 65.2144   7
  10  -3  -9 1112.64 64.9598   2
 -10   3  -9 1116.42 61.0728   9
 -10  -3   9 974.535 66.8748   1
  10   3   9 1058.32 66.1196   2
 -10   3  -9 1134.60 62.9899   1
  10   3   9 1091.88 62.0744   6
   1  -4   9 233.586 25.8862   6
   1   4  -9 156.704 22.3533   8
  -1   4   9 238.933 24.1160   7
  -1   4   9 223.576 23.1770   1
  -1  -4  -9 159.405 21.6841   8
   1   4  -9 168.630 22.0806   1
  -1  -4  -9 162.246 21.5069   1
  -1  -4   9 231.824 25.0738   1
   1   4   9 206.059 22.8663   1
  -1  -4   9 220.801 25.3213   6
  -1   4  -9 161.695 21.3880   1
   1  -4  -9 160.298 21.6313   1
   1  -4  -9 149.884 21.1506   8
   1   4   9 211.395 22.9031   7
  -1   4  -9 177.934 22.6097   8
   3  -4   9 92.8296 18.7528   6
  -3   4   9 75.0775 15.5479   1
  -3  -4  -9 73.0016 16.5747   8
   3   4  -9 64.1302 15.8858   1
  -3  -4  -9 67.5308 16.1582   1
   3  -4   9 80.1573 15.4727   2
   3   4  -9 62.4186 16.1524   8
  -3   4   9 76.6252 16.2347   7
   3  -4  -9 55.0517 13.9631   8
  -3  -4   9 73.2285 17.0831   6
  -3   4  -9 64.8594 16.1582   8
  -3   4  -9 64.1012 15.1998   1
   3   4   9 83.5933 17.9336   7
   3   4   9 82.2231 16.3016   1
  -3  -4   9 81.7742 17.8908   1
  -5  -4  -9 0.27661 7.41375   1
   5  -4   9 18.6129 9.34215   2
   5   4  -9 8.17000 9.79822   1
   5   4  -9 3.75689 8.38841   8
  -5   4   9 19.2522 10.0837   1
  -5   4   9 14.3838 9.65671   7
   5  -4   9 27.5212 12.4417   6
  -5  -4  -9 2.83997 8.87630   8
  -5  -4   9 16.5798 10.8072   1
   5  -4  -9 9.20874 8.75838   8
   5   4   9 17.5994 10.0046   1
   5   4   9 14.7376 10.5262   7
  -5   4  -9 5.69960 8.26392   1
   5  -4  -9 4.45382 8.32484   2
   7   4  -9 188.448 24.5882   8
  -7  -4  -9 208.666 26.5473   8
  -7   4   9 221.121 24.5525   7
  -7  -4  -9 216.491 26.0769   1
  -7   4   9 207.070 23.5433   1
   7  -4   9 220.425 22.6980   2
  -7  -4   9 217.711 26.7685   1
   7  -4  -9 210.341 23.9694   2
   7   4   9 232.953 27.2686   7
  -7   4  -9 235.966 23.2279   9
   7  -4  -9 237.107 23.8328   8
  -7   4  -9 205.137 23.3483   1
   9  -4   9 405.942 35.5647   6
  -9  -4  -9 318.955 34.8933   8
   9  -4   9 388.164 30.5176   2
   9   4  -9 342.766 33.6732   8
  -9   4   9 411.402 33.5046   7
  -9   4   9 407.469 32.6430   1
  -9  -4  -9 305.949 32.9473   1
  -9   4  -9 327.816 30.4967   1
   9  -4  -9 344.133 31.4191   2
   9   4   9 392.617 33.2390   6
  -9  -4   9 383.470 36.0438   1
  -9   4  -9 370.010 29.9413   9
   0  -5  -9 78.6866 17.8991   8
   0  -5  -9 92.9127 19.8876   1
   0   5   9 109.550 19.7834   7
   0   5  -9 93.5510 19.4427   8
   0   5   9 116.562 20.1269   1
   0  -5   9 107.222 21.5885   6
   0   5  -9 89.5240 18.9694   1
   2  -5   9 1312.16 81.2208   6
  -2   5   9 1377.32 82.0675   1
  -2  -5  -9 1394.08 84.8391   1
  -2   5   9 1260.12 80.4544   7
   2   5  -9 1456.78 85.6638   1
  -2  -5  -9 1466.76 87.1145   8
   2   5  -9 1395.24 87.5300   8
  -2  -5   9 1461.95 84.8782   1
   2   5   9 1445.61 85.0540   7
  -2   5  -9 1479.13 87.1756   8
  -2   5  -9 1417.67 83.5331   1
   2   5   9 1479.79 84.2514   1
  -2  -5   9 1298.56 80.5454   6
   2  -5  -9 1496.54 86.3348   8
  -4   5   9 69.1087 16.4627   1
  -4  -5  -9 114.378 21.3302   1
   4   5  -9 115.639 21.3357   8
   4   5  -9 124.077 22.7214   1
   4  -5   9 73.6702 17.1198   2
   4  -5   9 49.3975 16.3943   6
  -4   5   9 73.2405 16.7849   7
   4   5   9 67.0936 17.4246   1
  -4  -5   9 72.1609 18.3541   1
   4   5   9 65.9554 18.2970   7
  -4   5  -9 117.472 20.1164   1
   6  -5   9 1799.66 98.5897   2
  -6   5   9 1704.52 98.9318   1
   6   5  -9 1826.81 105.932   1
   6  -5   9 1687.77 98.5556   6
   6   5  -9 1833.16 107.815   8
  -6  -5  -9 1744.84 103.884   1
  -6  -5  -9 1840.33 107.336   8
  -6   5   9 1740.75 100.313   7
   6   5   9 1871.29 104.474   7
  -6   5  -9 1813.47 100.379   1
   6  -5  -9 1919.92 102.167   2
   6  -5  -9 1805.25 100.907   8
   6  -5  -9 1884.32 101.806   2
  -6  -5   9 1737.25 102.802   1
  -1   6   9 188.047 26.4650   7
   1  -6   9 156.899 25.9483   6
  -1  -6  -9 138.550 24.6981   1
   1   6  -9 103.934 24.0195   8
  -1  -6  -9 132.815 24.0221   8
  -1   6   9 162.513 24.8869   1
   1   6  -9 129.914 24.2027   1
   1   6   9 160.866 24.9944   7
   1  -6  -9 134.745 23.4733   8
   1   6   9 186.702 26.4154   1
  -1   6  -9 138.907 25.5506   8
  -1   6  -9 143.251 24.7189   1
  -1  -6   9 147.120 24.3314   6
   0   0  10 1651.31 89.6270   1
   0   0  10 1704.75 81.6035   6
   0   0 -10 1786.47 92.1077   1
   0   0 -10 1776.02 94.1932   8
   0   0  10 1618.67 89.4785   7
  -2   0 -10 924.236 56.9538   1
   2   0 -10 917.906 57.7483   8
  -2   0  10 934.269 56.0321   1
   2   0  10 943.546 55.3377   7
   2   0  10 999.880 56.1714   1
   2   0  10 1027.21 51.6891   6
  -2   0 -10 901.558 57.5329   8
   2   0 -10 907.811 55.9503   1
   4   0  10 751.221 44.1491   6
  -4   0 -10 798.509 48.3606   1
  -4   0 -10 771.032 49.5803   8
   4   0  10 749.242 46.6230   7
   4   0 -10 793.797 49.7254   8
   4   0 -10 808.400 49.4645   1
   4   0  10 689.183 45.7487   2
  -4   0  10 673.576 46.4142   1
   6   0  10 269.648 23.7216   2
   6   0 -10 238.951 23.2920   8
  -6   0  10 257.118 24.2081   1
   6   0  10 245.487 22.7566   6
  -6   0 -10 230.237 22.8778   1
  -6   0 -10 221.178 24.0124   8
  -8   0  10 831.379 54.7978   1
   8   0  10 878.043 52.6054   6
   8   0 -10 927.270 56.2037   2
   8   0 -10 945.946 55.1194   8
  -8   0 -10 947.864 54.6271   1
   8   0  10 822.820 52.5602   2
 -10   0 -10 764.344 47.9414   9
  10   0 -10 753.350 49.8984   2
  10   0  10 726.847 47.4175   6
 -10   0  10 754.036 49.9158   1
  10   0  10 742.254 47.1779   2
 -10   0 -10 724.978 47.2242   1
   1   1 -10 467.570 35.2859   1
  -1   1  10 483.595 35.0222   7
  -1  -1 -10 481.655 35.5696   1
   1  -1  10 496.942 34.9259   1
   1   1 -10 449.173 35.1590   8
  -1  -1 -10 457.796 35.4272   8
  -1   1  10 482.921 34.9076   1
   1  -1  10 485.259 32.1232   6
   1   1  10 490.217 34.5773   7
   1   1  10 520.399 35.4609   1
  -1   1 -10 482.387 35.3496   1
   1  -1 -10 471.326 35.2029   1
   1  -1 -10 450.534 35.2394   8
  -1   1 -10 465.544 35.5585   8
  -1  -1  10 486.384 31.9542   6
  -1  -1  10 485.114 35.1228   1
  -3   1  10 163.903 19.1538   1
   3  -1  10 161.703 18.6374   2
   3  -1  10 157.299 17.8756   6
  -3  -1 -10 141.938 18.6706   8
   3   1 -10 136.759 18.6514   1
   3   1 -10 136.041 18.3738   8
  -3  -1 -10 128.362 18.1143   1
   3  -1  10 151.999 18.0342   7
  -3   1  10 153.352 18.8319   7
  -3  -1  10 142.459 16.8816   6
   3  -1 -10 135.630 18.0091   8
  -3   1 -10 130.667 17.5540   1
   3   1  10 153.056 18.5338   1
   3   1  10 164.970 16.3374   6
  -3  -1  10 155.878 18.8799   1
   3  -1 -10 140.773 18.8499   1
   3   1  10 157.029 18.4582   7
  -3   1 -10 154.554 18.9283   8
   5   1 -10 47.3347 12.1432   8
  -5  -1 -10 53.1857 13.4456   8
   5   1 -10 53.6822 13.4422   1
   5  -1  10 20.1826 9.18927   6
  -5   1  10 20.7344 9.27646   1
  -5  -1 -10 49.4918 12.7702   1
   5  -1  10 24.2780 10.1308   7
   5  -1  10 23.2160 8.78179   2
  -5  -1  10 23.0369 9.14418   6
  -5  -1  10 20.1430 10.0102   1
  -5   1 -10 36.8091 10.6505   1
   5   1  10 17.0722 8.53909   2
   5  -1 -10 42.4779 12.2047   8
   5   1  10 28.9923 10.2895   7
   5   1  10 21.1059 8.59672   6
   7   1 -10 81.2077 15.0477   8
   7  -1  10 108.729 16.7948   6
   7  -1  10 102.674 15.2327   2
  -7  -1 -10 60.0034 14.8538   8
  -7   1  10 101.792 16.3098   1
  -7  -1 -10 70.5756 15.1550   1
  -7   1 -10 62.4163 13.6331   1
   7   1  10 95.2939 14.5878   6
  -7  -1  10 113.035 17.2999   1
   7  -1 -10 77.1050 14.0198   8
   7   1  10 108.908 15.8379   2
   7  -1 -10 83.7269 15.7209   2
   9  -1  10 234.088 24.6299   6
   9  -1  10 235.578 22.9503   2
  -9   1  10 224.562 24.1065   1
  -9  -1 -10 241.828 24.8663   1
   9   1 -10 258.033 26.3214   2
   9   1 -10 264.628 24.1349   8
  -9  -1  10 222.145 24.3076   1
   9   1  10 227.378 22.8555   6
   9  -1 -10 251.100 25.3291   2
  -9   1 -10 249.623 23.3135   1
   9   1  10 209.598 22.8167   2
  -9   1 -10 258.555 23.2744   9
   9  -1 -10 246.499 22.6480   8
  11   1 -10 330.868 31.9177   2
 -11   1  10 399.555 32.7913   1
  11  -1  10 409.251 33.2977   6
  11  -1  10 392.157 30.0062   2
 -11  -1 -10 337.610 31.0254   1
  11   1  10 411.320 32.7465   6
 -11  -1  10 428.228 34.6409   1
 -11   1 -10 325.429 28.9392   1
  11   1  10 403.184 32.0475   2
  11  -1 -10 334.198 31.1135   2
 -11   1 -10 347.294 29.4603   9
   0  -2 -10 510.331 36.5500   8
   0   2 -10 513.856 37.4429   8
   0  -2  10 384.369 31.3623   6
   0  -2  10 449.404 33.9402   1
   0   2  10 423.845 33.4448   1
   0   2 -10 517.715 36.4836   1
   0  -2 -10 498.503 36.2342   1
   0   2  10 400.707 33.2551   7
   2   2 -10 310.994 28.7284   1
  -2   2  10 361.076 28.8361   1
  -2  -2 -10 315.248 29.0760   8
  -2   2  10 383.901 29.6081   7
   2  -2  10 362.189 28.1358   6
   2   2 -10 297.659 29.0845   8
  -2  -2 -10 300.327 28.3025   1
   2   2  10 369.967 29.3819   7
   2   2  10 387.709 29.8926   1
  -2   2 -10 313.341 28.1216   1
  -2  -2  10 393.538 29.0700   6
   2  -2 -10 292.927 27.8015   8
  -2   2 -10 334.969 30.1197   8
  -2  -2  10 396.154 30.2113   1
   2  -2 -10 332.405 29.4323   1
   4  -2  10 72.8890 14.9475   6
  -4  -2 -10 86.8265 15.7778   8
   4   2 -10 94.4743 16.2301   8
   4  -2  10 81.9614 14.2248   7
   4   2 -10 95.9533 16.6803   1
  -4   2  10 64.9596 14.3860   7
   4  -2  10 78.5057 14.6566   2
  -4   2  10 71.0125 14.9495   1
  -4  -2 -10 79.3431 15.3558   1
   4   2  10 74.7739 14.6983   1
  -4  -2  10 88.3353 16.0369   6
   4  -2 -10 76.5843 14.6780   8
  -4  -2  10 66.7635 14.6041   1
  -4   2 -10 95.7247 15.9715   1
   4   2  10 73.6475 15.6755   7
  -4   2 -10 101.752 16.9014   8
   4  -2 -10 94.9258 16.7644   1
   6  -2  10 105.106 15.5773   2
  -6   2  10 97.9630 16.4713   7
  -6  -2 -10 64.0391 14.9221   1
   6   2 -10 78.4933 16.7464   1
  -6  -2 -10 81.1053 16.1461   8
   6   2 -10 64.6812 14.7497   8
  -6   2  10 92.5214 16.1090   1
   6  -2  10 109.426 17.0277   6
  -6  -2  10 114.304 17.6521   1
   6   2  10 95.0016 13.6619   6
   6  -2 -10 74.9544 14.9523   8
   6   2  10 102.114 17.3055   7
   6  -2 -10 78.4069 15.3889   2
  -6   2 -10 65.3660 14.3798   1
   8  -2  10 162.083 19.2832   2
  -8   2  10 149.372 20.4288   7
  -8   2  10 162.076 20.8973   1
   8  -2  10 159.502 21.4513   6
   8   2 -10 212.280 22.7512   8
  -8  -2 -10 206.073 23.1417   1
  -8  -2 -10 216.277 24.0701   8
   8   2  10 160.235 21.2501   2
   8  -2 -10 204.461 22.4030   2
   8  -2 -10 216.192 21.2276   8
   8   2  10 157.618 19.5157   6
  -8   2 -10 202.417 21.5724   1
  -8   2 -10 224.423 21.5143   9
  -8  -2  10 173.131 22.6244   1
 -10  -2 -10 301.186 29.6994   1
  10   2 -10 296.502 27.8783   8
  10  -2  10 348.983 31.5054   6
 -10   2  10 357.785 30.6712   1
  10  -2  10 355.470 28.2686   2
 -10   2  10 353.489 30.8940   7
 -10   2 -10 306.875 27.6091   1
  10   2  10 348.534 30.3583   2
  10   2  10 358.183 29.5494   6
 -10  -2  10 332.422 31.4453   1
 -10   2 -10 314.825 27.2805   9
  10  -2 -10 280.162 28.2990   2
   1  -3  10 180.447 21.9301   6
  -1   3  10 178.238 21.0618   7
  -1  -3 -10 149.255 21.2563   8
  -1  -3 -10 165.599 21.2087   1
   1   3 -10 147.996 20.7582   8
  -1   3  10 196.414 21.8479   1
   1   3 -10 167.313 21.5380   1
   1  -3 -10 150.072 20.6141   8
  -1   3 -10 151.323 20.6969   8
   1   3  10 207.288 22.3116   7
   1  -3 -10 153.447 20.7295   1
  -1  -3  10 196.145 22.4977   6
  -1   3 -10 142.923 20.2635   1
  -1  -3  10 211.646 22.8633   1
   1   3  10 179.662 21.4228   1
   3   3 -10 26.8333 11.4781   1
   3   3 -10 22.7374 10.8404   8
  -3   3  10 50.5704 13.1776   1
   3  -3  10 54.1658 13.8118   6
   3  -3  10 56.9613 13.9038   2
  -3  -3 -10 25.0495 10.5583   1
  -3  -3 -10 24.9496 12.0931   8
  -3   3  10 54.8741 13.5979   7
   3   3  10 43.4491 13.0123   7
  -3  -3  10 53.0788 14.5702   6
  -3   3 -10 20.9617 10.4062   8
   3  -3 -10 16.6188 10.2726   1
   3  -3 -10 28.9801 10.8774   8
   3   3  10 55.6707 14.1931   1
  -3  -3  10 54.2391 13.9149   1
  -3   3 -10 23.8478 10.5653   1
   5   3 -10 36.6446 13.3552   1
  -5  -3 -10 19.4933 10.6237   1
   5  -3  10 29.0109 10.1419   2
   5   3 -10 27.1843 11.7155   8
   5  -3  10 30.9929 11.9824   6
  -5   3  10 26.0587 10.7127   1
  -5  -3 -10 36.5617 12.7939   8
  -5   3  10 27.6668 11.2018   7
  -5   3 -10 20.4715 9.93298   1
   5  -3 -10 31.8129 11.2296   8
  -5  -3  10 26.6717 11.7736   1
   5   3  10 32.9569 13.0783   7
  -7  -3 -10 16.6332 10.7466   1
   7   3 -10 13.1149 9.43397   8
  -7  -3 -10 18.9513 11.2592   8
  -7   3 -10 10.2225 9.07957   1
   7  -3 -10 19.2185 10.7195   2
  -7  -3  10 48.1016 14.5082   1
   7  -3 -10 22.1682 10.1859   8
   9  -3  10 65.6618 14.1127   2
  -9   3  10 74.8513 16.3691   1
   9  -3  10 59.6781 16.0748   6
  -9   3  10 74.3501 16.2577   7
  -9  -3 -10 45.1412 14.3865   1
   9   3 -10 53.3277 14.2524   8
  -9   3 -10 60.4867 13.6089   9
  -9  -3  10 57.8190 16.2506   1
  -9   3 -10 66.4461 14.8890   1
   9   3  10 66.1095 16.2841   2
   9  -3 -10 62.2590 14.9621   2
   9   3  10 77.4930 16.0407   6
   0  -4 -10 914.449 59.9121   8
   0  -4 -10 994.548 59.9961   1
   0   4 -10 929.163 59.0159   1
   0   4 -10 929.487 60.9817   8
   0  -4  10 838.308 57.1494   6
   0   4  10 820.921 56.9463   7
   0   4  10 828.638 56.8218   1
  -2   4  10 509.576 38.8002   1
  -2  -4 -10 435.890 38.3913   1
  -2   4  10 474.934 37.9472   7
   2   4 -10 437.141 39.3638   8
  -2  -4 -10 402.375 37.8566   8
   2   4 -10 456.269 39.1688   1
   2  -4  10 504.358 39.5630   6
  -2   4 -10 464.989 39.3974   8
   2  -4 -10 443.554 37.8186   8
  -2   4 -10 446.559 37.8269   1
   2   4  10 511.049 39.1009   7
  -2  -4  10 547.694 41.0816   1
  -2  -4  10 489.777 39.6738   6
   2  -4 -10 481.695 39.0302   1
   2   4  10 518.257 38.9076   1
   4  -4  10 323.922 30.6178   2
   4   4 -10 379.107 34.4726   1
  -4  -4 -10 387.040 35.3295   8
   4   4 -10 378.505 34.3912   8
  -4   4  10 318.774 30.6640   7
  -4   4  10 335.737 31.4323   1
   4  -4  10 334.522 32.5884   6
  -4  -4 -10 367.281 33.7172   1
   4  -4 -10 372.442 32.4893   8
   4   4  10 345.833 33.1474   7
  -4  -4  10 312.540 32.5485   1
   4   4  10 335.087 31.5623   1
  -4   4 -10 373.252 32.8263   1
  -4  -4  10 330.078 33.2766   6
  -4   4 -10 383.832 34.2910   8
   6  -4  10 112.287 20.3839   6
   6   4 -10 101.069 21.7395   1
  -6   4  10 105.473 18.3611   1
   6  -4  10 113.676 18.2182   2
  -6  -4 -10 88.0076 19.6565   8
  -6   4  10 109.484 18.8030   7
  -6  -4 -10 95.1162 19.0770   1
   6   4 -10 84.3464 18.9609   8
  -6   4 -10 78.2659 17.2998   1
   6   4  10 109.874 21.2285   7
   6  -4 -10 96.9128 17.7808   8
  -6  -4  10 117.226 21.2779   1
   1  -5  10 450.417 40.5685   6
   1   5 -10 449.941 41.6616   8
   1   5 -10 468.982 40.5677   1
  -1  -5 -10 435.984 40.2059   8
  -1  -5 -10 432.040 39.6794   1
  -1   5  10 444.376 38.5843   1
  -1   5 -10 456.331 39.9505   1
  -1   5 -10 409.981 40.3475   8
   1   5  10 437.480 39.6699   7
   1   5  10 467.283 39.3343   1
  -1  -5  10 471.467 41.0857   6
   1  -5 -10 442.511 39.5664   8
  -3   5  10 221.120 26.2623   7
   3   5 -10 189.150 27.3576   1
  -3   5  10 213.253 26.0197   1
  -3  -5 -10 186.587 27.4544   8
   3  -5  10 204.500 27.4368   6
   3   5 -10 193.480 28.1940   8
  -3  -5 -10 215.342 28.2060   1
   3  -5 -10 186.971 25.8252   8
   3   5  10 209.493 27.5363   7
  -3  -5  10 197.301 27.5978   6
  -3   5 -10 191.477 25.6714   1
   3   5  10 198.819 26.0773   1
  -3   5 -10 214.636 28.2910   8
  -3  -5  10 232.292 28.6433   1
   1   0 -11 56.3249 14.1682   1
  -1   0  11 77.7033 14.7915   1
  -1   0  11 79.9908 15.4609   7
  -1   0 -11 46.4310 13.1504   1
   1   0  11 87.4413 15.5411   7
  -1   0 -11 45.3302 13.0378   8
   1   0  11 84.3246 15.3998   1
   1   0  11 94.3406 13.9467   6
   1   0 -11 51.3518 13.7494   8
   3   0 -11 168.012 21.7094   1
  -3   0 -11 163.204 21.6619   8
   3   0 -11 169.257 21.7235   8
   3   0  11 217.273 20.4463   6
  -3   0 -11 165.141 21.0099   1
  -3   0  11 197.632 21.8428   1
   3   0  11 225.681 22.1531   7
   5   0 -11 636.960 47.3484   8
  -5   0  11 778.786 49.3059   1
   5   0  11 787.049 45.1896   6
  -5   0 -11 681.161 49.6290   8
   5   0  11 757.462 47.8810   2
   5   0 -11 723.709 52.1175   1
   5   0  11 823.144 48.0119   7
  -5   0 -11 633.350 47.2780   1
  -7   0  11 174.664 21.8573   1
   7   0  11 167.454 19.9631   6
   7   0 -11 147.256 19.5920   8
   7   0  11 180.878 20.6424   2
  -7   0 -11 147.500 20.5757   1
   9   0 -11 176.821 21.1552   8
   9   0  11 232.042 23.8530   2
   9   0  11 235.239 24.3491   6
  -9   0  11 258.720 26.4319   1
  -9   0 -11 172.983 22.6507   1
   0   1 -11 365.765 32.8192   8
   0  -1 -11 401.810 33.3464   1
   0   1 -11 382.221 32.9733   1
   0  -1  11 440.829 33.3956   1
   0   1  11 429.565 33.1191   7
   0  -1  11 432.120 30.1831   6
   0   1  11 444.945 33.6685   1
   0  -1 -11 356.379 32.3783   8
  -2  -1 -11 1591.11 84.9187   1
   2  -1  11 1501.20 82.9266   1
   2   1 -11 1503.58 86.6424   8
   2  -1  11 1406.89 76.8015   6
   2  -1  11 1434.67 81.9465   7
   2   1 -11 1625.23 86.2334   1
  -2  -1 -11 1582.79 87.4474   8
  -2   1  11 1435.63 83.4425   7
  -2   1  11 1408.15 82.5846   1
  -2   1 -11 1664.28 88.4218   8
   2  -1 -11 1511.85 86.4337   8
   2   1  11 1482.59 83.3449   1
  -2  -1  11 1442.09 75.8157   6
  -2  -1  11 1464.60 83.5725   1
   2  -1 -11 1645.97 86.5352   1
   2   1  11 1429.05 82.6343   7
  -2   1 -11 1564.78 84.8308   1
   4   1 -11 764.090 53.9966   8
   4  -1  11 871.653 50.8334   6
  -4  -1 -11 809.688 55.3579   8
  -4  -1 -11 820.092 54.2302   1
  -4   1  11 892.590 54.8782   7
   4  -1  11 886.802 52.7018   7
   4   1 -11 853.031 55.5451   1
  -4   1  11 858.567 54.2824   1
   4  -1 -11 858.620 54.6499   1
   4  -1 -11 829.669 55.2187   8
  -4   1 -11 821.981 53.4670   1
  -4  -1  11 927.486 56.1444   1
   4   1  11 869.689 53.4269   7
  -4   1 -11 831.384 55.8994   8
   4   1  11 901.926 48.6564   6
  -6  -1 -11 908.848 56.3942   1
   6   1 -11 925.561 57.2723   8
   6  -1  11 825.602 53.9256   2
  -6  -1 -11 961.907 59.0790   8
  -6   1  11 788.589 54.3492   1
   6  -1  11 849.414 52.8823   6
  -6  -1  11 818.350 55.4775   1
   6  -1 -11 914.799 55.7585   8
  -6   1 -11 879.979 54.6675   1
  -6   1 -11 915.276 58.1211   8
   6   1  11 825.303 49.7494   6
   8  -1  11 532.589 38.4578   6
   8  -1  11 510.411 37.2995   2
   8   1 -11 480.813 37.7798   8
  -8  -1 -11 468.549 37.8350   1
  -8   1  11 530.344 39.2345   1
   8   1  11 539.282 36.5698   6
   8  -1 -11 451.737 35.9026   8
  -8   1 -11 445.484 35.9687   1
   8   1  11 522.252 38.0411   2
  -8  -1  11 504.885 38.7328   1
  -1   2  11 89.8300 16.5309   1
   1   2 -11 129.702 19.2747   8
   1  -2  11 72.6735 15.0705   6
   1  -2  11 81.8080 16.1617   1
  -1   2  11 75.7935 16.1508   7
   1   2  11 94.8073 16.5507   1
  -1  -2  11 77.3627 15.6103   6
   1  -2 -11 121.533 18.0864   8
  -1  -2  11 106.552 17.2735   1
   1   2  11 82.0577 16.2466   7
   3   2 -11 46.5257 13.3225   8
   3   2 -11 52.3579 14.0684   1
   3  -2  11 30.8245 11.7730   6
  -3  -2 -11 50.1912 13.5883   8
  -3   2  11 26.7091 11.2119   1
  -3   2  11 26.5969 10.7323   7
   3  -2  11 30.4241 10.8421   7
  -3  -2 -11 65.0027 15.0839   1
   3  -2 -11 57.4465 14.4213   8
   3   2  11 39.0559 12.4781   1
  -3  -2  11 30.8734 11.8321   6
   3  -2 -11 59.6554 14.8660   1
  -3   2 -11 59.0484 14.4020   1
  -3  -2  11 27.6556 11.4245   1
  -3   2 -11 64.1847 16.0220   8
   3   2  11 26.9383 11.1596   7
  -5  -2 -11 94.7655 18.0342   8
   5  -2  11 131.635 18.6214   2
   5   2 -11 91.3433 18.4637   1
  -5   2  11 146.644 19.9742   1
  -5  -2 -11 90.3311 17.7065   1
   5  -2  11 124.524 18.9915   6
  -5   2  11 128.683 18.8270   7
   5   2 -11 88.9911 17.0940   8
  -5  -2  11 126.281 18.3830   6
  -5   2 -11 84.7735 16.6154   1
  -5   2 -11 100.366 18.7081   8
   5  -2 -11 84.1909 16.3253   8
  -7   2  11 61.4846 15.5608   7
   7  -2  11 56.4793 14.7351   6
   7  -2  11 65.3879 15.3156   2
  -7   2  11 47.9194 13.8562   1
  -7  -2  11 63.1179 15.9170   1
   7   2  11 65.2774 13.9458   6
  -9   2  11 17.7543 11.0911   1
  -9   2 -11 20.7202 10.4402   1
  -9  -2  11 9.73731 10.0173   1
   0   3 -11 182.282 24.1125   1
   0   3 -11 202.403 25.6120   8
   0  -3 -11 190.597 24.6527   8
   0   3  11 261.819 26.6355   1
   0  -3  11 234.241 25.4054   6
   0  -3 -11 223.956 25.9723   1
   0  -3  11 249.563 26.1203   1
   0   3  11 231.140 24.9138   7
  -2   3  11 1438.99 86.0241   7
   2   3 -11 1567.03 91.5671   8
  -2  -3 -11 1614.49 88.4668   1
   2  -3  11 1373.50 81.1089   6
  -2   3  11 1443.61 85.8141   1
  -2  -3 -11 1550.52 91.1546   8
   2   3 -11 1592.49 88.8119   1
   2   3  11 1428.54 86.6713   7
   2  -3 -11 1659.34 90.4974   8
  -2   3 -11 1576.70 87.4437   1
   2   3  11 1495.54 86.6907   1
  -2  -3  11 1516.92 87.3583   1
  -2   3 -11 1665.52 92.5058   8
  -2  -3  11 1438.96 82.8085   6
   2  -3 -11 1741.01 90.3788   1
  -4   3  11 398.384 32.8387   1
   4   3 -11 322.749 33.2172   8
  -4  -3 -11 338.646 33.8494   8
   4   3 -11 371.483 34.5876   1
  -4   3  11 387.558 33.3262   7
  -4  -3 -11 362.068 33.5232   1
   4  -3  11 396.021 33.5254   6
  -4   3 -11 329.174 31.4123   1
  -4  -3  11 390.095 33.5934   6
  -4   3 -11 370.669 34.6635   8
  -4  -3  11 411.464 35.1207   1
   4  -3 -11 356.368 32.3511   8
   4   3  11 386.608 33.2225   7
  -6  -3 -11 856.807 56.8712   1
   6  -3  11 797.740 53.4549   2
   6  -3  11 782.782 53.8917   6
  -6   3  11 752.850 53.5385   7
   6   3 -11 907.637 59.0969   1
   6   3 -11 887.867 58.4820   8
  -6  -3 -11 891.717 59.1204   8
  -6   3  11 771.554 54.1257   1
  -6   3 -11 875.680 54.7970   1
  -6  -3  11 774.115 54.3225   6
  -6  -3  11 819.325 56.9720   1
   6   3  11 799.344 56.2796   7
   6  -3 -11 857.786 54.9361   8
   1  -4  11 17.1922 12.0239   6
   1   4 -11 19.5952 11.7695   1
   1   4 -11 15.5757 11.4858   8
  -1   4  11 9.62929 9.68317   1
  -1  -4 -11 17.9180 11.2973   1
  -1  -4 -11 11.9718 11.0064   8
  -1   4  11 14.4144 10.6173   7
   1   4  11 19.6696 11.0035   7
  -1  -4  11 15.0274 11.5168   1
  -1   4 -11 8.56988 10.1830   1
  -1   4 -11 16.7277 11.7076   8
   1  -4 -11 11.9506 9.98451   8
  -1  -4  11 19.4655 12.7220   6
   1   4  11 11.2471 9.95667   1
   1  -4 -11 8.39382 10.2016   1
   3   4 -11 52.6871 16.3189   8
  -3  -4 -11 64.9628 17.3290   1
  -3  -4 -11 65.4899 17.2398   8
  -3   4  11 72.7436 17.2360   7
  -3   4  11 57.8270 15.3021   1
   3   4 -11 55.3906 16.4045   1
   3  -4  11 68.0114 17.1849   6
   3   4  11 64.2053 16.6353   1
  -3  -4  11 71.7297 18.8886   6
  -3   4 -11 53.1220 15.8111   1
  -3  -4  11 71.1590 17.7794   1
   3   4  11 73.5186 18.3794   7
  -3   4 -11 46.1894 15.5577   8
   3  -4 -11 42.6133 14.0660   8
   5   4 -11 324.017 34.2350   1
  -5  -4 -11 278.676 32.6992   8
   5  -4  11 366.744 32.2939   2
   5  -4  11 371.771 34.7332   6
  -5   4  11 356.549 32.4206   7
  -5   4  11 373.999 33.4808   1
   5   4 -11 277.933 32.4951   8
  -5  -4 -11 261.414 31.4556   1
   5   4  11 396.771 35.9897   7
   5  -4 -11 269.563 29.5989   8
  -5   4 -11 283.135 30.9089   1
  -5  -4  11 382.263 36.1696   1
  -5  -4  11 405.469 36.8610   6
   0   0  12 355.630 30.8097   1
   0   0 -12 330.818 30.8027   1
   0   0  12 334.910 30.5475   7
   0   0 -12 315.012 31.1382   8
  -2   0  12 1076.49 65.7007   1
   2   0 -12 1050.91 66.8430   1
  -2   0  12 1107.34 66.2787   7
  -2   0 -12 1063.27 66.2524   1
   2   0  12 1127.80 59.4859   6
   2   0  12 1078.22 65.2195   1
   2   0  12 1125.77 65.3303   7
   2   0 -12 1018.12 67.0311   8
  -2   0 -12 1051.51 68.1841   8
  -4   0 -12 11.8906 9.67943   1
  -4   0 -12 7.92694 9.36285   8
   4   0  12 6.91383 8.81739   7
   4   0  12 10.9428 8.29416   6
   4   0 -12 12.1399 10.2969   1
  -4   0  12 9.85660 9.13151   1
   4   0 -12 21.2458 10.7105   8
   6   0 -12 1200.36 73.7957   8
  -6   0 -12 1197.07 75.4929   8
   6   0  12 1283.25 68.3635   6
  -6   0 -12 1172.86 72.9380   1
  -6   0  12 1279.58 74.4136   1
  -1  -1 -12 89.1654 17.9388   1
  -1   1  12 58.9661 15.1709   1
   1  -1  12 55.4978 15.1613   1
  -1  -1 -12 88.0935 17.0447   8
   1  -1  12 58.1979 14.3287   7
  -1   1  12 44.4646 13.6868   7
   1   1 -12 89.3931 18.2937   1
   1   1 -12 78.4156 16.3936   8
   1  -1  12 56.2497 13.6728   6
   1  -1 -12 100.887 18.9368   1
   1   1  12 69.0811 15.7768   1
   1   1  12 55.8016 14.7714   7
  -1   1 -12 90.9222 17.0605   8
  -1   1 -12 91.8242 18.1258   1
   1  -1 -12 93.0860 17.2425   8
  -1  -1  12 53.9517 13.3205   6
  -1  -1  12 60.8628 15.6358   1
   3   1 -12 219.355 25.4350   1
  -3   1  12 162.544 22.2891   7
   3  -1  12 181.355 21.1293   6
  -3  -1 -12 187.770 23.6324   1
   3  -1  12 181.574 21.9428   7
  -3   1  12 182.471 22.6905   1
  -3  -1 -12 206.002 24.2892   8
   3   1 -12 205.232 24.2124   8
   3   1  12 164.626 21.8491   7
  -3  -1  12 170.061 22.8392   1
   3  -1 -12 213.533 24.6384   1
  -3   1 -12 187.418 23.6285   8
  -3   1 -12 212.452 24.6479   1
   3  -1 -12 192.260 23.6148   8
   5  -1  12 163.175 21.7524   6
  -5  -1 -12 271.098 27.8869   8
  -5   1  12 166.392 22.8820   7
   5   1 -12 253.576 26.5234   8
  -5  -1 -12 261.028 26.6579   1
  -5   1  12 167.020 22.9181   1
  -5   1 -12 256.563 26.2719   1
   5  -1 -12 257.918 25.7304   8
  -5  -1  12 169.849 23.7332   1
  -5   1 -12 269.774 28.0140   8
   5   1  12 162.018 22.7688   7
   5   1  12 190.504 20.8807   6
   7   1 -12 349.536 31.6463   8
   7  -1  12 321.866 29.8194   2
  -7  -1 -12 332.599 31.2097   1
  -7  -1 -12 348.613 33.1216   8
   7  -1  12 300.495 28.8789   6
  -7   1  12 289.825 29.8977   1
  -7  -1  12 290.546 29.9406   1
   7  -1 -12 343.822 30.2641   8
   7   1  12 292.561 27.1334   6
  -7   1 -12 333.500 30.7238   1
   0  -2 -12 8.53015 8.93890   8
   0  -2  12 16.1597 10.2665   6
   0   2  12 11.6246 9.57176   7
   0  -2  12 8.86477 9.45398   1
   0   2 -12 9.72052 9.10460   8
   0   2 -12 4.53627 9.25255   1
   0  -2 -12 1.36089 8.00967   1
   0   2  12 11.1657 9.43818   1
   2  -2  12 1958.36 103.249   7
   2   2 -12 1852.44 107.797   8
  -2  -2 -12 1951.98 106.350   1
   2   2 -12 1927.71 105.990   1
  -2   2  12 1901.45 104.485   7
   2  -2  12 1925.63 97.9679   6
  -2   2  12 1996.79 105.831   1
  -2  -2 -12 1761.06 106.814   8
  -2  -2  12 1968.86 105.521   1
  -2   2 -12 1854.96 104.879   1
   2   2  12 2052.93 106.032   1
  -2  -2  12 1977.64 97.7010   6
   2  -2 -12 1811.79 107.187   8
   2   2  12 1853.45 103.715   7
   2  -2 -12 2083.77 107.865   1
  -2   2 -12 1861.14 108.366   8
   4  -2  12 144.074 21.0407   6
  -4   2  12 152.734 21.9185   1
  -4   2  12 144.749 21.1995   7
   4   2 -12 172.780 23.9885   1
   4   2 -12 181.115 23.5839   8
  -4  -2 -12 176.166 23.5751   8
  -4  -2 -12 177.429 23.7384   1
  -4   2 -12 171.816 22.6943   1
   4  -2 -12 177.941 22.4410   8
  -4  -2  12 149.802 21.1177   6
  -4   2 -12 189.289 24.1717   8
   4   2  12 156.192 22.2681   7
  -4  -2  12 148.058 22.4721   1
  -6  -2 -12 2102.46 116.146   1
   6  -2  12 2258.33 114.306   2
   6  -2  12 2155.43 108.954   6
  -6   2  12 2150.76 115.123   7
  -6   2  12 2208.04 115.752   1
   6   2 -12 2081.31 117.912   8
  -6  -2 -12 2040.72 119.270   8
  -6   2 -12 2037.71 113.299   1
   6  -2 -12 2114.42 116.784   8
  -6  -2  12 2199.71 117.259   1
  -1  -3 -12 89.0174 19.8725   8
   1   3 -12 103.057 19.6270   1
  -1   3  12 56.8996 14.9883   7
   1  -3  12 48.0599 14.8038   6
  -1   3  12 58.0556 15.1886   1
  -1  -3  12 60.0842 16.6312   1
  -1  -3  12 53.3466 15.4259   6
   1   3  12 57.1829 15.0001   1
   1   3  12 52.2155 15.7697   7
  -1   3 -12 91.7344 19.0046   1
   3   3 -12 387.139 36.3417   8
  -3   3  12 329.335 32.7859   1
  -3  -3 -12 401.731 37.0157   8
  -3  -3 -12 423.169 37.1653   1
   3  -3  12 363.853 33.5332   6
   3   3 -12 412.538 36.9314   1
  -3   3  12 350.605 33.7672   7
   3  -3 -12 391.557 34.8138   8
  -3   3 -12 396.635 34.9424   1
   3   3  12 333.007 33.2399   7
   3   3  12 356.699 33.1510   1
  -3  -3  12 361.169 34.8837   1
  -3  -3  12 369.256 34.3881   6
  -3   3 -12 421.954 37.3867   8
   1   0  13 257.166 28.4213   1
   1   0 -13 323.690 32.0770   1
  -1   0 -13 314.849 31.1368   1
  -1   0 -13 310.320 31.0012   8
  -1   0  13 252.833 28.4100   7
  -1   0  13 260.957 28.2630   1
   1   0  13 269.102 28.1587   7
   1   0 -13 301.230 30.6017   8
   3   0  13 224.088 26.1773   7
   3   0 -13 288.579 30.0934   1
  -3   0  13 218.930 26.5495   1
  -3   0 -13 286.391 29.9894   8
  -3   0 -13 286.811 28.9602   1
  -3   0  13 192.559 25.4014   7
   3   0 -13 294.612 29.3939   8
   0   1 -13 610.676 48.0620   8
   0   1  13 644.703 47.0995   1
   0   1  13 643.414 46.8072   7
   0  -1  13 693.504 48.3856   1
   0  -1 -13 631.117 48.1520   1
   0  -1 -13 557.793 46.7814   8
   0  -1  13 646.579 46.2163   7
   0   1 -13 640.262 48.2914   1
   2   1 -13 96.3766 19.2208   8
  -2  -1 -13 97.5062 19.4657   1
   2   1 -13 86.1214 19.2644   1
  -2   1  13 144.434 21.2478   7
  -2  -1 -13 88.0209 18.6237   8
   2  -1 -13 92.5938 18.8808   8
   2  -1 -13 97.8213 19.7388   1
  -2  -1  13 142.253 21.5833   1
  -2   1 -13 86.5075 18.8739   1
  -2   1 -13 94.9551 19.7001   8
   0   0   0    0.00    0.00   0
;
_shelx_hkl_checksum              97656
loop_
_space_group_symop_operation_xyz
'x, y, z'
'-x, -y, z'
'-x, y, z'
'x, -y, z'
'x+1/2, y+1/2, z+1/2'
'-x+1/2, -y+1/2, z+1/2'
'-x+1/2, y+1/2, z+1/2'
'x+1/2, -y+1/2, z+1/2'
loop_
_atom_site_label
_atom_site_type_symbol
_atom_site_fract_x
_atom_site_fract_y
_atom_site_fract_z
_atom_site_U_iso_or_equiv
_atom_site_adp_type
_atom_site_occupancy
_atom_site_site_symmetry_order
_atom_site_calc_flag
_atom_site_refinement_flags_posn
_atom_site_refinement_flags_adp
_atom_site_refinement_flags_occupancy
_atom_site_disorder_assembly
_atom_site_disorder_group
Th1 Th 0.0000 0.0000 0.00000(2) 0.00380(5) Uani 1 4 d S T P . .
Ba1 Ba 0.23977(2) 0.0000 0.38448(3) 0.00580(6) Uani 1 2 d S T P . .
Ba2 Ba 0.5000 0.0000 0.09192(4) 0.00487(8) Uani 1 4 d S T P . .
Se1 Se 0.09555(4) 0.0000 0.70443(5) 0.00601(9) Uani 1 2 d S T P . .
Se2 Se 0.23373(4) 0.0000 0.04156(5) 0.00575(10) Uani 1 2 d S T P . .
Se3 Se 0.0000 0.20524(7) 0.29119(5) 0.00598(9) Uani 1 2 d S T P . .
Se4 Se 0.5000 0.0000 0.43944(7) 0.00499(12) Uani 1 4 d S T P . .
loop_
_atom_site_aniso_label
_atom_site_aniso_U_11
_atom_site_aniso_U_22
_atom_site_aniso_U_33
_atom_site_aniso_U_23
_atom_site_aniso_U_13
_atom_site_aniso_U_12
Th1 0.00397(10) 0.00381(10) 0.00362(10) 0.000 0.000 0.000
Ba1 0.00513(13) 0.00639(13) 0.00587(13) 0.000 -0.00049(10) 0.000
Ba2 0.00551(18) 0.00461(16) 0.00448(18) 0.000 0.000 0.000
Se1 0.0064(2) 0.0060(2) 0.0057(2) 0.000 0.00090(18) 0.000
Se2 0.0048(2) 0.0064(2) 0.0061(2) 0.000 -0.00058(16) 0.000
Se3 0.0070(2) 0.0057(2) 0.0053(2) -0.00111(19) 0.000 0.000
Se4 0.0054(3) 0.0041(3) 0.0055(3) 0.000 0.000 0.000
loop_
_atom_type_symbol
_atom_type_description
_atom_type_scat_dispersion_real
_atom_type_scat_dispersion_imag
_atom_type_scat_source
Se Se -0.0929 2.2259 'International Tables Vol C Tables 4.2.6.8 and 6.1.1.4'
Ba Ba -0.3244 2.2819 'International Tables Vol C Tables 4.2.6.8 and 6.1.1.4'
Th Th -7.2400 8.8979 'International Tables Vol C Tables 4.2.6.8 and 6.1.1.4'
loop_
_geom_angle_atom_site_label_1
_geom_angle_atom_site_label_2
_geom_angle_atom_site_label_3
_geom_angle
_geom_angle_site_symmetry_1
_geom_angle_site_symmetry_3
Se2 Th1 Se2 164.50(2) . 2
Se2 Th1 Se4 91.506(2) . 5_444
Se2 Th1 Se4 91.506(2) 2 5_444
Se2 Th1 Se4 91.506(2) . 5_454
Se2 Th1 Se4 91.506(3) 2 5_454
Se4 Th1 Se4 157.51(3) 5_444 5_454
Se2 Th1 Se3 82.884(10) . 2
Se2 Th1 Se3 82.884(10) 2 2
Se4 Th1 Se3 78.000(16) 5_444 2
Se4 Th1 Se3 124.485(15) 5_454 2
Se2 Th1 Se3 82.884(10) . .
Se2 Th1 Se3 82.884(10) 2 .
Se4 Th1 Se3 124.485(15) 5_444 .
Se4 Th1 Se3 78.001(16) 5_454 .
Se3 Th1 Se3 46.485(17) 2 .
Se2 Th1 Se1 120.653(14) . 2_554
Se2 Th1 Se1 74.844(13) 2 2_554
Se4 Th1 Se1 79.654(12) 5_444 2_554
Se4 Th1 Se1 79.654(12) 5_454 2_554
Se3 Th1 Se1 147.822(8) 2 2_554
Se3 Th1 Se1 147.822(8) . 2_554
Se2 Th1 Se1 74.844(13) . 1_554
Se2 Th1 Se1 120.653(14) 2 1_554
Se4 Th1 Se1 79.654(12) 5_444 1_554
Se4 Th1 Se1 79.654(12) 5_454 1_554
Se3 Th1 Se1 147.822(8) 2 1_554
Se3 Th1 Se1 147.822(8) . 1_554
Se1 Th1 Se1 45.808(18) 2_554 1_554
Se2 Th1 Ba1 138.467(3) . 5_444
Se2 Th1 Ba1 46.965(5) 2 5_444
Se4 Th1 Ba1 46.980(3) 5_444 5_444
Se4 Th1 Ba1 125.917(7) 5_454 5_444
Se3 Th1 Ba1 88.287(7) 2 5_444
Se3 Th1 Ba1 118.726(7) . 5_444
Se1 Th1 Ba1 59.538(7) 2_554 5_444
Se1 Th1 Ba1 93.159(9) 1_554 5_444
Se2 Th1 Ba1 46.965(5) . 6_554
Se2 Th1 Ba1 138.467(3) 2 6_554
Se4 Th1 Ba1 125.917(7) 5_444 6_554
Se4 Th1 Ba1 46.980(3) 5_454 6_554
Se3 Th1 Ba1 118.726(7) 2 6_554
Se3 Th1 Ba1 88.287(7) . 6_554
Se1 Th1 Ba1 93.159(9) 2_554 6_554
Se1 Th1 Ba1 59.538(7) 1_554 6_554
Ba1 Th1 Ba1 151.604(9) 5_444 6_554
Se2 Th1 Ba1 138.467(3) . 5_454
Se2 Th1 Ba1 46.965(5) 2 5_454
Se4 Th1 Ba1 125.917(7) 5_444 5_454
Se4 Th1 Ba1 46.980(3) 5_454 5_454
Se3 Th1 Ba1 118.726(7) 2 5_454
Se3 Th1 Ba1 88.287(7) . 5_454
Se1 Th1 Ba1 59.538(7) 2_554 5_454
Se1 Th1 Ba1 93.159(9) 1_554 5_454
Ba1 Th1 Ba1 80.609(5) 5_444 5_454
Ba1 Th1 Ba1 92.457(5) 6_554 5_454
Se2 Th1 Ba1 46.965(5) . 6_544
Se2 Th1 Ba1 138.467(3) 2 6_544
Se4 Th1 Ba1 46.980(3) 5_444 6_544
Se4 Th1 Ba1 125.917(7) 5_454 6_544
Se3 Th1 Ba1 88.287(7) 2 6_544
Se3 Th1 Ba1 118.726(7) . 6_544
Se1 Th1 Ba1 93.159(9) 2_554 6_544
Se1 Th1 Ba1 59.538(7) 1_554 6_544
Ba1 Th1 Ba1 92.457(5) 5_444 6_544
Ba1 Th1 Ba1 80.609(5) 6_554 6_544
Ba1 Th1 Ba1 151.604(9) 5_454 6_544
Se2 Ba1 Se4 100.500(16) . .
Se2 Ba1 Se2 117.267(8) . 6
Se4 Ba1 Se2 80.097(11) . 6
Se2 Ba1 Se2 117.267(8) . 6_545
Se4 Ba1 Se2 80.097(11) . 6_545
Se2 Ba1 Se2 124.334(16) 6 6_545
Se2 Ba1 Se3 73.320(13) . .
Se4 Ba1 Se3 157.856(8) . .
Se2 Ba1 Se3 84.006(12) 6 .
Se2 Ba1 Se3 121.831(12) 6_545 .
Se2 Ba1 Se3 73.319(13) . 2
Se4 Ba1 Se3 157.855(8) . 2
Se2 Ba1 Se3 121.831(12) 6 2
Se2 Ba1 Se3 84.006(12) 6_545 2
Se3 Ba1 Se3 41.862(14) . 2
Se2 Ba1 Se1 148.176(14) . .
Se4 Ba1 Se1 111.325(16) . .
Se2 Ba1 Se1 70.013(9) 6 .
Se2 Ba1 Se1 70.013(9) 6_545 .
Se3 Ba1 Se1 77.009(12) . .
Se3 Ba1 Se1 77.009(12) 2 .
Se2 Ba1 Ba2 50.618(10) . .
Se4 Ba1 Ba2 49.881(13) . .
Se2 Ba1 Ba2 102.775(9) 6 .
Se2 Ba1 Ba2 102.775(9) 6_545 .
Se3 Ba1 Ba2 120.323(12) . .
Se3 Ba1 Ba2 120.323(12) 2 .
Se1 Ba1 Ba2 161.206(12) . .
Se2 Ba1 Th1 105.179(9) . 5
Se4 Ba1 Th1 41.238(3) . 5
Se2 Ba1 Th1 40.848(9) 6 5
Se2 Ba1 Th1 112.805(10) 6_545 5
Se3 Ba1 Th1 118.730(7) . 5
Se3 Ba1 Th1 160.537(8) 2 5
Se1 Ba1 Th1 98.930(8) . 5
Ba2 Ba1 Th1 67.202(5) . 5
Se2 Ba1 Th1 105.179(9) . 5_545
Se4 Ba1 Th1 41.238(3) . 5_545
Se2 Ba1 Th1 112.805(10) 6 5_545
Se2 Ba1 Th1 40.848(9) 6_545 5_545
Se3 Ba1 Th1 160.537(8) . 5_545
Se3 Ba1 Th1 118.730(7) 2 5_545
Se1 Ba1 Th1 98.930(8) . 5_545
Ba2 Ba1 Th1 67.202(5) . 5_545
Th1 Ba1 Th1 80.609(5) 5 5_545
Se2 Ba1 Ba2 114.440(9) . 5_445
Se4 Ba1 Ba2 124.823(10) . 5_445
Se2 Ba1 Ba2 115.247(10) 6 5_445
Se2 Ba1 Ba2 46.586(9) 6_545 5_445
Se3 Ba1 Ba2 76.077(9) . 5_445
Se3 Ba1 Ba2 46.325(9) 2 5_445
Se1 Ba1 Ba2 45.715(6) . 5_445
Ba2 Ba1 Ba2 140.415(4) . 5_445
Th1 Ba1 Ba2 140.347(9) 5 5_445
Th1 Ba1 Ba2 87.433(3) 5_545 5_445
Se2 Ba1 Ba2 114.440(9) . 5_455
Se4 Ba1 Ba2 124.823(10) . 5_455
Se2 Ba1 Ba2 46.586(9) 6 5_455
Se2 Ba1 Ba2 115.247(10) 6_545 5_455
Se3 Ba1 Ba2 46.325(9) . 5_455
Se3 Ba1 Ba2 76.077(9) 2 5_455
Se1 Ba1 Ba2 45.715(6) . 5_455
Ba2 Ba1 Ba2 140.415(4) . 5_455
Th1 Ba1 Ba2 87.433(3) 5 5_455
Th1 Ba1 Ba2 140.347(9) 5_545 5_455
Ba2 Ba1 Ba2 78.063(5) 5_445 5_455
Se4 Ba2 Se1 71.136(10) . 5_554
Se4 Ba2 Se1 71.136(10) . 6_544
Se1 Ba2 Se1 142.27(2) 5_554 6_544
Se4 Ba2 Se1 71.136(10) . 6_554
Se1 Ba2 Se1 42.065(15) 5_554 6_554
Se1 Ba2 Se1 122.229(16) 6_544 6_554
Se4 Ba2 Se1 71.136(10) . 5_544
Se1 Ba2 Se1 122.229(16) 5_554 5_544
Se1 Ba2 Se1 42.065(15) 6_544 5_544
Se1 Ba2 Se1 142.27(2) 6_554 5_544
Se4 Ba2 Se3 149.152(9) . 5_544
Se1 Ba2 Se3 136.598(13) 5_554 5_544
Se1 Ba2 Se3 80.132(11) 6_544 5_544
Se1 Ba2 Se3 136.598(13) 6_554 5_544
Se1 Ba2 Se3 80.132(11) 5_544 5_544
Se4 Ba2 Se3 149.152(9) . 6_554
Se1 Ba2 Se3 80.132(11) 5_554 6_554
Se1 Ba2 Se3 136.598(13) 6_544 6_554
Se1 Ba2 Se3 80.132(11) 6_554 6_554
Se1 Ba2 Se3 136.598(13) 5_544 6_554
Se3 Ba2 Se3 61.696(17) 5_544 6_554
Se4 Ba2 Se2 98.233(11) . 2_655
Se1 Ba2 Se2 72.007(8) 5_554 2_655
Se1 Ba2 Se2 113.672(8) 6_544 2_655
Se1 Ba2 Se2 113.672(8) 6_554 2_655
Se1 Ba2 Se2 72.007(8) 5_544 2_655
Se3 Ba2 Se2 82.938(9) 5_544 2_655
Se3 Ba2 Se2 82.938(9) 6_554 2_655
Se4 Ba2 Se2 98.233(11) . .
Se1 Ba2 Se2 113.672(8) 5_554 .
Se1 Ba2 Se2 72.007(8) 6_544 .
Se1 Ba2 Se2 72.007(8) 6_554 .
Se1 Ba2 Se2 113.672(8) 5_544 .
Se3 Ba2 Se2 82.938(9) 5_544 .
Se3 Ba2 Se2 82.938(9) 6_554 .
Se2 Ba2 Se2 163.53(2) 2_655 .
Se4 Ba2 Ba1 49.298(5) . .
Se1 Ba2 Ba1 93.511(10) 5_554 .
Se1 Ba2 Ba1 61.123(8) 6_544 .
Se1 Ba2 Ba1 61.123(8) 6_554 .
Se1 Ba2 Ba1 93.511(10) 5_544 .
Se3 Ba2 Ba1 124.047(5) 5_544 .
Se3 Ba2 Ba1 124.047(5) 6_554 .
Se2 Ba2 Ba1 147.531(14) 2_655 .
Se2 Ba2 Ba1 48.935(9) . .
Se4 Ba2 Ba1 49.299(5) . 2_655
Se1 Ba2 Ba1 61.123(8) 5_554 2_655
Se1 Ba2 Ba1 93.511(10) 6_544 2_655
Se1 Ba2 Ba1 93.511(10) 6_554 2_655
Se1 Ba2 Ba1 61.123(8) 5_544 2_655
Se3 Ba2 Ba1 124.046(5) 5_544 2_655
Se3 Ba2 Ba1 124.046(5) 6_554 2_655
Se2 Ba2 Ba1 48.934(9) 2_655 2_655
Se2 Ba2 Ba1 147.532(14) . 2_655
Ba1 Ba2 Ba1 98.597(11) . 2_655
Se4 Ba2 Ba1 115.390(5) . 6_544
Se1 Ba2 Ba1 157.296(8) 5_554 6_544
Se1 Ba2 Ba1 49.817(9) 6_544 6_544
Se1 Ba2 Ba1 117.230(8) 6_554 6_544
Se1 Ba2 Ba1 79.613(8) 5_544 6_544
Se3 Ba2 Ba1 46.288(5) 5_544 6_544
Se3 Ba2 Ba1 87.409(9) 6_554 6_544
Se2 Ba2 Ba1 125.427(9) 2_655 6_544
Se2 Ba2 Ba1 45.375(5) . 6_544
Ba1 Ba2 Ba1 77.793(2) . 6_544
Ba1 Ba2 Ba1 140.415(4) 2_655 6_544
Se1 Se1 Th1 67.097(9) 2 1_556
Se1 Se1 Ba2 68.968(7) 2 5_445
Th1 Se1 Ba2 99.100(11) 1_556 5_445
Se1 Se1 Ba2 68.968(7) 2 5_455
Th1 Se1 Ba2 99.100(11) 1_556 5_455
Ba2 Se1 Ba2 122.229(16) 5_445 5_455
Se1 Se1 Ba1 120.504(9) 2 .
Th1 Se1 Ba1 172.400(17) 1_556 .
Ba2 Se1 Ba1 84.468(10) 5_445 .
Ba2 Se1 Ba1 84.468(10) 5_455 .
Th1 Se2 Ba1 99.068(15) . .
Th1 Se2 Ba1 92.187(10) . 6_544
Ba1 Se2 Ba1 116.969(8) . 6_544
Th1 Se2 Ba1 92.187(10) . 6_554
Ba1 Se2 Ba1 116.969(8) . 6_554
Ba1 Se2 Ba1 124.333(16) 6_544 6_554
Th1 Se2 Ba2 179.52(2) . .
Ba1 Se2 Ba2 80.447(13) . .
Ba1 Se2 Ba2 88.039(11) 6_544 .
Ba1 Se2 Ba2 88.039(11) 6_554 .
Se3 Se3 Th1 66.757(9) 2 .
Se3 Se3 Ba1 69.069(7) 2 2
Th1 Se3 Ba1 95.962(10) . 2
Se3 Se3 Ba1 69.069(7) 2 .
Th1 Se3 Ba1 95.963(10) . .
Ba1 Se3 Ba1 127.066(16) 2 .
Se3 Se3 Ba2 120.849(9) 2 5_455
Th1 Se3 Ba2 172.394(17) . 5_455
Ba1 Se3 Ba2 87.387(11) 2 5_455
Ba1 Se3 Ba2 87.386(11) . 5_455
Th1 Se4 Th1 157.52(3) 5 5_545
Th1 Se4 Ba1 91.782(2) 5 .
Th1 Se4 Ba1 91.782(1) 5_545 .
Th1 Se4 Ba1 91.782(1) 5 2_655
Th1 Se4 Ba1 91.782(1) 5_545 2_655
Ba1 Se4 Ba1 161.64(3) . 2_655
Th1 Se4 Ba2 101.242(13) 5 .
Th1 Se4 Ba2 101.242(13) 5_545 .
Ba1 Se4 Ba2 80.820(13) . .
Ba1 Se4 Ba2 80.820(13) 2_655 .
loop_
_geom_bond_atom_site_label_1
_geom_bond_atom_site_label_2
_geom_bond_distance
_geom_bond_site_symmetry_2
Th1 Se2 2.9299(5) .
Th1 Se2 2.9300(5) 2
Th1 Se4 2.95220(14) 5_444
Th1 Se4 2.95220(14) 5_454
Th1 Se3 3.0119(5) 2
Th1 Se3 3.0119(5) .
Th1 Se1 3.0496(5) 2_554
Th1 Se1 3.0496(5) 1_554
Th1 Ba1 4.4764(2) 5_444
Th1 Ba1 4.4764(2) 6_554
Th1 Ba1 4.4764(2) 5_454
Th1 Ba1 4.4764(2) 6_544
Ba1 Se2 3.2599(5) .
Ba1 Se4 3.2743(3) .
Ba1 Se2 3.2744(2) 6
Ba1 Se2 3.2744(2) 6_545
Ba1 Se3 3.3270(3) .
Ba1 Se3 3.3270(3) 2
Ba1 Se1 3.5292(5) .
Ba1 Ba2 4.2637(4) .
Ba1 Th1 4.4764(2) 5
Ba1 Th1 4.4764(2) 5_545
Ba1 Ba2 4.5979(3) 5_445
Ba1 Ba2 4.5979(3) 5_455
Ba2 Se4 3.3028(8) .
Ba2 Se1 3.3070(3) 5_554
Ba2 Se1 3.3070(3) 6_544
Ba2 Se1 3.3070(3) 6_554
Ba2 Se1 3.3070(3) 5_544
Ba2 Se3 3.3290(6) 5_544
Ba2 Se3 3.3290(6) 6_554
Ba2 Se2 3.3419(5) 2_655
Ba2 Se2 3.3419(5) .
Ba2 Ba1 4.2637(4) 2_655
Ba2 Ba1 4.5979(3) 6_544
Se1 Se1 2.3737(9) 2
Se1 Th1 3.0495(5) 1_556
Se1 Ba2 3.3070(3) 5_445
Se1 Ba2 3.3070(3) 5_455
Se2 Ba1 3.2744(2) 6_544
Se2 Ba1 3.2744(2) 6_554
Se3 Se3 2.3771(9) 2
Se3 Ba1 3.3269(3) 2
Se3 Ba2 3.3290(6) 5_455
Se4 Th1 2.95220(14) 5
Se4 Th1 2.95220(14) 5_545
Se4 Ba1 3.2744(3) 2_655
