#------------------------------------------------------------------------------
#$Date: 2021-04-08 10:27:53 +0300 (Thu, 08 Apr 2021) $
#$Revision: 263969 $
#$URL: file:///home/coder/svn-repositories/cod/cif/1/56/15/1561551.cif $
#------------------------------------------------------------------------------
#
# This file is available in the Crystallography Open Database (COD),
# http://www.crystallography.net/
#
# All data on this site have been placed in the public domain by the
# contributors.
#
data_1561551
loop_
_publ_author_name
'Yin, Wenlong'
'Iyer, Abishek K.'
'Lin, Xinsong'
'Mar, Arthur'
_publ_section_title
;
 Ba4Ga2Se8: A ternary selenide containing chains and discrete Se22&#x2212;
 units
;
_journal_name_full               'Journal of Solid State Chemistry'
_journal_page_first              144
_journal_page_last               149
_journal_paper_doi               10.1016/j.jssc.2016.02.014
_journal_volume                  237
_journal_year                    2016
_chemical_formula_structural     'Ba4 Ga2 Se8'
_chemical_formula_sum            'Ba4 Ga2 Se8'
_chemical_formula_weight         1320.48
_chemical_name_common            'barium gallium selenide (4/2/8)'
_chemical_name_systematic        'barium gallium selenide (4/2/8)'
_space_group_crystal_system      monoclinic
_space_group_IT_number           14
_space_group_name_Hall           '-P 2ybc'
_space_group_name_H-M_alt        'P 1 21/c 1'
_atom_sites_solution_hydrogens   .
_audit_creation_method           SHELXL-2013
_cell_angle_alpha                90
_cell_angle_beta                 104.3148(6)
_cell_angle_gamma                90
_cell_formula_units_Z            4
_cell_length_a                   13.2393(5)
_cell_length_b                   6.4305(2)
_cell_length_c                   20.6432(8)
_cell_measurement_reflns_used    5436
_cell_measurement_temperature    296(2)
_cell_measurement_theta_max      28.74
_cell_measurement_theta_min      3.32
_cell_volume                     1702.90(11)
_computing_cell_refinement       'Bruker SAINT 8.34A (Bruker, 2013)'
_computing_data_collection       'Bruker APEX 2 (Bruker, 2008)'
_computing_data_reduction        'Bruker SAINT 8.34A'
_computing_molecular_graphics    'ATOMS 5.1 (Dowty, 1999)'
_computing_publication_material  'Bruker SHELXTL'
_computing_structure_refinement  'SHELXL-2013 (Sheldrick, 2013)'
_computing_structure_solution    'SHELXS-97 (Sheldrick, 2008)'
_diffrn_ambient_temperature      296(2)
_diffrn_measured_fraction_theta_full 1.000
_diffrn_measured_fraction_theta_max 0.992
_diffrn_measurement_device_type  'Bruker PLATFORM/SMART APEX II CCD'
_diffrn_measurement_method       '\w and \f scans'
_diffrn_radiation_type           MoK\a
_diffrn_radiation_wavelength     0.71073
_diffrn_reflns_av_R_equivalents  0.0583
_diffrn_reflns_av_unetI/netI     0.0499
_diffrn_reflns_Laue_measured_fraction_full 1.000
_diffrn_reflns_Laue_measured_fraction_max 0.992
_diffrn_reflns_limit_h_max       20
_diffrn_reflns_limit_h_min       -20
_diffrn_reflns_limit_k_max       9
_diffrn_reflns_limit_k_min       -9
_diffrn_reflns_limit_l_max       31
_diffrn_reflns_limit_l_min       -31
_diffrn_reflns_number            23800
_diffrn_reflns_point_group_measured_fraction_full 1.000
_diffrn_reflns_point_group_measured_fraction_max 0.992
_diffrn_reflns_theta_full        25.242
_diffrn_reflns_theta_max         33.196
_diffrn_reflns_theta_min         1.587
_diffrn_source                   'fine-focus sealed tube'
_exptl_absorpt_coefficient_mu    29.287
_exptl_absorpt_correction_T_max  0.545
_exptl_absorpt_correction_T_min  0.177
_exptl_absorpt_correction_type   numerical
_exptl_absorpt_process_details   'Bruker SHELXTL (Sheldrick, 2013)'
_exptl_crystal_colour            black
_exptl_crystal_density_diffrn    5.151
_exptl_crystal_description       prism
_exptl_crystal_F_000             2232
_exptl_crystal_size_max          0.096
_exptl_crystal_size_mid          0.033
_exptl_crystal_size_min          0.032
_refine_diff_density_max         3.223
_refine_diff_density_min         -1.849
_refine_diff_density_rms         0.393
_refine_ls_extinction_coef       0.00019(2)
_refine_ls_extinction_expression Fc^*^=kFc[1+0.001xFc^2^\l^3^/sin(2\q)]^-1/4^
_refine_ls_extinction_method     SHELXL
_refine_ls_goodness_of_fit_ref   1.052
_refine_ls_hydrogen_treatment    undef
_refine_ls_matrix_type           full
_refine_ls_number_parameters     128
_refine_ls_number_reflns         6462
_refine_ls_number_restraints     0
_refine_ls_restrained_S_all      1.052
_refine_ls_R_factor_all          0.0609
_refine_ls_R_factor_gt           0.0359
_refine_ls_shift/su_max          0.001
_refine_ls_shift/su_mean         0.000
_refine_ls_structure_factor_coef Fsqd
_refine_ls_weighting_details
'w=1/[\s^2^(Fo^2^)+(0.0295P)^2^+5.3531P] where P=(Fo^2^+2Fc^2^)/3'
_refine_ls_weighting_scheme      calc
_refine_ls_wR_factor_gt          0.0753
_refine_ls_wR_factor_ref         0.0860
_reflns_Friedel_coverage         0.000
_reflns_Friedel_fraction_full    .
_reflns_Friedel_fraction_max     .
_reflns_number_gt                4568
_reflns_number_total             6462
_reflns_threshold_expression     'I > 2\s(I)'
_cod_data_source_file            JSSC-2016-237-144.cif
_cod_data_source_block           p21c
_cod_original_sg_symbol_H-M      'P 21/c'
_cod_database_code               1561551
_shelx_space_group_comment
;
The symmetry employed for this shelxl refinement is uniquely defined
by the following loop, which should always be used as a source of
symmetry information in preference to the above space-group names.
They are only intended as comments.
;
_shelx_estimated_absorpt_t_min   0.165
_shelx_estimated_absorpt_t_max   0.454
_shelxl_version_number           2013-4
_shelx_res_file
;
TITL Ba4Ga2Se8 P2(1)/c lsf final refinement
CELL 0.71073  13.23930   6.43050  20.64320  90.0000 104.3148  90.0000
ZERR    4.00   0.00050   0.00020   0.00080   0.0000   0.0006   0.0000
LATT  1
SYMM -X, 0.5+Y, 0.5-Z
SFAC GA SE BA
UNIT 8 32 16
TEMP 23
SIZE 0.032 0.033 0.096

L.S. 4
ACTA

WGHT    0.029500    5.353100
EXTI    0.000187
FVAR       0.02900
BA1   3    0.107033    0.235426    0.215881    11.00000    0.01453    0.01961 =
         0.02060    0.00030    0.00622   -0.00015
BA2   3    0.146424    0.742873    0.048840    11.00000    0.01672    0.01476 =
         0.01810   -0.00016    0.00619   -0.00010
BA3   3    0.381496    0.236786    0.037480    11.00000    0.01765    0.01451 =
         0.01684    0.00061    0.00443    0.00015
BA4   3    0.473695    0.231843    0.312631    11.00000    0.01542    0.01496 =
         0.01726    0.00019    0.00382   -0.00004
GA1   1    0.114652    0.321899    0.401733    11.00000    0.01493    0.01702 =
         0.01649    0.00011    0.00409    0.00042
GA2   1    0.696405    0.316018    0.100194    11.00000    0.01477    0.01542 =
         0.01602    0.00025    0.00478    0.00122
SE1   2    0.042263    0.735376    0.178434    11.00000    0.01444    0.01709 =
         0.01672    0.00209    0.00382    0.00200
SE2   2    0.115919    0.245274    0.014610    11.00000    0.01867    0.01477 =
         0.01567   -0.00160    0.00459    0.00003
SE3   2    0.127594    0.694708    0.383794    11.00000    0.01428    0.01802 =
         0.02313    0.00352    0.00162   -0.00210
SE4   2    0.271349    0.188711    0.374047    11.00000    0.01571    0.01581 =
         0.01998    0.00167    0.00705    0.00196
SE5   2    0.311945    0.420547    0.174691    11.00000    0.01619    0.01773 =
         0.02150    0.00013    0.00539   -0.00073
SE6   2    0.312869    0.049275    0.173985    11.00000    0.01605    0.01799 =
         0.02037   -0.00023    0.00468    0.00028
SE7   2    0.579929    0.226347    0.164812    11.00000    0.01914    0.01581 =
         0.01847    0.00091    0.00797   -0.00197
SE8   2    0.609756    0.235256    0.482300    11.00000    0.01901    0.01463 =
         0.01574    0.00105    0.00366    0.00037
HKLF 4

REM  Ba4Ga2Se8 P2(1)/c lsf final refinement
REM R1 =  0.0359 for    4568 Fo > 4sig(Fo)  and  0.0609 for all    6462 data
REM    128 parameters refined using      0 restraints

END

WGHT      0.0295      5.3610

REM Highest difference peak  3.223,  deepest hole -1.849,  1-sigma level  0.393
Q1    1   0.6936  0.1779  0.0990  11.00000  0.05    3.22
Q2    1   0.2741  0.3219  0.3723  11.00000  0.05    2.63
Q3    1   0.1270  0.8249  0.3824  11.00000  0.05    2.62
Q4    1   0.1172  0.1747  0.4022  11.00000  0.05    2.46
Q5    1   0.4732  0.3289  0.3118  11.00000  0.05    1.79
Q6    1   0.2060  0.1486  0.1830  11.00000  0.05    1.73
Q7    1   0.7649  0.2397  0.1760  11.00000  0.05    1.70
Q8    1   0.2915  0.2337  0.1966  11.00000  0.05    1.68
Q9    1   0.6778  0.0261  0.1601  11.00000  0.05    1.62
Q10   1   0.7341  0.4354  0.1609  11.00000  0.05    1.52
Q11   1   0.0310  0.2453  0.4356  11.00000  0.05    1.43
Q12   1   0.3059  0.1672  0.4229  11.00000  0.05    1.43
Q13   1   0.3229  0.5518  0.2274  11.00000  0.05    1.37
Q14   1   0.6029  0.0844  0.5288  11.00000  0.05    1.36
Q15   1   0.1223  0.8839  0.3193  11.00000  0.05    1.36
Q16   1   0.3222 -0.0863  0.2308  11.00000  0.05    1.35
Q17   1   0.1725  0.1546 -0.0014  11.00000  0.05    1.35
Q18   1   0.7474  0.0762  0.1704  11.00000  0.05    1.34
Q19   1   0.1134  0.8178  0.2771  11.00000  0.05    1.32
Q20   1   0.3594 -0.0905  0.2219  11.00000  0.05    1.31
;
_shelx_res_checksum              99602
_shelx_hkl_file
;
   2  -1 -31   -0.55    0.68
   3  -1 -31   -0.13    0.72
   4  -1 -31    0.57    0.78
   5  -1 -31   -0.18    0.59
   6  -1 -31    0.08    0.68
   7  -1 -31    0.80    0.78
   8  -1 -31   -0.67    0.71
   1   0 -31   -0.24    0.74
   2   0 -31   -0.24    0.69
   3   0 -31   -0.15    0.72
   4   0 -31   -0.45    0.65
   9   0 -31   -0.95    0.79
   7   1 -31   -0.35    1.20
   8   1 -31   -0.15    0.73
   6   2 -31    0.18    1.03
   2  -2 -30    0.12    0.75
   3  -2 -30   23.38    2.77
   4  -2 -30    1.45    0.90
   5  -2 -30   10.94    1.94
   6  -2 -30    1.05    0.87
   7  -2 -30    0.94    0.89
   8  -2 -30    5.06    1.40
   9  -2 -30    3.08    1.20
   0  -1 -30    6.55    1.52
   1  -1 -30    8.79    1.73
   2  -1 -30    0.51    0.79
   3  -1 -30   -0.28    0.62
   4  -1 -30    0.00    0.69
   5  -1 -30    0.75    0.78
   6  -1 -30    5.05    1.28
   7  -1 -30    0.93    0.78
   8  -1 -30    1.51    0.87
   9  -1 -30    9.14    1.27
  10  -1 -30    5.66    1.00
  11  -1 -30    4.76    1.59
  -1   0 -30   30.31    3.15
   0   0 -30    3.84    1.27
   1   0 -30    0.22    0.73
   2   0 -30    9.40    1.67
   3   0 -30   26.55    2.81
   4   0 -30    8.57    1.58
   5   0 -30    6.47    1.39
   8   0 -30    2.75    1.15
   9   0 -30    0.76    0.84
  10   0 -30    0.13    0.81
  -1   1 -30    0.70    0.85
   7   1 -30    1.54    1.01
   8   1 -30    1.49    1.11
   9   1 -30    9.99    1.93
  10   1 -30    4.07    1.41
   6   2 -30   -0.32    0.86
   7   2 -30    1.50    1.10
   8   2 -30    5.86    1.65
   9   2 -30    1.45    1.09
   5   3 -30    3.80    1.42
   6   3 -30   17.58    2.73
   7   3 -30    1.85    1.61
   2  -3 -29    0.71    0.75
   3  -3 -29    1.19    0.84
   4  -3 -29    1.25    0.96
   5  -3 -29    1.18    0.90
   6  -3 -29   -0.14    0.75
   7  -3 -29    2.07    1.03
   8  -3 -29   -0.63    0.57
  -1  -2 -29    3.12    1.17
   0  -2 -29   -0.74    0.66
   1  -2 -29    0.75    0.71
   2  -2 -29    0.18    0.64
   3  -2 -29    1.22    0.82
   4  -2 -29    2.00    0.95
   5  -2 -29    0.67    0.71
   6  -2 -29    3.93    1.16
   7  -2 -29    0.32    0.71
   8  -2 -29    0.32    0.71
   9  -2 -29   -0.06    0.46
  10  -2 -29    0.40    0.49
  11  -2 -29    1.90    0.80
  -2  -1 -29    0.74    0.72
  -1  -1 -29    1.14    0.85
   0  -1 -29    0.20    0.70
   1  -1 -29    0.43    0.63
   2  -1 -29    0.54    0.69
   3  -1 -29    0.12    0.65
   4  -1 -29   -0.24    0.61
   5  -1 -29   -0.68    0.49
   6  -1 -29    0.70    0.73
   7  -1 -29    1.11    0.84
   8  -1 -29   -0.41    0.43
   9  -1 -29    0.00    0.51
  10  -1 -29   -0.14    0.49
  11  -1 -29    0.43    0.55
  12  -1 -29   -1.07    0.80
  -3   0 -29    0.06    0.73
  -2   0 -29    0.25    0.71
  -1   0 -29   -0.21    0.67
   0   0 -29    0.29    0.63
   1   0 -29    0.14    0.64
   2   0 -29    0.00    0.59
   3   0 -29   -0.25    0.55
   4   0 -29   -0.12    0.60
   5   0 -29    0.43    0.55
   6   0 -29    0.92    0.70
   7   0 -29   -0.08    0.65
   8   0 -29   -0.34    0.66
   9   0 -29   -0.89    0.68
  10   0 -29    0.15    0.78
  11   0 -29   -1.02    0.50
  12   0 -29    1.47    1.03
  -3   1 -29    0.01    0.79
  -2   1 -29    0.04    0.68
  -1   1 -29   -0.83    0.59
   0   1 -29   -0.02    0.65
   1   1 -29    0.56    0.76
   6   1 -29   -0.28    0.83
   7   1 -29   -0.37    0.71
   8   1 -29   -0.18    0.71
   9   1 -29   -0.40    0.77
  10   1 -29   -0.61    0.62
  11   1 -29    0.88    1.00
   5   2 -29    0.30    0.84
   6   2 -29    1.97    1.05
   7   2 -29    0.46    0.90
   8   2 -29    0.87    0.91
   9   2 -29    0.69    0.86
  10   2 -29    0.48    0.98
   4   3 -29    0.13    0.87
   5   3 -29    0.06    0.94
   6   3 -29    1.07    1.00
   7   3 -29    1.61    1.15
   8   3 -29   -0.79    0.80
   9   3 -29    1.60    1.75
   4   4 -29    2.82    1.34
   5   4 -29    3.89    1.69
   3  -4 -28    5.77    1.55
   4  -4 -28   -0.09    0.76
   5  -4 -28    5.94    1.49
   6  -4 -28    0.76    0.87
   7  -4 -28   17.32    3.65
  -1  -3 -28    3.65    1.22
   0  -3 -28    0.41    0.76
   1  -3 -28   -0.29    0.61
   2  -3 -28    0.39    0.73
   3  -3 -28    0.18    0.63
   4  -3 -28    1.93    0.95
   5  -3 -28    3.78    1.13
   6  -3 -28    5.01    1.35
   7  -3 -28   10.98    1.90
   8  -3 -28    0.70    0.85
   9  -3 -28    0.30    0.66
  10  -3 -28    9.06    1.31
  11  -3 -28   -0.73    0.88
  -2  -2 -28    1.87    0.89
  -1  -2 -28    2.95    1.14
   0  -2 -28    1.07    0.86
   1  -2 -28   15.72    2.16
   2  -2 -28    4.76    1.21
   3  -2 -28    2.76    1.00
   4  -2 -28    2.47    1.00
   5  -2 -28    5.34    1.29
   6  -2 -28    2.13    0.97
   7  -2 -28   27.03    2.79
   8  -2 -28    9.19    1.33
   9  -2 -28    5.33    0.99
  10  -2 -28    7.25    1.10
  11  -2 -28    1.08    0.64
  12  -2 -28    0.70    0.85
  -3  -1 -28   15.08    2.21
  -2  -1 -28    3.44    1.17
  -1  -1 -28   21.75    2.56
   0  -1 -28    1.99    0.99
   1  -1 -28    0.11    0.67
   2  -1 -28    4.59    1.16
   3  -1 -28    8.00    1.53
   4  -1 -28   -0.30    0.48
   5  -1 -28   10.65    1.70
   6  -1 -28   12.32    1.85
   7  -1 -28    3.12    0.77
   8  -1 -28    6.23    0.91
   9  -1 -28    4.75    0.89
  10  -1 -28    1.12    0.59
  11  -1 -28    0.37    0.53
  12  -1 -28    0.37    0.73
  -4   0 -28    0.15    0.73
  -3   0 -28    0.81    0.84
  -2   0 -28    0.67    0.71
  -1   0 -28    1.94    0.90
   0   0 -28    1.00    0.73
   1   0 -28    1.92    0.92
   2   0 -28    7.17    1.44
   3   0 -28   16.24    2.09
   4   0 -28   -0.18    0.55
   5   0 -28    9.80    1.58
   6   0 -28    0.59    0.51
   7   0 -28   43.72    2.34
   8   0 -28    1.39    0.81
   9   0 -28    0.14    0.75
  10   0 -28    5.48    1.50
  11   0 -28   -0.21    0.76
  12   0 -28   -0.31    0.69
  13   0 -28   -0.16    1.08
  -4   1 -28   14.00    2.10
  -3   1 -28    8.79    1.64
  -2   1 -28    3.22    1.11
  -1   1 -28   23.48    2.63
   0   1 -28    1.78    0.78
   1   1 -28    1.31    0.71
   2   1 -28    0.23    0.60
   5   1 -28   12.17    2.01
   6   1 -28    6.88    1.63
   7   1 -28    0.51    0.91
   8   1 -28    4.60    1.39
   9   1 -28    4.62    1.36
  10   1 -28    2.00    1.01
  11   1 -28    0.18    0.74
  12   1 -28    1.41    0.89
   4   2 -28    3.83    1.39
   5   2 -28    3.69    1.27
   6   2 -28    1.28    0.90
   7   2 -28   23.87    3.02
   8   2 -28    3.96    1.39
   9   2 -28    3.65    1.36
  10   2 -28   10.19    2.06
  11   2 -28    1.78    1.10
   3   3 -28    0.12    0.84
   4   3 -28    0.63    1.00
   5   3 -28    2.52    1.19
   6   3 -28    3.45    1.32
   7   3 -28   13.85    2.49
   8   3 -28    0.40    0.95
   9   3 -28   -0.15    0.76
  10   3 -28    7.89    1.90
   2   4 -28    1.25    1.06
   3   4 -28    4.71    1.53
   4   4 -28    0.52    0.96
   5   4 -28    2.25    1.22
   6   4 -28   -0.21    0.87
   7   4 -28   17.62    2.93
   0  -4 -27    3.85    1.30
   1  -4 -27   -0.23    0.74
   2  -4 -27   -0.19    0.74
   3  -4 -27    0.86    0.76
   4  -4 -27    0.52    0.78
   5  -4 -27    4.40    1.32
   6  -4 -27    0.04    0.75
   7  -4 -27    2.82    1.09
   8  -4 -27    1.26    0.80
   9  -4 -27    0.34    0.82
  11  -4 -27    0.24    1.10
  -3  -3 -27    0.93    0.90
  -2  -3 -27    0.33    0.79
  -1  -3 -27   -0.14    0.57
   0  -3 -27    0.54    0.73
   1  -3 -27   -0.23    0.62
   2  -3 -27    1.82    0.99
   3  -3 -27    0.20    0.58
   4  -3 -27    0.33    0.63
   5  -3 -27   -0.27    0.61
   6  -3 -27   -0.08    0.64
   7  -3 -27   -0.41    0.51
   8  -3 -27    0.37    0.83
   9  -3 -27   -0.03    0.48
  10  -3 -27    0.61    0.53
  11  -3 -27   -0.13    0.48
  12  -3 -27    0.59    1.05
  -4  -2 -27   -0.08    0.65
  -3  -2 -27   -0.22    0.59
  -2  -2 -27    2.20    0.93
  -1  -2 -27    0.29    0.66
   0  -2 -27    4.43    1.19
   1  -2 -27   -0.04    0.52
   2  -2 -27    0.15    0.64
   3  -2 -27    0.25    0.61
   4  -2 -27    0.17    0.64
   5  -2 -27    4.35    1.11
   6  -2 -27   -0.49    0.57
   7  -2 -27    4.43    1.18
   8  -2 -27    0.61    0.49
   9  -2 -27    0.04    0.47
  10  -2 -27    0.68    0.52
  11  -2 -27   -0.13    0.46
  12  -2 -27    2.35    1.16
  13  -2 -27    0.73    0.89
  -5  -1 -27   -0.39    0.64
  -4  -1 -27    0.30    0.76
  -3  -1 -27   -0.20    0.60
  -2  -1 -27    0.42    0.68
  -1  -1 -27   -0.35    0.45
   0  -1 -27    0.40    0.59
   1  -1 -27   -0.35    0.44
   2  -1 -27    0.91    0.66
   3  -1 -27    0.08    0.61
   4  -1 -27   -0.30    0.48
   5  -1 -27    0.25    0.49
   6  -1 -27   -0.13    0.39
   7  -1 -27   -0.62    0.36
   8  -1 -27   -0.23    0.40
   9  -1 -27    0.07    0.44
  10  -1 -27    0.74    0.51
  11  -1 -27    0.21    0.43
  12  -1 -27    0.56    0.81
  13  -1 -27    0.33    0.75
  -5   0 -27    0.59    0.77
  -4   0 -27    0.72    0.66
  -3   0 -27   -0.15    0.63
  -2   0 -27   -0.21    0.49
  -1   0 -27   -0.35    0.57
   0   0 -27    0.23    0.58
   1   0 -27   -0.46    0.43
   2   0 -27   -0.11    0.51
   3   0 -27   -0.32    0.39
   4   0 -27    0.33    0.52
   5   0 -27   -0.30    0.37
   6   0 -27    0.48    0.47
   7   0 -27   -0.59    0.35
   8   0 -27    0.38    0.42
   9   0 -27    0.42    0.68
  10   0 -27   -0.35    0.74
  11   0 -27   -1.06    0.56
  12   0 -27    0.76    0.84
  13   0 -27    0.55    0.84
  -5   1 -27    0.56    0.80
  -4   1 -27   -0.12    0.57
  -3   1 -27    0.34    0.64
  -2   1 -27    0.28    0.62
  -1   1 -27    0.24    0.62
   0   1 -27   -0.19    0.52
   1   1 -27    0.42    0.57
   2   1 -27    0.42    0.55
   3   1 -27    0.22    0.49
   4   1 -27   -0.51    0.62
   5   1 -27    0.82    0.80
   6   1 -27   -0.13    0.66
   7   1 -27   -0.38    0.63
   8   1 -27    0.59    0.76
   9   1 -27   -0.29    0.65
  10   1 -27    1.02    0.87
  11   1 -27   -1.25    0.55
  12   1 -27    0.58    0.82
  13   1 -27   -0.68    0.52
  -5   2 -27    0.57    0.75
  -4   2 -27   -0.06    0.69
  -3   2 -27   -0.12    0.59
   3   2 -27    0.64    0.84
   4   2 -27    1.21    0.80
   5   2 -27    4.30    1.38
   6   2 -27   -0.20    0.74
   7   2 -27    1.50    0.87
   8   2 -27   -1.58    0.57
   9   2 -27    0.87    0.78
  10   2 -27    0.63    0.80
  11   2 -27   -0.42    0.73
  12   2 -27    0.79    0.95
   2   3 -27    4.34    1.34
   3   3 -27    0.93    0.91
   4   3 -27    0.12    0.86
   5   3 -27   -0.28    0.75
   6   3 -27    0.11    0.85
   7   3 -27    0.57    0.87
   8   3 -27    0.47    0.87
   9   3 -27    0.75    0.87
  10   3 -27    1.59    1.08
  11   3 -27   -0.16    0.89
   1   4 -27    0.35    0.89
   2   4 -27   -0.21    0.79
   3   4 -27   -0.81    0.62
   4   4 -27    0.77    0.83
   5   4 -27    1.85    1.12
   6   4 -27   -1.17    0.56
   7   4 -27    3.91    1.41
   8   4 -27    0.33    0.87
   9   4 -27    0.01    0.83
   2   5 -27    1.37    1.00
   3   5 -27    1.69    1.10
   4   5 -27    1.61    1.12
   1  -5 -26    2.99    1.19
   2  -5 -26   11.81    2.12
   3  -5 -26    1.04    0.84
   4  -5 -26   29.04    3.20
   5  -5 -26    0.36    0.73
   6  -5 -26   14.53    2.30
   7  -5 -26    0.41    0.71
  -2  -4 -26    0.50    0.69
  -1  -4 -26    8.69    1.70
   0  -4 -26   -0.13    0.60
   1  -4 -26    3.33    1.18
   2  -4 -26    1.29    0.79
   3  -4 -26   -0.37    0.63
   4  -4 -26   -0.03    0.68
   5  -4 -26    0.75    0.79
   6  -4 -26    0.13    0.60
   7  -4 -26   -0.36    0.52
   8  -4 -26    0.58    0.62
   9  -4 -26    1.05    0.76
  10  -4 -26    2.56    0.82
  11  -4 -26    0.31    0.68
  12  -4 -26    8.14    2.16
  -4  -3 -26    4.45    1.27
  -3  -3 -26    0.13    0.72
  -2  -3 -26    6.87    1.52
  -1  -3 -26   -0.31    0.48
   0  -3 -26   -0.67    0.44
   1  -3 -26   14.31    2.03
   2  -3 -26   66.31    4.51
   3  -3 -26   -0.27    0.57
   4  -3 -26    6.32    1.38
   5  -3 -26   -0.32    0.58
   6  -3 -26    6.08    1.30
   7  -3 -26   15.36    2.17
   8  -3 -26   17.01    1.73
   9  -3 -26    0.36    0.58
  10  -3 -26    7.35    1.17
  11  -3 -26    4.94    0.96
  12  -3 -26   20.78    3.07
  13  -3 -26    5.77    1.74
  -5  -2 -26    7.71    1.57
  -4  -2 -26    5.18    1.40
  -3  -2 -26    0.62    0.66
  -2  -2 -26    0.73    0.67
  -1  -2 -26   21.29    2.44
   0  -2 -26   -0.77    0.46
   1  -2 -26    9.25    1.61
   2  -2 -26    0.92    0.63
   3  -2 -26   -0.30    0.52
   4  -2 -26    0.29    0.54
   5  -2 -26    3.03    0.95
   6  -2 -26    0.41    0.54
   7  -2 -26    0.63    0.49
   8  -2 -26    1.31    0.57
   9  -2 -26    0.14    0.44
  10  -2 -26    2.46    0.69
  11  -2 -26    0.91    0.49
  12  -2 -26   18.31    2.73
  13  -2 -26   10.47    2.05
  14  -2 -26    2.26    1.21
  -6  -1 -26    6.17    1.48
  -5  -1 -26    5.08    1.26
  -4  -1 -26    1.70    0.89
  -3  -1 -26   -0.28    0.56
  -2  -1 -26    3.52    1.16
  -1  -1 -26    0.76    0.64
   0  -1 -26    0.43    0.55
   1  -1 -26    1.54    0.80
   2  -1 -26  104.55    5.65
   3  -1 -26    0.97    0.65
   4  -1 -26   16.71    2.07
   5  -1 -26    0.96    0.63
   6  -1 -26   36.05    2.17
   7  -1 -26   14.48    1.43
   8  -1 -26   15.79    1.50
   9  -1 -26    0.28    0.42
  10  -1 -26   22.40    1.84
  11  -1 -26    3.01    0.71
  12  -1 -26   13.70    2.25
  13  -1 -26    5.55    1.56
  14  -1 -26    5.61    1.59
  -6   0 -26    7.80    1.59
  -5   0 -26   25.70    2.79
  -4   0 -26   10.82    1.87
  -3   0 -26    3.06    0.95
  -2   0 -26    0.12    0.47
  -1   0 -26    9.61    1.59
   0   0 -26   12.20    1.72
   1   0 -26    8.32    1.45
   2   0 -26   12.13    1.69
   3   0 -26    2.90    0.87
   4   0 -26    0.53    0.40
   5   0 -26    1.18    0.50
   6   0 -26    2.20    0.57
   7   0 -26    1.00    0.45
   8   0 -26    1.02    0.53
   9   0 -26    0.22    0.37
  10   0 -26   16.54    2.46
  11   0 -26   11.54    2.03
  12   0 -26   13.08    2.17
  13   0 -26    2.00    0.95
  14   0 -26    8.48    1.76
  -6   1 -26   16.40    2.27
  -5   1 -26    4.75    1.25
  -4   1 -26    0.12    0.62
  -3   1 -26   -0.07    0.60
  -2   1 -26    1.34    0.72
  -1   1 -26    1.55    0.80
   0   1 -26    0.38    0.62
   1   1 -26    2.59    0.88
   2   1 -26   98.04    5.42
   3   1 -26    0.75    0.45
   4   1 -26   17.73    1.52
   5   1 -26   -0.27    0.64
   6   1 -26   35.01    3.50
   7   1 -26   18.88    2.53
   8   1 -26   17.81    2.43
   9   1 -26    0.75    0.86
  10   1 -26   24.40    3.01
  11   1 -26    1.91    0.97
  12   1 -26   14.68    2.42
  13   1 -26    5.18    1.42
  14   1 -26    8.24    1.81
  -6   2 -26   12.37    2.01
  -5   2 -26    5.01    1.26
  -4   2 -26    5.51    1.26
  -3   2 -26   -0.37    0.53
  -2   2 -26    1.00    0.69
   2   2 -26    0.05    0.75
   3   2 -26    0.30    0.71
   4   2 -26    0.05    0.67
   5   2 -26    4.92    1.41
   6   2 -26   -0.03    0.70
   7   2 -26    0.20    0.70
   8   2 -26    2.68    1.09
   9   2 -26    0.45    0.85
  10   2 -26    1.95    1.01
  11   2 -26    0.38    0.76
  12   2 -26   15.80    2.47
  13   2 -26    8.41    1.92
   1   3 -26   13.97    2.18
   2   3 -26   63.68    4.60
   3   3 -26   -0.05    0.70
   4   3 -26    4.26    1.36
   5   3 -26    0.39    0.74
   6   3 -26   12.56    2.25
   7   3 -26   14.32    2.39
   8   3 -26   15.94    2.61
   9   3 -26    0.91    1.03
  10   3 -26    9.38    2.03
  11   3 -26    4.82    1.53
  12   3 -26   21.50    3.07
   0   4 -26    0.79    1.05
   1   4 -26    2.99    1.12
   2   4 -26    1.06    0.76
   3   4 -26    0.15    0.73
   4   4 -26    0.13    0.80
   5   4 -26    0.75    0.78
   6   4 -26    2.25    1.11
   7   4 -26   -0.19    0.77
   8   4 -26   -0.15    0.79
   9   4 -26    1.08    1.00
  10   4 -26    3.26    1.39
  11   4 -26    0.93    1.57
   0   5 -26   -0.22    0.74
   1   5 -26    1.10    1.04
   2   5 -26    6.95    1.72
   3   5 -26    1.34    1.02
   4   5 -26   24.51    3.12
   5   5 -26    0.27    0.85
   6   5 -26   11.21    2.20
   7   5 -26   -0.87    0.79
  -1  -5 -25    4.91    1.35
   0  -5 -25    1.40    1.00
   1  -5 -25    2.01    0.97
   2  -5 -25    2.27    1.10
   3  -5 -25   -0.02    0.68
   4  -5 -25    2.09    0.94
   5  -5 -25    2.24    0.99
   6  -5 -25   -0.68    0.59
   7  -5 -25    0.55    0.76
   8  -5 -25   -0.54    0.63
   9  -5 -25    4.87    1.37
  10  -5 -25    1.32    1.25
  11  -5 -25    0.65    1.27
  -4  -4 -25    1.63    0.86
  -3  -4 -25   -1.50    0.64
  -2  -4 -25    1.65    0.90
  -1  -4 -25    3.58    1.13
   0  -4 -25   -0.24    0.67
   1  -4 -25    9.94    1.78
   2  -4 -25   -0.40    0.60
   3  -4 -25    1.97    0.94
   4  -4 -25    2.22    0.98
   5  -4 -25   -0.23    0.47
   6  -4 -25   14.23    2.06
   7  -4 -25   -0.21    0.52
   8  -4 -25    0.20    0.67
   9  -4 -25    0.49    0.56
  10  -4 -25    1.83    0.75
  11  -4 -25    3.82    1.59
  12  -4 -25    1.10    1.23
  -5  -3 -25    0.37    0.84
  -4  -3 -25    0.21    0.68
  -3  -3 -25    2.29    1.00
  -2  -3 -25   -0.31    0.48
  -1  -3 -25    1.67    0.89
   0  -3 -25    1.08    0.73
   1  -3 -25    2.06    0.92
   2  -3 -25    0.77    0.71
   3  -3 -25   -0.22    0.50
   4  -3 -25    0.73    0.63
   5  -3 -25    0.85    0.67
   6  -3 -25    0.00    0.52
   7  -3 -25    0.40    0.52
   8  -3 -25    0.59    0.53
   9  -3 -25    0.73    0.51
  10  -3 -25    0.20    0.51
  11  -3 -25    4.95    0.95
  12  -3 -25    1.13    1.00
  13  -3 -25    1.99    1.18
  -6  -2 -25    1.17    0.88
  -5  -2 -25   -0.08    0.71
  -4  -2 -25   -0.61    0.56
  -3  -2 -25   -0.73    0.42
  -2  -2 -25    1.55    0.85
  -1  -2 -25    3.78    1.12
   0  -2 -25    0.32    0.55
   1  -2 -25    1.70    0.79
   2  -2 -25    0.26    0.53
   3  -2 -25    1.53    0.76
   4  -2 -25    0.83    0.65
   5  -2 -25    0.10    0.50
   6  -2 -25    6.98    0.91
   7  -2 -25    1.03    0.50
   8  -2 -25    0.11    0.42
   9  -2 -25    1.12    0.56
  10  -2 -25    0.76    0.51
  11  -2 -25    2.28    0.65
  12  -2 -25    1.15    0.85
  13  -2 -25    0.19    0.65
  14  -2 -25    0.22    0.80
  -7  -1 -25    1.63    0.94
  -6  -1 -25   -0.55    0.58
  -5  -1 -25    0.08    0.57
  -4  -1 -25    0.14    0.52
  -3  -1 -25    0.98    0.75
  -2  -1 -25    0.72    0.68
  -1  -1 -25    0.41    0.56
   0  -1 -25   -0.33    0.46
   1  -1 -25    0.69    0.56
   2  -1 -25   -0.22    0.45
   3  -1 -25    0.21    0.46
   4  -1 -25   -0.32    0.33
   5  -1 -25    0.05    0.36
   6  -1 -25    0.07    0.35
   7  -1 -25    0.18    0.39
   8  -1 -25    0.06    0.39
   9  -1 -25    0.38    0.43
  10  -1 -25    0.06    0.38
  11  -1 -25    0.62    0.46
  12  -1 -25   -0.14    0.66
  13  -1 -25   -0.46    0.61
  14  -1 -25    0.53    0.70
  15  -1 -25   -1.02    0.52
  -7   0 -25    0.60    0.78
  -6   0 -25   -0.27    0.52
  -5   0 -25    0.07    0.62
  -4   0 -25   -0.41    0.55
  -3   0 -25   -0.90    0.43
  -2   0 -25    0.04    0.55
  -1   0 -25   -0.07    0.47
   0   0 -25    0.17    0.42
   1   0 -25    0.14    0.44
   2   0 -25   -0.09    0.42
   3   0 -25   -0.25    0.37
   4   0 -25    0.07    0.33
   5   0 -25   -0.03    0.36
   6   0 -25   -0.08    0.33
   7   0 -25    0.30    0.40
   8   0 -25    0.07    0.37
   9   0 -25    0.22    0.40
  10   0 -25   -0.09    0.36
  11   0 -25   -0.80    0.58
  12   0 -25   -0.08    0.73
  13   0 -25    1.36    0.85
  14   0 -25    0.41    0.66
  15   0 -25   -0.22    0.71
  -7   1 -25    0.22    0.71
  -6   1 -25   -0.49    0.65
  -5   1 -25   -0.02    0.62
  -4   1 -25    0.21    0.56
  -3   1 -25    0.18    0.57
  -2   1 -25   -0.08    0.46
  -1   1 -25   -0.41    0.43
   0   1 -25   -0.68    0.37
   1   1 -25    0.01    0.43
   2   1 -25    0.19    0.46
   3   1 -25   -0.12    0.32
   4   1 -25    0.56    0.41
   5   1 -25    0.19    0.37
   6   1 -25   -0.44    0.63
   7   1 -25    0.10    0.60
   8   1 -25   -0.47    0.47
   9   1 -25    0.25    0.64
  10   1 -25   -0.97    0.49
  11   1 -25    0.61    0.76
  12   1 -25   -0.44    0.68
  13   1 -25    0.11    0.65
  14   1 -25   -0.05    0.83
  15   1 -25   -0.44    0.59
  -7   2 -25    2.07    1.11
  -6   2 -25    0.92    0.82
  -5   2 -25   -0.41    0.60
  -4   2 -25    0.29    0.64
  -3   2 -25    0.31    0.58
  -2   2 -25    2.87    0.92
  -1   2 -25    2.61    0.87
   0   2 -25   -0.18    0.53
   1   2 -25    4.58    1.45
   2   2 -25    0.62    0.69
   3   2 -25    1.32    0.87
   4   2 -25    0.57    0.76
   5   2 -25    0.03    0.56
   6   2 -25    9.25    1.79
   7   2 -25    0.16    0.65
   8   2 -25    0.15    0.64
   9   2 -25   -0.07    0.68
  10   2 -25   -0.56    0.54
  11   2 -25    1.64    1.00
  12   2 -25    0.44    0.67
  13   2 -25    1.57    0.97
  14   2 -25   -0.60    0.71
   0   3 -25    2.15    1.42
   1   3 -25    1.77    0.85
   2   3 -25    1.43    0.88
   3   3 -25   -0.59    0.58
   4   3 -25    0.05    0.64
   5   3 -25    0.21    0.77
   6   3 -25   -0.49    0.49
   7   3 -25    0.90    0.92
   8   3 -25    0.27    0.82
   9   3 -25    0.62    0.82
  10   3 -25    0.42    0.87
  11   3 -25    3.65    1.32
  12   3 -25    1.14    0.95
  13   3 -25    0.84    0.91
   0   4 -25   -0.89    0.69
   1   4 -25    7.75    1.69
   2   4 -25    0.24    0.73
   3   4 -25    1.60    0.86
   4   4 -25    4.64    1.39
   5   4 -25    0.39    0.83
   6   4 -25   11.74    2.23
   7   4 -25   -0.92    0.65
   8   4 -25   -0.27    0.83
   9   4 -25    1.96    1.01
  10   4 -25    4.13    1.43
  11   4 -25    3.54    1.44
  12   4 -25    3.89    1.62
  -1   5 -25    2.95    1.21
   0   5 -25    0.72    0.87
   1   5 -25    1.72    1.04
   2   5 -25    3.34    1.27
   3   5 -25    2.63    1.18
   4   5 -25    1.53    1.04
   5   5 -25    5.75    1.60
   6   5 -25    1.22    1.09
   7   5 -25    1.09    0.89
   8   5 -25   -0.54    0.78
   9   5 -25    3.35    1.34
   0  -6 -24    0.10    0.93
   1  -6 -24   11.35    2.09
   2  -6 -24    0.90    0.83
   3  -6 -24    5.28    1.48
   4  -6 -24    0.71    0.75
   5  -6 -24    0.67    0.88
   6  -6 -24   11.53    1.95
  -3  -5 -24    0.19    0.77
  -2  -5 -24    2.08    1.05
  -1  -5 -24    1.29    0.89
   0  -5 -24    0.53    0.70
   1  -5 -24    0.62    0.79
   2  -5 -24   -0.33    0.69
   3  -5 -24    1.46    0.85
   4  -5 -24    4.84    1.33
   5  -5 -24    5.59    1.39
   6  -5 -24   17.16    2.41
   7  -5 -24    3.00    1.02
   8  -5 -24   -0.62    0.60
   9  -5 -24   32.76    2.71
  10  -5 -24   10.51    1.49
  11  -5 -24    0.29    1.17
  12  -5 -24    0.73    1.36
  -5  -4 -24    2.76    1.08
  -4  -4 -24    7.47    1.65
  -3  -4 -24    1.99    0.99
  -2  -4 -24   31.84    3.24
  -1  -4 -24    2.75    1.04
   0  -4 -24   -0.77    0.53
   1  -4 -24   12.47    1.88
   2  -4 -24    8.01    1.63
   3  -4 -24   16.60    2.30
   4  -4 -24    2.54    0.95
   5  -4 -24    0.30    0.51
   6  -4 -24   13.53    1.98
   7  -4 -24    0.92    0.76
   8  -4 -24    1.78    0.65
   9  -4 -24    0.49    0.54
  10  -4 -24    5.63    1.08
  11  -4 -24   -1.21    0.86
  12  -4 -24    2.72    1.47
  13  -4 -24   -0.70    0.86
  -6  -3 -24    2.49    1.01
  -5  -3 -24    6.37    1.51
  -4  -3 -24    3.86    1.19
  -3  -3 -24    4.19    1.20
  -2  -3 -24    1.17    0.78
  -1  -3 -24    1.31    0.74
   0  -3 -24   14.42    2.02
   1  -3 -24    1.46    0.77
   2  -3 -24    5.12    1.27
   3  -3 -24    2.02    0.82
   4  -3 -24   -0.30    0.37
   5  -3 -24    0.12    0.61
   6  -3 -24   53.30    3.14
   7  -3 -24    3.68    0.82
   8  -3 -24    0.57    0.53
   9  -3 -24   17.48    1.69
  10  -3 -24   21.75    1.89
  11  -3 -24    7.23    1.12
  12  -3 -24    0.24    0.80
  13  -3 -24    3.56    1.36
  14  -3 -24   10.98    2.27
  -7  -2 -24    4.32    1.21
  -6  -2 -24   -0.23    0.69
  -5  -2 -24    4.67    1.20
  -4  -2 -24    0.46    0.58
  -3  -2 -24    8.54    1.55
  -2  -2 -24   50.12    3.59
  -1  -2 -24   -0.06    0.39
   0  -2 -24    0.22    0.55
   1  -2 -24    5.96    1.26
   2  -2 -24   21.43    2.43
   3  -2 -24   18.40    2.20
   4  -2 -24   14.63    1.89
   5  -2 -24    5.42    0.86
   6  -2 -24   18.97    1.64
   7  -2 -24    0.08    0.34
   8  -2 -24    4.65    0.85
   9  -2 -24    2.55    0.68
  10  -2 -24    1.71    0.59
  11  -2 -24    0.52    0.45
  12  -2 -24    4.28    1.27
  13  -2 -24    2.91    1.11
  14  -2 -24   -0.06    0.70
  15  -2 -24   -0.11    0.79
  -8  -1 -24   -0.07    0.71
  -7  -1 -24    5.78    1.33
  -6  -1 -24   11.13    1.83
  -5  -1 -24   18.09    2.28
  -4  -1 -24   18.36    2.32
  -3  -1 -24    0.75    0.61
  -2  -1 -24   23.21    2.40
  -1  -1 -24    0.44    0.50
   0  -1 -24    6.46    1.24
   1  -1 -24    3.49    0.96
   2  -1 -24    5.33    1.12
   3  -1 -24    7.26    1.27
   4  -1 -24    4.48    0.76
   5  -1 -24   11.33    1.20
   6  -1 -24   24.87    1.81
   7  -1 -24    4.05    0.76
   8  -1 -24   27.34    1.97
   9  -1 -24   42.29    2.42
  10  -1 -24   51.05    2.48
  11  -1 -24    0.04    0.37
  12  -1 -24    0.48    0.72
  13  -1 -24    0.10    0.60
  14  -1 -24   21.48    2.98
  15  -1 -24    2.33    1.07
  -8   0 -24   -0.16    0.71
  -7   0 -24    0.54    0.65
  -6   0 -24    2.86    1.01
  -5   0 -24   12.33    1.86
  -4   0 -24    9.65    1.60
  -3   0 -24    0.44    0.58
  -2   0 -24   42.32    2.99
  -1   0 -24   11.41    1.63
   0   0 -24    1.23    0.65
   1   0 -24   25.85    2.44
   2   0 -24    3.77    0.94
   3   0 -24   31.78    1.82
   4   0 -24    0.67    0.41
   5   0 -24    0.04    0.31
   6   0 -24   31.93    1.93
   7   0 -24    9.27    1.05
   8   0 -24    1.94    0.55
   9   0 -24   -0.11    0.36
  10   0 -24   15.35    1.40
  11   0 -24   -0.29    0.32
  12   0 -24   -0.16    0.60
  13   0 -24    0.55    0.78
  14   0 -24    0.66    0.88
  15   0 -24    0.46    0.79
  16   0 -24   -0.47    0.91
  -8   1 -24    0.14    0.67
  -7   1 -24    5.78    1.38
  -6   1 -24    5.84    1.35
  -5   1 -24   14.40    2.05
  -4   1 -24   21.63    2.41
  -3   1 -24    0.76    0.61
  -2   1 -24   17.96    2.08
  -1   1 -24    1.62    0.70
   0   1 -24    6.23    1.16
   1   1 -24    2.86    0.82
   2   1 -24    6.81    0.89
   3   1 -24    7.19    0.93
   4   1 -24    4.01    0.71
   5   1 -24    9.07    1.06
   6   1 -24   18.54    1.54
   7   1 -24    3.78    1.15
   8   1 -24   24.75    2.91
   9   1 -24   48.74    3.74
  10   1 -24   43.97    3.60
  11   1 -24   -0.42    0.53
  12   1 -24   -0.31    0.64
  13   1 -24    0.89    0.78
  14   1 -24   25.97    3.28
  15   1 -24    0.36    0.79
  -8   2 -24    0.08    0.72
  -7   2 -24    7.01    1.49
  -6   2 -24    0.38    0.66
  -5   2 -24    8.32    1.48
  -4   2 -24    0.42    0.67
  -3   2 -24    5.97    1.23
  -2   2 -24   50.77    3.34
  -1   2 -24   -0.05    0.45
   0   2 -24    0.47    0.50
   1   2 -24    5.28    0.84
   2   2 -24   24.04    2.74
   3   2 -24   26.25    2.92
   4   2 -24   15.91    2.27
   5   2 -24    6.06    1.47
   6   2 -24   18.60    2.53
   7   2 -24    1.07    0.69
   8   2 -24    2.09    0.97
   9   2 -24    2.54    1.13
  10   2 -24    1.22    0.88
  11   2 -24   -0.11    0.64
  12   2 -24    6.84    1.68
  13   2 -24    6.00    1.58
  14   2 -24    0.94    0.72
  15   2 -24    0.54    0.82
  -7   3 -24   10.32    1.79
   0   3 -24   16.57    2.22
   1   3 -24    1.86    0.92
   2   3 -24    4.50    1.26
   3   3 -24    0.57    0.76
   4   3 -24    1.59    0.95
   5   3 -24    1.21    0.80
   6   3 -24   47.49    3.90
   7   3 -24    6.65    1.70
   8   3 -24    0.30    0.53
   9   3 -24   23.99    3.07
  10   3 -24   12.95    2.31
  11   3 -24    5.84    1.62
  12   3 -24    0.29    0.79
  13   3 -24    6.20    1.62
  14   3 -24    5.35    1.68
  -1   4 -24    1.15    0.86
   0   4 -24    0.60    0.79
   1   4 -24   12.28    1.97
   2   4 -24    7.24    1.61
   3   4 -24   16.78    2.33
   4   4 -24    2.28    1.01
   5   4 -24    0.44    0.76
   6   4 -24   21.11    2.80
   7   4 -24    0.09    0.62
   8   4 -24    0.42    0.91
   9   4 -24    1.14    0.98
  10   4 -24    7.60    1.90
  11   4 -24   -0.57    0.69
  12   4 -24    0.31    0.88
  13   4 -24   -0.51    0.81
  -2   5 -24    3.24    1.16
  -1   5 -24    2.13    1.11
   0   5 -24    1.04    0.85
   1   5 -24    0.31    0.71
   2   5 -24   -0.59    0.70
   3   5 -24    0.91    0.86
   4   5 -24    1.10    0.91
   5   5 -24    4.53    1.38
   6   5 -24   10.90    2.15
   7   5 -24    9.19    1.99
   8   5 -24   -0.54    0.71
   9   5 -24   30.77    3.73
  10   5 -24    9.63    2.16
  -1   6 -24    3.35    1.30
   0   6 -24    0.45    0.82
   1   6 -24   10.53    2.00
   2   6 -24    0.60    0.84
   3   6 -24    8.58    1.93
   4   6 -24    1.75    1.10
   5   6 -24   -0.06    0.74
   6   6 -24    4.06    1.65
  -2  -6 -23    5.18    1.45
  -1  -6 -23    0.03    0.73
   0  -6 -23    1.34    0.95
   1  -6 -23   -0.55    0.64
   2  -6 -23    0.25    0.74
   3  -6 -23    9.02    1.73
   4  -6 -23    0.86    0.90
   5  -6 -23    0.52    0.73
   6  -6 -23    4.83    1.33
   7  -6 -23    4.91    1.31
   8  -6 -23    1.20    0.85
  10  -6 -23    4.02    1.70
  -5  -5 -23   -0.05    0.70
  -4  -5 -23    0.74    0.74
  -3  -5 -23   -0.15    0.60
  -2  -5 -23    1.14    0.85
  -1  -5 -23    2.68    1.09
   0  -5 -23    1.35    0.96
   1  -5 -23    3.50    1.20
   2  -5 -23   -0.06    0.54
   3  -5 -23   -0.95    0.47
   4  -5 -23    2.55    0.96
   5  -5 -23    0.57    0.67
   6  -5 -23    2.50    0.97
   7  -5 -23    0.91    0.71
   8  -5 -23    0.35    0.61
   9  -5 -23    0.08    0.53
  10  -5 -23    9.11    1.36
  11  -5 -23   -0.16    0.95
  12  -5 -23    0.47    0.97
  -6  -4 -23    1.58    1.00
  -5  -4 -23   -0.02    0.73
  -4  -4 -23    2.51    0.96
  -3  -4 -23    0.51    0.76
  -2  -4 -23    7.03    1.47
  -1  -4 -23    1.47    0.79
   0  -4 -23    7.24    1.44
   1  -4 -23    0.41    0.63
   2  -4 -23    0.28    0.63
   3  -4 -23    7.58    1.44
   4  -4 -23    5.61    1.25
   5  -4 -23    3.72    1.03
   6  -4 -23    3.40    1.07
   7  -4 -23    4.86    0.95
   8  -4 -23   -0.21    0.48
   9  -4 -23    1.89    0.73
  10  -4 -23    4.31    0.94
  11  -4 -23   -0.03    0.86
  12  -4 -23    1.93    1.30
  13  -4 -23    2.82    1.34
  14  -4 -23   -0.18    0.83
  -7  -3 -23    5.32    1.33
  -6  -3 -23   -0.35    0.47
  -5  -3 -23    0.03    0.70
  -4  -3 -23    0.01    0.57
  -3  -3 -23   -0.39    0.45
  -2  -3 -23    3.32    1.06
  -1  -3 -23    1.01    0.65
   0  -3 -23    0.32    0.58
   1  -3 -23    1.40    0.68
   2  -3 -23   -0.11    0.42
   3  -3 -23    1.00    0.68
   4  -3 -23    2.88    0.90
   5  -3 -23    1.98    0.84
   6  -3 -23    2.23    0.59
   7  -3 -23    1.52    0.59
   8  -3 -23   -0.46    0.35
   9  -3 -23   -0.01    0.44
  10  -3 -23    2.49    0.74
  11  -3 -23    0.08    0.46
  12  -3 -23    3.71    1.35
  13  -3 -23    0.62    0.82
  14  -3 -23    0.46    0.76
  15  -3 -23   -0.35    0.75
  -8  -2 -23    0.42    0.78
  -7  -2 -23    1.20    0.85
  -6  -2 -23    1.74    0.87
  -5  -2 -23    1.35    0.78
  -4  -2 -23    0.95    0.68
  -3  -2 -23    0.52    0.60
  -2  -2 -23    3.29    0.98
  -1  -2 -23    0.35    0.59
   0  -2 -23    5.70    1.22
   1  -2 -23   -0.46    0.33
   2  -2 -23   -0.06    0.48
   3  -2 -23    3.83    1.01
   4  -2 -23    1.98    0.73
   5  -2 -23    5.38    0.88
   6  -2 -23    0.13    0.38
   7  -2 -23    3.72    0.74
   8  -2 -23    0.49    0.41
   9  -2 -23    1.41    0.50
  10  -2 -23    2.25    0.61
  11  -2 -23    0.33    0.37
  12  -2 -23    0.75    0.78
  13  -2 -23    0.76    0.83
  14  -2 -23    0.33    0.76
  15  -2 -23    0.21    0.81
  -9  -1 -23   -0.56    0.67
  -8  -1 -23    0.01    0.62
  -7  -1 -23    1.07    0.80
  -6  -1 -23    0.64    0.62
  -5  -1 -23   -0.09    0.55
  -4  -1 -23   -0.03    0.42
  -3  -1 -23    0.28    0.52
  -2  -1 -23    0.28    0.48
  -1  -1 -23    0.34    0.45
   0  -1 -23   -0.20    0.44
   1  -1 -23    0.09    0.45
   2  -1 -23   -0.24    0.37
   3  -1 -23    0.38    0.33
   4  -1 -23    1.10    0.44
   5  -1 -23   -0.36    0.28
   6  -1 -23    0.08    0.36
   7  -1 -23    0.01    0.34
   8  -1 -23    0.14    0.35
   9  -1 -23    0.03    0.35
  10  -1 -23    0.57    0.43
  11  -1 -23    0.41    0.41
  12  -1 -23    1.06    0.77
  13  -1 -23    0.09    0.69
  14  -1 -23    0.02    0.56
  15  -1 -23    0.85    0.86
  16  -1 -23    0.24    0.67
  -9   0 -23   -0.26    0.61
  -8   0 -23   -0.03    0.57
  -7   0 -23   -0.26    0.48
  -6   0 -23   -0.17    0.55
  -5   0 -23    0.05    0.56
  -4   0 -23   -0.19    0.48
  -3   0 -23    0.54    0.47
  -2   0 -23    0.49    0.54
  -1   0 -23    0.08    0.43
   0   0 -23    0.15    0.43
   1   0 -23    0.36    0.40
   2   0 -23   -0.15    0.23
   3   0 -23   -0.29    0.22
   4   0 -23    0.28    0.33
   5   0 -23   -0.12    0.29
   6   0 -23    0.07    0.31
   7   0 -23    0.05    0.30
   8   0 -23   -0.27    0.28
   9   0 -23   -0.45    0.29
  10   0 -23    0.30    0.38
  11   0 -23   -0.55    0.53
  12   0 -23   -0.37    0.46
  13   0 -23    0.46    0.63
  14   0 -23    0.11    0.70
  15   0 -23   -0.17    0.57
  16   0 -23   -0.39    0.72
  -9   1 -23    0.33    0.70
  -8   1 -23    0.02    0.64
  -7   1 -23    1.56    0.86
  -6   1 -23    0.31    0.60
  -5   1 -23    0.12    0.54
  -4   1 -23   -0.41    0.33
  -3   1 -23    0.07    0.50
  -2   1 -23    0.09    0.45
  -1   1 -23    0.63    0.56
   0   1 -23    0.29    0.38
   1   1 -23   -0.24    0.29
   2   1 -23    0.61    0.37
   3   1 -23    0.13    0.33
   4   1 -23    0.09    0.31
   5   1 -23   -0.29    0.28
   6   1 -23    0.08    0.32
   7   1 -23    0.32    0.34
   8   1 -23   -0.37    0.41
   9   1 -23   -0.53    0.43
  10   1 -23    0.14    0.59
  11   1 -23   -0.25    0.44
  12   1 -23    0.16    0.64
  13   1 -23    1.16    0.72
  14   1 -23   -0.51    0.61
  15   1 -23    0.34    0.85
  16   1 -23    0.18    0.78
  -9   2 -23    0.03    0.73
  -8   2 -23    0.36    0.70
  -7   2 -23    1.91    0.83
  -6   2 -23    0.31    0.66
  -5   2 -23    0.73    0.63
  -4   2 -23    0.66    0.59
  -3   2 -23    0.64    0.59
  -2   2 -23    3.76    0.92
  -1   2 -23    0.12    0.48
   0   2 -23    5.39    0.76
   1   2 -23   -0.11    0.29
   2   2 -23   -0.09    0.32
   3   2 -23    1.19    0.72
   4   2 -23    2.42    0.94
   5   2 -23    1.39    0.88
   6   2 -23    0.31    0.63
   7   2 -23    3.84    1.21
   8   2 -23    0.44    0.66
   9   2 -23    3.61    1.22
  10   2 -23    2.50    1.05
  11   2 -23   -0.29    0.50
  12   2 -23   -0.44    0.60
  13   2 -23   -0.16    0.71
  14   2 -23   -0.19    0.55
  15   2 -23    0.43    0.81
  16   2 -23    0.45    0.95
  -8   3 -23   -0.07    0.75
  -7   3 -23    2.61    0.97
  -6   3 -23   -0.03    0.65
  -5   3 -23   -0.06    0.56
  -1   3 -23    0.42    0.66
   0   3 -23    0.53    0.65
   1   3 -23    0.88    0.71
   2   3 -23   -0.61    0.48
   3   3 -23   -0.24    0.58
   4   3 -23    0.94    0.73
   5   3 -23    2.54    0.96
   6   3 -23    1.01    0.81
   7   3 -23    0.58    0.86
   8   3 -23    0.00    0.65
   9   3 -23    0.81    0.72
  10   3 -23    3.11    1.24
  11   3 -23    0.56    0.62
  12   3 -23    1.30    1.01
  13   3 -23    0.21    0.79
  14   3 -23   -0.79    0.75
  15   3 -23    0.25    0.80
  -2   4 -23    9.92    1.68
  -1   4 -23    0.42    0.73
   0   4 -23    5.64    1.33
   1   4 -23   -0.47    0.56
   2   4 -23    0.79    0.80
   3   4 -23    6.23    1.51
   4   4 -23    2.68    1.03
   5   4 -23    2.53    1.00
   6   4 -23    1.24    0.87
   7   4 -23    6.22    1.57
   8   4 -23   -0.08    0.75
   9   4 -23    2.69    1.18
  10   4 -23    6.12    1.64
  11   4 -23    0.94    0.85
  12   4 -23    0.58    0.86
  13   4 -23    2.69    1.37
  -3   5 -23    0.08    0.88
  -2   5 -23    0.05    0.76
  -1   5 -23    0.82    0.82
   0   5 -23    1.32    0.81
   1   5 -23    2.23    0.99
   2   5 -23    0.32    0.70
   3   5 -23    0.35    0.82
   4   5 -23    3.78    1.22
   5   5 -23   -0.70    0.60
   6   5 -23    1.75    0.99
   7   5 -23    0.89    0.91
   8   5 -23    0.96    0.93
   9   5 -23   -0.19    0.82
  10   5 -23    9.31    2.05
  11   5 -23    0.63    0.92
  -2   6 -23    4.11    1.26
  -1   6 -23    1.21    0.90
   0   6 -23   -0.47    0.65
   1   6 -23    0.58    0.69
   2   6 -23   -0.86    0.69
   3   6 -23    2.15    1.09
   4   6 -23    0.65    0.88
   5   6 -23    0.07    0.76
   6   6 -23    3.98    1.39
   7   6 -23    4.11    1.47
   8   6 -23   -0.34    0.86
   1  -7 -22    9.05    2.01
   3  -7 -22    0.12    0.76
   4  -7 -22    2.77    1.18
  -4  -6 -22    0.77    0.96
  -3  -6 -22    0.31    0.92
  -2  -6 -22   -0.08    0.80
  -1  -6 -22    1.10    0.82
   0  -6 -22    5.15    1.40
   1  -6 -22    0.61    0.83
   2  -6 -22    2.06    1.04
   3  -6 -22    0.51    0.68
   4  -6 -22    2.09    0.93
   5  -6 -22    2.64    1.08
   6  -6 -22    2.06    0.89
   7  -6 -22    0.58    0.78
   8  -6 -22    2.45    1.02
   9  -6 -22    5.52    1.82
  10  -6 -22   -1.20    0.99
  11  -6 -22    7.94    2.28
  -6  -5 -22    0.46    0.71
  -5  -5 -22    3.07    1.16
  -4  -5 -22    1.53    0.93
  -3  -5 -22    1.16    0.89
  -2  -5 -22   18.59    2.41
  -1  -5 -22    8.73    1.60
   0  -5 -22   28.31    3.05
   1  -5 -22   11.16    1.91
   2  -5 -22   35.39    3.39
   3  -5 -22    0.50    0.64
   4  -5 -22    5.58    1.26
   5  -5 -22   -0.07    0.51
   6  -5 -22    0.18    0.63
   7  -5 -22    0.31    0.54
   8  -5 -22    1.04    0.57
   9  -5 -22   11.38    1.40
  10  -5 -22    1.34    1.17
  11  -5 -22    1.67    1.36
  12  -5 -22    1.66    1.33
  13  -5 -22   17.14    3.01
  -7  -4 -22    0.08    0.74
  -6  -4 -22    7.61    1.65
  -5  -4 -22   -0.57    0.56
  -4  -4 -22    1.76    0.93
  -3  -4 -22    0.00    0.59
  -2  -4 -22   -0.36    0.63
  -1  -4 -22    1.13    0.72
   0  -4 -22    4.07    1.07
   1  -4 -22    0.37    0.56
   2  -4 -22    5.52    1.21
   3  -4 -22    5.77    1.28
   4  -4 -22    0.03    0.47
   5  -4 -22    2.71    0.90
   6  -4 -22    4.17    0.86
   7  -4 -22    0.22    0.48
   8  -4 -22   10.52    1.37
   9  -4 -22   14.21    1.54
  10  -4 -22   -0.37    0.43
  11  -4 -22    5.35    1.84
  12  -4 -22    1.97    1.20
  13  -4 -22    2.16    1.22
  14  -4 -22   -0.17    0.87
  -8  -3 -22   23.14    2.69
  -7  -3 -22    0.51    0.65
  -6  -3 -22    4.77    1.20
  -5  -3 -22    0.12    0.55
  -4  -3 -22   -0.57    0.36
  -3  -3 -22   20.30    2.43
  -2  -3 -22   48.15    3.35
  -1  -3 -22    1.47    0.81
   0  -3 -22   11.69    1.75
   1  -3 -22    7.57    1.43
   2  -3 -22    0.22    0.44
   3  -3 -22    0.53    0.54
   4  -3 -22   55.13    3.59
   5  -3 -22   19.34    1.70
   6  -3 -22    1.09    0.53
   7  -3 -22   14.18    1.49
   8  -3 -22    7.15    1.06
   9  -3 -22    2.05    0.62
  10  -3 -22    4.59    0.90
  11  -3 -22   18.55    2.85
  12  -3 -22    0.35    0.73
  13  -3 -22    3.42    1.34
  14  -3 -22    2.72    1.20
  15  -3 -22   -0.22    0.81
  -9  -2 -22    0.19    0.64
  -8  -2 -22    2.77    1.05
  -7  -2 -22    1.40    0.76
  -6  -2 -22    7.70    1.46
  -5  -2 -22   -0.64    0.46
  -4  -2 -22    1.12    0.64
  -3  -2 -22   -0.05    0.45
  -2  -2 -22    2.20    0.75
  -1  -2 -22   -0.20    0.42
   0  -2 -22    3.09    0.86
   1  -2 -22    3.07    0.89
   2  -2 -22    2.71    0.84
   3  -2 -22   21.35    2.27
   4  -2 -22    0.53    0.37
   5  -2 -22    3.50    0.70
   6  -2 -22    1.40    0.51
   7  -2 -22    0.23    0.42
   8  -2 -22   28.33    2.06
   9  -2 -22   20.68    1.69
  10  -2 -22    0.55    0.44
  11  -2 -22   14.81    1.47
  12  -2 -22    6.78    1.62
  13  -2 -22   -0.16    0.72
  14  -2 -22    1.10    0.87
  15  -2 -22    3.98    1.22
  16  -2 -22    0.24    0.82
  -9  -1 -22    0.65    0.70
  -8  -1 -22   16.99    2.25
  -7  -1 -22    1.49    0.76
  -6  -1 -22   -0.41    0.46
  -5  -1 -22    0.10    0.51
  -4  -1 -22   10.09    1.56
  -3  -1 -22   20.63    2.24
  -2  -1 -22   52.10    3.43
  -1  -1 -22   16.36    1.86
   0  -1 -22   36.76    2.70
   1  -1 -22    0.77    0.51
   2  -1 -22    2.14    0.74
   3  -1 -22    0.55    0.34
   4  -1 -22   80.53    3.21
   5  -1 -22    3.51    0.69
   6  -1 -22    0.51    0.40
   7  -1 -22   12.60    1.25
   8  -1 -22    1.17    0.42
   9  -1 -22   -0.11    0.33
  10  -1 -22   -0.15    0.32
  11  -1 -22    9.88    1.16
  12  -1 -22    1.81    0.98
  13  -1 -22   21.56    2.79
  14  -1 -22   12.86    2.23
  15  -1 -22    2.23    0.98
  16  -1 -22   -0.09    0.67
 -10   0 -22    2.51    1.03
  -9   0 -22    4.79    1.20
  -8   0 -22   13.90    1.97
  -7   0 -22    2.14    0.86
  -6   0 -22    5.49    1.30
  -5   0 -22    3.58    1.03
  -4   0 -22   21.79    2.42
  -3   0 -22    3.00    0.89
  -2   0 -22    3.19    0.90
  -1   0 -22    6.43    1.18
   0   0 -22   16.42    1.90
   1   0 -22    4.51    0.97
   2   0 -22    5.32    0.76
   3   0 -22    4.21    0.68
   4   0 -22    6.49    0.85
   5   0 -22    4.70    0.75
   6   0 -22   32.30    1.88
   7   0 -22   10.65    1.10
   8   0 -22   16.83    1.41
   9   0 -22    0.25    0.33
  10   0 -22    2.26    0.58
  11   0 -22   58.98    4.24
  12   0 -22    0.18    0.54
  13   0 -22    0.23    0.70
  14   0 -22   20.89    2.75
  15   0 -22   17.66    2.53
  16   0 -22    3.41    1.21
  17   0 -22    1.60    0.99
 -10   1 -22    5.88    1.39
  -9   1 -22    0.05    0.61
  -8   1 -22   18.39    2.31
  -7   1 -22    1.28    0.73
  -6   1 -22    1.18    0.69
  -5   1 -22    1.05    0.62
  -4   1 -22   10.72    1.61
  -3   1 -22   19.76    2.15
  -2   1 -22   51.97    3.32
  -1   1 -22   14.45    1.72
   0   1 -22   37.10    1.90
   1   1 -22    2.58    0.55
   2   1 -22    2.07    0.50
   3   1 -22    0.01    0.27
   4   1 -22   77.37    3.10
   5   1 -22    3.88    0.66
   6   1 -22    0.86    0.39
   7   1 -22   11.12    1.12
   8   1 -22    0.53    0.42
   9   1 -22    0.86    0.67
  10   1 -22   -0.42    0.51
  11   1 -22    9.10    1.81
  12   1 -22    0.80    0.78
  13   1 -22   13.74    2.19
  14   1 -22   13.28    2.17
  15   1 -22    0.40    0.84
  16   1 -22    0.67    0.83
  17   1 -22    0.15    0.86
  -9   2 -22    0.06    0.69
  -8   2 -22    2.35    1.01
  -7   2 -22    0.41    0.57
  -6   2 -22    9.50    1.55
  -5   2 -22   -0.11    0.44
  -4   2 -22    2.63    0.84
  -3   2 -22    0.00    0.48
  -2   2 -22    3.37    0.84
  -1   2 -22   -0.10    0.29
   0   2 -22    3.68    0.63
   1   2 -22    3.82    0.60
   2   2 -22    1.86    0.46
   3   2 -22   21.03    2.53
   4   2 -22    1.32    0.83
   5   2 -22    3.47    1.09
   6   2 -22    2.34    0.99
   7   2 -22    0.37    0.51
   8   2 -22   27.53    3.19
   9   2 -22   19.47    2.66
  10   2 -22   -0.07    0.60
  11   2 -22   13.30    2.22
  12   2 -22    4.86    1.35
  13   2 -22    0.37    0.78
  14   2 -22    1.00    0.84
  15   2 -22    4.64    1.42
  16   2 -22   -0.20    0.81
  -9   3 -22    2.34    0.99
  -8   3 -22   18.68    2.34
  -7   3 -22   -0.24    0.58
  -6   3 -22    4.13    1.05
  -5   3 -22    1.29    0.74
  -4   3 -22    0.03    0.45
  -3   3 -22   23.73    3.36
  -2   3 -22   36.06    3.00
  -1   3 -22    3.06    0.97
   0   3 -22   13.53    1.89
   1   3 -22    6.56    1.37
   2   3 -22    0.75    0.69
   3   3 -22    0.61    0.57
   4   3 -22   54.52    3.85
   5   3 -22   14.34    2.16
   6   3 -22    0.49    0.65
   7   3 -22   14.87    2.23
   8   3 -22    5.52    1.42
   9   3 -22    1.79    0.90
  10   3 -22    2.54    1.08
  11   3 -22   12.70    2.22
  12   3 -22    0.36    0.75
  13   3 -22    7.18    1.69
  14   3 -22    3.06    0.94
  15   3 -22    0.27    0.66
  16   3 -22    2.86    1.50
  -3   4 -22   -0.07    0.74
  -2   4 -22   -0.18    0.57
  -1   4 -22    0.16    0.58
   0   4 -22    4.28    1.15
   1   4 -22    1.44    0.80
   2   4 -22    2.66    0.97
   3   4 -22    8.64    1.65
   4   4 -22   -0.06    0.59
   5   4 -22    4.41    1.23
   6   4 -22    2.26    1.04
   7   4 -22   -0.01    0.72
   8   4 -22   12.94    2.19
   9   4 -22    8.33    1.88
  10   4 -22   -0.30    0.63
  11   4 -22   12.00    2.23
  12   4 -22    3.96    1.13
  13   4 -22   -0.03    0.62
  14   4 -22    0.23    0.69
  15   4 -22    6.50    2.04
  -3   5 -22    0.92    0.89
  -2   5 -22   18.13    2.42
  -1   5 -22    6.44    1.41
   0   5 -22   26.91    2.91
   1   5 -22   10.87    1.85
   2   5 -22   31.27    3.34
   3   5 -22    2.78    1.03
   4   5 -22    4.37    1.27
   5   5 -22   -0.20    0.57
   6   5 -22    0.85    0.78
   7   5 -22    0.16    0.71
   8   5 -22    2.10    1.14
   9   5 -22    8.75    1.90
  10   5 -22   -0.31    0.79
  11   5 -22    2.07    0.89
  12   5 -22    2.36    0.97
  13   5 -22   23.02    3.31
  -4   6 -22    0.24    0.81
  -3   6 -22    0.77    0.86
  -2   6 -22    0.36    0.80
  -1   6 -22    1.61    0.96
   0   6 -22    4.12    1.32
   1   6 -22   -0.22    0.67
   2   6 -22    3.97    1.35
   3   6 -22    0.40    0.73
   4   6 -22    2.72    1.09
   5   6 -22    2.17    1.15
   6   6 -22    2.41    1.16
   7   6 -22    1.77    1.01
   8   6 -22    1.74    1.14
   9   6 -22    3.91    1.46
  10   6 -22   -0.24    0.67
  11   6 -22    9.07    2.15
  -1  -7 -21    0.55    0.97
   0  -7 -21    4.49    1.37
   1  -7 -21    0.54    0.87
   2  -7 -21    1.04    0.84
   3  -7 -21    1.51    0.93
   4  -7 -21    2.50    1.13
   5  -7 -21    1.15    0.96
   6  -7 -21   -1.09    0.63
   7  -7 -21    0.50    0.84
  -5  -6 -21    0.40    0.76
  -4  -6 -21    1.21    0.91
  -3  -6 -21    0.88    0.87
  -2  -6 -21   -0.48    0.63
  -1  -6 -21    1.03    0.86
   0  -6 -21    1.31    0.87
   1  -6 -21    0.86    0.80
   2  -6 -21    0.55    0.65
   3  -6 -21    1.62    0.86
   4  -6 -21   -0.30    0.57
   5  -6 -21    1.67    0.82
   6  -6 -21    0.63    0.72
   7  -6 -21    1.40    0.78
   8  -6 -21    4.91    1.29
   9  -6 -21    1.83    1.33
  10  -6 -21    1.90    1.44
  11  -6 -21    0.91    1.27
  -7  -5 -21    4.03    1.24
  -6  -5 -21    2.48    0.96
  -5  -5 -21    0.70    0.79
  -4  -5 -21    0.44    0.82
  -3  -5 -21    3.85    1.12
  -2  -5 -21    1.75    0.78
  -1  -5 -21    4.48    1.20
   0  -5 -21    7.71    1.55
   1  -5 -21    2.16    0.92
   2  -5 -21    0.32    0.62
   3  -5 -21    0.29    0.55
   4  -5 -21    0.06    0.57
   5  -5 -21    5.73    1.28
   6  -5 -21    0.55    0.72
   7  -5 -21    0.24    0.50
   8  -5 -21    1.03    0.55
   9  -5 -21    3.99    0.86
  10  -5 -21    0.14    0.82
  11  -5 -21    0.01    0.87
  12  -5 -21    0.50    0.93
  13  -5 -21    1.53    1.16
  -8  -4 -21    3.46    1.17
  -7  -4 -21    1.50    0.82
  -6  -4 -21    1.69    0.78
  -5  -4 -21    0.59    0.65
  -4  -4 -21    0.09    0.59
  -3  -4 -21    0.41    0.56
  -2  -4 -21    0.40    0.57
  -1  -4 -21    5.36    1.23
   0  -4 -21    4.26    1.05
   1  -4 -21    4.19    1.07
   2  -4 -21   -0.39    0.36
   3  -4 -21    1.08    0.68
   4  -4 -21    2.84    0.88
   5  -4 -21    4.99    1.10
   6  -4 -21    6.13    0.95
   7  -4 -21    0.84    0.53
   8  -4 -21    6.62    1.07
   9  -4 -21    2.38    0.67
  10  -4 -21    4.55    0.90
  11  -4 -21    0.21    0.84
  12  -4 -21    0.56    0.93
  13  -4 -21    0.88    1.10
  14  -4 -21    1.27    1.09
  15  -4 -21    0.52    0.89
  -9  -3 -21    0.01    0.60
  -8  -3 -21   -0.81    0.57
  -7  -3 -21    7.16    1.52
  -6  -3 -21    1.03    0.68
  -5  -3 -21    0.17    0.52
  -4  -3 -21    0.23    0.59
  -3  -3 -21    2.93    0.96
  -2  -3 -21    0.42    0.57
  -1  -3 -21    1.57    0.71
   0  -3 -21    1.74    0.77
   1  -3 -21    0.07    0.37
   2  -3 -21    1.28    0.64
   3  -3 -21    0.20    0.46
   4  -3 -21    3.92    0.69
   5  -3 -21    0.08    0.31
   6  -3 -21    0.21    0.42
   7  -3 -21    4.26    0.79
   8  -3 -21    0.51    0.44
   9  -3 -21    5.57    0.90
  10  -3 -21    2.16    0.65
  11  -3 -21    0.66    0.76
  12  -3 -21    1.04    0.91
  13  -3 -21    0.59    0.72
  14  -3 -21    0.63    0.82
  15  -3 -21    0.80    0.89
  16  -3 -21    1.62    0.99
 -10  -2 -21    0.78    0.80
  -9  -2 -21    1.38    0.87
  -8  -2 -21    0.49    0.62
  -7  -2 -21    0.43    0.58
  -6  -2 -21    0.54    0.61
  -5  -2 -21   -0.44    0.33
  -4  -2 -21    0.36    0.52
  -3  -2 -21    0.82    0.55
  -2  -2 -21    1.01    0.63
  -1  -2 -21    2.59    0.84
   0  -2 -21    2.97    0.84
   1  -2 -21    6.08    1.16
   2  -2 -21   -0.07    0.36
   3  -2 -21    0.42    0.35
   4  -2 -21    2.57    0.63
   5  -2 -21    2.67    0.58
   6  -2 -21    5.84    0.85
   7  -2 -21    0.90    0.39
   8  -2 -21    3.75    0.75
   9  -2 -21    1.70    0.51
  10  -2 -21    1.90    0.61
  11  -2 -21    2.25    1.00
  12  -2 -21    0.32    0.59
  13  -2 -21    2.28    1.03
  14  -2 -21    0.94    0.79
  15  -2 -21    0.44    0.80
  16  -2 -21    1.10    0.84
 -10  -1 -21   -0.49    0.61
  -9  -1 -21   -0.15    0.49
  -8  -1 -21    0.67    0.64
  -7  -1 -21    0.72    0.68
  -6  -1 -21    0.15    0.56
  -5  -1 -21    0.35    0.50
  -4  -1 -21   -0.10    0.41
  -3  -1 -21   -0.12    0.38
  -2  -1 -21   -0.15    0.34
  -1  -1 -21   -0.03    0.42
   0  -1 -21    0.04    0.44
   1  -1 -21    0.16    0.38
   2  -1 -21   -0.34    0.27
   3  -1 -21   -0.29    0.25
   4  -1 -21    0.22    0.34
   5  -1 -21    0.44    0.36
   6  -1 -21    0.07    0.34
   7  -1 -21    0.07    0.30
   8  -1 -21   -0.03    0.31
   9  -1 -21    1.10    0.43
  10  -1 -21   -0.07    0.27
  11  -1 -21    0.91    0.69
  12  -1 -21   -0.61    0.51
  13  -1 -21    1.92    0.93
  14  -1 -21    0.65    0.72
  15  -1 -21   -0.05    0.65
  16  -1 -21    0.63    0.72
  17  -1 -21   -0.11    0.56
 -10   0 -21   -0.17    0.62
  -9   0 -21    0.06    0.64
  -8   0 -21    0.25    0.59
  -7   0 -21    0.09    0.57
  -6   0 -21    0.25    0.56
  -5   0 -21   -0.04    0.52
  -4   0 -21   -0.12    0.40
  -3   0 -21    0.12    0.44
  -2   0 -21   -0.38    0.36
  -1   0 -21    0.12    0.35
   0   0 -21    0.04    0.33
   1   0 -21    0.18    0.27
   2   0 -21   -0.31    0.23
   3   0 -21   -0.20    0.23
   4   0 -21   -0.33    0.27
   5   0 -21   -0.17    0.24
   6   0 -21   -0.28    0.24
   7   0 -21    0.02    0.29
   8   0 -21   -0.15    0.28
   9   0 -21   -0.12    0.28
  10   0 -21   -0.87    0.22
  11   0 -21   -0.33    0.45
  12   0 -21   -0.34    0.39
  13   0 -21    0.15    0.54
  14   0 -21   -0.01    0.65
  15   0 -21   -0.48    0.40
  16   0 -21   -0.41    0.67
  17   0 -21   -0.37    0.66
  18   0 -21    0.02    1.10
 -10   1 -21    0.02    0.74
  -9   1 -21   -0.18    0.58
  -8   1 -21    1.02    0.72
  -7   1 -21    1.55    0.74
  -6   1 -21    1.12    0.70
  -5   1 -21    0.49    0.49
  -4   1 -21    0.36    0.45
  -3   1 -21    0.25    0.42
  -2   1 -21   -0.03    0.40
  -1   1 -21    0.83    0.54
   0   1 -21    0.70    0.34
   1   1 -21    0.12    0.24
   2   1 -21    0.00    0.29
   3   1 -21    0.20    0.32
   4   1 -21    0.39    0.30
   5   1 -21   -0.06    0.24
   6   1 -21   -0.16    0.30
   7   1 -21    0.03    0.30
   8   1 -21   -0.07    0.30
   9   1 -21   -0.18    0.56
  10   1 -21   -0.67    0.53
  11   1 -21    0.38    0.71
  12   1 -21   -0.13    0.50
  13   1 -21    0.68    0.81
  14   1 -21   -0.13    0.42
  15   1 -21    0.10    0.49
  16   1 -21    0.15    0.44
  17   1 -21   -0.06    0.53
  18   1 -21    1.72    1.11
 -10   2 -21    0.81    0.80
  -9   2 -21   -0.41    0.60
  -8   2 -21    0.56    0.67
  -7   2 -21    0.14    0.57
  -6   2 -21    2.56    0.87
  -5   2 -21    0.05    0.46
  -4   2 -21   -0.16    0.42
  -3   2 -21   -0.14    0.42
  -2   2 -21    2.34    0.72
  -1   2 -21    7.13    0.84
   0   2 -21    2.72    0.53
   1   2 -21    4.43    0.66
   2   2 -21   -0.34    0.23
   3   2 -21    0.99    0.38
   4   2 -21    2.82    0.99
   5   2 -21    3.06    0.99
   6   2 -21    5.73    1.38
   7   2 -21    0.55    0.60
   8   2 -21    1.86    0.90
   9   2 -21    0.21    0.67
  10   2 -21    2.43    0.99
  11   2 -21    1.52    0.90
  12   2 -21    0.63    0.48
  13   2 -21    2.43    0.74
  14   2 -21   -0.21    0.52
  15   2 -21    0.24    0.62
  16   2 -21    0.15    0.60
  17   2 -21    0.88    0.66
 -10   3 -21    0.55    0.74
  -9   3 -21    0.88    0.72
  -8   3 -21    0.43    0.64
  -7   3 -21    7.58    1.35
  -6   3 -21    0.43    0.59
  -5   3 -21    0.03    0.54
  -4   3 -21    0.83    0.55
  -3   3 -21    3.55    0.87
  -2   3 -21    0.45    0.39
  -1   3 -21    1.19    0.72
   0   3 -21    1.86    0.82
   1   3 -21   -0.09    0.53
   2   3 -21    0.75    0.67
   3   3 -21   -0.07    0.48
   4   3 -21    1.24    0.69
   5   3 -21   -0.21    0.57
   6   3 -21    0.66    0.66
   7   3 -21    2.72    0.94
   8   3 -21   -0.51    0.59
   9   3 -21    2.62    1.12
  10   3 -21    1.45    0.65
  11   3 -21    0.55    0.59
  12   3 -21    1.22    0.61
  13   3 -21    0.14    0.57
  14   3 -21    0.24    0.61
  15   3 -21    0.58    0.67
  16   3 -21    1.34    0.72
  -3   4 -21    0.65    0.68
  -2   4 -21    1.34    0.75
  -1   4 -21    8.50    1.55
   0   4 -21    3.70    1.05
   1   4 -21    4.51    1.16
   2   4 -21    0.34    0.58
   3   4 -21    0.83    0.72
   4   4 -21    3.83    1.13
   5   4 -21    4.92    1.23
   6   4 -21    2.21    0.97
   7   4 -21    1.09    0.80
   8   4 -21    8.10    1.75
   9   4 -21    3.89    0.87
  10   4 -21    6.48    1.15
  11   4 -21   -0.75    0.48
  12   4 -21    0.59    0.63
  13   4 -21    2.15    0.89
  14   4 -21    0.92    0.76
  15   4 -21    0.13    0.70
  -4   5 -21   -0.03    0.66
  -3   5 -21    2.73    1.03
  -2   5 -21    1.89    0.99
  -1   5 -21    4.46    1.16
   0   5 -21    2.40    0.96
   1   5 -21    1.93    0.87
   2   5 -21    0.63    0.67
   3   5 -21   -0.30    0.45
   4   5 -21    2.49    0.94
   5   5 -21    4.65    1.26
   6   5 -21   -0.61    0.51
   7   5 -21   -0.25    0.55
   8   5 -21    0.21    0.51
   9   5 -21    3.00    0.82
  10   5 -21   -0.12    0.55
  11   5 -21    0.08    0.58
  12   5 -21    0.71    0.73
  13   5 -21    0.97    0.77
  14   5 -21   -0.29    1.13
  -5   6 -21   -0.89    0.72
  -4   6 -21    1.11    0.86
  -3   6 -21    1.63    0.94
  -2   6 -21    0.33    0.72
  -1   6 -21    2.21    1.00
   0   6 -21    4.06    1.26
   1   6 -21    0.74    0.76
   2   6 -21    0.39    0.67
   3   6 -21    0.06    0.66
   4   6 -21    0.73    0.83
   5   6 -21    0.80    0.91
   6   6 -21   -0.95    0.63
   7   6 -21    2.09    0.77
   8   6 -21    3.26    0.90
   9   6 -21    2.73    0.88
  10   6 -21    1.58    0.76
  11   6 -21    2.58    0.90
  12   6 -21    0.33    1.17
   0   7 -21    4.05    1.56
   1   7 -21    0.79    0.94
   2   7 -21    0.72    0.89
   3   7 -21    1.10    1.02
   4   7 -21    3.49    1.31
   5   7 -21    3.87    1.38
   6   7 -21   -0.34    0.80
   7   7 -21    0.15    0.91
   8   7 -21   -0.16    0.86
  -3  -7 -20   19.50    2.74
  -2  -7 -20    3.90    1.42
  -1  -7 -20    2.39    1.12
   0  -7 -20    0.69    0.87
   1  -7 -20    1.60    0.89
   2  -7 -20   26.42    2.98
   3  -7 -20   -0.09    0.77
   4  -7 -20    1.54    0.91
   5  -7 -20   28.83    3.16
   6  -7 -20    3.88    1.15
   7  -7 -20    0.71    0.73
  -6  -6 -20   13.01    2.21
  -5  -6 -20    0.01    0.79
  -4  -6 -20    1.22    0.90
  -3  -6 -20   11.36    1.95
  -2  -6 -20   12.09    1.95
  -1  -6 -20    0.13    0.68
   0  -6 -20    5.08    1.29
   1  -6 -20    0.54    0.72
   2  -6 -20    3.28    1.14
   3  -6 -20    1.86    0.93
   4  -6 -20   -0.15    0.49
   5  -6 -20    1.49    0.86
   6  -6 -20    6.73    1.46
   7  -6 -20    0.73    0.63
   8  -6 -20    2.02    0.71
   9  -6 -20    1.35    1.09
  10  -6 -20    8.17    2.10
  11  -6 -20   10.32    2.38
  12  -6 -20    2.31    1.27
  -8  -5 -20    0.69    0.92
  -7  -5 -20    0.38    0.68
  -6  -5 -20   12.01    1.94
  -5  -5 -20    0.79    0.73
  -4  -5 -20    0.05    0.61
  -3  -5 -20   18.46    2.38
  -2  -5 -20    0.24    0.61
  -1  -5 -20   -0.64    0.49
   0  -5 -20    7.91    1.42
   1  -5 -20   14.66    2.03
   2  -5 -20   27.04    2.78
   3  -5 -20    9.86    1.61
   4  -5 -20    1.47    0.76
   5  -5 -20   69.75    4.58
   6  -5 -20   15.36    1.50
   7  -5 -20    1.35    0.58
   8  -5 -20    2.66    0.75
   9  -5 -20   20.11    1.82
  10  -5 -20    3.00    1.27
  11  -5 -20    0.72    1.03
  12  -5 -20    1.53    1.04
  13  -5 -20    6.11    1.87
  14  -5 -20   -0.01    0.79
  -9  -4 -20    0.37    0.66
  -8  -4 -20   12.64    2.02
  -7  -4 -20    0.81    0.74
  -6  -4 -20   36.45    2.90
  -5  -4 -20    0.19    0.61
  -4  -4 -20   -0.68    0.46
  -3  -4 -20    6.88    1.39
  -2  -4 -20   17.29    2.19
  -1  -4 -20    0.01    0.55
   0  -4 -20    1.74    0.81
   1  -4 -20    0.44    0.60
   2  -4 -20    2.40    0.81
   3  -4 -20    1.49    0.72
   4  -4 -20   -0.09    0.36
   5  -4 -20    0.18    0.40
   6  -4 -20    4.15    0.78
   7  -4 -20    2.61    0.68
   8  -4 -20   21.84    1.89
   9  -4 -20   -0.27    0.36
  10  -4 -20    5.72    1.00
  11  -4 -20    5.19    1.57
  12  -4 -20    3.41    1.33
  13  -4 -20   30.88    3.83
  14  -4 -20    2.19    1.14
  15  -4 -20    1.33    1.10
 -10  -3 -20    0.15    0.80
  -9  -3 -20    1.09    0.83
  -8  -3 -20   -0.03    0.53
  -7  -3 -20   11.14    1.80
  -6  -3 -20    4.14    1.12
  -5  -3 -20   10.73    1.68
  -4  -3 -20    7.29    1.37
  -3  -3 -20   23.99    2.49
  -2  -3 -20    0.68    0.57
  -1  -3 -20    9.22    1.49
   0  -3 -20   16.54    2.05
   1  -3 -20    7.89    1.32
   2  -3 -20   60.67    3.78
   3  -3 -20   34.32    2.62
   4  -3 -20    2.12    0.57
   5  -3 -20   76.53    3.27
   6  -3 -20   10.20    1.19
   7  -3 -20    0.13    0.35
   8  -3 -20   -0.01    0.32
   9  -3 -20   65.63    3.20
  10  -3 -20    1.23    0.52
  11  -3 -20    6.67    1.66
  12  -3 -20    1.11    0.99
  13  -3 -20   39.71    4.06
  14  -3 -20    0.28    0.84
  15  -3 -20    7.48    1.83
  16  -3 -20    2.16    1.03
 -11  -2 -20   14.57    2.50
 -10  -2 -20    1.68    0.93
  -9  -2 -20    0.60    0.74
  -8  -2 -20    6.81    1.44
  -7  -2 -20    2.12    0.83
  -6  -2 -20   61.94    4.12
  -5  -2 -20   11.59    1.71
  -4  -2 -20    2.52    0.84
  -3  -2 -20    3.22    0.93
  -2  -2 -20   39.23    2.79
  -1  -2 -20    0.20    0.43
   0  -2 -20    0.39    0.44
   1  -2 -20    0.42    0.40
   2  -2 -20   -0.22    0.31
   3  -2 -20   -0.24    0.23
   4  -2 -20    0.62    0.38
   5  -2 -20    1.39    0.47
   6  -2 -20   -0.38    0.29
   7  -2 -20    4.58    0.77
   8  -2 -20   70.19    3.04
   9  -2 -20    7.09    0.97
  10  -2 -20    0.91    0.49
  11  -2 -20    1.08    0.75
  12  -2 -20    3.38    1.20
  13  -2 -20   85.36    5.55
  14  -2 -20    0.00    0.60
  15  -2 -20    1.21    0.81
  16  -2 -20    0.88    0.86
  17  -2 -20    8.34    1.91
 -11  -1 -20   -0.38    0.64
 -10  -1 -20    0.84    0.70
  -9  -1 -20   17.42    2.26
  -8  -1 -20    0.37    0.57
  -7  -1 -20    0.88    0.63
  -6  -1 -20   16.07    2.07
  -5  -1 -20   23.10    2.37
  -4  -1 -20    0.37    0.47
  -3  -1 -20    9.95    1.52
  -2  -1 -20    6.46    1.16
  -1  -1 -20    0.71    0.50
   0  -1 -20   43.88    2.78
   1  -1 -20   61.47    2.56
   2  -1 -20   15.96    1.31
   3  -1 -20  120.53    4.42
   4  -1 -20    4.06    0.68
   5  -1 -20  128.05    4.54
   6  -1 -20   48.87    2.25
   7  -1 -20   25.53    1.59
   8  -1 -20    1.50    0.47
   9  -1 -20   37.51    1.94
  10  -1 -20    0.17    0.34
  11  -1 -20    9.54    1.78
  12  -1 -20    1.42    0.87
  13  -1 -20   37.55    3.72
  14  -1 -20    1.23    0.80
  15  -1 -20    4.16    0.94
  16  -1 -20    0.43    0.59
  17  -1 -20   31.54    2.43
  18  -1 -20   11.41    2.02
 -11   0 -20    3.48    1.19
 -10   0 -20    0.28    0.59
  -9   0 -20   -0.41    0.59
  -8   0 -20   33.34    3.11
  -7   0 -20    0.12    0.48
  -6   0 -20   39.13    2.87
  -5   0 -20    0.57    0.53
  -4   0 -20    6.30    1.20
  -3   0 -20   23.94    2.33
  -2   0 -20   12.45    1.61
  -1   0 -20    1.07    0.57
   0   0 -20   12.84    1.12
   1   0 -20    3.15    0.55
   2   0 -20   14.24    1.19
   3   0 -20   23.26    1.46
   4   0 -20    0.89    0.37
   5   0 -20    5.46    0.75
   6   0 -20   15.44    1.28
   7   0 -20    1.44    0.43
   8   0 -20   21.03    1.58
   9   0 -20    1.94    0.51
  10   0 -20   11.75    1.16
  11   0 -20   20.16    2.63
  12   0 -20    4.31    1.24
  13   0 -20   44.99    2.40
  14   0 -20    5.35    0.96
  15   0 -20    0.13    0.47
  16   0 -20    9.14    1.28
  17   0 -20    3.76    0.90
  18   0 -20    1.31    0.66
 -11   1 -20   -0.13    0.70
 -10   1 -20    0.70    0.74
  -9   1 -20   21.66    2.50
  -8   1 -20    0.29    0.60
  -7   1 -20    1.56    0.71
  -6   1 -20   14.52    1.92
  -5   1 -20   21.53    2.24
  -4   1 -20   -0.10    0.37
  -3   1 -20    6.89    1.20
  -2   1 -20    7.58    1.21
  -1   1 -20   -0.30    0.24
   0   1 -20   38.99    1.85
   1   1 -20   57.48    2.43
   2   1 -20   17.87    1.33
   3   1 -20  121.41    4.35
   4   1 -20    3.14    0.56
   5   1 -20  119.08    4.36
   6   1 -20   43.95    2.11
   7   1 -20   22.11    1.42
   8   1 -20    1.74    0.46
   9   1 -20   33.43    1.79
  10   1 -20    0.26    0.58
  11   1 -20    4.85    0.88
  12   1 -20    1.86    0.65
  13   1 -20   38.08    2.37
  14   1 -20    1.29    0.58
  15   1 -20    3.57    0.84
  16   1 -20    0.29    0.50
  17   1 -20   30.10    2.35
  18   1 -20   12.08    1.65
 -11   2 -20   10.38    1.86
 -10   2 -20    0.17    0.62
  -9   2 -20    1.12    0.65
  -8   2 -20    5.15    1.28
  -7   2 -20    1.80    0.77
  -6   2 -20   68.31    4.03
  -5   2 -20   12.60    1.63
  -4   2 -20    1.71    0.68
  -3   2 -20    3.46    0.81
  -2   2 -20   41.01    1.89
  -1   2 -20    0.49    0.31
   0   2 -20   -0.10    0.27
   1   2 -20    0.46    0.30
   2   2 -20   -0.10    0.27
   3   2 -20   -0.01    0.25
   4   2 -20    0.99    0.39
   5   2 -20    1.63    0.78
   6   2 -20    0.20    0.52
   7   2 -20    4.69    1.25
   8   2 -20   68.38    4.52
   9   2 -20    4.28    0.83
  10   2 -20    1.39    0.57
  11   2 -20    1.21    0.53
  12   2 -20    2.36    0.64
  13   2 -20   82.09    3.80
  14   2 -20    0.47    0.49
  15   2 -20    0.07    0.53
  16   2 -20    0.25    0.57
  17   2 -20    7.35    1.23
  18   2 -20    3.44    1.52
 -10   3 -20    0.59    0.79
  -9   3 -20    1.69    0.89
  -8   3 -20    0.08    0.54
  -7   3 -20   11.40    1.69
  -6   3 -20    6.48    1.20
  -5   3 -20   10.26    1.51
  -4   3 -20   10.80    1.51
  -3   3 -20   25.43    1.69
  -2   3 -20    0.57    0.37
  -1   3 -20    7.29    1.01
   0   3 -20   19.10    2.14
   1   3 -20    7.12    1.35
   2   3 -20   59.94    3.95
   3   3 -20   41.39    3.04
   4   3 -20    2.03    0.84
   5   3 -20   80.90    4.80
   6   3 -20   13.37    2.02
   7   3 -20    0.13    0.42
   8   3 -20    0.03    0.44
   9   3 -20   82.23    3.51
  10   3 -20    2.31    0.77
  11   3 -20    5.60    1.06
  12   3 -20    1.41    0.74
  13   3 -20   34.43    2.56
  14   3 -20    0.85    0.62
  15   3 -20    4.90    1.06
  16   3 -20    2.12    0.82
  17   3 -20   10.69    1.53
  -9   4 -20    0.70    0.84
  -4   4 -20    0.58    0.60
  -3   4 -20    6.84    1.28
  -2   4 -20   22.34    2.44
  -1   4 -20   -0.11    0.53
   0   4 -20    1.64    0.73
   1   4 -20    0.16    0.56
   2   4 -20    1.50    0.77
   3   4 -20    0.94    0.62
   4   4 -20    0.70    0.60
   5   4 -20   -0.22    0.57
   6   4 -20    3.61    0.74
   7   4 -20    2.05    0.61
   8   4 -20   20.45    1.82
   9   4 -20    0.41    0.50
  10   4 -20    6.33    1.10
  11   4 -20    6.52    1.16
  12   4 -20    3.46    0.92
  13   4 -20   29.65    2.53
  14   4 -20    1.64    0.80
  15   4 -20    0.26    0.63
  16   4 -20    2.13    0.97
  -5   5 -20    0.71    0.75
  -4   5 -20    0.96    0.69
  -3   5 -20   15.02    2.06
  -2   5 -20    0.74    0.70
  -1   5 -20   -0.07    0.59
   0   5 -20    3.74    1.16
   1   5 -20   23.50    2.63
   2   5 -20   25.74    2.88
   3   5 -20    8.37    1.68
   4   5 -20    1.45    0.65
   5   5 -20   80.57    3.45
   6   5 -20   20.71    1.75
   7   5 -20    0.97    0.54
   8   5 -20    5.52    0.99
   9   5 -20   16.89    1.74
  10   5 -20    2.74    0.90
  11   5 -20   -0.31    0.58
  12   5 -20    1.24    0.74
  13   5 -20   12.30    1.68
  14   5 -20    0.91    0.77
  -5   6 -20    1.76    0.99
  -4   6 -20   -0.40    0.73
  -3   6 -20   13.93    2.07
  -2   6 -20    7.06    1.48
  -1   6 -20    0.16    0.72
   0   6 -20    3.48    1.11
   1   6 -20   -0.38    0.62
   2   6 -20    2.24    0.97
   3   6 -20    2.68    1.01
   4   6 -20   -0.08    0.41
   5   6 -20    1.96    0.67
   6   6 -20    9.18    1.24
   7   6 -20    0.86    0.58
   8   6 -20    2.38    0.79
   9   6 -20    0.97    0.64
  10   6 -20    8.69    1.38
  11   6 -20   10.10    1.53
  12   6 -20    1.55    0.90
  -2   7 -20    3.92    1.25
  -1   7 -20    0.90    0.90
   0   7 -20   -0.25    0.71
   1   7 -20    1.53    0.99
   2   7 -20   22.84    2.96
   3   7 -20    0.71    0.60
   4   7 -20    0.88    0.60
   5   7 -20   28.24    2.27
   6   7 -20    3.43    0.86
   7   7 -20    0.90    0.61
   8   7 -20    4.09    1.05
   9   7 -20   15.81    2.60
  -3  -7 -19    2.19    1.33
  -2  -7 -19    1.03    0.94
  -1  -7 -19    0.00    0.78
   0  -7 -19    5.33    1.43
   1  -7 -19    2.11    0.99
   2  -7 -19   11.74    1.90
   3  -7 -19    3.45    1.14
   4  -7 -19    1.96    0.97
   5  -7 -19    1.20    0.87
   6  -7 -19    4.53    1.27
   9  -7 -19    0.51    1.02
  10  -7 -19    1.65    1.23
  -7  -6 -19    4.67    1.40
  -6  -6 -19    8.08    1.78
  -5  -6 -19    1.11    0.91
  -4  -6 -19    0.96    0.78
  -3  -6 -19   -0.51    0.55
  -2  -6 -19    0.70    0.66
  -1  -6 -19    2.54    1.03
   0  -6 -19    7.67    1.50
   1  -6 -19    0.98    0.77
   2  -6 -19    3.64    1.10
   3  -6 -19    1.33    0.76
   4  -6 -19    2.61    0.93
   5  -6 -19    4.00    1.17
   6  -6 -19    2.84    1.01
   7  -6 -19    2.10    0.68
   8  -6 -19    1.02    0.54
   9  -6 -19    0.74    0.90
  10  -6 -19    6.76    1.95
  11  -6 -19    6.54    1.97
  12  -6 -19    0.46    1.20
  -9  -5 -19    0.98    0.97
  -8  -5 -19    3.81    1.28
  -7  -5 -19   -0.06    0.61
  -6  -5 -19    0.50    0.71
  -5  -5 -19    0.15    0.55
  -4  -5 -19   -0.10    0.49
  -3  -5 -19    0.75    0.66
  -2  -5 -19   -0.39    0.50
  -1  -5 -19    0.07    0.52
   0  -5 -19    6.62    1.37
   1  -5 -19   -0.25    0.40
   2  -5 -19    9.60    1.56
   3  -5 -19   14.86    1.97
   4  -5 -19    3.27    0.91
   5  -5 -19    0.33    0.42
   6  -5 -19   14.26    1.39
   7  -5 -19    0.36    0.42
   8  -5 -19    0.86    0.46
   9  -5 -19   -0.16    0.39
  10  -5 -19    1.06    0.95
  11  -5 -19    0.56    0.83
  12  -5 -19    2.90    1.33
  13  -5 -19    3.38    1.43
  14  -5 -19    0.96    1.05
 -10  -4 -19    0.31    0.80
  -9  -4 -19    0.05    0.61
  -8  -4 -19   -0.30    0.51
  -7  -4 -19    6.23    1.38
  -6  -4 -19   11.03    1.78
  -5  -4 -19    1.97    0.86
  -4  -4 -19   -0.62    0.36
  -3  -4 -19    1.24    0.67
  -2  -4 -19    0.01    0.39
  -1  -4 -19   15.47    1.93
   0  -4 -19   15.81    1.93
   1  -4 -19    0.93    0.55
   2  -4 -19    2.38    0.82
   3  -4 -19    0.59    0.52
   4  -4 -19    8.40    0.99
   5  -4 -19    7.48    0.97
   6  -4 -19    4.48    0.78
   7  -4 -19    5.15    0.91
   8  -4 -19    3.33    0.78
   9  -4 -19   -0.16    0.35
  10  -4 -19    3.49    1.38
  11  -4 -19    4.09    1.36
  12  -4 -19    2.08    1.09
  13  -4 -19    8.51    1.93
  14  -4 -19   -0.17    0.67
  15  -4 -19    0.23    0.82
 -11  -3 -19    0.75    0.78
 -10  -3 -19   -0.20    0.65
  -9  -3 -19   -0.44    0.59
  -8  -3 -19    4.67    1.19
  -7  -3 -19    1.82    0.79
  -6  -3 -19   -0.23    0.60
  -5  -3 -19    2.40    0.81
  -4  -3 -19   -0.07    0.43
  -3  -3 -19   -0.24    0.34
  -2  -3 -19    0.06    0.41
  -1  -3 -19    1.09    0.64
   0  -3 -19    8.51    1.38
   1  -3 -19    0.35    0.42
   2  -3 -19   12.94    1.65
   3  -3 -19    2.92    0.58
   4  -3 -19    0.00    0.27
   5  -3 -19    0.00    0.25
   6  -3 -19    4.69    0.81
   7  -3 -19    0.94    0.47
   8  -3 -19    1.33    0.49
   9  -3 -19    1.51    0.54
  10  -3 -19    0.70    0.43
  11  -3 -19    0.35    0.59
  12  -3 -19    7.37    1.74
  13  -3 -19    4.19    1.40
  14  -3 -19    6.74    1.72
  15  -3 -19    1.80    0.99
  16  -3 -19    1.28    0.94
  17  -3 -19    0.35    1.03
 -11  -2 -19   -0.09    0.65
 -10  -2 -19    0.89    0.75
  -9  -2 -19    0.27    0.55
  -8  -2 -19    0.20    0.58
  -7  -2 -19    1.05    0.68
  -6  -2 -19   13.23    1.83
  -5  -2 -19    2.99    0.88
  -4  -2 -19    0.28    0.52
  -3  -2 -19    1.18    0.57
  -2  -2 -19   -0.25    0.35
  -1  -2 -19    7.63    1.32
   0  -2 -19    6.05    1.09
   1  -2 -19   -0.54    0.22
   2  -2 -19    0.62    0.33
   3  -2 -19   -0.16    0.28
   4  -2 -19    8.04    0.98
   5  -2 -19    3.16    0.63
   6  -2 -19    4.31    0.70
   7  -2 -19    2.90    0.63
   8  -2 -19    1.83    0.50
   9  -2 -19    0.24    0.37
  10  -2 -19    1.48    0.47
  11  -2 -19    3.80    1.13
  12  -2 -19    0.92    0.80
  13  -2 -19    3.58    1.14
  14  -2 -19    0.04    0.46
  15  -2 -19    0.06    0.49
  16  -2 -19    0.25    0.56
  17  -2 -19    0.78    0.61
  18  -2 -19    1.22    1.05
 -12  -1 -19    1.19    0.81
 -11  -1 -19   -0.57    0.50
 -10  -1 -19   -0.18    0.46
  -9  -1 -19   -0.13    0.53
  -8  -1 -19    0.95    0.64
  -7  -1 -19    0.21    0.47
  -6  -1 -19   -0.06    0.38
  -5  -1 -19   -0.32    0.39
  -4  -1 -19    1.05    0.57
  -3  -1 -19    0.25    0.42
  -2  -1 -19   -0.29    0.35
  -1  -1 -19    0.18    0.35
   0  -1 -19    1.92    0.65
   1  -1 -19   -0.06    0.25
   2  -1 -19    0.92    0.41
   3  -1 -19    1.41    0.41
   4  -1 -19   -0.31    0.26
   5  -1 -19    0.26    0.31
   6  -1 -19    1.69    0.45
   7  -1 -19    0.20    0.30
   8  -1 -19   -0.23    0.23
   9  -1 -19   -0.33    0.24
  10  -1 -19   -0.10    0.24
  11  -1 -19    0.46    0.54
  12  -1 -19    0.49    0.45
  13  -1 -19   -0.23    0.42
  14  -1 -19   -0.35    0.39
  15  -1 -19    0.02    0.42
  16  -1 -19   -0.28    0.43
  17  -1 -19   -0.84    0.42
  18  -1 -19    0.60    0.61
 -12   0 -19    0.13    0.70
 -11   0 -19    0.30    0.56
 -10   0 -19    0.54    0.70
  -9   0 -19   -0.31    0.39
  -8   0 -19   -0.05    0.39
  -7   0 -19    0.57    0.54
  -6   0 -19    0.28    0.44
  -5   0 -19    0.08    0.36
  -4   0 -19   -0.21    0.34
  -3   0 -19   -0.16    0.38
  -2   0 -19    0.51    0.45
  -1   0 -19    0.00    0.31
   0   0 -19    0.37    0.28
   1   0 -19    0.07    0.22
   2   0 -19    0.25    0.28
   3   0 -19    0.05    0.28
   4   0 -19   -0.02    0.22
   5   0 -19   -0.16    0.22
   6   0 -19    0.11    0.27
   7   0 -19   -0.10    0.25
   8   0 -19   -0.25    0.25
   9   0 -19   -0.16    0.26
  10   0 -19   -0.15    0.22
  11   0 -19    0.25    0.37
  12   0 -19    0.19    0.36
  13   0 -19   -0.06    0.37
  14   0 -19   -0.49    0.40
  15   0 -19    0.10    0.43
  16   0 -19    0.01    0.49
  17   0 -19    0.43    0.49
  18   0 -19    0.17    0.55
 -12   1 -19    0.86    0.73
 -11   1 -19    0.28    0.65
 -10   1 -19    0.07    0.54
  -9   1 -19    0.42    0.53
  -8   1 -19    0.85    0.71
  -7   1 -19   -0.05    0.42
  -6   1 -19    0.42    0.44
  -5   1 -19   -0.01    0.35
  -4   1 -19    0.36    0.47
  -3   1 -19    0.25    0.43
  -2   1 -19    0.03    0.32
  -1   1 -19    0.20    0.30
   0   1 -19    0.85    0.35
   1   1 -19    0.21    0.24
   2   1 -19    1.70    0.41
   3   1 -19    1.05    0.37
   4   1 -19    0.32    0.28
   5   1 -19    0.39    0.30
   6   1 -19    2.45    0.50
   7   1 -19   -0.26    0.21
   8   1 -19   -0.10    0.21
   9   1 -19    0.31    0.27
  10   1 -19    0.26    0.38
  11   1 -19   -0.12    0.33
  12   1 -19    0.62    0.46
  13   1 -19    0.25    0.43
  14   1 -19    1.20    0.53
  15   1 -19    0.21    0.43
  16   1 -19    0.21    0.50
  17   1 -19    0.10    0.50
  18   1 -19    0.27    0.57
 -11   2 -19   -0.32    0.49
 -10   2 -19    0.11    0.54
  -9   2 -19    1.27    0.72
  -8   2 -19    0.30    0.55
  -7   2 -19    1.66    0.67
  -6   2 -19   10.03    1.52
  -5   2 -19    2.49    0.77
  -4   2 -19    0.00    0.36
  -3   2 -19    1.40    0.39
  -2   2 -19   -0.20    0.21
  -1   2 -19   11.77    1.02
   0   2 -19    9.41    0.90
   1   2 -19    0.69    0.33
   2   2 -19    0.87    0.35
   3   2 -19    0.39    0.28
   4   2 -19    8.42    0.84
   5   2 -19    3.63    0.73
   6   2 -19    5.35    1.29
   7   2 -19    4.83    0.82
   8   2 -19    2.64    0.66
   9   2 -19    0.10    0.36
  10   2 -19    1.17    0.49
  11   2 -19    3.25    0.74
  12   2 -19    0.70    0.53
  13   2 -19    5.20    0.96
  14   2 -19   -0.12    0.37
  15   2 -19   -0.67    0.43
  16   2 -19    0.06    0.59
  17   2 -19    0.35    0.55
  18   2 -19    1.16    0.67
 -11   3 -19    0.99    0.75
 -10   3 -19    0.26    0.63
  -9   3 -19    0.22    0.54
  -8   3 -19    5.65    1.18
  -7   3 -19    1.55    0.71
  -6   3 -19    0.09    0.47
  -5   3 -19    1.37    0.64
  -4   3 -19    0.20    0.32
  -3   3 -19    0.06    0.29
  -2   3 -19    1.22    0.42
  -1   3 -19    1.73    0.45
   0   3 -19    8.45    1.41
   1   3 -19    1.10    0.60
   2   3 -19   11.54    1.65
   3   3 -19    6.11    1.22
   4   3 -19    0.44    0.56
   5   3 -19    0.40    0.37
   6   3 -19    5.70    0.83
   7   3 -19    1.42    0.53
   8   3 -19    0.47    0.47
   9   3 -19    0.91    0.58
  10   3 -19    0.42    0.50
  11   3 -19    0.17    0.50
  12   3 -19    8.70    1.28
  13   3 -19    5.42    1.06
  14   3 -19    4.42    1.02
  15   3 -19    1.77    0.76
  16   3 -19    0.40    0.60
  17   3 -19    1.07    0.73
 -10   4 -19    0.14    0.68
  -9   4 -19    0.89    0.73
  -8   4 -19    0.02    0.57
  -7   4 -19    3.44    1.07
  -5   4 -19    1.98    0.84
  -4   4 -19   -0.26    0.48
  -3   4 -19    1.43    0.73
  -2   4 -19   -0.49    0.41
  -1   4 -19   19.13    2.20
   0   4 -19   15.37    1.92
   1   4 -19   -0.06    0.41
   2   4 -19    1.58    0.80
   3   4 -19    0.28    0.34
   4   4 -19    5.91    0.80
   5   4 -19    7.35    0.96
   6   4 -19    6.07    0.90
   7   4 -19    7.23    1.01
   8   4 -19    5.37    0.93
   9   4 -19   -0.11    0.40
  10   4 -19    5.17    0.97
  11   4 -19    6.24    1.15
  12   4 -19    2.56    0.87
  13   4 -19   10.50    1.50
  14   4 -19    0.32    0.66
  15   4 -19   -0.20    0.57
  16   4 -19    0.44    0.70
  -5   5 -19    0.56    0.69
  -4   5 -19    1.26    0.78
  -3   5 -19    0.45    0.67
  -2   5 -19    0.40    0.57
  -1   5 -19   -0.03    0.54
   0   5 -19    7.67    1.51
   1   5 -19   -0.42    0.48
   2   5 -19   12.42    1.23
   3   5 -19   14.63    1.35
   4   5 -19    3.33    0.71
   5   5 -19    0.30    0.39
   6   5 -19   14.77    1.48
   7   5 -19    0.00    0.42
   8   5 -19    0.92    0.57
   9   5 -19    0.10    0.48
  10   5 -19    0.34    0.53
  11   5 -19    0.25    0.58
  12   5 -19    0.84    0.57
  13   5 -19    3.25    0.99
  14   5 -19    2.08    0.88
  15   5 -19    0.18    0.79
  -6   6 -19    8.38    1.65
  -5   6 -19    1.08    0.86
  -4   6 -19   -0.85    0.58
  -3   6 -19   -0.25    0.55
  -2   6 -19   -0.69    0.49
  -1   6 -19    3.15    1.02
   0   6 -19    6.67    1.53
   1   6 -19    0.18    0.40
   2   6 -19    2.91    0.72
   3   6 -19    1.07    0.55
   4   6 -19    0.40    0.47
   5   6 -19    4.25    0.86
   6   6 -19    2.73    0.73
   7   6 -19    2.97    0.77
   8   6 -19    1.10    0.64
   9   6 -19    0.42    0.55
  10   6 -19    7.00    1.25
  11   6 -19    6.56    1.24
  12   6 -19    0.71    0.76
  13   6 -19    7.09    1.38
  -4   7 -19    0.12    0.82
  -3   7 -19    2.34    1.10
  -2   7 -19   -0.15    0.68
  -1   7 -19    0.08    0.69
   0   7 -19    5.45    1.41
   1   7 -19    3.16    0.76
   2   7 -19   12.89    1.41
   3   7 -19    3.54    0.85
   4   7 -19    0.76    0.59
   5   7 -19    0.98    0.63
   6   7 -19    3.80    0.89
   7   7 -19    0.10    0.58
   8   7 -19    0.88    0.66
   9   7 -19    0.43    0.66
  10   7 -19    0.76    1.05
   4  -8 -18    0.65    0.87
  -4  -7 -18    6.60    1.57
  -2  -7 -18    3.01    1.13
  -1  -7 -18    1.31    0.96
   0  -7 -18    1.45    0.94
   1  -7 -18    1.92    0.91
   2  -7 -18   12.48    1.96
   3  -7 -18   -0.23    0.57
   4  -7 -18    0.99    0.82
   5  -7 -18    1.72    0.87
   6  -7 -18    1.18    0.69
   8  -7 -18   -0.75    0.69
   9  -7 -18    3.35    1.38
  10  -7 -18    2.24    1.41
  11  -7 -18    1.03    1.30
  -7  -6 -18    1.07    0.64
  -6  -6 -18    1.01    0.60
  -5  -6 -18    8.28    1.17
  -4  -6 -18    5.84    0.97
  -3  -6 -18    1.97    0.93
  -2  -6 -18   -0.17    0.56
  -1  -6 -18    6.15    1.34
   0  -6 -18    0.96    0.77
   1  -6 -18    3.16    1.09
   2  -6 -18    2.44    0.84
   3  -6 -18    3.35    1.04
   4  -6 -18    0.16    0.55
   5  -6 -18    0.35    0.52
   6  -6 -18    1.44    0.53
   7  -6 -18    7.51    1.00
   8  -6 -18   -0.45    0.62
   9  -6 -18    0.08    0.81
  10  -6 -18    0.95    0.99
  11  -6 -18    5.00    1.67
  12  -6 -18    6.95    1.96
  13  -6 -18    3.27    1.55
 -10  -5 -18    0.34    0.84
  -9  -5 -18    0.52    0.50
  -8  -5 -18    9.96    1.22
  -7  -5 -18    5.43    0.90
  -6  -5 -18    3.50    0.73
  -5  -5 -18    8.71    1.07
  -4  -5 -18   16.74    2.22
  -3  -5 -18    5.20    1.30
  -2  -5 -18   18.22    2.21
  -1  -5 -18    1.68    0.77
   0  -5 -18    5.87    1.27
   1  -5 -18    3.84    1.07
   2  -5 -18   23.84    2.43
   3  -5 -18    0.57    0.56
   4  -5 -18    5.73    1.19
   5  -5 -18    7.15    0.92
   6  -5 -18    9.50    1.13
   7  -5 -18   25.77    1.95
   8  -5 -18    0.80    0.47
   9  -5 -18   22.64    3.05
  10  -5 -18    6.51    1.79
  11  -5 -18    6.12    1.74
  12  -5 -18   -0.09    0.72
  13  -5 -18    0.28    0.67
  14  -5 -18    5.04    1.54
  15  -5 -18    6.18    1.84
 -11  -4 -18    0.17    0.77
 -10  -4 -18    7.96    1.13
  -9  -4 -18    6.90    0.99
  -8  -4 -18    2.69    0.68
  -7  -4 -18    3.48    0.73
  -6  -4 -18    7.03    1.33
  -5  -4 -18    8.55    1.52
  -4  -4 -18   14.19    1.99
  -3  -4 -18    0.84    0.59
  -2  -4 -18    0.81    0.57
  -1  -4 -18   34.22    2.59
   0  -4 -18    1.05    0.58
   1  -4 -18    4.16    1.03
   2  -4 -18    0.20    0.41
   3  -4 -18    5.21    1.06
   4  -4 -18    1.04    0.43
   5  -4 -18    1.35    0.49
   6  -4 -18    2.71    0.63
   7  -4 -18   14.49    1.38
   8  -4 -18   -0.04    0.37
   9  -4 -18   -0.04    0.36
  10  -4 -18    1.73    0.89
  11  -4 -18    8.17    1.86
  12  -4 -18    6.98    1.72
  13  -4 -18   10.56    2.05
  14  -4 -18    0.19    0.68
  15  -4 -18    5.00    1.60
  16  -4 -18    2.16    1.10
 -11  -3 -18    0.02    0.69
 -10  -3 -18    7.85    1.59
  -9  -3 -18    1.31    0.78
  -8  -3 -18    1.59    0.88
  -7  -3 -18    0.67    0.67
  -6  -3 -18    7.77    1.43
  -5  -3 -18   -0.18    0.38
  -4  -3 -18    0.14    0.44
  -3  -3 -18   42.40    3.02
  -2  -3 -18   -0.04    0.42
  -1  -3 -18    3.38    0.91
   0  -3 -18   54.08    3.43
   1  -3 -18   85.64    4.89
   2  -3 -18   17.71    1.34
   3  -3 -18   17.67    1.43
   4  -3 -18    9.68    1.02
   5  -3 -18    0.96    0.42
   6  -3 -18    0.51    0.37
   7  -3 -18   44.38    2.36
   8  -3 -18   14.71    1.40
   9  -3 -18   23.13    1.81
  10  -3 -18   12.24    2.19
  11  -3 -18   -0.51    0.52
  12  -3 -18    4.88    1.37
  13  -3 -18    9.46    1.31
  14  -3 -18   22.63    1.98
  15  -3 -18    5.67    1.05
  16  -3 -18   -0.45    0.44
  17  -3 -18   13.50    1.54
  18  -3 -18    3.65    1.36
 -12  -2 -18    1.06    0.85
 -11  -2 -18    1.81    0.93
 -10  -2 -18   16.01    2.13
  -9  -2 -18   15.21    2.08
  -8  -2 -18    0.44    0.55
  -7  -2 -18   16.05    1.99
  -6  -2 -18   22.40    2.34
  -5  -2 -18    5.00    1.07
  -4  -2 -18   27.43    2.58
  -3  -2 -18   12.42    1.60
  -2  -2 -18    1.63    0.62
  -1  -2 -18   80.94    4.42
   0  -2 -18    1.91    0.64
   1  -2 -18    7.60    0.87
   2  -2 -18    1.87    0.49
   3  -2 -18    8.02    0.95
   4  -2 -18    6.42    0.89
   5  -2 -18    2.84    0.59
   6  -2 -18    2.05    0.53
   7  -2 -18   17.81    1.49
   8  -2 -18    3.30    0.64
   9  -2 -18    0.05    0.30
  10  -2 -18    7.39    0.96
  11  -2 -18    5.75    0.88
  12  -2 -18   14.83    1.42
  13  -2 -18   21.45    1.86
  14  -2 -18    1.18    0.59
  15  -2 -18    9.84    1.31
  16  -2 -18   12.98    1.52
  17  -2 -18    0.26    0.55
  18  -2 -18    4.23    0.93
 -12  -1 -18   13.19    2.05
 -11  -1 -18    1.41    0.77
 -10  -1 -18    0.09    0.59
  -9  -1 -18    2.52    0.91
  -8  -1 -18    4.24    1.09
  -7  -1 -18    1.66    0.67
  -6  -1 -18   16.77    1.94
  -5  -1 -18    8.39    1.33
  -4  -1 -18    0.16    0.41
  -3  -1 -18   59.63    3.60
  -2  -1 -18    1.16    0.54
  -1  -1 -18   17.19    1.76
   0  -1 -18   34.22    1.69
   1  -1 -18   87.49    3.37
   2  -1 -18   14.19    1.22
   3  -1 -18    8.92    0.93
   4  -1 -18   72.31    2.92
   5  -1 -18    9.00    0.94
   6  -1 -18    1.83    0.47
   7  -1 -18   37.02    1.89
   8  -1 -18   11.08    1.12
   9  -1 -18  127.50    3.81
  10  -1 -18   10.22    0.87
  11  -1 -18   22.73    1.78
  12  -1 -18    1.73    0.56
  13  -1 -18    8.39    1.11
  14  -1 -18    3.68    0.78
  15  -1 -18   11.45    1.34
  16  -1 -18    5.83    1.02
  17  -1 -18   11.41    1.42
  18  -1 -18    2.31    0.78
  19  -1 -18    5.73    1.81
 -12   0 -18    1.18    0.68
 -11   0 -18   14.75    2.09
 -10   0 -18   15.91    2.05
  -8   0 -18    4.98    1.14
  -7   0 -18    6.59    1.25
  -6   0 -18    0.50    0.54
  -5   0 -18   11.54    1.56
  -4   0 -18   91.43    4.98
  -3   0 -18    0.11    0.37
  -2   0 -18    1.17    0.57
  -1   0 -18   22.80    1.24
   0   0 -18   34.27    1.66
   1   0 -18   36.36    1.71
   2   0 -18   14.43    1.15
   3   0 -18    1.09    0.34
   4   0 -18    1.41    0.42
   5   0 -18   18.71    1.23
   6   0 -18    0.32    0.27
   7   0 -18  114.40    4.21
   8   0 -18    1.47    0.35
   9   0 -18    5.51    0.58
  10   0 -18   78.09    3.22
  11   0 -18   13.05    1.32
  12   0 -18    0.02    0.35
  13   0 -18    1.71    0.54
  14   0 -18    6.63    1.04
  15   0 -18   50.24    2.66
  16   0 -18    3.35    0.79
  17   0 -18    0.06    0.48
  18   0 -18   -0.26    0.50
  19   0 -18    0.94    0.93
 -12   1 -18   12.56    1.97
 -11   1 -18    4.04    1.11
 -10   1 -18    1.65    0.80
  -9   1 -18    2.04    0.82
  -8   1 -18    2.89    0.86
  -7   1 -18    0.90    0.54
  -6   1 -18   14.78    1.78
  -5   1 -18    6.37    1.13
  -4   1 -18    0.17    0.40
  -3   1 -18   56.77    3.43
  -2   1 -18    3.42    0.55
  -1   1 -18   14.17    1.11
   0   1 -18   35.39    1.64
   1   1 -18   88.75    3.27
   2   1 -18   14.37    1.10
   3   1 -18    7.86    0.83
   4   1 -18   73.76    2.84
   5   1 -18    8.68    0.89
   6   1 -18    2.50    0.41
   7   1 -18   37.91    1.48
   8   1 -18   11.78    0.90
   9   1 -18  129.33    3.77
  10   1 -18    8.80    1.09
  11   1 -18   16.79    1.60
  12   1 -18    1.91    0.60
  13   1 -18    9.59    1.24
  14   1 -18    3.85    0.87
  15   1 -18   14.51    1.52
  16   1 -18    7.05    1.11
  17   1 -18   11.71    1.44
  18   1 -18    1.96    0.68
 -12   2 -18    0.56    0.70
 -11   2 -18    2.08    0.84
 -10   2 -18   14.19    2.01
  -9   2 -18   10.45    1.63
  -8   2 -18   -0.20    0.44
  -7   2 -18   16.65    1.92
  -6   2 -18   18.15    2.00
  -5   2 -18    4.69    0.95
  -4   2 -18   24.15    1.99
  -3   2 -18   14.39    1.13
  -2   2 -18    1.41    0.39
  -1   2 -18   77.73    3.01
   0   2 -18    2.88    0.51
   1   2 -18    5.99    0.71
   2   2 -18    1.89    0.43
   3   2 -18    8.77    0.86
   4   2 -18    6.34    0.69
   5   2 -18    1.41    0.30
   6   2 -18    1.95    0.50
   7   2 -18   22.11    1.68
   8   2 -18    3.87    0.76
   9   2 -18   -0.28    0.37
  10   2 -18    7.78    1.11
  11   2 -18    5.89    0.97
  12   2 -18   13.79    1.47
  13   2 -18   23.28    2.03
  14   2 -18    0.83    0.57
  15   2 -18    8.43    1.25
  16   2 -18   11.02    1.46
  17   2 -18    0.13    0.59
  18   2 -18    3.04    0.84
 -12   3 -18   25.99    3.18
 -11   3 -18   -0.17    0.60
 -10   3 -18    7.08    1.35
  -9   3 -18    0.33    0.60
  -8   3 -18    0.16    0.45
  -7   3 -18    0.25    0.51
  -6   3 -18    4.96    1.04
  -5   3 -18   -0.45    0.34
  -4   3 -18   -0.14    0.26
  -3   3 -18   49.78    2.11
  -2   3 -18    0.18    0.28
  -1   3 -18    2.57    0.49
   0   3 -18   55.04    2.29
   1   3 -18   89.87    5.06
   2   3 -18   19.59    2.18
   3   3 -18   23.63    1.36
   4   3 -18   10.35    1.04
   5   3 -18    1.07    0.41
   6   3 -18    1.45    0.47
   7   3 -18   50.49    2.42
   8   3 -18   15.42    1.45
   9   3 -18   25.14    2.00
  10   3 -18   12.53    1.45
  11   3 -18    0.19    0.45
  12   3 -18    6.91    1.18
  13   3 -18    8.75    1.26
  14   3 -18   28.10    2.33
  15   3 -18    7.50    1.16
  16   3 -18    0.29    0.60
  17   3 -18   11.98    1.57
  18   3 -18    2.75    1.25
 -11   4 -18    0.88    0.80
 -10   4 -18    5.23    1.33
  -9   4 -18   11.12    1.75
  -8   4 -18    1.52    0.76
  -7   4 -18    6.55    1.25
  -6   4 -18    6.40    1.18
  -5   4 -18    6.30    1.22
  -4   4 -18   14.38    1.80
  -3   4 -18    0.65    0.53
  -2   4 -18    2.22    0.81
  -1   4 -18   32.48    2.51
   0   4 -18    1.67    0.72
   1   4 -18    3.44    0.59
   2   4 -18    0.27    0.33
   3   4 -18    8.31    0.94
   4   4 -18    0.51    0.37
   5   4 -18    0.88    0.42
   6   4 -18    2.53    0.61
   7   4 -18   15.33    1.46
   8   4 -18    0.77    0.45
   9   4 -18    0.13    0.46
  10   4 -18    3.57    0.84
  11   4 -18   11.69    1.49
  12   4 -18   10.85    1.41
  13   4 -18    5.75    1.12
  14   4 -18    0.72    0.70
  15   4 -18    7.13    1.25
  16   4 -18    0.99    0.74
  17   4 -18    0.67    0.87
  -6   5 -18    2.60    0.87
  -5   5 -18    7.69    1.44
  -4   5 -18   16.42    2.08
  -3   5 -18    3.22    0.96
  -2   5 -18   15.12    1.97
  -1   5 -18    1.28    0.61
   0   5 -18    4.99    0.73
   1   5 -18    3.25    0.59
   2   5 -18   24.09    1.57
   3   5 -18    3.05    0.63
   4   5 -18    6.08    0.88
   5   5 -18    7.16    0.98
   6   5 -18   10.71    1.20
   7   5 -18   24.03    1.95
   8   5 -18    1.59    0.58
   9   5 -18   28.30    2.21
  10   5 -18    5.47    1.01
  11   5 -18    7.90    1.26
  12   5 -18   -0.50    0.51
  13   5 -18   -0.20    0.59
  14   5 -18    6.37    1.25
  15   5 -18    7.11    1.36
  -7   6 -18    1.24    0.88
  -6   6 -18    0.36    0.75
  -5   6 -18    3.34    1.00
  -4   6 -18    7.76    1.49
  -3   6 -18    3.46    1.05
  -2   6 -18    0.23    0.56
  -1   6 -18    6.84    0.98
   0   6 -18    0.39    0.43
   1   6 -18    3.43    0.69
   2   6 -18    3.56    0.78
   3   6 -18    4.31    0.80
   4   6 -18    0.32    0.44
   5   6 -18    1.47    0.56
   6   6 -18    1.06    0.52
   7   6 -18    7.98    1.09
   8   6 -18   -0.05    0.43
   9   6 -18    0.46    0.52
  10   6 -18    1.16    0.66
  11   6 -18    9.10    1.39
  12   6 -18    7.87    1.37
  13   6 -18    1.72    0.92
  -5   7 -18    2.94    1.10
  -4   7 -18    9.91    1.82
  -3   7 -18    0.73    0.80
  -2   7 -18    2.12    0.71
  -1   7 -18    0.49    0.53
   0   7 -18    2.87    0.73
   1   7 -18    3.75    0.77
   2   7 -18   17.24    1.67
   3   7 -18   -0.10    0.46
   4   7 -18   -0.44    0.45
   5   7 -18    1.30    0.63
   6   7 -18    1.54    0.68
   7   7 -18   22.40    1.61
   8   7 -18   -0.21    0.52
   9   7 -18    3.24    0.91
  10   7 -18    5.33    1.09
   0   8 -18    0.44    0.79
   1   8 -18    0.26    0.79
   2   8 -18    0.36    0.75
   3   8 -18    2.19    1.08
   4   8 -18    0.57    0.88
   5   8 -18    4.92    1.55
   4  -8 -17    4.42    1.25
  -5  -7 -17    0.41    0.71
  -4  -7 -17    0.90    0.70
  -3  -7 -17   -0.02    0.63
  -2  -7 -17    0.96    0.56
  -1  -7 -17   -0.35    0.65
   0  -7 -17    2.98    1.09
   1  -7 -17   -0.05    0.61
   2  -7 -17   -0.84    0.56
   3  -7 -17    0.04    0.63
   4  -7 -17    2.75    1.06
   5  -7 -17    3.19    1.05
   6  -7 -17    6.86    1.39
   7  -7 -17    4.77    1.42
   8  -7 -17   -0.03    0.85
   9  -7 -17    3.23    1.41
  10  -7 -17    0.54    0.99
  11  -7 -17    0.65    1.03
  -8  -6 -17    0.20    0.66
  -7  -6 -17    2.75    0.72
  -6  -6 -17    2.59    0.76
  -5  -6 -17    1.61    0.62
  -4  -6 -17   10.10    1.21
  -3  -6 -17    1.19    0.53
  -2  -6 -17   -0.17    0.33
  -1  -6 -17    3.66    1.07
   0  -6 -17    0.42    0.58
   1  -6 -17   -0.07    0.48
   2  -6 -17    0.32    0.56
   3  -6 -17    3.48    1.01
   4  -6 -17    1.70    0.74
   5  -6 -17    3.14    0.66
   6  -6 -17    0.03    0.38
   7  -6 -17    9.02    1.12
   8  -6 -17   -0.30    0.73
   9  -6 -17    0.65    0.78
  10  -6 -17    1.13    0.86
  11  -6 -17    6.37    1.76
  12  -6 -17   -0.65    0.84
  13  -6 -17   -0.48    0.86
 -10  -5 -17   -0.22    0.45
  -9  -5 -17    0.47    0.49
  -8  -5 -17    0.86    0.55
  -7  -5 -17   -0.20    0.38
  -6  -5 -17    7.50    1.00
  -5  -5 -17    2.37    0.64
  -4  -5 -17    0.42    0.40
  -3  -5 -17   -0.38    0.31
  -2  -5 -17    4.65    1.05
  -1  -5 -17    0.10    0.45
   0  -5 -17    0.25    0.43
   1  -5 -17   -0.43    0.43
   2  -5 -17   -0.49    0.36
   3  -5 -17    0.95    0.58
   4  -5 -17    8.43    0.94
   5  -5 -17    1.12    0.48
   6  -5 -17    0.84    0.45
   7  -5 -17    0.55    0.43
   8  -5 -17    1.34    0.56
   9  -5 -17   12.76    2.19
  10  -5 -17    0.68    0.91
  11  -5 -17    9.71    2.01
  12  -5 -17    1.66    1.03
  13  -5 -17    2.04    0.99
  14  -5 -17    6.07    1.60
  15  -5 -17    3.48    1.29
 -11  -4 -17    2.69    0.73
 -10  -4 -17    0.22    0.47
  -9  -4 -17    0.47    0.42
  -8  -4 -17    0.11    0.34
  -7  -4 -17    6.97    0.97
  -6  -4 -17    9.38    1.08
  -5  -4 -17    2.83    0.63
  -4  -4 -17    3.17    0.60
  -3  -4 -17    0.14    0.49
  -2  -4 -17    2.91    0.80
  -1  -4 -17   18.84    2.06
   0  -4 -17    4.99    1.07
   1  -4 -17    8.47    1.30
   2  -4 -17    0.11    0.40
   3  -4 -17    3.10    0.59
   4  -4 -17    5.35    0.76
   5  -4 -17   22.78    1.64
   6  -4 -17    5.51    0.82
   7  -4 -17    3.45    0.68
   8  -4 -17   -0.12    0.33
   9  -4 -17   -0.02    0.32
  10  -4 -17    1.17    0.77
  11  -4 -17    6.56    1.69
  12  -4 -17    1.70    0.89
  13  -4 -17    0.10    0.52
  14  -4 -17    4.39    0.94
  15  -4 -17    0.07    0.56
  16  -4 -17   -0.62    0.40
  17  -4 -17    1.81    1.31
 -12  -3 -17    0.64    0.75
 -11  -3 -17   -0.63    0.55
 -10  -3 -17   -0.41    0.33
  -9  -3 -17    0.35    0.39
  -8  -3 -17    0.09    0.37
  -7  -3 -17   -0.24    0.42
  -6  -3 -17    5.14    1.12
  -5  -3 -17    0.51    0.53
  -4  -3 -17    0.41    0.52
  -3  -3 -17    2.20    0.69
  -2  -3 -17    0.78    0.52
  -1  -3 -17    0.32    0.42
   0  -3 -17    3.98    0.88
   1  -3 -17    0.79    0.55
   2  -3 -17    3.40    0.55
   3  -3 -17    0.34    0.30
   4  -3 -17    5.95    0.78
   5  -3 -17    6.42    0.85
   6  -3 -17    2.89    0.60
   7  -3 -17    0.04    0.27
   8  -3 -17   -0.09    0.26
   9  -3 -17    6.67    0.92
  10  -3 -17    0.45    0.37
  11  -3 -17    3.69    0.75
  12  -3 -17    1.80    0.65
  13  -3 -17    0.00    0.43
  14  -3 -17    1.92    0.69
  15  -3 -17    1.79    0.71
  16  -3 -17    0.19    0.59
  17  -3 -17    0.32    0.56
  18  -3 -17    0.88    1.00
 -13  -2 -17   -0.04    0.73
 -12  -2 -17    0.20    0.76
 -11  -2 -17    0.10    0.58
 -10  -2 -17    1.29    0.70
  -9  -2 -17    0.00    0.51
  -8  -2 -17    0.11    0.43
  -7  -2 -17    4.44    1.04
  -6  -2 -17    5.87    1.22
  -5  -2 -17    3.07    0.87
  -4  -2 -17    0.65    0.54
  -3  -2 -17    0.25    0.37
  -2  -2 -17    1.15    0.52
  -1  -2 -17    7.13    1.10
   0  -2 -17    5.23    0.93
   1  -2 -17    7.57    0.86
   2  -2 -17    1.26    0.37
   3  -2 -17    1.54    0.44
   4  -2 -17    3.64    0.64
   5  -2 -17   14.63    1.27
   6  -2 -17    8.85    0.93
   7  -2 -17    0.53    0.33
   8  -2 -17    0.12    0.29
   9  -2 -17    0.12    0.25
  10  -2 -17    2.24    0.57
  11  -2 -17    5.69    0.90
  12  -2 -17    1.17    0.55
  13  -2 -17    0.61    0.43
  14  -2 -17    3.22    0.78
  15  -2 -17   -0.10    0.43
  16  -2 -17   -0.30    0.51
  17  -2 -17    0.82    0.60
  18  -2 -17    0.09    0.53
 -13  -1 -17    0.13    0.76
 -12  -1 -17   -0.51    0.47
 -11  -1 -17    0.15    0.54
 -10  -1 -17    0.45    0.57
  -9  -1 -17   -0.17    0.48
  -8  -1 -17   -0.25    0.46
  -7  -1 -17    0.32    0.47
  -6  -1 -17    1.23    0.63
  -5  -1 -17   -0.40    0.31
  -4  -1 -17    0.07    0.40
  -3  -1 -17    0.22    0.34
  -2  -1 -17    0.76    0.47
  -1  -1 -17    0.14    0.36
   0  -1 -17   -0.19    0.22
   1  -1 -17   -0.09    0.20
   2  -1 -17    0.16    0.27
   3  -1 -17    0.04    0.23
   4  -1 -17    1.36    0.42
   5  -1 -17    0.06    0.28
   6  -1 -17    0.09    0.23
   7  -1 -17    0.40    0.25
   8  -1 -17    0.33    0.23
   9  -1 -17    2.15    0.42
  10  -1 -17    0.15    0.36
  11  -1 -17    0.80    0.46
  12  -1 -17    0.33    0.41
  13  -1 -17    0.72    0.48
  14  -1 -17    0.01    0.39
  15  -1 -17    0.08    0.41
  16  -1 -17    0.46    0.45
  17  -1 -17    0.17    0.48
  18  -1 -17    0.31    0.59
  19  -1 -17    0.62    0.62
 -13   0 -17   -0.62    0.58
 -12   0 -17   -0.32    0.54
 -11   0 -17    0.50    0.56
 -10   0 -17    0.30    0.55
  -9   0 -17   -0.08    0.45
  -8   0 -17   -0.05    0.37
  -7   0 -17   -0.11    0.41
  -6   0 -17    0.30    0.38
  -5   0 -17    0.09    0.40
  -4   0 -17   -0.03    0.36
  -3   0 -17   -0.20    0.27
  -2   0 -17    0.03    0.31
  -1   0 -17    0.22    0.24
   0   0 -17    0.03    0.24
   1   0 -17   -0.04    0.22
   2   0 -17   -0.24    0.19
   3   0 -17   -0.09    0.18
   4   0 -17    0.19    0.25
   5   0 -17   -0.04    0.25
   6   0 -17   -0.12    0.17
   7   0 -17    0.14    0.21
   8   0 -17    0.01    0.19
   9   0 -17   -0.17    0.17
  10   0 -17    0.01    0.30
  11   0 -17    0.07    0.36
  12   0 -17    0.72    0.41
  13   0 -17    0.41    0.43
  14   0 -17    0.21    0.37
  15   0 -17    0.18    0.45
  16   0 -17    0.37    0.49
  17   0 -17    0.05    0.50
  18   0 -17   -0.36    0.46
  19   0 -17    0.56    0.53
 -13   1 -17    0.00    0.61
 -12   1 -17    0.26    0.57
 -11   1 -17    0.50    0.59
 -10   1 -17   -0.02    0.50
  -9   1 -17   -0.51    0.34
  -8   1 -17   -0.17    0.34
  -7   1 -17    0.53    0.51
  -6   1 -17    1.30    0.62
  -5   1 -17    0.27    0.34
  -4   1 -17   -0.21    0.31
  -3   1 -17   -0.05    0.22
  -2   1 -17    0.57    0.30
  -1   1 -17   -0.16    0.20
   0   1 -17    0.16    0.22
   1   1 -17   -0.10    0.17
   2   1 -17    0.21    0.24
   3   1 -17    0.06    0.24
   4   1 -17    1.26    0.32
   5   1 -17    0.13    0.20
   6   1 -17    0.10    0.20
   7   1 -17    0.24    0.22
   8   1 -17    0.40    0.27
   9   1 -17    2.68    0.44
  10   1 -17    0.05    0.36
  11   1 -17    1.00    0.49
  12   1 -17    0.93    0.50
  13   1 -17   -0.24    0.42
  14   1 -17    1.60    0.61
  15   1 -17   -0.25    0.37
  16   1 -17   -0.09    0.41
  17   1 -17    0.15    0.45
  18   1 -17    0.37    0.52
  19   1 -17    0.31    0.58
 -13   2 -17   -0.16    0.66
 -12   2 -17    2.19    0.95
 -11   2 -17    0.32    0.66
 -10   2 -17   -0.24    0.45
  -9   2 -17    0.89    0.61
  -8   2 -17    0.03    0.42
  -7   2 -17    2.34    0.75
  -6   2 -17    4.86    1.00
  -5   2 -17    2.04    0.65
  -4   2 -17    0.31    0.30
  -3   2 -17   -0.05    0.23
  -2   2 -17    1.68    0.40
  -1   2 -17    9.10    0.85
   0   2 -17    5.87    0.67
   1   2 -17    5.84    0.67
   2   2 -17    0.85    0.25
   3   2 -17    1.46    0.29
   4   2 -17    3.99    0.45
   5   2 -17   14.58    0.82
   6   2 -17    6.63    0.60
   7   2 -17    0.81    0.39
   8   2 -17   -0.22    0.32
   9   2 -17   -0.14    0.28
  10   2 -17    1.06    0.53
  11   2 -17    6.80    1.05
  12   2 -17    0.13    0.40
  13   2 -17    0.30    0.40
  14   2 -17    1.77    0.68
  15   2 -17    0.61    0.49
  16   2 -17   -0.70    0.40
  17   2 -17    1.48    0.71
  18   2 -17   -0.09    0.52
 -12   3 -17    0.97    0.86
 -11   3 -17    0.49    0.64
 -10   3 -17   -0.35    0.54
  -9   3 -17    0.81    0.64
  -8   3 -17   -0.21    0.44
  -7   3 -17    0.78    0.50
  -6   3 -17    3.71    0.91
  -5   3 -17    0.69    0.34
  -4   3 -17    0.13    0.26
  -3   3 -17    2.74    0.48
  -2   3 -17    1.21    0.37
  -1   3 -17    0.44    0.29
   0   3 -17    4.25    0.46
   1   3 -17    0.55    0.24
   2   3 -17    3.97    0.58
   3   3 -17    0.19    0.26
   4   3 -17    5.85    0.75
   5   3 -17    6.97    0.86
   6   3 -17    4.20    0.69
   7   3 -17   -0.45    0.31
   8   3 -17    0.11    0.39
   9   3 -17    5.32    0.88
  10   3 -17    0.03    0.41
  11   3 -17    3.31    0.84
  12   3 -17    1.94    0.61
  13   3 -17    0.48    0.49
  14   3 -17    2.55    0.78
  15   3 -17    1.73    0.74
  16   3 -17    0.01    0.54
  17   3 -17   -0.90    0.44
  18   3 -17    0.10    0.80
 -11   4 -17    1.28    0.90
 -10   4 -17   -0.02    0.60
  -9   4 -17    0.92    0.71
  -8   4 -17    0.30    0.54
  -7   4 -17    7.80    1.37
  -6   4 -17    8.67    0.94
  -5   4 -17    4.28    0.65
  -4   4 -17    3.70    0.93
  -3   4 -17    0.11    0.48
  -2   4 -17    1.79    0.49
  -1   4 -17   14.41    1.17
   0   4 -17    6.25    0.76
   1   4 -17    6.35    0.78
   2   4 -17    2.19    0.50
   3   4 -17    2.74    0.56
   4   4 -17    6.71    0.85
   5   4 -17   19.68    1.57
   6   4 -17    5.44    0.81
   7   4 -17    4.76    0.80
   8   4 -17   -0.16    0.31
   9   4 -17   -0.75    0.32
  10   4 -17    2.53    0.70
  11   4 -17    6.00    1.08
  12   4 -17    0.37    0.56
  13   4 -17    1.31    0.70
  14   4 -17    4.18    1.03
  15   4 -17   -0.08    0.55
  16   4 -17   -0.37    0.55
  17   4 -17    1.46    1.13
  -7   5 -17    0.46    0.62
  -6   5 -17    6.97    1.33
  -5   5 -17    3.80    0.99
  -4   5 -17    0.34    0.55
  -3   5 -17   -0.14    0.30
  -2   5 -17    4.86    0.77
  -1   5 -17    0.12    0.31
   0   5 -17    0.48    0.34
   1   5 -17    0.19    0.31
   2   5 -17   -0.01    0.29
   3   5 -17    0.07    0.32
   4   5 -17    7.66    0.98
   5   5 -17    0.98    0.47
   6   5 -17    1.21    0.50
   7   5 -17    2.30    0.66
   8   5 -17    2.84    0.65
   9   5 -17    9.05    1.26
  10   5 -17    0.73    0.60
  11   5 -17   10.25    1.39
  12   5 -17    1.48    0.71
  13   5 -17    3.32    0.99
  14   5 -17    4.63    1.04
  15   5 -17    4.79    1.19
  16   5 -17    3.80    1.45
  -7   6 -17    4.40    1.23
  -6   6 -17    1.64    0.88
  -5   6 -17    1.10    0.65
  -4   6 -17    9.97    1.23
  -3   6 -17    2.08    0.54
  -2   6 -17    0.16    0.36
  -1   6 -17    4.67    0.79
   0   6 -17   -0.14    0.31
   1   6 -17    0.06    0.33
   2   6 -17    0.00    0.36
   3   6 -17    1.59    0.55
   4   6 -17    1.82    0.56
   5   6 -17    3.98    0.79
   6   6 -17    0.44    0.46
   7   6 -17   11.17    1.32
   8   6 -17   -0.24    0.34
   9   6 -17    0.41    0.50
  10   6 -17    1.18    0.63
  11   6 -17    5.81    1.10
  12   6 -17    0.63    0.67
  13   6 -17    0.08    0.64
  14   6 -17    2.37    1.33
  -6   7 -17    2.28    0.99
  -5   7 -17    0.34    0.77
  -4   7 -17    0.82    0.56
  -3   7 -17   -0.62    0.39
  -2   7 -17    0.01    0.43
  -1   7 -17    0.16    0.46
   0   7 -17    4.31    0.86
   1   7 -17   -0.49    0.39
   2   7 -17    0.06    0.42
   3   7 -17    0.60    0.50
   4   7 -17    2.80    0.74
   5   7 -17    3.55    0.78
   6   7 -17    5.73    1.05
   7   7 -17    5.72    0.80
   8   7 -17   -0.29    0.36
   9   7 -17    1.42    0.62
  10   7 -17   -0.23    0.56
  11   7 -17    2.97    0.96
  -2   8 -17    4.62    1.30
  -1   8 -17    8.75    1.72
   0   8 -17    0.01    0.68
   1   8 -17    0.34    0.57
   2   8 -17    0.45    0.57
   3   8 -17    0.71    0.53
   4   8 -17    3.38    0.88
   5   8 -17   -0.02    0.57
   6   8 -17   -0.87    0.67
   7   8 -17    3.06    1.14
  -2  -8 -16    7.53    1.62
   4  -8 -16    9.57    1.91
   8  -8 -16   10.50    2.07
  -6  -7 -16   -0.51    0.62
  -5  -7 -16    7.19    1.52
  -4  -7 -16    4.85    1.28
  -3  -7 -16    0.97    0.76
  -2  -7 -16    0.36    0.42
  -1  -7 -16    1.90    0.65
   0  -7 -16    4.54    1.22
   1  -7 -16   37.50    2.94
   2  -7 -16    1.96    0.92
   3  -7 -16    7.70    1.47
   4  -7 -16    3.36    1.05
   5  -7 -16   18.96    2.23
   6  -7 -16   12.49    1.34
   7  -7 -16   -0.05    0.67
   8  -7 -16    4.98    1.36
   9  -7 -16   -0.36    0.67
  10  -7 -16    5.20    1.65
  11  -7 -16    2.59    1.32
  -8  -6 -16    0.06    0.59
  -7  -6 -16    6.76    1.09
  -6  -6 -16    2.75    0.70
  -5  -6 -16   14.62    1.41
  -4  -6 -16   16.72    1.50
  -3  -6 -16    2.90    0.69
  -2  -6 -16    2.27    0.60
  -1  -6 -16    5.17    0.85
   0  -6 -16   -0.55    0.42
   1  -6 -16    5.84    1.26
   2  -6 -16   -0.40    0.44
   3  -6 -16    0.00    0.49
   4  -6 -16    1.39    0.70
   5  -6 -16    0.02    0.37
   6  -6 -16   17.42    1.54
   7  -6 -16   11.37    1.26
   8  -6 -16   22.65    2.88
   9  -6 -16    0.30    0.78
  10  -6 -16    2.23    1.14
  11  -6 -16    2.36    1.29
  12  -6 -16    6.20    1.86
  13  -6 -16    7.29    1.98
 -11  -5 -16    0.29    0.57
 -10  -5 -16    5.07    0.92
  -9  -5 -16    0.43    0.51
  -8  -5 -16   -0.14    0.43
  -7  -5 -16   11.18    1.23
  -6  -5 -16    1.64    0.56
  -5  -5 -16    0.76    0.39
  -4  -5 -16    5.22    0.84
  -3  -5 -16   21.66    1.71
  -2  -5 -16   -0.05    0.33
  -1  -5 -16   16.46    2.04
   0  -5 -16    0.08    0.44
   1  -5 -16   59.04    3.88
   2  -5 -16    2.25    0.72
   3  -5 -16   21.02    1.37
   4  -5 -16    6.64    0.84
   5  -5 -16   21.15    1.62
   6  -5 -16   16.49    1.43
   7  -5 -16    1.38    0.52
   8  -5 -16   12.92    1.35
   9  -5 -16    1.41    0.88
  10  -5 -16   20.08    2.83
  11  -5 -16    0.21    0.77
  12  -5 -16    0.21    0.51
  13  -5 -16    9.16    1.30
  14  -5 -16   19.32    1.97
  15  -5 -16    2.50    0.83
  16  -5 -16    2.71    1.48
 -12  -4 -16    3.38    0.84
 -11  -4 -16    4.83    0.90
 -10  -4 -16   11.83    1.30
  -9  -4 -16    3.77    0.71
  -8  -4 -16    0.37    0.36
  -7  -4 -16    6.26    0.87
  -6  -4 -16   19.99    1.61
  -5  -4 -16    7.34    0.95
  -4  -4 -16   27.86    1.66
  -3  -4 -16   10.40    1.05
  -2  -4 -16    6.52    1.21
  -1  -4 -16    0.10    0.40
   0  -4 -16    0.60    0.53
   1  -4 -16   -0.03    0.39
   2  -4 -16    0.22    0.25
   3  -4 -16    1.62    0.44
   4  -4 -16   29.65    1.62
   5  -4 -16    0.74    0.38
   6  -4 -16    5.12    0.79
   7  -4 -16   14.25    1.34
   8  -4 -16   21.11    1.70
   9  -4 -16   15.51    2.38
  10  -4 -16    3.39    0.72
  11  -4 -16    0.45    0.39
  12  -4 -16    3.59    0.79
  13  -4 -16    6.67    1.10
  14  -4 -16    0.99    0.66
  15  -4 -16    0.75    0.54
  16  -4 -16   15.21    1.78
  17  -4 -16    2.38    0.89
 -13  -3 -16    0.76    0.77
 -12  -3 -16    1.75    0.65
 -11  -3 -16   10.85    1.23
 -10  -3 -16    8.77    1.07
  -9  -3 -16    6.06    0.88
  -8  -3 -16    5.59    0.80
  -7  -3 -16   34.15    1.84
  -6  -3 -16    1.92    0.52
  -5  -3 -16    4.95    0.76
  -4  -3 -16    9.22    0.97
  -3  -3 -16   15.47    1.82
  -2  -3 -16   28.76    2.12
  -1  -3 -16   15.84    1.78
   0  -3 -16   14.13    1.65
   1  -3 -16   94.37    3.28
   2  -3 -16    3.67    0.57
   3  -3 -16    1.90    0.46
   4  -3 -16   13.77    1.19
   5  -3 -16  156.30    5.70
   6  -3 -16   54.02    2.52
   7  -3 -16    2.65    0.60
   8  -3 -16    1.37    0.35
   9  -3 -16   10.05    0.87
  10  -3 -16    0.13    0.35
  11  -3 -16    1.19    0.53
  12  -3 -16    0.24    0.40
  13  -3 -16    1.69    0.64
  14  -3 -16    4.12    0.88
  15  -3 -16   32.46    2.52
  16  -3 -16    0.53    0.50
  17  -3 -16    3.71    0.93
  18  -3 -16    6.44    1.27
 -13  -2 -16    2.57    1.05
 -12  -2 -16    2.47    0.94
 -11  -2 -16    8.67    1.58
 -10  -2 -16   55.31    3.74
  -9  -2 -16    8.91    1.54
  -8  -2 -16    3.10    0.94
  -7  -2 -16    3.62    0.97
  -6  -2 -16   60.20    3.60
  -5  -2 -16    1.18    0.62
  -4  -2 -16   29.83    2.25
  -3  -2 -16   18.33    1.94
  -2  -2 -16   17.09    1.81
  -1  -2 -16    9.82    1.32
   0  -2 -16    4.49    0.58
   1  -2 -16   10.62    0.96
   2  -2 -16    0.48    0.30
   3  -2 -16    3.93    0.64
   4  -2 -16  130.03    4.73
   5  -2 -16    2.82    0.56
   6  -2 -16    1.81    0.45
   7  -2 -16   11.84    0.84
   8  -2 -16   15.21    0.99
   9  -2 -16   86.77    2.80
  10  -2 -16    3.63    0.68
  11  -2 -16   16.34    1.53
  12  -2 -16    1.71    0.58
  13  -2 -16    4.48    0.86
  14  -2 -16    0.21    0.40
  15  -2 -16    1.61    0.62
  16  -2 -16   35.06    2.64
  17  -2 -16    1.94    0.70
  18  -2 -16   -0.16    0.48
  19  -2 -16    1.30    1.19
 -13  -1 -16    1.00    0.80
 -12  -1 -16    5.24    1.29
 -11  -1 -16    0.47    0.60
 -10  -1 -16   34.32    2.85
  -9  -1 -16    0.82    0.52
  -8  -1 -16    0.75    0.55
  -7  -1 -16   40.57    2.82
  -6  -1 -16    0.96    0.57
  -5  -1 -16    2.85    0.78
  -4  -1 -16    4.49    0.94
  -3  -1 -16  151.51    7.12
  -2  -1 -16   27.62    2.10
  -1  -1 -16   68.18    2.65
   0  -1 -16    0.15    0.26
   1  -1 -16  124.87    4.44
   2  -1 -16   93.49    3.46
   3  -1 -16    0.51    0.31
   4  -1 -16    5.35    0.64
   5  -1 -16  129.94    4.61
   6  -1 -16   34.44    1.35
   7  -1 -16   43.14    1.63
   8  -1 -16    1.69    0.35
   9  -1 -16   16.91    1.10
  10  -1 -16    1.62    0.55
  11  -1 -16    4.97    0.83
  12  -1 -16    6.18    0.95
  13  -1 -16   26.25    2.01
  14  -1 -16    8.47    1.16
  15  -1 -16   38.11    2.33
  16  -1 -16   11.91    1.34
  17  -1 -16    3.79    0.80
  18  -1 -16    0.24    0.53
  19  -1 -16    3.60    0.90
 -14   0 -16   10.56    2.84
 -13   0 -16    0.57    0.68
 -12   0 -16    9.88    1.70
 -11   0 -16    7.67    1.40
 -10   0 -16   39.65    2.92
  -9   0 -16    1.07    0.54
  -8   0 -16    0.80    0.54
  -7   0 -16   49.44    3.24
  -6   0 -16   41.47    2.75
  -5   0 -16   10.47    1.40
  -4   0 -16  124.48    6.29
  -3   0 -16   43.75    2.66
  -2   0 -16    1.18    0.35
  -1   0 -16    0.01    0.22
   0   0 -16    1.09    0.32
   1   0 -16    4.95    0.61
   2   0 -16    4.49    0.60
   3   0 -16    3.54    0.55
   4   0 -16   50.74    1.73
   5   0 -16    0.66    0.24
   6   0 -16    7.08    0.62
   7   0 -16   74.97    2.41
   8   0 -16   29.28    1.26
   9   0 -16   29.88    1.36
  10   0 -16   26.36    1.93
  11   0 -16    9.26    1.09
  12   0 -16   33.54    2.09
  13   0 -16    0.99    0.45
  14   0 -16    3.85    0.80
  15   0 -16   18.47    1.72
  16   0 -16   36.23    2.33
  17   0 -16    0.27    0.45
  18   0 -16    0.71    0.55
  19   0 -16    3.38    0.91
 -13   1 -16   -0.25    0.56
 -12   1 -16    3.93    1.09
 -11   1 -16    0.74    0.60
 -10   1 -16   41.38    3.00
  -9   1 -16    0.77    0.56
  -8   1 -16    2.70    0.84
  -7   1 -16   37.08    2.68
  -6   1 -16    1.20    0.53
  -5   1 -16    2.81    0.76
  -4   1 -16    3.99    0.85
  -3   1 -16  148.38    4.90
  -2   1 -16   31.08    1.44
  -1   1 -16   68.55    2.59
   0   1 -16    0.58    0.28
   1   1 -16  122.95    4.29
   2   1 -16   93.64    3.33
   3   1 -16    0.02    0.16
   4   1 -16    4.09    0.44
   5   1 -16  128.34    3.66
   6   1 -16   34.80    1.37
   7   1 -16   46.95    1.68
   8   1 -16    1.29    0.32
   9   1 -16   19.53    1.57
  10   1 -16    0.53    0.42
  11   1 -16    5.02    0.88
  12   1 -16    6.80    1.03
  13   1 -16   29.74    2.17
  14   1 -16    6.20    1.02
  15   1 -16   34.32    2.47
  16   1 -16   13.05    1.47
  17   1 -16    6.84    1.12
  18   1 -16    0.19    0.50
  19   1 -16    5.93    1.07
 -13   2 -16    3.26    1.14
 -12   2 -16    0.23    0.67
 -11   2 -16   12.18    1.87
 -10   2 -16   49.86    3.52
  -9   2 -16    4.84    1.17
  -8   2 -16    2.67    0.80
  -7   2 -16    4.50    1.01
  -6   2 -16   60.62    3.47
  -5   2 -16    0.48    0.28
  -4   2 -16   30.82    1.48
  -3   2 -16   22.89    1.19
  -2   2 -16   17.62    1.22
  -1   2 -16   11.31    0.92
   0   2 -16    4.29    0.41
   1   2 -16   10.16    0.61
   2   2 -16    0.64    0.21
   3   2 -16    5.50    0.49
   4   2 -16  132.70    3.65
   5   2 -16    3.03    0.40
   6   2 -16    1.75    0.32
   7   2 -16   11.38    1.18
   8   2 -16   12.90    1.28
   9   2 -16   84.95    3.67
  10   2 -16    3.69    0.80
  11   2 -16   19.53    1.75
  12   2 -16    1.73    0.61
  13   2 -16    4.75    0.91
  14   2 -16   -0.43    0.35
  15   2 -16    1.87    0.65
  16   2 -16   37.97    2.70
  17   2 -16    2.40    0.79
  18   2 -16   -0.57    0.51
  19   2 -16    1.77    0.99
 -13   3 -16   -0.14    0.64
 -12   3 -16    3.30    1.09
 -11   3 -16    9.69    1.68
 -10   3 -16   12.05    1.71
  -9   3 -16    3.87    0.98
  -8   3 -16    6.40    1.18
  -7   3 -16   34.24    2.53
  -6   3 -16    2.65    0.53
  -5   3 -16    6.59    0.75
  -4   3 -16   10.35    0.95
  -3   3 -16   21.63    1.18
  -2   3 -16   27.10    1.07
  -1   3 -16   16.17    0.82
   0   3 -16   14.61    0.80
   1   3 -16   88.50    2.57
   2   3 -16    3.66    0.53
   3   3 -16    1.37    0.38
   4   3 -16   17.18    1.27
   5   3 -16  170.83    5.74
   6   3 -16   58.23    2.53
   7   3 -16    1.79    0.52
   8   3 -16    0.97    0.45
   9   3 -16    9.88    1.22
  10   3 -16    0.16    0.42
  11   3 -16    2.58    0.70
  12   3 -16    0.73    0.54
  13   3 -16    2.08    0.71
  14   3 -16    4.35    0.82
  15   3 -16   29.93    2.46
  16   3 -16    0.61    0.62
  17   3 -16    3.75    0.99
  18   3 -16    7.68    1.31
 -12   4 -16    3.65    1.15
 -11   4 -16    2.97    1.09
 -10   4 -16   12.07    1.80
  -9   4 -16    4.82    1.17
  -8   4 -16   -0.12    0.46
  -7   4 -16    6.77    0.84
  -6   4 -16   21.05    1.50
  -5   4 -16    8.19    0.88
  -4   4 -16   22.76    1.39
  -3   4 -16   11.80    1.00
  -2   4 -16    8.29    0.87
  -1   4 -16    0.01    0.25
   0   4 -16    0.46    0.31
   1   4 -16    0.24    0.28
   2   4 -16    0.13    0.25
   3   4 -16    1.16    0.43
   4   4 -16   30.72    1.65
   5   4 -16    0.74    0.39
   6   4 -16    3.88    0.68
   7   4 -16   13.31    1.28
   8   4 -16   22.88    1.34
   9   4 -16   19.44    1.73
  10   4 -16    1.52    0.56
  11   4 -16    0.27    0.51
  12   4 -16    5.75    1.11
  13   4 -16   10.17    1.42
  14   4 -16    0.27    0.63
  15   4 -16    0.01    0.55
  16   4 -16   13.71    1.67
  17   4 -16    1.79    0.87
  -7   5 -16   13.99    1.85
  -6   5 -16    1.22    0.69
  -5   5 -16    1.67    0.71
  -4   5 -16    5.40    0.77
  -3   5 -16   23.43    1.50
  -2   5 -16    0.11    0.31
  -1   5 -16   22.01    1.41
   0   5 -16    0.24    0.32
   1   5 -16   67.09    2.83
   2   5 -16    3.02    0.59
   3   5 -16   21.52    1.61
   4   5 -16    5.77    0.85
   5   5 -16   20.75    1.62
   6   5 -16   17.07    1.48
   7   5 -16    1.90    0.60
   8   5 -16   15.13    1.13
   9   5 -16    0.36    0.38
  10   5 -16   19.78    1.85
  11   5 -16    0.00    0.47
  12   5 -16    1.26    0.64
  13   5 -16   12.63    1.59
  14   5 -16   17.67    1.98
  15   5 -16    2.22    0.93
  -8   6 -16   -0.51    0.60
  -7   6 -16    7.25    1.43
  -6   6 -16    5.90    1.35
  -5   6 -16   14.64    1.38
  -4   6 -16   17.44    1.47
  -3   6 -16    1.79    0.51
  -2   6 -16    2.02    0.58
  -1   6 -16    4.47    0.77
   0   6 -16    0.15    0.36
   1   6 -16    4.68    0.77
   2   6 -16    0.24    0.34
   3   6 -16    0.02    0.32
   4   6 -16    1.64    0.52
   5   6 -16    0.07    0.38
   6   6 -16   17.09    1.55
   7   6 -16   11.79    1.05
   8   6 -16   24.26    1.56
   9   6 -16    0.46    0.39
  10   6 -16    1.89    0.76
  11   6 -16    1.96    0.78
  12   6 -16    6.67    1.23
  13   6 -16    9.01    1.47
  14   6 -16    4.92    1.21
  -7   7 -16    8.20    1.64
  -6   7 -16    0.59    0.57
  -5   7 -16    9.57    1.20
  -4   7 -16    7.80    1.08
  -3   7 -16    0.44    0.47
  -2   7 -16    0.31    0.45
  -1   7 -16    2.83    0.71
   0   7 -16    4.66    0.85
   1   7 -16   32.90    2.11
   2   7 -16    3.51    0.75
   3   7 -16    8.04    1.10
   4   7 -16    5.42    0.93
   5   7 -16   17.02    1.64
   6   7 -16   13.13    1.43
   7   7 -16    1.76    0.49
   8   7 -16    2.53    0.60
   9   7 -16    0.30    0.44
  10   7 -16    4.80    1.06
  11   7 -16    2.52    0.94
  12   7 -16    0.54    0.98
  -3   8 -16    0.10    0.76
  -2   8 -16    6.34    1.49
  -1   8 -16    0.51    0.59
   0   8 -16    0.61    0.57
   1   8 -16    0.11    0.50
   2   8 -16    0.18    0.56
   3   8 -16    2.65    0.77
   4   8 -16    4.80    0.97
   5   8 -16    0.13    0.49
   6   8 -16    1.94    0.62
   7   8 -16    0.56    0.51
   8   8 -16   11.51    2.01
  -3  -8 -15   -0.86    0.56
  -2  -8 -15    0.16    0.66
  -1  -8 -15    0.45    0.82
   7  -8 -15    0.23    0.70
   8  -8 -15    0.37    0.89
   9  -8 -15    9.68    2.10
  -7  -7 -15   -0.05    0.80
  -6  -7 -15    1.11    0.86
  -5  -7 -15   -0.14    0.51
  -4  -7 -15    0.93    0.71
  -3  -7 -15    0.28    0.55
  -2  -7 -15   17.26    2.19
  -1  -7 -15    1.18    0.55
   0  -7 -15    1.73    0.54
   1  -7 -15    8.29    1.48
   2  -7 -15   10.42    1.66
   3  -7 -15    0.17    0.59
   4  -7 -15    5.25    1.24
   5  -7 -15    7.96    1.04
   6  -7 -15   -0.02    0.59
   7  -7 -15    0.65    0.75
   8  -7 -15    0.95    0.78
   9  -7 -15   -0.50    0.58
  10  -7 -15    3.50    1.31
  11  -7 -15    0.02    0.94
  12  -7 -15    0.70    1.05
  -9  -6 -15   -0.14    0.50
  -8  -6 -15   -0.04    0.50
  -7  -6 -15    3.45    1.00
  -6  -6 -15    1.21    0.55
  -5  -6 -15    1.74    0.57
  -4  -6 -15   11.78    1.25
  -3  -6 -15    0.99    0.47
  -2  -6 -15    0.59    0.42
  -1  -6 -15    4.83    0.79
   0  -6 -15    7.50    0.95
   1  -6 -15    6.25    1.23
   2  -6 -15    1.03    0.61
   3  -6 -15   -0.18    0.45
   4  -6 -15    0.95    0.42
   5  -6 -15    1.23    0.44
   6  -6 -15    9.07    1.05
   7  -6 -15   -0.04    0.60
   8  -6 -15    0.28    0.59
   9  -6 -15    2.79    1.12
  10  -6 -15    0.36    0.75
  11  -6 -15   13.74    2.39
  12  -6 -15   -0.18    0.50
  13  -6 -15    0.26    0.62
  14  -6 -15    0.15    0.63
  15  -6 -15    9.64    2.15
 -11  -5 -15    0.10    0.56
 -10  -5 -15    7.79    1.10
  -9  -5 -15    0.40    0.44
  -8  -5 -15    2.43    0.63
  -7  -5 -15    0.05    0.38
  -6  -5 -15    2.40    0.56
  -5  -5 -15    2.43    0.57
  -4  -5 -15    0.42    0.36
  -3  -5 -15    0.88    0.41
  -2  -5 -15   25.86    1.79
  -1  -5 -15    3.16    0.58
   0  -5 -15   11.90    1.59
   1  -5 -15    1.98    0.71
   2  -5 -15   21.98    2.24
   3  -5 -15    5.37    0.69
   4  -5 -15    3.17    0.59
   5  -5 -15    4.57    0.66
   6  -5 -15    1.18    0.46
   7  -5 -15    5.87    0.85
   8  -5 -15    1.42    0.83
   9  -5 -15    1.48    0.51
  10  -5 -15    6.70    1.00
  11  -5 -15    0.48    0.51
  12  -5 -15    0.87    0.53
  13  -5 -15    0.11    0.53
  14  -5 -15   -0.40    0.45
  15  -5 -15    1.31    0.73
  16  -5 -15    0.71    0.81
 -13  -4 -15   -0.06    0.45
 -12  -4 -15    1.58    0.60
 -11  -4 -15    2.88    0.65
 -10  -4 -15    4.54    0.82
  -9  -4 -15    0.00    0.31
  -8  -4 -15    1.06    0.43
  -7  -4 -15    0.11    0.34
  -6  -4 -15    0.85    0.40
  -5  -4 -15    2.73    0.59
  -4  -4 -15   10.34    1.02
  -3  -4 -15    2.59    0.53
  -2  -4 -15   -0.18    0.22
  -1  -4 -15   12.26    1.13
   0  -4 -15    6.22    1.08
   1  -4 -15   13.42    1.60
   2  -4 -15    0.32    0.25
   3  -4 -15    0.16    0.25
   4  -4 -15    1.40    0.42
   5  -4 -15    1.98    0.49
   6  -4 -15   13.77    1.22
   7  -4 -15    4.20    0.54
   8  -4 -15    0.91    0.32
   9  -4 -15    6.01    0.83
  10  -4 -15   -0.08    0.32
  11  -4 -15   14.43    1.46
  12  -4 -15    2.23    0.66
  13  -4 -15   -0.39    0.40
  14  -4 -15    0.47    0.54
  15  -4 -15   10.53    1.45
  16  -4 -15    0.21    0.53
  17  -4 -15    0.01    0.59
 -13  -3 -15    7.23    1.54
 -12  -3 -15   -0.06    0.41
 -11  -3 -15    1.44    0.53
 -10  -3 -15    4.11    0.74
  -9  -3 -15   -0.21    0.29
  -8  -3 -15    6.80    0.89
  -7  -3 -15   -0.16    0.27
  -6  -3 -15   12.00    1.13
  -5  -3 -15    1.94    0.47
  -4  -3 -15   -0.13    0.22
  -3  -3 -15    0.61    0.32
  -2  -3 -15   16.33    1.81
  -1  -3 -15    0.48    0.43
   0  -3 -15    3.22    0.74
   1  -3 -15    0.62    0.27
   2  -3 -15    6.54    0.75
   3  -3 -15   14.70    1.16
   4  -3 -15    8.21    0.87
   5  -3 -15   12.16    1.09
   6  -3 -15    3.31    0.44
   7  -3 -15   -0.25    0.17
   8  -3 -15   15.52    1.00
   9  -3 -15   -0.19    0.21
  10  -3 -15   18.22    1.55
  11  -3 -15    2.13    0.57
  12  -3 -15    0.28    0.44
  13  -3 -15    2.82    0.72
  14  -3 -15   -0.51    0.41
  15  -3 -15    9.66    1.34
  16  -3 -15   -0.13    0.47
  17  -3 -15   -0.56    0.47
  18  -3 -15    1.31    0.71
 -14  -2 -15   -0.06    0.61
 -13  -2 -15   -0.04    0.65
 -12  -2 -15    0.18    0.59
 -11  -2 -15    2.03    0.60
 -10  -2 -15    2.49    0.59
  -9  -2 -15    0.13    0.32
  -8  -2 -15    2.01    0.50
  -7  -2 -15   -0.18    0.25
  -6  -2 -15    1.43    0.42
  -5  -2 -15    0.35    0.41
  -4  -2 -15    5.40    0.97
  -3  -2 -15    2.51    0.71
  -2  -2 -15    0.09    0.35
  -1  -2 -15   12.15    1.41
   0  -2 -15    4.81    0.59
   1  -2 -15    6.97    0.72
   2  -2 -15   -0.06    0.22
   3  -2 -15    0.99    0.35
   4  -2 -15    2.67    0.51
   5  -2 -15    0.93    0.24
   6  -2 -15    8.86    0.67
   7  -2 -15    2.80    0.43
   8  -2 -15    1.39    0.31
   9  -2 -15    1.45    0.35
  10  -2 -15   -0.13    0.34
  11  -2 -15    7.30    1.01
  12  -2 -15    2.52    0.67
  13  -2 -15    0.04    0.39
  14  -2 -15    1.21    0.60
  15  -2 -15    7.19    1.14
  16  -2 -15   -0.01    0.46
  17  -2 -15    0.46    0.51
  18  -2 -15   -0.17    0.47
  19  -2 -15    0.57    0.62
 -14  -1 -15   -0.17    0.56
 -13  -1 -15   -0.11    0.65
 -12  -1 -15   -0.45    0.45
 -11  -1 -15   -0.76    0.27
 -10  -1 -15    0.55    0.52
  -9  -1 -15    0.29    0.50
  -8  -1 -15    0.23    0.43
  -7  -1 -15   -0.03    0.41
  -6  -1 -15    0.20    0.42
  -5  -1 -15    0.80    0.47
  -4  -1 -15    0.55    0.43
  -3  -1 -15   -0.21    0.25
  -2  -1 -15    3.73    0.77
  -1  -1 -15   -0.02    0.21
   0  -1 -15    1.88    0.40
   1  -1 -15   -0.18    0.20
   2  -1 -15    1.85    0.44
   3  -1 -15    2.12    0.46
   4  -1 -15    1.05    0.22
   5  -1 -15    0.58    0.22
   6  -1 -15    0.59    0.24
   7  -1 -15    0.25    0.20
   8  -1 -15    1.74    0.37
   9  -1 -15   -0.04    0.23
  10  -1 -15    1.41    0.52
  11  -1 -15   -0.01    0.34
  12  -1 -15   -0.04    0.34
  13  -1 -15    0.33    0.40
  14  -1 -15    0.38    0.38
  15  -1 -15    0.86    0.54
  16  -1 -15   -0.16    0.35
  17  -1 -15   -0.29    0.39
  18  -1 -15   -0.54    0.47
  19  -1 -15   -0.05    0.51
 -14   0 -15   -0.04    0.57
 -13   0 -15   -0.21    0.46
 -12   0 -15    0.06    0.49
 -11   0 -15   -0.23    0.34
 -10   0 -15    0.59    0.52
  -9   0 -15    0.42    0.51
  -8   0 -15    0.25    0.46
  -7   0 -15   -0.53    0.29
  -6   0 -15   -0.05    0.33
  -5   0 -15    0.14    0.31
  -4   0 -15    0.37    0.41
  -3   0 -15   -0.02    0.19
  -2   0 -15   -0.22    0.16
  -1   0 -15   -0.04    0.20
   0   0 -15    1.24    0.31
   1   0 -15   -0.23    0.16
   2   0 -15   -0.17    0.18
   3   0 -15   -0.12    0.15
   4   0 -15    0.04    0.17
   5   0 -15    0.12    0.17
   6   0 -15    0.09    0.19
   7   0 -15    0.18    0.21
   8   0 -15    0.02    0.19
   9   0 -15   -0.16    0.26
  10   0 -15    0.28    0.31
  11   0 -15   -0.38    0.31
  12   0 -15   -0.28    0.33
  13   0 -15   -0.36    0.30
  14   0 -15   -0.04    0.38
  15   0 -15   -0.03    0.39
  16   0 -15    0.13    0.45
  17   0 -15    0.29    0.48
  18   0 -15    0.26    0.48
  19   0 -15   -0.03    0.50
 -14   1 -15    0.48    0.67
 -13   1 -15    1.46    0.87
 -12   1 -15    0.15    0.49
 -11   1 -15    0.87    0.65
 -10   1 -15    0.21    0.53
  -9   1 -15   -0.66    0.22
  -8   1 -15    0.54    0.47
  -7   1 -15   -0.58    0.22
  -6   1 -15    0.90    0.44
  -5   1 -15    1.04    0.49
  -4   1 -15   -0.10    0.22
  -3   1 -15   -0.25    0.17
  -2   1 -15    3.62    0.49
  -1   1 -15   -0.18    0.16
   0   1 -15    1.99    0.39
   1   1 -15    0.07    0.14
   2   1 -15    2.55    0.31
   3   1 -15    1.72    0.28
   4   1 -15    0.80    0.23
   5   1 -15    0.74    0.24
   6   1 -15    0.02    0.18
   7   1 -15    0.13    0.19
   8   1 -15    1.04    0.30
   9   1 -15    0.26    0.29
  10   1 -15    0.95    0.45
  11   1 -15    0.06    0.37
  12   1 -15    0.05    0.38
  13   1 -15    0.06    0.38
  14   1 -15   -0.12    0.40
  15   1 -15    1.22    0.57
  16   1 -15    0.16    0.46
  17   1 -15    0.45    0.54
  18   1 -15    0.54    0.49
  19   1 -15    1.09    0.67
 -14   2 -15   -0.11    0.53
 -13   2 -15    0.30    0.62
 -12   2 -15    0.05    0.61
 -11   2 -15    1.11    0.63
 -10   2 -15    2.87    0.92
  -9   2 -15    0.24    0.49
  -8   2 -15    2.17    0.72
  -7   2 -15    0.06    0.43
  -6   2 -15    1.68    0.61
  -5   2 -15    0.62    0.30
  -4   2 -15    3.81    0.52
  -3   2 -15    1.72    0.37
  -2   2 -15    0.29    0.16
  -1   2 -15   11.51    0.65
   0   2 -15    5.07    0.44
   1   2 -15    7.15    0.54
   2   2 -15    0.14    0.15
   3   2 -15    0.98    0.24
   4   2 -15    1.95    0.30
   5   2 -15    0.68    0.19
   6   2 -15    5.88    0.54
   7   2 -15    4.34    0.48
   8   2 -15    0.98    0.47
   9   2 -15    1.86    0.60
  10   2 -15    1.18    0.53
  11   2 -15    6.94    1.06
  12   2 -15    1.88    0.60
  13   2 -15    0.07    0.41
  14   2 -15    0.31    0.46
  15   2 -15    5.25    0.96
  16   2 -15   -0.22    0.44
  17   2 -15    0.78    0.55
  18   2 -15    0.15    0.52
 -13   3 -15    6.98    1.51
 -12   3 -15   -0.21    0.57
 -11   3 -15    1.22    0.81
 -10   3 -15    4.11    1.07
  -9   3 -15    0.13    0.52
  -8   3 -15    6.42    1.20
  -7   3 -15   -0.30    0.37
  -6   3 -15   12.42    1.06
  -5   3 -15    1.24    0.39
  -4   3 -15    0.07    0.22
  -3   3 -15    0.26    0.24
  -2   3 -15   21.63    0.95
  -1   3 -15    0.17    0.17
   0   3 -15    4.32    0.42
   1   3 -15    0.34    0.19
   2   3 -15    6.31    0.53
   3   3 -15   15.83    1.18
   4   3 -15    7.59    0.82
   5   3 -15   13.22    1.13
   6   3 -15    2.92    0.52
   7   3 -15    0.43    0.25
   8   3 -15   16.65    0.96
   9   3 -15    0.23    0.40
  10   3 -15   18.54    1.68
  11   3 -15    4.81    0.95
  12   3 -15    0.35    0.46
  13   3 -15    3.61    0.82
  14   3 -15   -0.13    0.46
  15   3 -15    7.00    1.17
  16   3 -15   -0.12    0.46
  17   3 -15   -0.53    0.51
  18   3 -15   -0.64    0.93
 -13   4 -15    1.20    1.23
 -12   4 -15    2.57    0.98
 -11   4 -15    3.95    1.06
 -10   4 -15    5.68    1.23
  -9   4 -15   -0.11    0.39
  -8   4 -15    1.74    0.76
  -7   4 -15    0.03    0.30
  -6   4 -15    0.19    0.30
  -5   4 -15    1.88    0.44
  -4   4 -15   12.02    1.04
  -3   4 -15    2.78    0.51
  -2   4 -15   -0.06    0.21
  -1   4 -15   14.46    1.14
   0   4 -15    8.93    0.83
   1   4 -15   11.04    0.98
   2   4 -15   -0.23    0.19
   3   4 -15    0.93    0.36
   4   4 -15    1.39    0.44
   5   4 -15    2.31    0.54
   6   4 -15   13.74    1.21
   7   4 -15    4.84    0.58
   8   4 -15    0.47    0.30
   9   4 -15    4.98    0.65
  10   4 -15    0.22    0.43
  11   4 -15   13.05    1.50
  12   4 -15    1.13    0.56
  13   4 -15    0.11    0.47
  14   4 -15    0.03    0.58
  15   4 -15   10.69    1.47
  16   4 -15    0.16    0.61
  17   4 -15    0.77    1.12
 -11   5 -15   -0.18    0.62
  -8   5 -15    1.36    0.72
  -7   5 -15   -0.26    0.47
  -6   5 -15    3.08    0.86
  -5   5 -15    3.92    0.99
  -4   5 -15   -0.32    0.37
  -3   5 -15    1.58    0.46
  -2   5 -15   25.63    1.58
  -1   5 -15    3.38    0.59
   0   5 -15    8.39    0.93
   1   5 -15    1.64    0.45
   2   5 -15   26.16    1.46
   3   5 -15    4.88    0.75
   4   5 -15    3.96    0.68
   5   5 -15    5.35    0.81
   6   5 -15    1.72    0.54
   7   5 -15    5.44    0.89
   8   5 -15    3.41    0.56
   9   5 -15    0.81    0.35
  10   5 -15    6.63    0.82
  11   5 -15    1.02    0.62
  12   5 -15    1.21    0.67
  13   5 -15   -0.38    0.46
  14   5 -15    0.02    0.61
  15   5 -15    2.29    0.87
  16   5 -15    0.54    1.24
  -9   6 -15   -0.80    0.59
  -8   6 -15    0.34    0.66
  -7   6 -15    2.32    0.95
  -6   6 -15    1.21    0.79
  -5   6 -15    2.49    0.90
  -4   6 -15   11.19    1.16
  -3   6 -15    1.06    0.44
  -2   6 -15    0.99    0.44
  -1   6 -15    4.08    0.73
   0   6 -15    6.73    0.90
   1   6 -15    8.11    0.96
   2   6 -15    1.00    0.43
   3   6 -15   -0.13    0.29
   4   6 -15    0.05    0.34
   5   6 -15    0.83    0.45
   6   6 -15    7.09    1.02
   7   6 -15    0.45    0.34
   8   6 -15   -0.19    0.29
   9   6 -15    3.81    0.64
  10   6 -15    0.35    0.41
  11   6 -15   12.43    1.53
  12   6 -15   -0.14    0.50
  13   6 -15    0.64    0.66
  14   6 -15    0.00    0.71
  -8   7 -15    0.58    0.89
  -7   7 -15    1.49    0.98
  -6   7 -15    2.71    0.75
  -5   7 -15    0.47    0.46
  -4   7 -15    1.41    0.55
  -3   7 -15    0.51    0.48
  -2   7 -15   17.29    1.60
  -1   7 -15    1.59    0.57
   0   7 -15    1.88    0.58
   1   7 -15    7.28    1.01
   2   7 -15    9.64    1.15
   3   7 -15    1.13    0.55
   4   7 -15    8.13    1.13
   5   7 -15    9.84    1.23
   6   7 -15    0.06    0.45
   7   7 -15    0.39    0.39
   8   7 -15    0.35    0.39
   9   7 -15    0.71    0.42
  10   7 -15    6.02    0.87
  11   7 -15    1.12    0.75
  12   7 -15    0.48    0.73
  -4   8 -15    0.83    0.95
  -3   8 -15    0.50    0.55
  -2   8 -15    0.10    0.51
  -1   8 -15    1.71    0.65
   0   8 -15   -0.05    0.51
   1   8 -15   -0.08    0.46
   2   8 -15    1.83    0.65
   3   8 -15    1.82    0.57
   4   8 -15    4.50    0.91
   5   8 -15   -0.43    0.48
   6   8 -15    0.73    0.46
   7   8 -15    0.27    0.43
   8   8 -15   -0.30    0.45
   9   8 -15   11.04    1.48
  -4  -8 -14    1.95    0.93
  -3  -8 -14    0.03    0.66
  -2  -8 -14    1.64    0.85
  -1  -8 -14    9.79    1.71
   0  -8 -14   -0.34    0.60
   6  -8 -14    0.64    0.79
   7  -8 -14    1.44    0.87
   8  -8 -14   14.10    2.35
   9  -8 -14    6.38    1.68
  -7  -7 -14    1.10    0.70
  -6  -7 -14   -0.30    0.59
  -5  -7 -14    4.29    1.15
  -4  -7 -14    0.87    0.69
  -3  -7 -14   15.97    2.06
  -2  -7 -14   38.60    3.06
  -1  -7 -14    9.04    1.05
   0  -7 -14    3.63    0.70
   1  -7 -14    4.87    0.80
   2  -7 -14    7.42    1.42
   3  -7 -14   40.74    3.03
   4  -7 -14   14.35    1.94
   5  -7 -14    3.65    0.72
   6  -7 -14    5.73    1.27
   7  -7 -14    4.84    1.31
   8  -7 -14    2.47    1.03
   9  -7 -14   13.28    2.19
  10  -7 -14   24.05    3.15
  11  -7 -14    0.19    0.82
  12  -7 -14    6.81    1.87
  13  -7 -14    4.17    2.02
 -10  -6 -14    2.46    0.97
  -9  -6 -14   14.23    2.08
  -8  -6 -14   11.46    1.82
  -7  -6 -14    0.22    0.50
  -6  -6 -14    0.65    0.46
  -5  -6 -14   10.98    1.23
  -4  -6 -14    8.58    1.01
  -3  -6 -14    9.55    1.07
  -2  -6 -14    0.47    0.35
  -1  -6 -14   12.77    1.22
   0  -6 -14    8.25    0.98
   1  -6 -14   17.16    1.42
   2  -6 -14    5.55    1.15
   3  -6 -14    0.06    0.30
   4  -6 -14    0.32    0.31
   5  -6 -14    4.65    0.74
   6  -6 -14    7.59    0.96
   7  -6 -14    1.15    0.77
   8  -6 -14    9.09    1.76
   9  -6 -14   11.52    1.27
  10  -6 -14    4.00    0.79
  11  -6 -14   45.13    2.67
  12  -6 -14    0.16    0.54
  13  -6 -14    0.64    0.63
  14  -6 -14   -0.36    0.55
  15  -6 -14   12.51    2.44
 -12  -5 -14    8.82    1.65
 -11  -5 -14   10.70    1.69
 -10  -5 -14    1.61    0.60
  -9  -5 -14    7.77    1.05
  -8  -5 -14    0.72    0.41
  -7  -5 -14    0.17    0.38
  -6  -5 -14    0.50    0.39
  -5  -5 -14    7.05    0.92
  -4  -5 -14    1.95    0.53
  -3  -5 -14    5.52    0.81
  -2  -5 -14   93.79    3.58
  -1  -5 -14   -0.14    0.28
   0  -5 -14   28.84    1.63
   1  -5 -14    8.01    1.27
   2  -5 -14   51.09    2.19
   3  -5 -14   73.26    2.78
   4  -5 -14    5.48    0.75
   5  -5 -14   20.95    1.50
   6  -5 -14    8.26    0.77
   7  -5 -14   38.97    1.57
   8  -5 -14    0.46    0.38
   9  -5 -14    5.36    0.83
  10  -5 -14   29.45    2.12
  11  -5 -14    0.65    0.47
  12  -5 -14   25.77    2.10
  13  -5 -14   -0.08    0.47
  14  -5 -14    7.52    1.20
  15  -5 -14    0.47    0.52
  16  -5 -14    1.55    0.74
 -13  -4 -14   12.98    1.43
 -12  -4 -14    0.42    0.49
 -11  -4 -14    5.18    0.85
 -10  -4 -14   12.28    1.26
  -9  -4 -14   13.75    1.32
  -8  -4 -14    6.17    0.88
  -7  -4 -14    2.73    0.61
  -6  -4 -14    0.94    0.39
  -5  -4 -14   26.49    1.50
  -4  -4 -14    2.96    0.56
  -3  -4 -14    4.30    0.67
  -2  -4 -14    1.87    0.45
  -1  -4 -14   14.58    1.19
   0  -4 -14   19.55    1.36
   1  -4 -14   16.06    1.03
   2  -4 -14   11.81    0.95
   3  -4 -14    0.25    0.27
   4  -4 -14    0.18    0.25
   5  -4 -14    7.74    0.65
   6  -4 -14    8.98    0.73
   7  -4 -14    0.83    0.27
   8  -4 -14   23.85    1.24
   9  -4 -14   41.56    2.14
  10  -4 -14    2.65    0.64
  11  -4 -14   55.37    2.78
  12  -4 -14    7.26    1.10
  13  -4 -14    1.05    0.54
  14  -4 -14    4.47    0.96
  15  -4 -14   19.69    1.95
  16  -4 -14    0.47    0.63
  17  -4 -14    0.68    0.61
 -14  -3 -14    1.86    0.90
 -13  -3 -14    2.09    0.97
 -12  -3 -14    1.63    0.58
 -11  -3 -14   -0.10    0.35
 -10  -3 -14   15.79    1.39
  -9  -3 -14    3.56    0.64
  -8  -3 -14    4.64    0.71
  -7  -3 -14   17.15    1.36
  -6  -3 -14   14.33    1.20
  -5  -3 -14   13.57    1.19
  -4  -3 -14   32.46    1.68
  -3  -3 -14   28.42    1.48
  -2  -3 -14   56.13    2.32
  -1  -3 -14   35.13    2.39
   0  -3 -14   28.43    1.31
   1  -3 -14   12.92    0.99
   2  -3 -14   22.69    1.21
   3  -3 -14   57.93    2.33
   4  -3 -14   47.77    1.56
   5  -3 -14    3.63    0.42
   6  -3 -14   43.31    1.56
   7  -3 -14    5.70    0.58
   8  -3 -14    0.04    0.21
   9  -3 -14   27.38    1.66
  10  -3 -14  121.79    4.89
  11  -3 -14   -0.38    0.26
  12  -3 -14    0.39    0.42
  13  -3 -14    2.17    0.65
  14  -3 -14    6.28    1.06
  15  -3 -14    4.90    0.99
  16  -3 -14   -0.06    0.46
  17  -3 -14    5.23    1.07
  18  -3 -14    0.05    0.55
 -14  -2 -14    3.17    1.06
 -13  -2 -14    6.54    1.34
 -12  -2 -14    3.80    1.07
 -11  -2 -14    7.84    0.97
 -10  -2 -14   34.27    1.81
  -9  -2 -14    5.54    0.74
  -8  -2 -14    0.08    0.27
  -7  -2 -14    8.36    0.95
  -6  -2 -14    0.97    0.33
  -5  -2 -14   43.56    2.05
  -4  -2 -14    0.27    0.24
  -3  -2 -14   -0.44    0.28
  -2  -2 -14   15.31    1.62
  -1  -2 -14   12.94    0.83
   0  -2 -14   37.29    1.61
   1  -2 -14    8.71    0.80
   2  -2 -14   21.63    1.30
   3  -2 -14    3.89    0.58
   4  -2 -14    0.52    0.17
   5  -2 -14    4.21    0.44
   6  -2 -14    3.22    0.42
   7  -2 -14    8.73    0.71
   8  -2 -14   54.74    1.90
   9  -2 -14  108.02    4.17
  10  -2 -14    0.29    0.37
  11  -2 -14   58.64    2.81
  12  -2 -14   41.96    2.26
  13  -2 -14    0.23    0.39
  14  -2 -14   25.66    2.10
  15  -2 -14   15.33    1.58
  16  -2 -14   -0.19    0.46
  17  -2 -14    2.84    0.78
  18  -2 -14   12.27    1.50
  19  -2 -14   11.13    1.44
 -14  -1 -14    0.23    0.60
 -13  -1 -14    1.29    0.73
 -12  -1 -14   11.46    1.76
 -11  -1 -14    1.24    0.71
 -10  -1 -14   13.00    1.76
  -9  -1 -14    0.09    0.32
  -8  -1 -14    0.70    0.51
  -7  -1 -14    9.78    1.38
  -6  -1 -14    0.99    0.49
  -5  -1 -14   24.16    1.83
  -4  -1 -14   33.61    2.24
  -3  -1 -14    4.39    0.83
  -2  -1 -14   73.08    2.74
  -1  -1 -14    1.38    0.36
   0  -1 -14   68.58    2.65
   1  -1 -14    9.07    0.86
   2  -1 -14  125.68    4.31
   3  -1 -14   36.32    1.20
   4  -1 -14    0.73    0.19
   5  -1 -14   36.53    1.33
   6  -1 -14   31.17    1.24
   7  -1 -14   54.13    1.84
   8  -1 -14   22.59    1.17
   9  -1 -14    2.37    0.60
  10  -1 -14   87.04    3.67
  11  -1 -14    1.05    0.52
  12  -1 -14    6.72    0.91
  13  -1 -14    0.72    0.44
  14  -1 -14   11.88    1.35
  15  -1 -14    0.00    0.41
  16  -1 -14   -0.15    0.37
  17  -1 -14    6.18    1.03
  18  -1 -14    5.12    0.96
  19  -1 -14   45.54    2.76
 -15   0 -14    1.46    1.15
 -14   0 -14    9.73    1.81
 -12   0 -14    9.12    1.53
 -11   0 -14    0.44    0.48
 -10   0 -14    5.31    1.08
  -9   0 -14    1.53    0.62
  -8   0 -14   15.47    1.77
  -7   0 -14    0.30    0.40
  -6   0 -14    9.59    1.32
  -5   0 -14    2.35    0.66
  -4   0 -14    3.67    0.78
  -3   0 -14   14.78    0.92
  -2   0 -14    3.99    0.51
  -1   0 -14   10.97    0.85
   0   0 -14  215.14    6.76
   1   0 -14   65.89    2.47
   2   0 -14    4.52    0.40
   3   0 -14   30.66    1.16
   4   0 -14   14.73    0.75
   5   0 -14   19.68    0.92
   6   0 -14   69.49    2.19
   7   0 -14   19.47    1.01
   8   0 -14    2.76    0.41
   9   0 -14   52.77    2.49
  10   0 -14   15.30    1.38
  11   0 -14  174.38    6.40
  12   0 -14   33.48    1.94
  13   0 -14   13.27    1.36
  14   0 -14    0.98    0.46
  15   0 -14   13.62    1.45
  16   0 -14    4.62    0.86
  17   0 -14    0.12    0.46
  18   0 -14   22.29    1.96
  19   0 -14    2.30    0.79
 -14   1 -14    0.18    0.61
 -13   1 -14    1.22    0.72
 -12   1 -14   12.53    1.84
 -11   1 -14    4.34    1.03
 -10   1 -14   11.57    1.66
  -9   1 -14    1.35    0.59
  -8   1 -14    0.92    0.56
  -7   1 -14    8.83    1.30
  -6   1 -14    1.73    0.59
  -5   1 -14   20.86    1.17
  -4   1 -14   32.77    1.47
  -3   1 -14    4.09    0.51
  -2   1 -14   73.63    2.70
  -1   1 -14    1.32    0.21
   0   1 -14   69.84    1.98
   1   1 -14    8.47    0.54
   2   1 -14  120.57    3.31
   3   1 -14   35.61    1.25
   4   1 -14    0.71    0.22
   5   1 -14   36.60    1.33
   6   1 -14   31.00    0.99
   7   1 -14   48.91    1.79
   8   1 -14   21.32    1.10
   9   1 -14    1.96    0.54
  10   1 -14   86.72    3.67
  11   1 -14    1.89    0.57
  12   1 -14    4.64    0.80
  13   1 -14    0.62    0.41
  14   1 -14   14.11    1.47
  15   1 -14   -0.04    0.42
  16   1 -14    0.15    0.40
  17   1 -14    5.33    0.97
  18   1 -14    8.87    1.22
  19   1 -14   40.10    2.57
 -14   2 -14    3.20    1.05
 -13   2 -14    3.76    1.09
 -12   2 -14    1.72    0.82
 -11   2 -14    4.60    1.13
 -10   2 -14   31.53    2.53
  -9   2 -14    9.30    1.41
  -8   2 -14    0.45    0.43
  -7   2 -14    7.58    1.18
  -6   2 -14    0.55    0.30
  -5   2 -14   49.46    2.01
  -4   2 -14    0.19    0.20
  -3   2 -14   -0.01    0.18
  -2   2 -14   15.76    0.98
  -1   2 -14   12.44    0.65
   0   2 -14   37.60    1.25
   1   2 -14    8.66    0.57
   2   2 -14   23.35    0.90
   3   2 -14    3.40    0.36
   4   2 -14    0.26    0.17
   5   2 -14    3.95    0.41
   6   2 -14    3.52    0.41
   7   2 -14    9.41    0.54
   8   2 -14   51.63    1.87
   9   2 -14  109.33    4.29
  10   2 -14    0.13    0.36
  11   2 -14   59.67    2.89
  12   2 -14   37.20    2.20
  13   2 -14    0.15    0.35
  14   2 -14   22.02    1.91
  15   2 -14   13.51    1.51
  16   2 -14    0.40    0.49
  17   2 -14    1.78    0.66
  18   2 -14   13.05    1.53
  19   2 -14   12.78    2.70
 -14   3 -14    1.12    0.82
 -13   3 -14    0.44    0.63
 -12   3 -14    2.08    0.89
 -11   3 -14    0.33    0.59
 -10   3 -14   18.28    2.10
  -9   3 -14    2.79    0.81
  -8   3 -14    2.64    0.81
  -7   3 -14   18.89    1.34
  -6   3 -14   13.34    1.08
  -5   3 -14   18.28    1.14
  -4   3 -14   35.87    1.63
  -3   3 -14   28.01    1.36
  -2   3 -14   54.87    2.19
  -1   3 -14   35.88    1.27
   0   3 -14   28.59    1.06
   1   3 -14   13.54    0.72
   2   3 -14   22.00    0.93
   3   3 -14   57.35    2.31
   4   3 -14   45.76    2.01
   5   3 -14    3.86    0.60
   6   3 -14   43.63    2.04
   7   3 -14    5.29    0.55
   8   3 -14    0.25    0.24
   9   3 -14   25.97    1.36
  10   3 -14  134.03    5.11
  11   3 -14    0.28    0.43
  12   3 -14    0.63    0.48
  13   3 -14    3.92    0.90
  14   3 -14    5.37    1.00
  15   3 -14    3.67    0.89
  16   3 -14   -0.15    0.42
  17   3 -14    3.84    0.91
  18   3 -14   -0.57    0.92
 -13   4 -14   11.38    1.88
 -12   4 -14    1.08    0.76
 -11   4 -14    8.46    1.53
 -10   4 -14   12.76    1.83
  -9   4 -14   17.55    1.98
  -8   4 -14    7.79    0.91
  -7   4 -14    3.69    0.61
  -6   4 -14    1.15    0.38
  -5   4 -14   25.73    1.40
  -4   4 -14    3.87    0.57
  -3   4 -14    5.04    0.64
  -2   4 -14    1.93    0.42
  -1   4 -14   12.35    1.03
   0   4 -14   17.77    1.14
   1   4 -14   17.42    1.14
   2   4 -14   11.74    1.03
   3   4 -14    0.44    0.30
   4   4 -14    0.28    0.29
   5   4 -14    7.35    0.88
   6   4 -14    9.20    0.99
   7   4 -14    0.37    0.26
   8   4 -14   23.14    1.25
   9   4 -14   44.89    1.79
  10   4 -14    3.26    0.56
  11   4 -14   52.90    2.86
  12   4 -14   10.66    1.36
  13   4 -14    0.55    0.54
  14   4 -14    3.62    0.94
  15   4 -14   17.77    1.84
  16   4 -14    1.48    0.68
  17   4 -14    0.57    0.98
 -12   5 -14    8.19    1.62
 -11   5 -14    9.77    1.68
 -10   5 -14    3.05    1.00
  -9   5 -14    9.87    1.09
  -8   5 -14    0.71    0.64
  -7   5 -14   -0.21    0.48
  -6   5 -14   -0.02    0.54
  -5   5 -14    9.61    1.50
  -4   5 -14    3.24    0.91
  -3   5 -14    5.03    0.71
  -2   5 -14   91.99    3.54
  -1   5 -14    0.68    0.35
   0   5 -14   25.35    1.55
   1   5 -14    8.93    0.96
   2   5 -14   50.09    2.28
   3   5 -14   65.11    2.82
   4   5 -14    6.27    0.84
   5   5 -14   22.43    1.66
   6   5 -14    9.77    1.07
   7   5 -14   39.57    1.64
   8   5 -14   -0.24    0.29
   9   5 -14    4.38    0.65
  10   5 -14   28.51    1.73
  11   5 -14    0.49    0.40
  12   5 -14   22.90    2.13
  13   5 -14    0.13    0.54
  14   5 -14   10.62    1.52
  15   5 -14    0.32    0.67
  16   5 -14    1.06    1.27
  -9   6 -14   20.63    2.39
  -8   6 -14   16.31    2.15
  -7   6 -14    0.30    0.60
  -6   6 -14    2.64    0.96
  -4   6 -14    8.16    1.01
  -3   6 -14   12.34    1.22
  -2   6 -14   -0.02    0.32
  -1   6 -14   13.91    1.26
   0   6 -14    8.59    1.00
   1   6 -14   13.13    1.25
   2   6 -14    4.26    0.73
   3   6 -14    0.12    0.31
   4   6 -14   -0.41    0.27
   5   6 -14    6.41    0.92
   6   6 -14    7.65    1.06
   7   6 -14    1.87    0.47
   8   6 -14    6.63    0.81
   9   6 -14    8.62    0.94
  10   6 -14    5.85    0.78
  11   6 -14   44.61    2.10
  12   6 -14   -0.06    0.49
  13   6 -14    1.28    0.73
  14   6 -14    1.69    1.18
  -8   7 -14    1.45    0.97
  -7   7 -14   -0.11    0.68
  -6   7 -14   -0.49    0.49
  -5   7 -14    2.95    0.72
  -4   7 -14    0.92    0.50
  -3   7 -14    9.63    1.19
  -2   7 -14   43.38    2.30
  -1   7 -14    7.40    1.00
   0   7 -14    4.86    0.85
   1   7 -14    6.61    0.91
   2   7 -14    4.26    0.77
   3   7 -14   44.19    2.30
   4   7 -14   16.38    1.58
   5   7 -14    3.20    0.70
   6   7 -14    7.98    1.12
   7   7 -14    4.29    0.69
   8   7 -14    3.98    0.68
   9   7 -14   12.47    1.17
  10   7 -14   25.05    1.70
  11   7 -14    0.25    0.47
  12   7 -14    9.43    1.17
  -5   8 -14   15.03    2.34
  -4   8 -14    1.92    0.65
  -3   8 -14    0.90    0.61
  -2   8 -14    2.06    0.66
  -1   8 -14    6.56    1.06
   0   8 -14   -0.16    0.46
   1   8 -14   -0.47    0.45
   2   8 -14    5.92    1.02
   3   8 -14    1.94    0.70
   4   8 -14    0.68    0.56
   5   8 -14   11.40    1.37
   6   8 -14    0.45    0.47
   7   8 -14    0.99    0.48
   8   8 -14   13.76    1.30
   9   8 -14    5.80    1.05
  -5  -8 -13    7.60    1.56
  -4  -8 -13    0.74    0.70
  -3  -8 -13    0.55    0.70
  -2  -8 -13    7.83    1.53
  -1  -8 -13    2.51    0.98
   0  -8 -13   -0.06    0.60
   1  -8 -13   -0.70    0.66
   6  -8 -13    0.20    0.70
   7  -8 -13    2.28    1.09
   8  -8 -13    7.90    1.79
   9  -8 -13    1.85    1.15
  10  -8 -13    0.54    0.91
  -8  -7 -13    0.29    0.72
  -7  -7 -13   -0.14    0.52
  -6  -7 -13    0.39    0.63
  -5  -7 -13   -0.46    0.50
  -4  -7 -13    6.44    1.31
  -3  -7 -13   -0.02    0.53
  -2  -7 -13   -0.07    0.41
  -1  -7 -13    1.10    0.62
   0  -7 -13    1.81    0.52
   1  -7 -13    3.87    0.73
   2  -7 -13    1.73    0.81
   3  -7 -13    7.47    1.35
   4  -7 -13    2.20    0.51
   5  -7 -13    6.36    1.25
   6  -7 -13    0.52    0.62
   7  -7 -13    4.27    1.25
   8  -7 -13    7.64    1.57
   9  -7 -13    2.26    0.72
  10  -7 -13    1.26    0.64
  11  -7 -13    0.22    0.60
  12  -7 -13   -0.28    0.56
  13  -7 -13    1.50    1.13
 -10  -6 -13    0.50    0.70
  -9  -6 -13    0.09    0.53
  -8  -6 -13    9.06    1.52
  -7  -6 -13   -0.11    0.50
  -6  -6 -13    4.58    0.86
  -5  -6 -13   11.32    1.21
  -4  -6 -13    0.24    0.39
  -3  -6 -13   -0.01    0.32
  -2  -6 -13   12.76    1.20
  -1  -6 -13    5.24    0.79
   0  -6 -13    0.45    0.34
   1  -6 -13    5.45    0.76
   2  -6 -13    0.01    0.45
   3  -6 -13    2.92    0.56
   4  -6 -13    0.15    0.30
   5  -6 -13    1.96    0.52
   6  -6 -13   15.39    1.08
   7  -6 -13    1.73    0.49
   8  -6 -13    0.58    0.45
   9  -6 -13    6.78    0.93
  10  -6 -13    0.01    0.44
  11  -6 -13    6.90    1.11
  12  -6 -13   -0.42    0.47
  13  -6 -13    0.23    0.57
  14  -6 -13    0.44    0.67
  15  -6 -13    0.54    1.07
 -12  -5 -13   13.21    1.96
 -11  -5 -13    0.25    0.64
 -10  -5 -13    0.20    0.42
  -9  -5 -13   -0.06    0.36
  -8  -5 -13    0.90    0.45
  -7  -5 -13    9.32    1.06
  -6  -5 -13    0.98    0.45
  -5  -5 -13   -0.09    0.25
  -4  -5 -13    4.88    0.73
  -3  -5 -13    4.85    0.74
  -2  -5 -13    3.81    0.63
  -1  -5 -13    0.95    0.37
   0  -5 -13    1.88    0.46
   1  -5 -13    3.17    0.45
   2  -5 -13    1.49    0.40
   3  -5 -13   12.60    1.07
   4  -5 -13   21.44    1.06
   5  -5 -13   10.21    0.78
   6  -5 -13    1.98    0.38
   7  -5 -13   29.25    1.35
   8  -5 -13    7.08    0.92
   9  -5 -13    2.05    0.58
  10  -5 -13   -0.24    0.35
  11  -5 -13    1.32    0.54
  12  -5 -13    5.05    0.92
  13  -5 -13    0.47    0.53
  14  -5 -13    5.11    1.01
  15  -5 -13   -0.28    0.43
  16  -5 -13    3.32    0.99
 -14  -4 -13    2.90    0.76
 -13  -4 -13    0.75    0.49
 -12  -4 -13    0.87    0.54
 -11  -4 -13   -0.25    0.36
 -10  -4 -13    1.64    0.50
  -9  -4 -13    1.56    0.50
  -8  -4 -13    3.29    0.62
  -7  -4 -13    5.26    0.77
  -6  -4 -13    7.11    0.86
  -5  -4 -13   28.20    1.56
  -4  -4 -13    0.34    0.27
  -3  -4 -13    0.59    0.28
  -2  -4 -13   27.50    1.52
  -1  -4 -13    2.67    0.51
   0  -4 -13    9.36    0.72
   1  -4 -13    9.89    0.81
   2  -4 -13    1.78    0.36
   3  -4 -13    0.34    0.19
   4  -4 -13    0.69    0.21
   5  -4 -13   21.01    1.04
   6  -4 -13   13.82    0.91
   7  -4 -13    3.69    0.50
   8  -4 -13   -0.06    0.28
   9  -4 -13   15.04    1.35
  10  -4 -13    0.11    0.39
  11  -4 -13    5.20    0.89
  12  -4 -13   -0.02    0.38
  13  -4 -13    1.00    0.52
  14  -4 -13    9.16    1.30
  15  -4 -13    0.06    0.53
  16  -4 -13    1.17    0.74
  17  -4 -13    0.88    0.62
  18  -4 -13    2.36    2.33
 -14  -3 -13    1.61    0.85
 -13  -3 -13    1.06    0.54
 -12  -3 -13    8.41    1.06
 -11  -3 -13    1.14    0.47
 -10  -3 -13    0.53    0.36
  -9  -3 -13    0.33    0.32
  -8  -3 -13    1.60    0.45
  -7  -3 -13    5.37    0.73
  -6  -3 -13   -0.06    0.21
  -5  -3 -13   -0.12    0.25
  -4  -3 -13   18.08    1.32
  -3  -3 -13    5.41    0.68
  -2  -3 -13    0.75    0.32
  -1  -3 -13    0.09    0.20
   0  -3 -13    1.83    0.33
   1  -3 -13   20.32    1.06
   2  -3 -13    2.10    0.27
   3  -3 -13    3.20    0.35
   4  -3 -13    7.73    0.58
   5  -3 -13    4.04    0.45
   6  -3 -13    0.25    0.19
   7  -3 -13   18.64    1.01
   8  -3 -13    5.74    0.60
   9  -3 -13    1.40    0.44
  10  -3 -13    0.74    0.40
  11  -3 -13    0.09    0.34
  12  -3 -13    1.73    0.60
  13  -3 -13    0.51    0.47
  14  -3 -13    3.33    0.79
  15  -3 -13    1.46    0.61
  16  -3 -13    1.63    0.68
  17  -3 -13    2.77    0.79
  18  -3 -13    0.16    0.53
 -15  -2 -13    0.56    0.81
 -14  -2 -13    1.59    0.82
 -13  -2 -13   -0.43    0.42
 -12  -2 -13    2.95    0.93
 -11  -2 -13    0.30    0.34
 -10  -2 -13    1.58    0.44
  -9  -2 -13    0.13    0.27
  -8  -2 -13    1.30    0.41
  -7  -2 -13    3.68    0.58
  -6  -2 -13    3.68    0.59
  -5  -2 -13   19.62    1.24
  -4  -2 -13    0.44    0.25
  -3  -2 -13    0.24    0.21
  -2  -2 -13   16.70    1.70
  -1  -2 -13    0.53    0.21
   0  -2 -13   13.11    0.85
   1  -2 -13    6.65    0.66
   2  -2 -13    2.66    0.26
   3  -2 -13    0.21    0.12
   4  -2 -13    0.69    0.19
   5  -2 -13   21.07    0.92
   6  -2 -13    7.28    0.61
   7  -2 -13    5.07    0.53
   8  -2 -13   -0.01    0.20
   9  -2 -13    9.18    1.04
  10  -2 -13    2.14    0.58
  11  -2 -13    0.53    0.46
  12  -2 -13    0.95    0.47
  13  -2 -13    0.18    0.39
  14  -2 -13    4.02    0.82
  15  -2 -13   -0.33    0.38
  16  -2 -13    1.76    0.62
  17  -2 -13    0.14    0.52
  18  -2 -13    0.73    0.49
  19  -2 -13    1.06    0.70
 -15  -1 -13    0.30    0.70
 -14  -1 -13    1.39    0.81
 -13  -1 -13    0.37    0.62
 -12  -1 -13    2.12    0.87
 -11  -1 -13    0.04    0.43
 -10  -1 -13   -0.27    0.25
  -9  -1 -13   -0.05    0.24
  -8  -1 -13    0.47    0.31
  -7  -1 -13    1.24    0.40
  -6  -1 -13   -0.14    0.30
  -5  -1 -13    0.23    0.32
  -4  -1 -13    1.17    0.49
  -3  -1 -13    2.16    0.59
  -2  -1 -13    0.54    0.27
  -1  -1 -13   -0.20    0.18
   0  -1 -13    0.41    0.25
   1  -1 -13    2.49    0.46
   2  -1 -13    2.69    0.48
   3  -1 -13    0.37    0.15
   4  -1 -13    3.73    0.36
   5  -1 -13    1.12    0.25
   6  -1 -13    0.04    0.18
   7  -1 -13    6.59    0.60
   8  -1 -13    0.60    0.25
   9  -1 -13    1.65    0.52
  10  -1 -13   -0.15    0.27
  11  -1 -13    0.47    0.39
  12  -1 -13    0.36    0.40
  13  -1 -13    0.21    0.38
  14  -1 -13    0.47    0.43
  15  -1 -13   -0.17    0.38
  16  -1 -13    0.40    0.45
  17  -1 -13    0.42    0.53
  18  -1 -13    0.27    0.46
  19  -1 -13   -0.08    0.47
 -15   0 -13   -1.08    0.47
 -14   0 -13   -0.24    0.58
 -13   0 -13   -0.02    0.55
 -12   0 -13   -0.22    0.43
 -11   0 -13   -0.13    0.36
 -10   0 -13   -0.11    0.39
  -9   0 -13   -0.17    0.39
  -8   0 -13    0.62    0.45
  -7   0 -13    0.26    0.37
  -6   0 -13    0.08    0.29
  -5   0 -13    0.04    0.28
  -4   0 -13    0.10    0.17
  -3   0 -13    0.06    0.19
  -2   0 -13   -0.04    0.15
  -1   0 -13   -0.29    0.15
   0   0 -13    0.12    0.20
   1   0 -13   -0.28    0.13
   2   0 -13   -0.08    0.13
   3   0 -13   -0.10    0.13
   4   0 -13    0.14    0.16
   5   0 -13   -0.06    0.16
   6   0 -13   -0.06    0.16
   7   0 -13   -0.20    0.16
   8   0 -13   -0.21    0.16
   9   0 -13   -0.12    0.25
  10   0 -13   -0.34    0.25
  11   0 -13    0.16    0.34
  12   0 -13    0.43    0.40
  13   0 -13    0.00    0.31
  14   0 -13    0.37    0.37
  15   0 -13   -0.24    0.33
  16   0 -13    0.15    0.38
  17   0 -13    0.23    0.37
  18   0 -13    0.39    0.47
  19   0 -13   -0.06    0.51
 -15   1 -13    0.04    0.53
 -14   1 -13    0.44    0.65
 -13   1 -13    0.27    0.47
 -12   1 -13    1.07    0.70
 -11   1 -13   -0.57    0.35
 -10   1 -13   -0.08    0.36
  -9   1 -13   -0.01    0.31
  -8   1 -13    1.22    0.53
  -7   1 -13    3.80    0.82
  -6   1 -13    0.27    0.36
  -5   1 -13    0.18    0.18
  -4   1 -13    1.47    0.33
  -3   1 -13    2.08    0.36
  -2   1 -13    0.69    0.24
  -1   1 -13    0.06    0.11
   0   1 -13    0.52    0.15
   1   1 -13    2.19    0.26
   2   1 -13    2.38    0.28
   3   1 -13    0.47    0.18
   4   1 -13    3.34    0.36
   5   1 -13    1.17    0.25
   6   1 -13    0.01    0.11
   7   1 -13    6.40    0.45
   8   1 -13    0.84    0.41
   9   1 -13    1.04    0.42
  10   1 -13    0.12    0.36
  11   1 -13   -0.26    0.29
  12   1 -13    1.01    0.49
  13   1 -13    0.45    0.42
  14   1 -13    1.74    0.59
  15   1 -13    0.02    0.35
  16   1 -13    1.01    0.50
  17   1 -13    0.50    0.45
  18   1 -13    0.49    0.47
  19   1 -13    0.91    0.97
 -15   2 -13   -0.38    1.01
 -14   2 -13   -0.17    0.54
 -13   2 -13    0.51    0.54
 -12   2 -13    1.03    0.69
 -11   2 -13    0.03    0.34
 -10   2 -13    2.93    0.84
  -9   2 -13   -0.10    0.38
  -8   2 -13    0.66    0.45
  -7   2 -13    4.71    0.72
  -6   2 -13    4.15    0.55
  -5   2 -13   20.33    1.10
  -4   2 -13    0.42    0.24
  -3   2 -13    0.68    0.25
  -2   2 -13   20.19    1.03
  -1   2 -13    0.55    0.17
   0   2 -13   13.79    0.64
   1   2 -13    6.63    0.47
   2   2 -13    2.80    0.32
   3   2 -13    0.08    0.13
   4   2 -13    0.45    0.17
   5   2 -13   21.20    0.88
   6   2 -13    5.50    0.39
   7   2 -13    5.76    0.53
   8   2 -13    0.12    0.20
   9   2 -13   10.73    0.84
  10   2 -13    1.89    0.55
  11   2 -13    0.84    0.48
  12   2 -13    0.37    0.40
  13   2 -13    0.91    0.51
  14   2 -13    4.68    0.86
  15   2 -13    0.02    0.42
  16   2 -13    2.60    0.71
  17   2 -13    0.09    0.48
  18   2 -13    0.54    1.01
  19   2 -13    2.02    1.22
 -14   3 -13    1.12    0.82
 -13   3 -13   -0.23    0.47
 -12   3 -13    7.26    1.45
 -11   3 -13    1.10    0.71
 -10   3 -13    0.26    0.52
  -9   3 -13    0.48    0.49
  -8   3 -13    1.46    0.43
  -7   3 -13    5.18    0.68
  -6   3 -13    0.10    0.25
  -5   3 -13    0.01    0.21
  -4   3 -13   18.67    1.10
  -3   3 -13    5.76    0.63
  -2   3 -13    0.91    0.29
  -1   3 -13    0.53    0.18
   0   3 -13    1.72    0.26
   1   3 -13   20.95    0.83
   2   3 -13    1.60    0.25
   3   3 -13    2.59    0.47
   4   3 -13    6.94    0.74
   5   3 -13    3.91    0.59
   6   3 -13    0.26    0.30
   7   3 -13   18.93    1.00
   8   3 -13    5.32    0.58
   9   3 -13    1.76    0.41
  10   3 -13    1.11    0.39
  11   3 -13    0.30    0.30
  12   3 -13    1.70    0.60
  13   3 -13    1.98    0.69
  14   3 -13    4.02    0.84
  15   3 -13    1.22    0.61
  16   3 -13    2.21    0.75
  17   3 -13    2.43    1.23
  18   3 -13    0.34    0.99
 -13   4 -13    1.17    0.79
 -12   4 -13    0.87    0.76
 -11   4 -13    0.23    0.56
 -10   4 -13    0.72    0.55
  -9   4 -13    0.39    0.34
  -8   4 -13    3.36    0.62
  -7   4 -13    4.64    0.67
  -6   4 -13    7.50    0.83
  -5   4 -13   28.19    1.46
  -4   4 -13   -0.31    0.21
  -3   4 -13    0.37    0.26
  -2   4 -13   31.68    1.45
  -1   4 -13    2.75    0.47
   0   4 -13    7.90    0.80
   1   4 -13    8.46    0.83
   2   4 -13    2.00    0.43
   3   4 -13    0.66    0.29
   4   4 -13    0.60    0.31
   5   4 -13   23.16    1.43
   6   4 -13   11.85    1.15
   7   4 -13    6.04    0.63
   8   4 -13    0.03    0.23
   9   4 -13   16.50    1.12
  10   4 -13    0.68    0.34
  11   4 -13    4.17    0.64
  12   4 -13    0.14    0.32
  13   4 -13   -0.19    0.46
  14   4 -13    9.38    1.33
  15   4 -13    0.15    0.54
  16   4 -13    0.06    0.88
  17   4 -13    0.38    1.01
 -12   5 -13   13.62    2.09
 -11   5 -13    0.68    0.61
 -10   5 -13    0.94    0.62
  -9   5 -13   -0.08    0.31
  -8   5 -13    0.80    0.39
  -7   5 -13    9.20    1.47
  -6   5 -13    1.83    0.75
  -5   5 -13    0.27    0.40
  -4   5 -13    7.84    1.29
  -3   5 -13    3.43    0.88
  -2   5 -13    5.48    0.72
  -1   5 -13    0.70    0.33
   0   5 -13    1.61    0.43
   1   5 -13    4.09    0.60
   2   5 -13    1.32    0.40
   3   5 -13    9.76    1.00
   4   5 -13   17.33    1.42
   5   5 -13   10.37    1.08
   6   5 -13    2.66    0.60
   7   5 -13   30.27    1.41
   8   5 -13    7.76    0.81
   9   5 -13    1.86    0.43
  10   5 -13   -0.01    0.29
  11   5 -13    0.68    0.40
  12   5 -13    4.06    0.73
  13   5 -13    1.41    0.67
  14   5 -13    6.74    1.23
  15   5 -13   -0.11    0.94
  16   5 -13    2.24    1.37
 -10   6 -13    0.25    0.71
  -9   6 -13    0.82    0.74
  -8   6 -13    6.50    1.41
  -7   6 -13    0.50    0.60
  -6   6 -13    4.45    1.12
  -5   6 -13   13.13    1.85
  -4   6 -13    0.42    0.54
  -3   6 -13    0.28    0.34
  -2   6 -13   16.04    1.39
  -1   6 -13    4.71    0.75
   0   6 -13    0.56    0.34
   1   6 -13    5.14    0.77
   2   6 -13    0.08    0.32
   3   6 -13    2.14    0.53
   4   6 -13   -0.08    0.28
   5   6 -13    2.78    0.65
   6   6 -13   12.96    1.32
   7   6 -13    1.62    0.44
   8   6 -13   -0.13    0.27
   9   6 -13    7.74    0.88
  10   6 -13    0.32    0.35
  11   6 -13   10.03    1.05
  12   6 -13   -0.02    0.43
  13   6 -13    0.35    0.52
  14   6 -13    0.56    1.18
  -9   7 -13    1.14    0.89
  -8   7 -13   -0.13    0.61
  -7   7 -13    0.33    0.73
  -6   7 -13    0.08    0.52
  -5   7 -13    0.15    0.47
  -4   7 -13    6.58    0.99
  -3   7 -13    0.04    0.41
  -2   7 -13   -0.04    0.34
  -1   7 -13    0.08    0.39
   0   7 -13    2.45    0.61
   1   7 -13    3.46    0.71
   2   7 -13    2.50    0.63
   3   7 -13    9.93    1.17
   4   7 -13    1.09    0.46
   5   7 -13    5.72    0.87
   6   7 -13    0.97    0.53
   7   7 -13    4.35    0.69
   8   7 -13    6.48    0.83
   9   7 -13    2.36    0.58
  10   7 -13    0.75    0.47
  11   7 -13    0.27    0.49
  12   7 -13    0.39    0.56
  13   7 -13    2.32    1.18
  -6   8 -13   11.59    2.19
  -5   8 -13    5.83    1.04
  -4   8 -13    0.61    0.57
  -3   8 -13   -0.44    0.47
  -2   8 -13    9.23    1.25
  -1   8 -13    2.03    0.67
   0   8 -13    0.38    0.47
   1   8 -13    0.75    0.54
   2   8 -13    0.86    0.49
   3   8 -13    0.08    0.48
   4   8 -13    0.17    0.42
   5   8 -13    0.79    0.53
   6   8 -13    1.23    0.52
   7   8 -13    1.49    0.53
   8   8 -13    6.79    0.91
   9   8 -13    3.50    0.72
  10   8 -13   -0.15    0.61
  -6  -8 -12    2.84    1.07
  -5  -8 -12    2.51    0.98
  -4  -8 -12    0.52    0.69
  -3  -8 -12    1.25    0.74
  -2  -8 -12   -0.30    0.57
  -1  -8 -12   -0.12    0.59
   0  -8 -12    2.07    0.92
   1  -8 -12    2.84    0.93
   5  -8 -12    0.43    0.66
   6  -8 -12    0.15    0.69
   7  -8 -12    3.51    1.18
   8  -8 -12    1.35    0.77
   9  -8 -12    1.84    0.85
  10  -8 -12    0.81    0.68
  -9  -7 -12    0.83    0.88
  -8  -7 -12    4.51    1.22
  -7  -7 -12    5.61    1.36
  -6  -7 -12    3.73    1.06
  -5  -7 -12    1.62    0.70
  -4  -7 -12    7.88    1.41
  -3  -7 -12   26.57    2.68
  -2  -7 -12    0.83    0.60
  -1  -7 -12    3.10    0.88
   0  -7 -12    4.09    0.70
   1  -7 -12    8.33    0.98
   2  -7 -12    7.29    0.89
   3  -7 -12    4.83    0.75
   4  -7 -12    4.18    0.69
   5  -7 -12    0.18    0.39
   6  -7 -12    4.61    0.78
   7  -7 -12    0.86    0.47
   8  -7 -12    0.10    0.46
   9  -7 -12    0.08    0.44
  10  -7 -12   -0.01    0.47
  11  -7 -12    7.73    1.24
  12  -7 -12    0.27    0.68
  13  -7 -12    0.43    0.81
 -11  -6 -12    3.31    1.11
 -10  -6 -12    5.12    1.21
  -9  -6 -12    3.41    1.03
  -8  -6 -12   19.84    2.32
  -7  -6 -12    5.74    1.25
  -6  -6 -12    3.82    1.02
  -5  -6 -12   -0.09    0.34
  -4  -6 -12    0.42    0.37
  -3  -6 -12    1.57    0.47
  -2  -6 -12    0.65    0.38
  -1  -6 -12   13.65    1.20
   0  -6 -12    0.87    0.35
   1  -6 -12    2.18    0.50
   2  -6 -12    3.41    0.47
   3  -6 -12   13.21    0.91
   4  -6 -12   68.17    2.23
   5  -6 -12    5.50    0.60
   6  -6 -12    1.95    0.54
   7  -6 -12    1.40    0.49
   8  -6 -12    1.12    0.49
   9  -6 -12    4.47    0.80
  10  -6 -12    7.84    1.04
  11  -6 -12    1.34    0.60
  12  -6 -12    0.46    0.49
  13  -6 -12   12.40    1.54
  14  -6 -12    1.25    0.71
  15  -6 -12    7.21    1.46
 -13  -5 -12    0.32    0.68
 -12  -5 -12    1.59    0.91
 -11  -5 -12    7.48    1.39
 -10  -5 -12    0.07    0.44
  -9  -5 -12    1.37    0.49
  -8  -5 -12    1.29    0.51
  -7  -5 -12   39.46    2.03
  -6  -5 -12    9.00    0.98
  -5  -5 -12    6.80    0.84
  -4  -5 -12    6.49    0.79
  -3  -5 -12   30.29    1.61
  -2  -5 -12    2.83    0.54
  -1  -5 -12   10.06    0.95
   0  -5 -12    1.14    0.35
   1  -5 -12    5.11    0.51
   2  -5 -12   35.76    1.14
   3  -5 -12   32.78    1.08
   4  -5 -12   29.12    1.20
   5  -5 -12    0.79    0.27
   6  -5 -12   38.32    1.47
   7  -5 -12    5.53    0.77
   8  -5 -12    0.20    0.33
   9  -5 -12    2.86    0.64
  10  -5 -12    1.64    0.57
  11  -5 -12    2.28    0.65
  12  -5 -12   14.30    1.53
  13  -5 -12    0.96    0.57
  14  -5 -12    2.03    0.73
  15  -5 -12    6.05    1.15
  16  -5 -12    0.35    0.56
  17  -5 -12    9.37    3.46
 -14  -4 -12   -0.37    0.48
 -13  -4 -12    1.16    0.55
 -12  -4 -12   -0.13    0.39
 -11  -4 -12    2.03    0.58
 -10  -4 -12    2.47    0.59
  -9  -4 -12    4.27    0.69
  -8  -4 -12   48.28    2.24
  -7  -4 -12    6.34    0.82
  -6  -4 -12   39.19    1.89
  -5  -4 -12    3.07    0.56
  -4  -4 -12    9.15    0.93
  -3  -4 -12   -0.04    0.25
  -2  -4 -12   13.71    1.10
  -1  -4 -12    3.78    0.56
   0  -4 -12   16.96    0.85
   1  -4 -12    0.63    0.17
   2  -4 -12    0.08    0.16
   3  -4 -12   12.30    0.70
   4  -4 -12   72.20    1.84
   5  -4 -12    1.60    0.32
   6  -4 -12   19.34    0.96
   7  -4 -12   14.91    0.97
   8  -4 -12    1.78    0.49
   9  -4 -12    1.49    0.47
  10  -4 -12    1.18    0.49
  11  -4 -12   -0.18    0.38
  12  -4 -12   13.64    1.43
  13  -4 -12   25.40    2.14
  14  -4 -12    0.67    0.53
  15  -4 -12    9.95    1.40
  16  -4 -12    0.54    0.60
  17  -4 -12    1.40    0.69
  18  -4 -12   -0.14    0.73
 -15  -3 -12    6.78    1.52
 -14  -3 -12    2.72    1.03
 -13  -3 -12    4.68    0.80
 -12  -3 -12   -0.04    0.35
 -11  -3 -12   10.97    1.07
 -10  -3 -12    1.30    0.43
  -9  -3 -12   19.91    1.50
  -8  -3 -12    3.00    0.56
  -7  -3 -12   14.45    1.19
  -6  -3 -12    6.29    0.77
  -5  -3 -12    1.36    0.37
  -4  -3 -12   60.25    2.45
  -3  -3 -12   21.58    1.20
  -2  -3 -12   17.56    1.20
  -1  -3 -12    0.49    0.17
   0  -3 -12   25.96    0.95
   1  -3 -12   98.59    2.68
   2  -3 -12  184.06    4.76
   3  -3 -12    1.99    0.28
   4  -3 -12    0.25    0.17
   5  -3 -12   20.12    0.94
   6  -3 -12    8.77    0.67
   7  -3 -12    2.25    0.37
   8  -3 -12    7.67    0.90
   9  -3 -12   20.45    1.56
  10  -3 -12    7.25    0.96
  11  -3 -12   22.93    1.85
  12  -3 -12    2.36    0.65
  13  -3 -12    4.23    0.87
  14  -3 -12   38.08    2.48
  15  -3 -12   14.19    1.64
  16  -3 -12    0.58    0.57
  17  -3 -12    3.31    0.79
  18  -3 -12    2.93    0.83
  19  -3 -12   -0.63    0.78
 -15  -2 -12    2.00    0.97
 -14  -2 -12    0.20    0.62
 -13  -2 -12    2.09    0.81
 -12  -2 -12   -0.19    0.28
 -11  -2 -12    0.11    0.32
 -10  -2 -12   -0.06    0.27
  -9  -2 -12    2.89    0.54
  -8  -2 -12   69.17    2.87
  -7  -2 -12    5.40    0.66
  -6  -2 -12  148.01    5.08
  -5  -2 -12    8.80    0.84
  -4  -2 -12   30.47    1.49
  -3  -2 -12   -0.12    0.16
  -2  -2 -12   70.47    2.01
  -1  -2 -12    3.46    0.40
   0  -2 -12   77.32    2.72
   1  -2 -12   20.46    1.07
   2  -2 -12    4.65    0.34
   3  -2 -12    4.46    0.37
   4  -2 -12   42.12    1.39
   5  -2 -12   43.58    1.46
   6  -2 -12   85.54    2.53
   7  -2 -12   51.59    1.79
   8  -2 -12    0.29    0.22
   9  -2 -12   -0.08    0.29
  10  -2 -12    1.54    0.53
  11  -2 -12    8.90    1.14
  12  -2 -12   33.09    2.08
  13  -2 -12   33.92    2.23
  14  -2 -12    1.06    0.55
  15  -2 -12    8.63    1.19
  16  -2 -12    0.08    0.47
  17  -2 -12    1.56    0.68
  18  -2 -12    0.94    0.56
  19  -2 -12    0.05    0.52
 -15  -1 -12    0.33    0.67
 -14  -1 -12    9.56    1.64
 -13  -1 -12    0.34    0.51
 -12  -1 -12    8.96    1.55
 -11  -1 -12   11.49    1.67
 -10  -1 -12    8.47    0.93
  -9  -1 -12    6.84    0.79
  -8  -1 -12    4.37    0.63
  -7  -1 -12   78.23    3.05
  -6  -1 -12   11.05    0.93
  -5  -1 -12   56.77    2.19
  -4  -1 -12   18.30    1.48
  -3  -1 -12    2.08    0.33
  -2  -1 -12    0.10    0.20
  -1  -1 -12    0.12    0.20
   0  -1 -12    5.95    0.64
   1  -1 -12   29.09    1.39
   2  -1 -12  320.93    8.11
   3  -1 -12   39.14    1.24
   4  -1 -12    5.45    0.45
   5  -1 -12   34.06    1.27
   6  -1 -12  102.95    3.03
   7  -1 -12   -0.22    0.15
   8  -1 -12   -0.13    0.18
   9  -1 -12    5.12    0.81
  10  -1 -12   32.88    1.83
  11  -1 -12    1.30    0.47
  12  -1 -12   28.92    1.87
  13  -1 -12   18.69    1.66
  14  -1 -12   27.35    2.12
  15  -1 -12    7.23    1.03
  16  -1 -12    1.46    0.60
  17  -1 -12   27.05    2.21
  18  -1 -12   13.45    1.51
  19  -1 -12    0.45    0.58
  20  -1 -12    1.65    0.89
 -15   0 -12    0.10    0.56
 -14   0 -12    3.49    1.05
 -13   0 -12    0.59    0.61
 -12   0 -12    1.58    0.77
 -11   0 -12    8.42    1.39
 -10   0 -12    1.26    0.61
  -9   0 -12   36.16    2.57
  -8   0 -12  193.93    9.33
  -7   0 -12    0.03    0.35
  -6   0 -12   63.69    3.68
  -5   0 -12    0.91    0.41
  -4   0 -12    7.98    0.65
  -3   0 -12   44.26    1.69
  -2   0 -12   74.87    2.65
  -1   0 -12    8.72    0.71
   0   0 -12   11.26    0.83
   1   0 -12   26.43    0.90
   2   0 -12   32.10    1.09
   3   0 -12   38.98    1.34
   4   0 -12  100.82    2.87
   5   0 -12    0.25    0.17
   6   0 -12  180.29    4.88
   7   0 -12    4.11    0.48
   8   0 -12   52.12    2.37
   9   0 -12   -0.04    0.31
  10   0 -12   19.67    1.53
  11   0 -12   67.62    2.96
  12   0 -12   10.51    1.14
  13   0 -12    1.48    0.50
  14   0 -12    0.43    0.39
  15   0 -12   46.18    2.40
  16   0 -12   15.16    1.54
  17   0 -12    5.47    0.87
  18   0 -12   16.44    1.62
  19   0 -12    3.74    0.87
 -15   1 -12    0.19    0.56
 -14   1 -12   10.16    1.72
 -13   1 -12   -0.18    0.49
 -12   1 -12    7.31    1.34
 -11   1 -12   16.70    2.04
 -10   1 -12    9.73    1.47
  -9   1 -12    8.01    1.25
  -8   1 -12    4.86    0.98
  -7   1 -12   79.54    4.35
  -6   1 -12   11.17    0.84
  -5   1 -12   54.00    2.06
  -4   1 -12   20.02    0.98
  -3   1 -12    2.10    0.31
  -2   1 -12   -0.10    0.12
  -1   1 -12    0.37    0.13
   0   1 -12    5.35    0.39
   1   1 -12   30.28    1.01
   2   1 -12  324.48    8.11
   3   1 -12   37.38    1.24
   4   1 -12    4.72    0.41
   5   1 -12   37.97    1.28
   6   1 -12  104.67    2.52
   7   1 -12   -0.10    0.11
   8   1 -12    0.04    0.19
   9   1 -12    6.04    0.61
  10   1 -12   28.02    1.85
  11   1 -12    0.36    0.35
  12   1 -12   25.13    1.93
  13   1 -12   22.21    1.81
  14   1 -12   29.14    2.13
  15   1 -12    4.89    0.87
  16   1 -12    2.75    0.72
  17   1 -12   26.87    2.11
  18   1 -12   15.88    1.59
  19   1 -12    1.14    0.96
 -15   2 -12    1.91    0.95
 -14   2 -12    0.03    0.61
 -13   2 -12    2.00    0.90
 -12   2 -12   -0.28    0.37
 -11   2 -12    0.03    0.45
 -10   2 -12   -0.14    0.43
  -9   2 -12    3.25    0.90
  -8   2 -12   77.55    4.22
  -7   2 -12    5.85    0.65
  -6   2 -12  155.88    5.02
  -5   2 -12    8.82    0.78
  -4   2 -12   32.00    1.41
  -3   2 -12    0.34    0.21
  -2   2 -12   67.79    2.49
  -1   2 -12    3.99    0.36
   0   2 -12   77.81    2.17
   1   2 -12   22.94    0.84
   2   2 -12    5.02    0.40
   3   2 -12    4.07    0.37
   4   2 -12   42.41    1.36
   5   2 -12   41.94    1.41
   6   2 -12   86.32    2.10
   7   2 -12   52.80    1.78
   8   2 -12    0.64    0.27
   9   2 -12    0.00    0.20
  10   2 -12    1.99    0.41
  11   2 -12    9.37    0.84
  12   2 -12   28.69    2.15
  13   2 -12   38.71    2.31
  14   2 -12    0.71    0.46
  15   2 -12    9.26    1.22
  16   2 -12   -0.20    0.39
  17   2 -12    1.43    0.61
  18   2 -12    0.57    1.00
  19   2 -12    0.87    0.86
 -14   3 -12    4.56    1.33
 -13   3 -12    2.12    0.80
 -12   3 -12   -0.63    0.37
 -11   3 -12   10.19    1.62
 -10   3 -12    1.07    0.61
  -9   3 -12   18.43    2.03
  -8   3 -12    2.75    0.50
  -7   3 -12   17.96    1.14
  -6   3 -12    6.50    0.70
  -5   3 -12    0.92    0.30
  -4   3 -12   59.65    2.35
  -3   3 -12   23.12    1.15
  -2   3 -12   15.18    0.95
  -1   3 -12    0.61    0.19
   0   3 -12   23.11    0.89
   1   3 -12  100.50    2.73
   2   3 -12  183.38    4.77
   3   3 -12    1.97    0.25
   4   3 -12    0.03    0.23
   5   3 -12   21.46    1.24
   6   3 -12    9.10    0.94
   7   3 -12    2.06    0.36
   8   3 -12    8.21    0.71
   9   3 -12   21.52    1.20
  10   3 -12    7.22    0.75
  11   3 -12   23.92    1.35
  12   3 -12    1.85    0.48
  13   3 -12    4.79    0.91
  14   3 -12   43.87    2.56
  15   3 -12   18.01    1.73
  16   3 -12   -0.01    0.50
  17   3 -12    2.98    1.31
  18   3 -12    5.32    1.68
 -14   4 -12   -0.17    0.60
 -13   4 -12    2.32    0.99
 -12   4 -12   -0.37    0.57
 -11   4 -12    4.47    1.11
 -10   4 -12    3.98    1.02
  -9   4 -12    4.94    0.72
  -8   4 -12   48.75    2.17
  -7   4 -12    8.18    0.87
  -6   4 -12   39.72    1.83
  -5   4 -12    3.29    0.52
  -4   4 -12    9.06    0.83
  -3   4 -12    0.11    0.22
  -2   4 -12   16.74    1.00
  -1   4 -12    4.20    0.58
   0   4 -12   19.10    1.14
   1   4 -12    0.76    0.31
   2   4 -12    0.25    0.23
   3   4 -12   13.82    1.06
   4   4 -12   66.97    2.77
   5   4 -12    1.68    0.41
   6   4 -12   18.44    1.43
   7   4 -12   14.58    0.99
   8   4 -12    1.42    0.35
   9   4 -12    1.84    0.41
  10   4 -12    1.37    0.37
  11   4 -12    0.29    0.31
  12   4 -12    9.97    1.00
  13   4 -12   24.71    1.66
  14   4 -12    0.11    0.50
  15   4 -12    9.75    1.37
  16   4 -12   -0.12    0.98
  17   4 -12    3.65    1.46
 -13   5 -12    0.06    0.75
 -12   5 -12    1.96    1.01
 -11   5 -12    7.96    1.53
 -10   5 -12    0.43    0.45
  -9   5 -12    3.36    0.67
  -8   5 -12    1.47    0.47
  -7   5 -12   43.59    2.03
  -6   5 -12    9.88    1.44
  -5   5 -12    9.60    1.40
  -4   5 -12    4.51    0.94
  -3   5 -12   33.34    2.40
  -2   5 -12    3.27    0.56
  -1   5 -12   12.36    1.06
   0   5 -12    1.90    0.44
   1   5 -12    4.07    0.61
   2   5 -12   31.14    1.68
   3   5 -12   31.57    1.65
   4   5 -12   28.35    1.66
   5   5 -12    1.07    0.39
   6   5 -12   34.72    1.88
   7   5 -12    4.46    0.58
   8   5 -12    0.22    0.27
   9   5 -12    3.49    0.56
  10   5 -12    2.14    0.50
  11   5 -12    2.89    0.60
  12   5 -12   15.90    1.31
  13   5 -12    1.33    0.52
  14   5 -12    3.28    0.92
  15   5 -12    5.25    1.83
  16   5 -12   -0.59    1.03
 -11   6 -12    7.63    1.55
 -10   6 -12    1.97    0.95
  -9   6 -12    4.91    1.30
  -8   6 -12   24.69    2.64
  -7   6 -12    4.68    1.17
  -6   6 -12    4.10    1.04
  -5   6 -12   -0.07    0.44
  -4   6 -12    0.24    0.48
  -3   6 -12    1.83    0.49
  -2   6 -12    0.32    0.32
  -1   6 -12   14.45    1.25
   0   6 -12    0.37    0.31
   1   6 -12    2.06    0.51
   2   6 -12    3.56    0.62
   3   6 -12   11.83    1.17
   4   6 -12   63.19    2.85
   5   6 -12    2.53    0.58
   6   6 -12    1.13    0.47
   7   6 -12    1.24    0.40
   8   6 -12    1.68    0.48
   9   6 -12    3.12    0.57
  10   6 -12    4.90    0.74
  11   6 -12    1.06    0.48
  12   6 -12    0.53    0.47
  13   6 -12   13.57    1.63
  14   6 -12    0.30    0.64
  15   6 -12    8.50    2.57
  -9   7 -12    2.01    0.95
  -8   7 -12    7.95    1.53
  -7   7 -12    3.64    1.15
  -6   7 -12    4.44    1.20
  -5   7 -12    1.16    0.74
  -4   7 -12    8.07    1.08
  -3   7 -12   22.19    1.78
  -2   7 -12    0.30    0.40
  -1   7 -12    2.89    0.65
   0   7 -12    4.16    0.78
   1   7 -12    9.67    1.12
   2   7 -12    7.77    0.98
   3   7 -12    5.37    0.84
   4   7 -12    5.06    0.83
   5   7 -12    0.43    0.43
   6   7 -12    3.84    0.79
   7   7 -12    0.88    0.38
   8   7 -12    0.06    0.33
   9   7 -12    0.19    0.37
  10   7 -12    0.37    0.43
  11   7 -12   11.13    1.13
  12   7 -12    0.89    0.70
  13   7 -12    0.14    0.80
  -6   8 -12    5.96    1.05
  -5   8 -12    1.11    0.54
  -4   8 -12    1.29    0.61
  -3   8 -12    1.05    0.57
  -2   8 -12   -0.08    0.43
  -1   8 -12    0.11    0.39
   0   8 -12    4.87    0.91
   1   8 -12    1.17    0.56
   2   8 -12    0.11    0.39
   3   8 -12    0.54    0.53
   4   8 -12   17.05    1.63
   5   8 -12    0.09    0.46
   6   8 -12    0.20    0.39
   7   8 -12    4.17    0.71
   8   8 -12    0.39    0.44
   9   8 -12    0.37    0.45
  10   8 -12   -0.34    0.58
   3   9 -12    1.49    1.52
  -2  -9 -11    2.28    1.07
  -6  -8 -11    5.51    1.42
  -5  -8 -11    0.85    0.73
  -4  -8 -11    0.03    0.61
  -3  -8 -11    1.14    0.79
  -2  -8 -11    0.97    0.71
  -1  -8 -11    8.44    1.08
   0  -8 -11    5.97    0.91
   1  -8 -11    6.05    0.95
   4  -8 -11    4.71    1.08
   5  -8 -11    5.47    1.33
   6  -8 -11    6.36    1.03
   7  -8 -11   -0.23    0.46
   8  -8 -11    0.21    0.56
   9  -8 -11    0.51    0.59
  10  -8 -11    2.35    0.79
  11  -8 -11    5.91    1.67
  -9  -7 -11    0.09    0.56
  -8  -7 -11    0.39    0.56
  -7  -7 -11    1.47    0.82
  -6  -7 -11    0.49    0.58
  -5  -7 -11   -0.16    0.48
  -4  -7 -11   -0.24    0.49
  -3  -7 -11    1.32    0.66
  -2  -7 -11    1.80    0.75
  -1  -7 -11    0.30    0.34
   0  -7 -11   10.38    1.07
   1  -7 -11    6.72    0.70
   2  -7 -11    8.26    0.68
   3  -7 -11    0.63    0.31
   4  -7 -11    0.46    0.37
   5  -7 -11    4.30    0.70
   6  -7 -11    1.54    0.55
   7  -7 -11    1.38    0.59
   8  -7 -11    0.67    0.47
   9  -7 -11   -0.17    0.44
  10  -7 -11    1.14    0.58
  11  -7 -11    0.10    0.47
  12  -7 -11    7.09    1.19
  13  -7 -11   -0.43    0.48
 -11  -6 -11    0.29    0.61
 -10  -6 -11    4.23    1.12
  -9  -6 -11    3.74    1.03
  -8  -6 -11   24.04    2.49
  -7  -6 -11    0.38    0.56
  -6  -6 -11    0.34    0.44
  -5  -6 -11    0.04    0.32
  -4  -6 -11    2.95    0.57
  -3  -6 -11   15.72    1.28
  -2  -6 -11    0.35    0.30
  -1  -6 -11    1.98    0.48
   0  -6 -11    4.34    0.55
   1  -6 -11    0.06    0.17
   2  -6 -11    0.15    0.16
   3  -6 -11    1.73    0.27
   4  -6 -11   30.14    1.27
   5  -6 -11    1.57    0.38
   6  -6 -11    0.13    0.33
   7  -6 -11    3.66    0.65
   8  -6 -11    4.36    0.78
   9  -6 -11    1.25    0.53
  10  -6 -11    2.82    0.70
  11  -6 -11    4.60    0.82
  12  -6 -11    6.18    1.03
  13  -6 -11   -0.12    0.50
  14  -6 -11   -0.61    0.49
  15  -6 -11    4.77    1.07
 -13  -5 -11    1.74    0.91
 -12  -5 -11    0.29    0.56
 -11  -5 -11    0.48    0.54
 -10  -5 -11    0.64    0.57
  -9  -5 -11    1.07    0.48
  -8  -5 -11    0.20    0.30
  -7  -5 -11    2.17    0.54
  -6  -5 -11    0.03    0.26
  -5  -5 -11    8.46    0.95
  -4  -5 -11    0.04    0.26
  -3  -5 -11    0.19    0.31
  -2  -5 -11    0.52    0.30
  -1  -5 -11   -0.04    0.23
   0  -5 -11    1.02    0.26
   1  -5 -11    6.64    0.48
   2  -5 -11   27.68    0.84
   3  -5 -11   -0.11    0.15
   4  -5 -11   -0.02    0.16
   5  -5 -11    4.78    0.52
   6  -5 -11    0.97    0.29
   7  -5 -11    8.78    0.98
   8  -5 -11   -0.01    0.25
   9  -5 -11    0.21    0.30
  10  -5 -11    6.77    0.93
  11  -5 -11    0.00    0.36
  12  -5 -11   10.47    1.26
  13  -5 -11    0.81    0.53
  14  -5 -11    2.81    0.83
  15  -5 -11    3.43    0.90
  16  -5 -11    1.66    0.74
  17  -5 -11    1.89    1.64
 -14  -4 -11    0.83    0.75
 -13  -4 -11    1.37    0.58
 -12  -4 -11    0.37    0.41
 -11  -4 -11    1.13    0.46
 -10  -4 -11    0.82    0.40
  -9  -4 -11    0.69    0.39
  -8  -4 -11   26.05    1.61
  -7  -4 -11    0.39    0.33
  -6  -4 -11    4.25    0.64
  -5  -4 -11    0.14    0.25
  -4  -4 -11    3.55    0.55
  -3  -4 -11   10.96    0.97
  -2  -4 -11   -0.06    0.18
  -1  -4 -11    7.58    0.56
   0  -4 -11    7.06    0.55
   1  -4 -11    2.86    0.28
   2  -4 -11    2.11    0.25
   3  -4 -11    1.51    0.22
   4  -4 -11   28.58    0.93
   5  -4 -11    3.19    0.33
   6  -4 -11    1.54    0.32
   7  -4 -11    0.19    0.21
   8  -4 -11    2.44    0.56
   9  -4 -11    0.66    0.35
  10  -4 -11    2.35    0.59
  11  -4 -11   -0.20    0.36
  12  -4 -11   12.59    1.41
  13  -4 -11    0.54    0.51
  14  -4 -11    0.15    0.45
  15  -4 -11    9.45    1.39
  16  -4 -11    0.40    0.59
  17  -4 -11    0.24    0.57
  18  -4 -11   -0.23    0.59
 -15  -3 -11    1.29    0.81
 -14  -3 -11   -0.01    0.63
 -13  -3 -11   10.00    1.14
 -12  -3 -11    0.02    0.40
 -11  -3 -11    1.44    0.44
 -10  -3 -11    0.04    0.28
  -9  -3 -11    2.71    0.54
  -8  -3 -11    1.28    0.39
  -7  -3 -11    0.06    0.25
  -6  -3 -11    2.65    0.50
  -5  -3 -11    2.93    0.52
  -4  -3 -11    3.17    0.49
  -3  -3 -11   -0.02    0.16
  -2  -3 -11    8.15    0.74
  -1  -3 -11    0.23    0.14
   0  -3 -11    3.28    0.36
   1  -3 -11   20.65    0.69
   2  -3 -11   23.04    0.86
   3  -3 -11   18.83    0.78
   4  -3 -11    0.96    0.17
   5  -3 -11   12.87    0.56
   6  -3 -11   13.18    0.83
   7  -3 -11   12.01    0.84
   8  -3 -11   14.28    1.24
   9  -3 -11    4.48    0.71
  10  -3 -11    9.63    1.11
  11  -3 -11    2.22    0.61
  12  -3 -11    2.37    0.66
  13  -3 -11    4.74    0.93
  14  -3 -11    5.79    1.04
  15  -3 -11    4.95    0.96
  16  -3 -11    2.90    0.83
  17  -3 -11   -0.14    0.47
  18  -3 -11    0.49    0.57
  19  -3 -11    1.75    0.89
 -16  -2 -11    0.15    0.72
 -15  -2 -11    0.30    0.70
 -14  -2 -11   -0.02    0.57
 -13  -2 -11    0.38    0.55
 -12  -2 -11    0.33    0.37
 -11  -2 -11    1.49    0.45
 -10  -2 -11    0.15    0.28
  -9  -2 -11    0.55    0.30
  -8  -2 -11   10.65    0.99
  -7  -2 -11    0.27    0.25
  -6  -2 -11    3.51    0.53
  -5  -2 -11    0.08    0.21
  -4  -2 -11    1.99    0.40
  -3  -2 -11    3.94    0.52
  -2  -2 -11    0.79    0.16
  -1  -2 -11    6.04    0.45
   0  -2 -11    2.45    0.36
   1  -2 -11    3.47    0.26
   2  -2 -11    3.56    0.29
   3  -2 -11    0.14    0.10
   4  -2 -11    9.58    0.58
   5  -2 -11    1.46    0.26
   6  -2 -11    1.99    0.32
   7  -2 -11    1.68    0.32
   8  -2 -11    2.72    0.55
   9  -2 -11    0.49    0.35
  10  -2 -11    1.22    0.45
  11  -2 -11   -0.27    0.31
  12  -2 -11    7.46    1.08
  13  -2 -11   -0.16    0.32
  14  -2 -11   -0.04    0.35
  15  -2 -11    5.14    0.97
  16  -2 -11   -0.15    0.42
  17  -2 -11   -0.01    0.44
  18  -2 -11    0.25    0.49
  19  -2 -11    0.08    0.51
 -16  -1 -11    0.48    0.68
 -15  -1 -11    0.02    0.56
 -14  -1 -11    0.57    0.67
 -13  -1 -11    0.68    0.63
 -12  -1 -11   -0.12    0.40
 -11  -1 -11    0.18    0.32
 -10  -1 -11    0.36    0.31
  -9  -1 -11    1.01    0.35
  -8  -1 -11    0.11    0.22
  -7  -1 -11   -0.11    0.21
  -6  -1 -11    1.22    0.35
  -5  -1 -11    0.77    0.28
  -4  -1 -11    0.13    0.19
  -3  -1 -11    0.41    0.17
  -2  -1 -11    0.65    0.24
  -1  -1 -11    0.49    0.23
   0  -1 -11    0.10    0.18
   1  -1 -11    1.92    0.36
   2  -1 -11    5.16    0.30
   3  -1 -11    2.75    0.29
   4  -1 -11   -0.11    0.10
   5  -1 -11    1.34    0.26
   6  -1 -11    0.84    0.25
   7  -1 -11    1.64    0.31
   8  -1 -11    2.41    0.58
   9  -1 -11    0.33    0.34
  10  -1 -11    1.95    0.55
  11  -1 -11    0.19    0.31
  12  -1 -11    1.34    0.51
  13  -1 -11    0.97    0.48
  14  -1 -11   -0.10    0.35
  15  -1 -11    2.39    0.66
  16  -1 -11    0.39    0.44
  17  -1 -11    0.40    0.43
  18  -1 -11    0.53    0.50
  19  -1 -11   -0.32    0.44
 -16   0 -11    0.26    0.57
 -15   0 -11   -0.24    0.51
 -14   0 -11    0.11    0.49
 -13   0 -11   -0.57    0.41
 -12   0 -11    0.17    0.48
 -11   0 -11    0.05    0.36
 -10   0 -11   -0.49    0.36
  -9   0 -11   -0.28    0.29
  -8   0 -11   -0.10    0.35
  -7   0 -11    0.24    0.31
  -6   0 -11   -0.07    0.25
  -5   0 -11    0.10    0.14
  -4   0 -11    0.15    0.16
  -3   0 -11    0.11    0.16
  -2   0 -11    0.01    0.14
  -1   0 -11    0.18    0.07
   0   0 -11    0.11    0.15
   1   0 -11   -0.02    0.12
   2   0 -11   -0.01    0.12
   3   0 -11   -0.12    0.12
   4   0 -11    0.00    0.15
   5   0 -11    0.06    0.14
   6   0 -11    0.04    0.10
   7   0 -11   -0.01    0.13
   8   0 -11   -0.20    0.18
   9   0 -11   -0.25    0.18
  10   0 -11   -0.16    0.26
  11   0 -11   -0.24    0.29
  12   0 -11    0.22    0.36
  13   0 -11    0.38    0.35
  14   0 -11    0.39    0.37
  15   0 -11   -0.21    0.30
  16   0 -11    0.69    0.44
  17   0 -11   -0.17    0.32
  18   0 -11   -0.26    0.40
  19   0 -11   -0.56    0.71
 -16   1 -11    0.02    0.59
 -15   1 -11    0.27    0.53
 -14   1 -11    0.25    0.56
 -13   1 -11    0.36    0.52
 -12   1 -11    0.32    0.54
 -11   1 -11    0.06    0.46
 -10   1 -11    1.03    0.55
  -9   1 -11    0.49    0.45
  -8   1 -11   -0.01    0.29
  -7   1 -11   -0.22    0.27
  -6   1 -11    0.78    0.23
  -5   1 -11    2.46    0.37
  -4   1 -11    0.09    0.17
  -3   1 -11    0.00    0.14
  -2   1 -11    0.34    0.18
  -1   1 -11    0.10    0.14
   0   1 -11    0.10    0.10
   1   1 -11    2.13    0.24
   2   1 -11    5.41    0.40
   3   1 -11    2.44    0.29
   4   1 -11    0.06    0.12
   5   1 -11    1.65    0.19
   6   1 -11    0.93    0.18
   7   1 -11    1.34    0.27
   8   1 -11    2.10    0.36
   9   1 -11    0.05    0.22
  10   1 -11    1.42    0.36
  11   1 -11   -0.06    0.23
  12   1 -11    0.83    0.43
  13   1 -11    0.43    0.38
  14   1 -11   -0.02    0.35
  15   1 -11    0.61    0.45
  16   1 -11    0.19    0.39
  17   1 -11    0.19    0.39
  18   1 -11    0.64    0.81
  19   1 -11   -0.14    0.65
 -15   2 -11    0.29    0.66
 -14   2 -11    0.43    0.49
 -13   2 -11    0.71    0.64
 -12   2 -11    0.08    0.51
 -11   2 -11    0.77    0.56
 -10   2 -11    0.63    0.53
  -9   2 -11   -0.02    0.39
  -8   2 -11   12.90    1.00
  -7   2 -11    0.58    0.26
  -6   2 -11    4.08    0.49
  -5   2 -11    0.44    0.23
  -4   2 -11    2.68    0.40
  -3   2 -11    3.06    0.43
  -2   2 -11    0.90    0.26
  -1   2 -11    6.25    0.57
   0   2 -11    2.71    0.28
   1   2 -11    2.95    0.29
   2   2 -11    3.90    0.34
   3   2 -11    0.03    0.12
   4   2 -11   10.51    0.56
   5   2 -11    1.49    0.23
   6   2 -11    1.88    0.30
   7   2 -11    1.50    0.29
   8   2 -11    1.68    0.34
   9   2 -11   -0.10    0.21
  10   2 -11    1.37    0.36
  11   2 -11   -0.12    0.26
  12   2 -11    6.85    0.76
  13   2 -11    0.07    0.38
  14   2 -11   -0.01    0.38
  15   2 -11    5.83    0.95
  16   2 -11    0.06    0.43
  17   2 -11   -0.40    0.68
  18   2 -11   -0.77    0.58
  19   2 -11   -0.24    0.80
 -15   3 -11   -0.31    0.59
 -14   3 -11    0.00    0.57
 -13   3 -11    7.29    1.45
 -12   3 -11    1.90    0.81
 -11   3 -11    1.83    0.72
 -10   3 -11    0.45    0.43
  -9   3 -11    3.16    0.58
  -8   3 -11    0.41    0.26
  -7   3 -11    0.19    0.25
  -6   3 -11    2.79    0.44
  -5   3 -11    3.11    0.49
  -4   3 -11    3.76    0.50
  -3   3 -11    0.05    0.14
  -2   3 -11    6.95    0.65
  -1   3 -11    0.43    0.21
   0   3 -11    4.94    0.40
   1   3 -11   20.93    0.79
   2   3 -11   24.59    0.87
   3   3 -11   18.73    0.73
   4   3 -11    0.95    0.31
   5   3 -11   13.49    1.07
   6   3 -11   12.45    1.05
   7   3 -11   13.23    0.87
   8   3 -11   12.47    0.88
   9   3 -11    3.01    0.45
  10   3 -11   12.34    0.92
  11   3 -11    2.97    0.53
  12   3 -11    2.20    0.50
  13   3 -11    5.80    0.74
  14   3 -11    5.00    0.93
  15   3 -11    3.60    0.75
  16   3 -11    2.46    1.17
  17   3 -11   -0.32    0.82
  18   3 -11    0.04    0.89
 -14   4 -11    0.38    0.76
 -13   4 -11    1.64    0.80
 -12   4 -11   -0.13    0.53
 -11   4 -11    0.94    0.69
 -10   4 -11    0.98    0.43
  -9   4 -11    1.54    0.46
  -8   4 -11   28.24    1.48
  -7   4 -11    0.15    0.25
  -6   4 -11    3.53    0.56
  -5   4 -11    0.26    0.26
  -4   4 -11    4.88    0.63
  -3   4 -11   11.88    0.91
  -2   4 -11    0.70    0.27
  -1   4 -11    9.35    0.62
   0   4 -11    6.79    0.71
   1   4 -11    2.39    0.44
   2   4 -11    2.31    0.44
   3   4 -11    0.91    0.31
   4   4 -11   27.87    1.45
   5   4 -11    2.36    0.50
   6   4 -11    1.16    0.40
   7   4 -11    0.15    0.21
   8   4 -11    3.23    0.48
   9   4 -11    0.42    0.27
  10   4 -11    2.15    0.46
  11   4 -11    0.90    0.38
  12   4 -11   10.43    1.00
  13   4 -11   -0.13    0.36
  14   4 -11   -0.07    0.38
  15   4 -11    9.15    2.11
  16   4 -11   -0.10    0.80
  17   4 -11   -0.73    0.82
 -13   5 -11    3.53    1.16
 -12   5 -11    0.01    0.69
 -11   5 -11    0.35    0.40
 -10   5 -11    0.83    0.45
  -9   5 -11    2.90    0.57
  -8   5 -11    0.49    0.34
  -7   5 -11    3.93    0.66
  -6   5 -11    0.71    0.33
  -5   5 -11    8.87    1.34
  -4   5 -11   -0.28    0.34
  -3   5 -11   -0.20    0.32
  -2   5 -11    1.59    0.69
  -1   5 -11    0.14    0.26
   0   5 -11    0.68    0.33
   1   5 -11    5.94    0.74
   2   5 -11   25.18    1.41
   3   5 -11    0.02    0.23
   4   5 -11    0.04    0.24
   5   5 -11    2.42    0.48
   6   5 -11    0.76    0.37
   7   5 -11    9.69    0.85
   8   5 -11   -0.17    0.23
   9   5 -11    0.30    0.29
  10   5 -11    4.91    0.64
  11   5 -11   -0.02    0.35
  12   5 -11   10.72    1.08
  13   5 -11    0.16    0.38
  14   5 -11    2.14    0.80
  15   5 -11    6.51    1.93
  16   5 -11    0.04    1.10
 -11   6 -11    0.97    0.82
 -10   6 -11    2.25    0.98
  -9   6 -11    2.34    0.92
  -8   6 -11   27.75    2.72
  -7   6 -11   -0.17    0.43
  -6   6 -11    0.46    0.54
  -5   6 -11   -0.10    0.43
  -4   6 -11    3.84    1.00
  -3   6 -11   14.06    1.84
  -2   6 -11   -0.09    0.27
  -1   6 -11    2.19    0.52
   0   6 -11    5.12    0.73
   1   6 -11   -0.27    0.21
   2   6 -11    0.23    0.30
   3   6 -11    1.83    0.51
   4   6 -11   28.46    1.78
   5   6 -11    0.97    0.39
   6   6 -11    0.43    0.37
   7   6 -11    2.36    0.47
   8   6 -11    3.75    0.61
   9   6 -11    1.28    0.44
  10   6 -11    0.90    0.43
  11   6 -11    3.94    0.72
  12   6 -11    8.39    1.01
  13   6 -11    0.06    0.56
  14   6 -11    1.36    0.77
  15   6 -11    4.42    1.16
 -10   7 -11    0.69    0.84
  -9   7 -11   -0.13    0.64
  -8   7 -11   -0.76    0.55
  -7   7 -11    3.23    1.02
  -6   7 -11    0.31    0.65
  -5   7 -11    0.04    0.58
  -4   7 -11    0.04    0.37
  -3   7 -11    1.71    0.54
  -2   7 -11    1.44    0.51
  -1   7 -11   -0.29    0.30
   0   7 -11    7.28    0.95
   1   7 -11    5.19    0.83
   2   7 -11    7.60    0.97
   3   7 -11    0.60    0.41
   4   7 -11   -0.12    0.30
   5   7 -11    2.22    0.61
   6   7 -11    1.82    0.47
   7   7 -11    3.72    0.62
   8   7 -11    0.27    0.36
   9   7 -11    0.31    0.36
  10   7 -11    1.89    0.58
  11   7 -11   -0.13    0.42
  12   7 -11    6.93    1.22
  13   7 -11    0.44    0.67
  -6   8 -11    7.05    1.12
  -5   8 -11    0.45    0.50
  -4   8 -11    0.84    0.54
  -3   8 -11    1.23    0.56
  -2   8 -11   -0.44    0.40
  -1   8 -11    8.41    1.15
   0   8 -11    7.15    1.09
   1   8 -11    6.13    0.97
   2   8 -11    0.56    0.48
   3   8 -11    2.52    0.69
   4   8 -11    3.69    0.81
   5   8 -11    9.98    1.30
   6   8 -11    6.50    0.85
   7   8 -11   -0.01    0.38
   8   8 -11   -0.09    0.38
   9   8 -11    0.15    0.43
  10   8 -11    0.05    0.62
  11   8 -11    4.44    1.63
   0   9 -11    8.48    1.33
   1   9 -11    3.57    0.84
   2   9 -11    0.63    0.60
   3   9 -11    2.61    0.84
   4   9 -11    0.02    0.79
   5   9 -11    1.27    0.99
   6   9 -11    0.97    0.92
  -3  -9 -10    0.06    0.76
  -2  -9 -10    6.47    1.09
  -1  -9 -10    4.47    1.32
   0  -9 -10    6.82    1.62
   7  -9 -10    0.78    0.72
  -7  -8 -10    0.13    0.71
  -6  -8 -10    2.95    1.04
  -5  -8 -10    2.29    0.99
  -4  -8 -10    3.07    0.75
  -3  -8 -10    3.10    0.73
  -2  -8 -10    7.10    1.01
  -1  -8 -10   30.51    2.09
   0  -8 -10    4.51    0.78
   1  -8 -10   20.41    2.35
   2  -8 -10    0.75    0.84
   3  -8 -10    4.60    1.19
   4  -8 -10   10.66    1.18
   5  -8 -10    4.17    0.83
   6  -8 -10   24.05    1.91
   7  -8 -10   27.35    2.05
   8  -8 -10    1.15    0.57
   9  -8 -10    0.75    0.63
  10  -8 -10   -0.43    0.50
  11  -8 -10   25.69    3.25
 -10  -7 -10    2.08    0.95
  -9  -7 -10    0.17    0.56
  -8  -7 -10    0.54    0.61
  -7  -7 -10    0.85    0.60
  -6  -7 -10   26.67    2.65
  -5  -7 -10    9.34    1.55
  -4  -7 -10   -0.25    0.27
  -3  -7 -10    0.52    0.43
  -2  -7 -10   10.34    1.10
  -1  -7 -10    9.01    1.02
   0  -7 -10   18.38    1.44
   1  -7 -10    2.76    0.41
   2  -7 -10    5.82    0.45
   3  -7 -10    0.25    0.24
   4  -7 -10    1.22    0.44
   5  -7 -10    4.03    0.63
   6  -7 -10   24.70    1.76
   7  -7 -10   12.23    1.29
   8  -7 -10    0.19    0.45
   9  -7 -10    0.20    0.44
  10  -7 -10   -0.16    0.46
  11  -7 -10    4.30    0.98
  12  -7 -10   -0.37    0.44
  13  -7 -10    0.86    0.68
 -12  -6 -10    0.20    0.69
 -11  -6 -10    1.56    0.76
 -10  -6 -10    7.60    1.42
  -9  -6 -10    1.33    0.72
  -8  -6 -10    0.40    0.51
  -7  -6 -10    8.27    1.37
  -6  -6 -10    0.06    0.41
  -5  -6 -10   -0.01    0.37
  -4  -6 -10   42.53    2.03
  -3  -6 -10   24.74    1.29
  -2  -6 -10    7.01    0.69
  -1  -6 -10   14.74    0.99
   0  -6 -10    7.06    0.65
   1  -6 -10    9.08    0.51
   2  -6 -10    6.97    0.44
   3  -6 -10   22.76    0.74
   4  -6 -10    0.02    0.18
   5  -6 -10    4.79    0.53
   6  -6 -10   12.37    1.15
   7  -6 -10  107.98    4.05
   8  -6 -10    0.72    0.47
   9  -6 -10   20.37    1.70
  10  -6 -10    0.85    0.50
  11  -6 -10   32.86    2.44
  12  -6 -10    2.13    0.70
  13  -6 -10    1.21    0.63
  14  -6 -10   19.87    2.06
  15  -6 -10   -0.12    0.49
 -14  -5 -10    5.16    1.34
 -13  -5 -10    2.04    0.85
 -12  -5 -10   11.23    1.69
 -11  -5 -10    3.67    0.95
 -10  -5 -10    0.30    0.45
  -9  -5 -10    0.83    0.42
  -8  -5 -10   13.52    1.24
  -7  -5 -10    0.33    0.29
  -6  -5 -10   60.97    2.60
  -5  -5 -10    4.13    0.64
  -4  -5 -10    3.36    0.56
  -3  -5 -10    3.25    0.58
  -2  -5 -10   78.24    2.42
  -1  -5 -10   33.00    1.30
   0  -5 -10   10.72    0.63
   1  -5 -10    0.77    0.17
   2  -5 -10    0.41    0.14
   3  -5 -10   19.52    0.63
   4  -5 -10    1.94    0.24
   5  -5 -10    1.58    0.26
   6  -5 -10   30.29    1.21
   7  -5 -10   26.23    1.61
   8  -5 -10   32.00    1.73
   9  -5 -10    1.76    0.53
  10  -5 -10    5.80    0.93
  11  -5 -10   16.97    1.64
  12  -5 -10    4.33    0.86
  13  -5 -10    9.84    1.34
  14  -5 -10    1.27    0.63
  15  -5 -10   11.22    1.53
  16  -5 -10   -0.02    0.52
  17  -5 -10   -0.40    0.74
 -15  -4 -10    1.71    0.97
 -14  -4 -10   14.40    1.90
 -13  -4 -10   17.89    1.52
 -12  -4 -10    0.06    0.33
 -11  -4 -10    6.08    0.86
 -10  -4 -10   14.64    1.27
  -9  -4 -10    6.50    0.81
  -8  -4 -10    5.47    0.75
  -7  -4 -10    5.40    0.72
  -6  -4 -10    1.71    0.43
  -5  -4 -10    2.89    0.50
  -4  -4 -10   42.37    1.89
  -3  -4 -10   60.32    2.35
  -2  -4 -10   30.24    1.45
  -1  -4 -10   27.38    1.01
   0  -4 -10    0.50    0.19
   1  -4 -10   35.13    1.03
   2  -4 -10   -0.02    0.10
   3  -4 -10   44.09    1.24
   4  -4 -10    0.29    0.14
   5  -4 -10   52.82    1.44
   6  -4 -10   19.22    0.78
   7  -4 -10   99.94    2.89
   8  -4 -10    5.59    0.79
   9  -4 -10   15.52    1.33
  10  -4 -10    0.65    0.42
  11  -4 -10   58.04    2.77
  12  -4 -10    3.33    0.77
  13  -4 -10    0.20    0.35
  14  -4 -10   14.45    1.61
  15  -4 -10    0.21    0.53
  16  -4 -10    0.92    0.63
  17  -4 -10    9.62    1.42
  18  -4 -10   -0.07    0.49
 -16  -3 -10    0.32    0.77
 -15  -3 -10   -0.04    0.71
 -14  -3 -10   36.96    2.96
 -13  -3 -10    2.08    0.57
 -12  -3 -10   16.48    1.40
 -11  -3 -10    3.89    0.65
 -10  -3 -10   17.57    1.34
  -9  -3 -10   24.69    1.52
  -8  -3 -10    1.35    0.38
  -7  -3 -10   -0.08    0.20
  -6  -3 -10   22.59    1.24
  -5  -3 -10   76.64    2.96
  -4  -3 -10   27.93    1.36
  -3  -3 -10   11.17    0.91
  -2  -3 -10   93.13    2.55
  -1  -3 -10   34.86    1.15
   0  -3 -10  137.62    3.61
   1  -3 -10    0.28    0.11
   2  -3 -10   34.85    1.18
   3  -3 -10    9.23    0.45
   4  -3 -10    0.24    0.12
   5  -3 -10   84.19    2.06
   6  -3 -10  179.27    4.10
   7  -3 -10   11.57    0.57
   8  -3 -10   11.33    1.06
   9  -3 -10    1.10    0.43
  10  -3 -10   -0.03    0.26
  11  -3 -10    0.93    0.44
  12  -3 -10   33.30    2.13
  13  -3 -10    0.18    0.45
  14  -3 -10   17.32    1.77
  15  -3 -10   34.99    2.59
  16  -3 -10   17.49    1.73
  17  -3 -10    0.56    0.53
  18  -3 -10    0.62    0.52
  19  -3 -10   23.75    2.84
 -16  -2 -10    0.75    0.80
 -15  -2 -10    2.76    1.02
 -14  -2 -10   42.21    3.12
 -13  -2 -10   40.53    3.00
 -12  -2 -10   -0.15    0.28
 -11  -2 -10   22.37    1.56
 -10  -2 -10   20.05    1.43
  -9  -2 -10   51.26    2.22
  -8  -2 -10   18.80    1.20
  -7  -2 -10    3.12    0.52
  -6  -2 -10    4.67    0.60
  -5  -2 -10   21.33    1.14
  -4  -2 -10   18.07    1.02
  -3  -2 -10   96.94    3.39
  -2  -2 -10   77.69    2.13
  -1  -2 -10   34.88    1.13
   0  -2 -10   14.45    0.64
   1  -2 -10   96.19    2.53
   2  -2 -10   12.72    0.57
   3  -2 -10   72.89    2.07
   4  -2 -10    0.19    0.13
   5  -2 -10  218.37    4.74
   6  -2 -10   30.48    0.92
   7  -2 -10   44.99    1.27
   8  -2 -10   17.27    0.81
   9  -2 -10    4.99    0.80
  10  -2 -10   33.57    1.96
  11  -2 -10   75.36    3.45
  12  -2 -10   46.83    2.52
  13  -2 -10    1.92    0.68
  14  -2 -10    9.39    1.20
  15  -2 -10   10.88    1.30
  16  -2 -10    1.32    0.53
  17  -2 -10   39.69    2.48
  18  -2 -10    0.55    0.49
  19  -2 -10    6.28    1.09
 -16  -1 -10    1.99    0.86
 -15  -1 -10    2.99    1.06
 -14  -1 -10   42.17    3.24
 -13  -1 -10    0.64    0.57
 -12  -1 -10   16.90    1.99
 -11  -1 -10    0.18    0.28
 -10  -1 -10    6.37    0.76
  -9  -1 -10   42.51    1.88
  -8  -1 -10    5.02    0.63
  -7  -1 -10   19.97    1.15
  -6  -1 -10   60.76    2.37
  -5  -1 -10   28.91    1.38
  -4  -1 -10   85.45    2.95
  -3  -1 -10   -0.09    0.12
  -2  -1 -10  350.37    8.73
  -1  -1 -10   92.55    3.16
   0  -1 -10   56.06    2.06
   1  -1 -10   24.26    1.18
   2  -1 -10   11.87    0.53
   3  -1 -10  179.48    4.63
   4  -1 -10    0.05    0.14
   5  -1 -10   26.38    1.05
   6  -1 -10  145.58    4.12
   7  -1 -10   18.07    0.67
   8  -1 -10  130.52    3.64
   9  -1 -10    0.15    0.17
  10  -1 -10   12.95    0.94
  11  -1 -10    2.10    0.54
  12  -1 -10   77.74    3.40
  13  -1 -10   17.51    1.59
  14  -1 -10    1.73    0.60
  15  -1 -10   29.82    1.99
  16  -1 -10    5.94    0.98
  17  -1 -10   12.83    1.39
  18  -1 -10    5.49    0.99
  19  -1 -10    5.23    0.99
 -16   0 -10    2.91    1.03
 -15   0 -10    0.64    0.66
 -14   0 -10   18.86    2.29
 -13   0 -10   28.56    2.80
 -12   0 -10   18.60    2.17
 -11   0 -10   10.15    1.49
 -10   0 -10   71.87    4.20
  -9   0 -10   17.03    1.22
  -8   0 -10   36.65    1.62
  -7   0 -10   66.01    2.49
  -6   0 -10    6.13    0.95
  -5   0 -10   76.58    2.70
  -4   0 -10  136.98    4.44
  -3   0 -10  215.84    6.71
  -2   0 -10   15.45    0.77
  -1   0 -10    9.14    0.39
   0   0 -10   35.41    1.04
   1   0 -10    5.78    0.39
   2   0 -10    3.37    0.33
   3   0 -10  162.90    4.29
   4   0 -10   99.58    2.78
   5   0 -10  208.43    4.68
   6   0 -10    0.18    0.13
   7   0 -10  176.18    4.79
   8   0 -10   22.16    1.08
   9   0 -10   87.97    2.71
  10   0 -10    8.05    0.71
  11   0 -10   48.15    1.82
  12   0 -10   11.94    1.26
  13   0 -10    0.11    0.33
  14   0 -10   38.83    2.09
  15   0 -10   -0.25    0.30
  16   0 -10    3.16    0.75
  17   0 -10   15.96    1.58
  18   0 -10    2.29    0.66
  19   0 -10    9.75    2.10
 -16   1 -10    1.03    0.71
 -15   1 -10    2.01    0.90
 -14   1 -10   41.48    3.30
 -13   1 -10    0.45    0.46
 -12   1 -10   20.16    2.25
 -11   1 -10    0.41    0.51
 -10   1 -10    5.88    1.07
  -9   1 -10   38.99    2.70
  -8   1 -10    4.28    0.90
  -7   1 -10   17.76    1.18
  -6   1 -10   65.13    2.31
  -5   1 -10   31.26    1.32
  -4   1 -10   81.88    2.85
  -3   1 -10    0.42    0.18
  -2   1 -10  361.15   10.69
  -1   1 -10   91.09    3.08
   0   1 -10   54.36    1.55
   1   1 -10   27.12    0.88
   2   1 -10   11.77    0.52
   3   1 -10  177.58    4.60
   4   1 -10    0.13    0.13
   5   1 -10   26.73    0.82
   6   1 -10  149.40    3.47
   7   1 -10   19.61    0.94
   8   1 -10  128.07    3.70
   9   1 -10    0.00    0.19
  10   1 -10   13.01    0.98
  11   1 -10    2.13    0.43
  12   1 -10   79.66    2.73
  13   1 -10   21.06    1.42
  14   1 -10    1.07    0.46
  15   1 -10   31.64    2.05
  16   1 -10    6.64    0.97
  17   1 -10   17.16    1.58
  18   1 -10    3.32    1.27
  19   1 -10    3.28    1.25
 -16   2 -10    1.61    0.76
 -15   2 -10    2.94    1.08
 -14   2 -10   41.50    3.22
 -13   2 -10   43.97    3.19
 -12   2 -10    0.23    0.49
 -11   2 -10   25.29    2.44
 -10   2 -10   19.90    2.11
  -9   2 -10   53.65    3.23
  -8   2 -10   19.24    1.13
  -7   2 -10    3.26    0.46
  -6   2 -10    6.64    0.64
  -5   2 -10   24.46    1.12
  -4   2 -10   22.47    1.04
  -3   2 -10   98.19    3.32
  -2   2 -10   76.08    2.66
  -1   2 -10   36.00    1.40
   0   2 -10   13.69    0.57
   1   2 -10   91.77    2.53
   2   2 -10   11.90    0.54
   3   2 -10   72.53    2.04
   4   2 -10    0.05    0.11
   5   2 -10  213.51    5.50
   6   2 -10   32.29    1.18
   7   2 -10   45.81    1.58
   8   2 -10   20.95    1.04
   9   2 -10    6.94    0.67
  10   2 -10   29.87    1.42
  11   2 -10   78.95    2.71
  12   2 -10   53.24    2.02
  13   2 -10    1.47    0.42
  14   2 -10    9.01    0.92
  15   2 -10   10.38    1.27
  16   2 -10    2.32    0.68
  17   2 -10   42.74    4.18
  18   2 -10   -0.32    0.75
  19   2 -10    4.02    1.35
 -15   3 -10    1.84    0.92
 -14   3 -10   36.60    2.99
 -13   3 -10    0.95    0.60
 -12   3 -10   17.98    2.15
 -11   3 -10    4.78    1.06
 -10   3 -10   17.47    1.30
  -9   3 -10   26.57    1.41
  -8   3 -10    0.71    0.32
  -7   3 -10    0.07    0.24
  -6   3 -10   22.23    1.17
  -5   3 -10   80.64    2.91
  -4   3 -10   27.89    1.29
  -3   3 -10   13.97    0.86
  -2   3 -10   95.48    3.18
  -1   3 -10   34.47    1.41
   0   3 -10  134.89    3.58
   1   3 -10    0.37    0.14
   2   3 -10   37.32    1.18
   3   3 -10    9.20    0.46
   4   3 -10    0.54    0.26
   5   3 -10   81.93    3.10
   6   3 -10  181.77    4.86
   7   3 -10   10.68    0.76
   8   3 -10   12.33    0.87
   9   3 -10    1.58    0.36
  10   3 -10   -0.22    0.23
  11   3 -10    1.50    0.40
  12   3 -10   31.80    1.58
  13   3 -10    0.22    0.33
  14   3 -10   16.02    1.27
  15   3 -10   35.97    2.27
  16   3 -10   16.46    2.68
  17   3 -10    0.75    0.99
  18   3 -10    0.52    0.97
 -15   4 -10    0.76    0.91
 -14   4 -10   10.23    1.74
 -13   4 -10   15.97    2.09
 -12   4 -10    0.19    0.54
 -11   4 -10    6.51    0.92
 -10   4 -10   14.31    1.23
  -9   4 -10    5.14    0.72
  -8   4 -10    4.21    0.66
  -7   4 -10    7.05    0.76
  -6   4 -10    1.50    0.39
  -5   4 -10    3.64    0.54
  -4   4 -10   43.40    1.83
  -3   4 -10   58.07    2.25
  -2   4 -10   30.73    1.38
  -1   4 -10   28.16    1.22
   0   4 -10    0.35    0.23
   1   4 -10   33.57    1.55
   2   4 -10    0.29    0.24
   3   4 -10   42.27    1.86
   4   4 -10    0.31    0.26
   5   4 -10   51.09    2.20
   6   4 -10   19.10    1.42
   7   4 -10   94.78    2.95
   8   4 -10    7.22    0.65
   9   4 -10   11.45    0.93
  10   4 -10    1.41    0.43
  11   4 -10   59.65    2.26
  12   4 -10    2.84    0.55
  13   4 -10   -0.17    0.33
  14   4 -10   14.38    1.23
  15   4 -10    0.18    0.58
  16   4 -10    2.12    1.24
  17   4 -10   11.53    2.36
 -14   5 -10    9.47    1.76
 -13   5 -10    3.56    1.07
 -12   5 -10   15.05    1.98
 -11   5 -10    4.20    0.73
 -10   5 -10    0.33    0.39
  -9   5 -10    2.31    0.56
  -8   5 -10   14.86    1.24
  -7   5 -10    0.27    0.30
  -6   5 -10   65.47    2.58
  -5   5 -10    5.31    0.68
  -4   5 -10    1.69    0.63
  -3   5 -10    5.71    1.02
  -2   5 -10   73.83    4.23
  -1   5 -10   32.25    1.61
   0   5 -10   10.12    0.96
   1   5 -10    0.41    0.25
   2   5 -10    0.17    0.27
   3   5 -10   17.65    1.32
   4   5 -10    1.83    0.45
   5   5 -10    1.29    0.40
   6   5 -10   29.55    1.63
   7   5 -10   28.90    1.36
   8   5 -10   28.49    1.45
   9   5 -10    1.81    0.43
  10   5 -10    9.03    0.87
  11   5 -10   20.49    1.41
  12   5 -10    3.86    0.65
  13   5 -10   10.84    1.12
  14   5 -10    1.28    0.66
  15   5 -10   13.39    1.64
  16   5 -10    1.08    1.13
 -12   6 -10    0.59    0.82
 -11   6 -10    1.79    0.88
 -10   6 -10    9.13    1.64
  -9   6 -10    0.72    0.69
  -8   6 -10    1.18    0.64
  -7   6 -10    9.44    1.50
  -6   6 -10   -0.17    0.42
  -5   6 -10   -0.13    0.34
  -4   6 -10   41.01    2.99
  -3   6 -10   27.92    2.60
  -2   6 -10    6.74    0.84
  -1   6 -10   15.17    1.27
   0   6 -10    7.11    0.85
   1   6 -10    7.56    0.87
   2   6 -10    7.25    0.87
   3   6 -10   23.15    1.60
   4   6 -10    0.35    0.32
   5   6 -10    3.42    0.68
   6   6 -10   10.50    1.16
   7   6 -10  103.66    3.33
   8   6 -10    1.13    0.39
   9   6 -10   16.88    1.25
  10   6 -10    1.31    0.45
  11   6 -10   39.11    1.88
  12   6 -10    2.35    0.77
  13   6 -10    1.43    0.69
  14   6 -10   19.53    1.90
  15   6 -10   -0.12    0.73
  16   6 -10    0.15    1.16
 -10   7 -10    1.02    0.91
  -9   7 -10    0.47    0.66
  -8   7 -10    1.97    0.91
  -7   7 -10    0.91    0.67
  -6   7 -10   24.76    2.73
  -5   7 -10   10.44    1.70
  -4   7 -10   -0.08    0.47
  -3   7 -10   -0.07    0.33
  -2   7 -10    9.32    1.14
  -1   7 -10    7.42    0.96
   0   7 -10   18.43    1.53
   1   7 -10    1.64    0.51
   2   7 -10    7.14    0.92
   3   7 -10   -0.11    0.31
   4   7 -10    1.21    0.45
   5   7 -10    4.25    0.79
   6   7 -10   25.11    1.55
   7   7 -10   10.64    1.02
   8   7 -10    0.27    0.34
   9   7 -10    0.67    0.42
  10   7 -10    0.41    0.40
  11   7 -10    3.53    0.91
  12   7 -10   -0.29    0.51
  13   7 -10    0.37    0.64
  14   7 -10    5.53    1.66
  -7   8 -10   -0.09    0.71
  -6   8 -10    2.92    1.10
  -5   8 -10    0.79    0.52
  -4   8 -10    3.30    0.78
  -3   8 -10    3.40    0.74
  -2   8 -10    7.40    1.07
  -1   8 -10   29.54    2.17
   0   8 -10    5.14    0.87
   1   8 -10   15.76    1.55
   2   8 -10    0.41    0.42
   3   8 -10    4.73    0.88
   4   8 -10   10.50    1.25
   5   8 -10    2.98    0.75
   6   8 -10   20.77    1.51
   7   8 -10   22.73    1.61
   8   8 -10    0.18    0.40
   9   8 -10    1.18    0.56
  10   8 -10   -0.08    0.46
  11   8 -10   25.12    3.16
  -2   9 -10    6.30    1.82
  -1   9 -10    1.56    0.58
   0   9 -10    7.43    1.15
   1   9 -10    1.93    0.68
   2   9 -10    6.68    1.16
   3   9 -10    0.15    0.55
   4   9 -10    1.41    0.64
   5   9 -10    0.46    0.62
   6   9 -10   10.23    2.01
  -4  -9  -9   -0.70    0.60
  -3  -9  -9    0.27    0.54
  -2  -9  -9    0.92    0.58
  -1  -9  -9    4.48    1.35
   0  -9  -9    1.23    1.01
   4  -9  -9    8.41    1.71
   5  -9  -9   15.83    2.23
   6  -9  -9   13.23    2.16
   7  -9  -9    0.09    0.59
  -7  -8  -9   -0.08    0.56
  -6  -8  -9    5.33    1.30
  -5  -8  -9    5.12    0.90
  -4  -8  -9    6.01    0.92
  -3  -8  -9    6.51    0.97
  -2  -8  -9   11.12    1.22
  -1  -8  -9    0.23    0.40
   0  -8  -9   -0.44    0.35
   1  -8  -9    2.20    0.63
   2  -8  -9   -0.25    0.33
   3  -8  -9    1.98    0.63
   4  -8  -9    5.40    0.85
   5  -8  -9    1.60    0.56
   6  -8  -9    1.34    0.60
   7  -8  -9    0.35    0.50
   8  -8  -9    1.23    0.62
   9  -8  -9    1.08    0.66
  10  -8  -9    1.29    0.68
  11  -8  -9    1.43    1.21
 -10  -7  -9    0.20    0.62
  -9  -7  -9    2.19    0.93
  -8  -7  -9   -0.04    0.47
  -7  -7  -9   -0.18    0.57
  -6  -7  -9    0.05    0.37
  -5  -7  -9    6.58    0.93
  -4  -7  -9    3.44    0.69
  -3  -7  -9    1.45    0.45
  -2  -7  -9    0.77    0.42
  -1  -7  -9    8.99    1.00
   0  -7  -9    1.78    0.50
   1  -7  -9   13.84    0.97
   2  -7  -9    0.18    0.17
   3  -7  -9   11.59    0.77
   4  -7  -9    1.56    0.39
   5  -7  -9   16.88    1.12
   6  -7  -9   12.77    1.27
   7  -7  -9    0.82    0.45
   8  -7  -9    7.85    1.10
   9  -7  -9    1.12    0.56
  10  -7  -9    0.64    0.51
  11  -7  -9    1.12    0.62
  12  -7  -9    0.60    0.61
  13  -7  -9    3.00    0.86
 -12  -6  -9   -0.38    0.49
 -11  -6  -9    1.53    0.79
 -10  -6  -9    0.51    0.59
  -9  -6  -9    8.93    1.52
  -8  -6  -9   -0.16    0.38
  -7  -6  -9   -0.25    0.37
  -6  -6  -9    3.05    0.86
  -5  -6  -9    6.62    0.88
  -4  -6  -9   18.11    1.19
  -3  -6  -9   10.56    0.84
  -2  -6  -9    7.46    0.69
  -1  -6  -9    0.90    0.28
   0  -6  -9    1.72    0.25
   1  -6  -9    1.16    0.21
   2  -6  -9    2.36    0.26
   3  -6  -9    0.05    0.14
   4  -6  -9    0.93    0.22
   5  -6  -9   -0.12    0.20
   6  -6  -9    2.06    0.39
   7  -6  -9    8.64    1.02
   8  -6  -9   19.26    1.55
   9  -6  -9    0.36    0.41
  10  -6  -9    0.17    0.42
  11  -6  -9    0.03    0.38
  12  -6  -9    1.74    0.58
  13  -6  -9    2.29    0.76
  14  -6  -9    0.63    0.64
  15  -6  -9   -0.10    0.58
 -14  -5  -9    0.23    0.61
 -13  -5  -9    1.06    0.72
 -12  -5  -9   15.68    1.97
 -11  -5  -9    0.50    0.58
 -10  -5  -9    0.00    0.44
  -9  -5  -9    3.00    0.55
  -8  -5  -9    3.50    0.63
  -7  -5  -9    1.71    0.46
  -6  -5  -9    1.54    0.43
  -5  -5  -9    3.75    0.59
  -4  -5  -9   11.27    0.83
  -3  -5  -9   22.86    1.05
  -2  -5  -9    5.85    0.55
  -1  -5  -9   36.83    1.14
   0  -5  -9    0.08    0.14
   1  -5  -9   31.89    0.83
   2  -5  -9   18.92    0.61
   3  -5  -9   44.73    1.06
   4  -5  -9    3.44    0.32
   5  -5  -9    2.78    0.30
   6  -5  -9    8.66    0.67
   7  -5  -9   15.86    0.90
   8  -5  -9   32.19    1.78
   9  -5  -9   16.06    1.44
  10  -5  -9    5.61    0.86
  11  -5  -9    0.33    0.43
  12  -5  -9    0.51    0.45
  13  -5  -9   13.50    1.53
  14  -5  -9    1.87    0.66
  15  -5  -9    0.15    0.49
  16  -5  -9   -0.35    0.59
  17  -5  -9    0.47    0.65
 -15  -4  -9    0.23    0.67
 -14  -4  -9   -0.33    0.47
 -13  -4  -9    2.15    0.52
 -12  -4  -9    0.23    0.37
 -11  -4  -9    1.38    0.48
 -10  -4  -9    4.45    0.68
  -9  -4  -9   16.55    1.32
  -8  -4  -9   -0.05    0.24
  -7  -4  -9    4.33    0.64
  -6  -4  -9    9.79    0.89
  -5  -4  -9    0.15    0.23
  -4  -4  -9    5.73    0.67
  -3  -4  -9   12.43    0.98
  -2  -4  -9   24.86    0.85
  -1  -4  -9    0.71    0.17
   0  -4  -9   17.04    0.59
   1  -4  -9   -0.02    0.09
   2  -4  -9    3.26    0.25
   3  -4  -9   -0.03    0.10
   4  -4  -9    9.91    0.49
   5  -4  -9    1.28    0.22
   6  -4  -9    0.08    0.14
   7  -4  -9    6.94    0.58
   8  -4  -9   22.70    1.08
   9  -4  -9    8.90    1.00
  10  -4  -9   -0.15    0.33
  11  -4  -9    3.31    0.69
  12  -4  -9    2.05    0.65
  13  -4  -9    6.14    1.06
  14  -4  -9    0.20    0.48
  15  -4  -9    0.28    0.46
  16  -4  -9   19.71    2.04
  17  -4  -9    0.09    0.56
  18  -4  -9    0.49    0.64
 -16  -3  -9    0.42    0.74
 -15  -3  -9    0.64    0.80
 -14  -3  -9   -0.19    0.39
 -13  -3  -9    0.29    0.38
 -12  -3  -9   11.34    1.10
 -11  -3  -9    0.91    0.38
 -10  -3  -9   -0.03    0.25
  -9  -3  -9   10.47    0.96
  -8  -3  -9    1.52    0.40
  -7  -3  -9    2.96    0.49
  -6  -3  -9    0.85    0.31
  -5  -3  -9   13.98    1.04
  -4  -3  -9   26.88    1.31
  -3  -3  -9   11.30    0.87
  -2  -3  -9    2.46    0.26
  -1  -3  -9   15.52    0.68
   0  -3  -9    4.65    0.31
   1  -3  -9   43.75    1.16
   2  -3  -9   10.07    0.41
   3  -3  -9   26.68    0.81
   4  -3  -9    6.27    0.40
   5  -3  -9   10.96    0.51
   6  -3  -9    6.27    0.41
   7  -3  -9    8.42    0.54
   8  -3  -9   17.03    0.84
   9  -3  -9   23.11    1.04
  10  -3  -9    0.44    0.35
  11  -3  -9    5.38    0.85
  12  -3  -9    0.11    0.39
  13  -3  -9    3.04    0.77
  14  -3  -9    8.14    1.18
  15  -3  -9   -0.28    0.45
  16  -3  -9    2.18    0.69
  17  -3  -9    0.11    0.41
  18  -3  -9    0.64    0.50
  19  -3  -9    3.89    1.18
 -17  -2  -9    0.24    0.75
 -16  -2  -9   -0.31    0.60
 -15  -2  -9    0.13    0.60
 -14  -2  -9   -0.08    0.54
 -13  -2  -9    0.50    0.58
 -12  -2  -9    1.52    0.45
 -11  -2  -9    1.17    0.39
 -10  -2  -9    5.36    0.69
  -9  -2  -9   11.46    0.97
  -8  -2  -9    0.40    0.26
  -7  -2  -9    5.67    0.66
  -6  -2  -9    5.93    0.65
  -5  -2  -9    1.72    0.33
  -4  -2  -9    1.00    0.28
  -3  -2  -9    7.18    0.64
  -2  -2  -9   18.19    0.67
  -1  -2  -9    1.86    0.23
   0  -2  -9   18.44    0.70
   1  -2  -9    0.51    0.12
   2  -2  -9    2.96    0.28
   3  -2  -9    0.19    0.09
   4  -2  -9    9.14    0.39
   5  -2  -9    3.12    0.24
   6  -2  -9    0.37    0.11
   7  -2  -9    4.03    0.36
   8  -2  -9    9.45    0.58
   9  -2  -9   10.32    0.71
  10  -2  -9   -0.07    0.19
  11  -2  -9    2.73    0.67
  12  -2  -9    0.74    0.42
  13  -2  -9    3.30    0.72
  14  -2  -9    0.80    0.47
  15  -2  -9    0.48    0.44
  16  -2  -9   13.24    1.45
  17  -2  -9    0.33    0.48
  18  -2  -9    0.12    0.39
  19  -2  -9    0.81    0.57
 -17  -1  -9    0.31    0.72
 -16  -1  -9   -0.13    0.56
 -15  -1  -9    0.07    0.50
 -14  -1  -9    0.07    0.43
 -13  -1  -9    0.15    0.51
 -12  -1  -9    3.23    0.88
 -11  -1  -9    0.05    0.23
 -10  -1  -9    0.13    0.23
  -9  -1  -9    1.05    0.32
  -8  -1  -9    1.44    0.34
  -7  -1  -9    0.31    0.22
  -6  -1  -9    0.33    0.23
  -5  -1  -9    0.55    0.22
  -4  -1  -9    5.09    0.55
  -3  -1  -9    5.21    0.33
  -2  -1  -9    0.64    0.17
  -1  -1  -9    4.92    0.49
   0  -1  -9    0.10    0.15
   1  -1  -9   10.37    0.43
   2  -1  -9    5.09    0.32
   3  -1  -9    8.79    0.48
   4  -1  -9    2.39    0.30
   5  -1  -9    0.58    0.20
   6  -1  -9    0.12    0.09
   7  -1  -9    2.81    0.31
   8  -1  -9    5.42    0.49
   9  -1  -9    4.15    0.48
  10  -1  -9    0.23    0.22
  11  -1  -9    0.43    0.26
  12  -1  -9   -0.06    0.25
  13  -1  -9    1.03    0.44
  14  -1  -9    0.91    0.47
  15  -1  -9   -0.26    0.33
  16  -1  -9    0.16    0.39
  17  -1  -9    0.01    0.38
  18  -1  -9   -0.58    0.36
  19  -1  -9    0.37    0.78
 -17   0  -9   -0.54    0.51
 -16   0  -9    0.12    0.64
 -15   0  -9    0.11    0.53
 -14   0  -9    0.47    0.55
 -13   0  -9   -0.41    0.48
 -12   0  -9   -0.51    0.30
 -11   0  -9   -0.05    0.40
 -10   0  -9   -0.34    0.28
  -9   0  -9   -0.11    0.20
  -8   0  -9   -0.10    0.17
  -7   0  -9   -0.09    0.15
  -6   0  -9    0.03    0.12
  -5   0  -9   -0.14    0.09
  -4   0  -9   -0.12    0.09
  -3   0  -9    0.11    0.12
  -2   0  -9   -0.10    0.14
  -1   0  -9    0.12    0.15
   0   0  -9    0.02    0.07
   1   0  -9    0.09    0.11
   2   0  -9   -0.10    0.10
   3   0  -9    0.01    0.12
   4   0  -9    0.12    0.13
   5   0  -9   -0.10    0.11
   6   0  -9   -0.08    0.10
   7   0  -9   -0.05    0.16
   8   0  -9   -0.07    0.17
   9   0  -9    0.16    0.22
  10   0  -9   -0.12    0.21
  11   0  -9   -0.32    0.19
  12   0  -9   -0.16    0.25
  13   0  -9   -0.31    0.24
  14   0  -9    0.06    0.33
  15   0  -9   -0.12    0.31
  16   0  -9    0.24    0.36
  17   0  -9    0.11    0.39
  18   0  -9   -0.23    0.65
  19   0  -9    0.27    0.87
 -16   1  -9    0.16    0.59
 -15   1  -9    0.15    0.59
 -14   1  -9    0.13    0.56
 -13   1  -9    0.34    0.55
 -12   1  -9    1.93    0.76
 -11   1  -9    0.28    0.40
 -10   1  -9   -0.27    0.29
  -9   1  -9    1.25    0.53
  -8   1  -9    1.80    0.33
  -7   1  -9    1.29    0.28
  -6   1  -9    0.12    0.16
  -5   1  -9    0.88    0.22
  -4   1  -9    5.42    0.50
  -3   1  -9    6.25    0.53
  -2   1  -9    0.49    0.17
  -1   1  -9    5.34    0.46
   0   1  -9    0.04    0.08
   1   1  -9   10.62    0.46
   2   1  -9    6.15    0.39
   3   1  -9    8.97    0.47
   4   1  -9    2.07    0.26
   5   1  -9    0.52    0.13
   6   1  -9   -0.07    0.13
   7   1  -9    3.04    0.40
   8   1  -9    6.00    0.60
   9   1  -9    4.34    0.53
  10   1  -9    0.79    0.30
  11   1  -9    0.05    0.25
  12   1  -9   -0.20    0.25
  13   1  -9    0.76    0.35
  14   1  -9    0.73    0.36
  15   1  -9    0.30    0.39
  16   1  -9   -0.04    0.35
  17   1  -9   -0.08    0.62
  18   1  -9    0.01    0.75
  19   1  -9    0.55    0.77
 -16   2  -9    0.54    0.68
 -15   2  -9    0.59    0.66
 -14   2  -9    0.79    0.62
 -13   2  -9    1.02    0.64
 -12   2  -9    0.13    0.40
 -11   2  -9    1.45    0.62
 -10   2  -9    3.59    0.88
  -9   2  -9    8.05    0.79
  -8   2  -9   -0.17    0.18
  -7   2  -9    7.87    0.72
  -6   2  -9    6.42    0.62
  -5   2  -9    2.50    0.38
  -4   2  -9    0.62    0.22
  -3   2  -9    5.72    0.54
  -2   2  -9   19.95    0.91
  -1   2  -9    1.61    0.27
   0   2  -9   17.62    0.66
   1   2  -9    0.40    0.12
   2   2  -9    2.90    0.26
   3   2  -9    0.03    0.09
   4   2  -9    8.83    0.47
   5   2  -9    2.28    0.41
   6   2  -9    0.20    0.16
   7   2  -9    4.50    0.45
   8   2  -9   10.75    0.80
   9   2  -9    8.40    0.75
  10   2  -9    0.00    0.23
  11   2  -9    3.58    0.55
  12   2  -9    0.28    0.27
  13   2  -9    3.52    0.59
  14   2  -9    0.92    0.41
  15   2  -9    0.87    0.40
  16   2  -9   13.60    2.26
  17   2  -9   -0.06    0.55
  18   2  -9    1.07    0.93
  19   2  -9   -0.44    0.80
 -16   3  -9   -0.21    0.67
 -15   3  -9    1.12    0.68
 -14   3  -9    0.44    0.58
 -13   3  -9    0.90    0.68
 -12   3  -9   13.92    1.88
 -11   3  -9    1.09    0.60
 -10   3  -9    0.07    0.28
  -9   3  -9   10.64    0.95
  -8   3  -9    1.82    0.41
  -7   3  -9    3.00    0.50
  -6   3  -9    0.65    0.26
  -5   3  -9    9.98    0.82
  -4   3  -9   25.68    1.23
  -3   3  -9   12.95    0.88
  -2   3  -9    2.32    0.36
  -1   3  -9   16.09    0.82
   0   3  -9    4.21    0.35
   1   3  -9   41.66    1.31
   2   3  -9   10.00    0.47
   3   3  -9   27.69    0.90
   4   3  -9    7.05    0.73
   5   3  -9    9.15    0.84
   6   3  -9    6.41    0.56
   7   3  -9    8.39    0.68
   8   3  -9   16.62    1.04
   9   3  -9   22.03    1.18
  10   3  -9    0.16    0.23
  11   3  -9    5.38    0.68
  12   3  -9    0.32    0.31
  13   3  -9    1.83    0.49
  14   3  -9    5.59    0.77
  15   3  -9    0.69    0.60
  16   3  -9    2.58    0.90
  17   3  -9   -0.25    0.59
  18   3  -9   -0.99    0.81
 -15   4  -9    0.26    0.73
 -14   4  -9    2.33    0.96
 -13   4  -9    2.02    0.86
 -12   4  -9    0.69    0.58
 -11   4  -9    1.18    0.46
 -10   4  -9    4.84    0.73
  -9   4  -9   18.56    1.38
  -8   4  -9    0.12    0.27
  -7   4  -9    6.58    0.73
  -6   4  -9   10.43    0.93
  -5   4  -9    0.03    0.20
  -4   4  -9    6.16    0.66
  -3   4  -9   14.10    0.90
  -2   4  -9   25.44    1.19
  -1   4  -9    0.42    0.23
   0   4  -9   17.27    0.77
   1   4  -9   -0.26    0.14
   2   4  -9    3.28    0.47
   3   4  -9    0.14    0.22
   4   4  -9    7.97    0.82
   5   4  -9    1.57    0.40
   6   4  -9    0.06    0.19
   7   4  -9    7.57    0.67
   8   4  -9   22.60    1.19
   9   4  -9   10.10    0.86
  10   4  -9    0.08    0.25
  11   4  -9    2.06    0.47
  12   4  -9    1.32    0.48
  13   4  -9    5.72    0.79
  14   4  -9    0.39    0.56
  15   4  -9    0.17    0.55
  16   4  -9   21.52    2.16
  17   4  -9    1.11    1.07
  18   4  -9    3.60    1.73
 -14   5  -9   -0.06    0.67
 -13   5  -9    0.36    0.79
 -12   5  -9   19.01    1.56
 -11   5  -9   -0.19    0.38
 -10   5  -9    0.55    0.41
  -9   5  -9    5.06    0.75
  -8   5  -9    3.99    0.69
  -7   5  -9    3.35    0.57
  -6   5  -9    2.01    0.44
  -5   5  -9    2.68    0.49
  -4   5  -9   14.64    1.13
  -3   5  -9   19.74    2.01
  -2   5  -9    4.61    0.91
  -1   5  -9   33.65    1.68
   0   5  -9   -0.10    0.22
   1   5  -9   31.40    1.55
   2   5  -9   19.57    1.35
   3   5  -9   40.53    1.91
   4   5  -9    2.90    0.53
   5   5  -9    3.20    0.57
   6   5  -9    8.71    0.95
   7   5  -9   13.92    1.01
   8   5  -9   35.44    1.51
   9   5  -9   12.70    1.01
  10   5  -9    5.61    0.72
  11   5  -9    1.03    0.43
  12   5  -9    0.20    0.33
  13   5  -9   10.46    1.41
  14   5  -9    1.98    0.81
  15   5  -9    0.35    0.58
  16   5  -9   -0.24    0.69
 -13   6  -9    3.55    1.17
 -12   6  -9    0.22    0.50
 -11   6  -9    0.78    0.55
 -10   6  -9    0.45    0.63
  -9   6  -9   12.41    1.81
  -8   6  -9   -0.25    0.51
  -7   6  -9    0.40    0.58
  -6   6  -9    3.30    0.89
  -5   6  -9    5.27    1.13
  -4   6  -9   17.64    2.04
  -3   6  -9   10.27    1.54
  -2   6  -9    8.50    0.84
  -1   6  -9    1.30    0.40
   0   6  -9    2.06    0.48
   1   6  -9    0.97    0.38
   2   6  -9    2.67    0.55
   3   6  -9   -0.10    0.24
   4   6  -9    0.56    0.34
   5   6  -9   -0.07    0.27
   6   6  -9    0.91    0.34
   7   6  -9    7.81    0.80
   8   6  -9   14.29    1.11
   9   6  -9   -0.10    0.25
  10   6  -9   -0.02    0.31
  11   6  -9    0.33    0.38
  12   6  -9    2.45    0.76
  13   6  -9    3.32    0.86
  14   6  -9    0.73    0.65
  15   6  -9    0.30    0.68
  16   6  -9   16.72    2.86
 -11   7  -9    0.94    0.81
 -10   7  -9    1.86    0.91
  -9   7  -9    4.87    1.25
  -8   7  -9    0.59    0.67
  -7   7  -9    0.54    0.66
  -6   7  -9    0.11    0.54
  -5   7  -9    6.05    1.26
  -4   7  -9    5.78    1.24
  -3   7  -9    0.98    0.45
  -2   7  -9    0.87    0.44
  -1   7  -9   10.34    1.13
   0   7  -9    1.75    0.51
   1   7  -9   12.84    1.25
   2   7  -9    0.00    0.31
   3   7  -9    9.43    1.04
   4   7  -9    1.00    0.48
   5   7  -9   14.38    1.39
   6   7  -9   14.48    1.17
   7   7  -9    0.34    0.34
   8   7  -9    5.92    0.78
   9   7  -9    1.14    0.43
  10   7  -9   -0.22    0.43
  11   7  -9    1.38    0.59
  12   7  -9    0.11    0.52
  13   7  -9    2.73    0.88
  14   7  -9   -0.18    0.92
  -8   8  -9    0.17    0.78
  -7   8  -9    0.47    0.76
  -6   8  -9    2.52    1.05
  -5   8  -9    7.17    1.06
  -4   8  -9    6.81    1.06
  -3   8  -9    5.59    0.95
  -2   8  -9    8.85    1.16
  -1   8  -9    0.06    0.37
   0   8  -9    0.02    0.35
   1   8  -9    2.05    0.62
   2   8  -9   -0.27    0.37
   3   8  -9    1.85    0.59
   4   8  -9    6.95    1.03
   5   8  -9    1.59    0.48
   6   8  -9    0.77    0.40
   7   8  -9    0.60    0.42
   8   8  -9    2.57    0.59
   9   8  -9    1.00    0.55
  10   8  -9   -0.22    0.56
  11   8  -9    1.76    1.09
  -3   9  -9    0.49    1.34
  -2   9  -9    0.12    0.51
  -1   9  -9    2.27    0.72
   0   9  -9    1.78    0.66
   1   9  -9    2.79    0.79
   2   9  -9    0.57    0.55
   3   9  -9    0.78    0.58
   4   9  -9    4.09    0.74
   5   9  -9   13.13    1.24
   6   9  -9   11.27    1.68
  -5  -9  -8   -0.04    0.84
  -4  -9  -8    0.61    0.58
  -3  -9  -8    3.43    0.80
  -2  -9  -8    7.50    1.10
  -1  -9  -8    0.76    0.85
   0  -9  -8    0.52    0.73
   1  -9  -8    4.87    1.27
   2  -9  -8    9.08    1.67
   3  -9  -8    0.38    0.70
   4  -9  -8   -0.29    0.71
   5  -9  -8   12.51    2.03
   6  -9  -8    0.89    1.01
   7  -9  -8    1.60    1.13
  -8  -8  -8   11.94    1.88
  -7  -8  -8    0.07    0.47
  -6  -8  -8   14.01    1.47
  -5  -8  -8    1.83    0.59
  -4  -8  -8    2.86    0.69
  -3  -8  -8    0.62    0.49
  -2  -8  -8    0.08    0.39
  -1  -8  -8    0.09    0.40
   0  -8  -8   14.67    1.09
   1  -8  -8    1.34    0.55
   2  -8  -8    3.13    0.56
   3  -8  -8   15.54    1.39
   4  -8  -8    9.80    0.87
   5  -8  -8   -0.02    0.40
   6  -8  -8   14.09    1.40
   7  -8  -8    5.18    0.95
   8  -8  -8   -0.02    0.45
   9  -8  -8   24.45    2.08
  10  -8  -8    0.46    0.57
  11  -8  -8   -0.85    0.85
 -11  -7  -8   -0.64    0.72
 -10  -7  -8   17.61    2.28
  -9  -7  -8    0.85    0.71
  -8  -7  -8    1.35    0.81
  -7  -7  -8   -0.40    0.30
  -6  -7  -8    2.47    0.57
  -5  -7  -8    1.47    0.48
  -4  -7  -8    2.80    0.60
  -3  -7  -8   13.10    1.23
  -2  -7  -8   10.78    1.11
  -1  -7  -8    4.97    0.77
   0  -7  -8    0.35    0.29
   1  -7  -8   20.77    1.07
   2  -7  -8   28.46    0.92
   3  -7  -8    1.55    0.33
   4  -7  -8    0.00    0.25
   5  -7  -8   23.32    1.27
   6  -7  -8    0.86    0.36
   7  -7  -8    2.61    0.66
   8  -7  -8    7.01    1.00
   9  -7  -8    1.46    0.61
  10  -7  -8   15.63    1.63
  11  -7  -8    4.42    0.95
  12  -7  -8    0.40    0.54
  13  -7  -8   10.28    1.44
 -13  -6  -8   -0.24    0.48
 -12  -6  -8   17.60    2.23
 -11  -6  -8    2.17    0.86
 -10  -6  -8   12.76    1.82
  -9  -6  -8    0.13    0.50
  -8  -6  -8    7.83    1.34
  -7  -6  -8    5.55    0.85
  -6  -6  -8   34.26    1.88
  -5  -6  -8   27.03    1.82
  -4  -6  -8    0.00    0.25
  -3  -6  -8   -0.08    0.20
  -2  -6  -8    6.84    0.63
  -1  -6  -8    0.71    0.27
   0  -6  -8   66.42    1.66
   1  -6  -8    5.12    0.37
   2  -6  -8   10.61    0.53
   3  -6  -8    1.83    0.24
   4  -6  -8    4.52    0.38
   5  -6  -8    0.33    0.21
   6  -6  -8    1.34    0.33
   7  -6  -8    2.45    0.42
   8  -6  -8   11.71    1.18
   9  -6  -8   22.51    1.76
  10  -6  -8    0.80    0.48
  11  -6  -8    2.26    0.68
  12  -6  -8    7.23    1.16
  13  -6  -8    5.12    1.03
  14  -6  -8    1.77    0.71
  15  -6  -8    1.27    0.74
 -15  -5  -8   -0.23    0.63
 -14  -5  -8   -0.14    0.56
 -13  -5  -8    0.41    0.58
 -12  -5  -8    1.83    0.77
 -11  -5  -8    8.83    1.46
 -10  -5  -8   23.33    2.37
  -9  -5  -8   -0.27    0.38
  -8  -5  -8    0.51    0.35
  -7  -5  -8    0.59    0.34
  -6  -5  -8    1.75    0.38
  -5  -5  -8   -0.15    0.18
  -4  -5  -8    0.52    0.25
  -3  -5  -8   41.44    1.48
  -2  -5  -8   29.50    1.18
  -1  -5  -8   48.34    1.40
   0  -5  -8   -0.13    0.10
   1  -5  -8   30.94    0.81
   2  -5  -8   93.35    1.90
   3  -5  -8   13.40    0.56
   4  -5  -8    4.31    0.34
   5  -5  -8   15.21    0.72
   6  -5  -8    0.03    0.17
   7  -5  -8    0.91    0.28
   8  -5  -8   44.45    1.67
   9  -5  -8    5.83    0.67
  10  -5  -8    5.57    0.85
  11  -5  -8   10.58    1.26
  12  -5  -8    3.10    0.74
  13  -5  -8   27.17    2.22
  14  -5  -8    0.73    0.64
  15  -5  -8    1.72    0.72
  16  -5  -8    6.78    1.21
  17  -5  -8    0.40    0.56
 -15  -4  -8    0.49    0.63
 -14  -4  -8    1.51    0.77
 -13  -4  -8    1.02    0.60
 -12  -4  -8   20.12    1.54
 -11  -4  -8   -0.14    0.27
 -10  -4  -8   35.89    1.80
  -9  -4  -8    3.78    0.61
  -8  -4  -8   14.41    1.17
  -7  -4  -8    0.04    0.24
  -6  -4  -8   50.67    2.08
  -5  -4  -8   16.92    1.18
  -4  -4  -8    0.63    0.23
  -3  -4  -8    1.51    0.29
  -2  -4  -8    1.98    0.30
  -1  -4  -8    2.77    0.28
   0  -4  -8   40.32    0.95
   1  -4  -8   14.57    0.48
   2  -4  -8   41.07    0.95
   3  -4  -8   25.38    0.66
   4  -4  -8   11.07    0.52
   5  -4  -8   12.09    0.49
   6  -4  -8    3.10    0.37
   7  -4  -8    0.39    0.21
   8  -4  -8   22.59    1.03
   9  -4  -8   61.18    2.08
  10  -4  -8    0.28    0.24
  11  -4  -8    8.70    1.09
  12  -4  -8   16.71    1.62
  13  -4  -8   14.97    1.58
  14  -4  -8    0.48    0.50
  15  -4  -8    2.83    0.78
  16  -4  -8   43.58    2.78
  17  -4  -8    0.03    0.46
  18  -4  -8    3.00    0.84
 -16  -3  -8    0.29    0.75
 -15  -3  -8    0.20    0.63
 -14  -3  -8    6.06    0.85
 -13  -3  -8    8.11    0.96
 -12  -3  -8    0.35    0.35
 -11  -3  -8    1.38    0.45
 -10  -3  -8   25.40    1.42
  -9  -3  -8   13.41    1.09
  -8  -3  -8   42.52    1.93
  -7  -3  -8    0.50    0.27
  -6  -3  -8   24.88    1.28
  -5  -3  -8   18.82    1.04
  -4  -3  -8   36.29    1.51
  -3  -3  -8    2.50    0.39
  -2  -3  -8   49.67    1.45
  -1  -3  -8    0.67    0.16
   0  -3  -8   26.44    0.70
   1  -3  -8  117.22    2.22
   2  -3  -8    4.87    0.27
   3  -3  -8    7.90    0.43
   4  -3  -8   30.02    0.89
   5  -3  -8  105.71    2.48
   6  -3  -8    2.41    0.26
   7  -3  -8   26.82    1.02
   8  -3  -8   19.71    0.94
   9  -3  -8    0.80    0.25
  10  -3  -8   56.76    1.95
  11  -3  -8   51.59    1.92
  12  -3  -8    0.59    0.42
  13  -3  -8    0.63    0.49
  14  -3  -8    1.60    0.53
  15  -3  -8    1.08    0.57
  16  -3  -8    1.64    0.69
  17  -3  -8    0.86    0.53
  18  -3  -8    7.23    1.16
  19  -3  -8    0.57    0.68
 -17  -2  -8   -0.09    0.71
 -16  -2  -8    1.28    0.79
 -15  -2  -8    2.23    0.95
 -14  -2  -8    1.50    0.76
 -13  -2  -8    2.42    0.55
 -12  -2  -8   15.79    1.23
 -11  -2  -8    7.29    0.80
 -10  -2  -8   61.88    2.51
  -9  -2  -8    8.44    0.82
  -8  -2  -8   18.28    1.14
  -7  -2  -8   27.70    1.33
  -6  -2  -8   36.67    1.62
  -5  -2  -8    1.84    0.34
  -4  -2  -8    1.94    0.34
  -3  -2  -8    4.66    0.51
  -2  -2  -8   79.75    2.12
  -1  -2  -8   11.93    0.50
   0  -2  -8    4.07    0.25
   1  -2  -8   43.80    1.13
   2  -2  -8   98.35    2.61
   3  -2  -8  117.13    2.64
   4  -2  -8   19.38    0.62
   5  -2  -8  109.85    2.55
   6  -2  -8    1.19    0.18
   7  -2  -8    0.12    0.13
   8  -2  -8   33.80    1.24
   9  -2  -8  118.06    3.45
  10  -2  -8    5.63    0.59
  11  -2  -8   19.57    1.09
  12  -2  -8   27.20    1.38
  13  -2  -8   34.59    2.16
  14  -2  -8   -0.04    0.35
  15  -2  -8    3.56    0.66
  16  -2  -8   64.91    3.26
  17  -2  -8    0.06    0.33
  18  -2  -8    7.01    0.99
  19  -2  -8    1.59    0.66
 -17  -1  -8    1.81    0.97
 -16  -1  -8    4.05    1.16
 -15  -1  -8    3.26    1.10
 -14  -1  -8    0.55    0.59
 -13  -1  -8   10.61    1.59
 -12  -1  -8   23.84    2.40
 -11  -1  -8   22.14    1.31
 -10  -1  -8   14.08    1.10
  -9  -1  -8    0.20    0.21
  -8  -1  -8   45.87    1.93
  -7  -1  -8   12.89    0.95
  -6  -1  -8    1.23    0.29
  -5  -1  -8   30.20    1.34
  -4  -1  -8    1.02    0.24
  -3  -1  -8    0.93    0.23
  -2  -1  -8  105.93    3.34
  -1  -1  -8   42.85    1.54
   0  -1  -8    3.89    0.42
   1  -1  -8   78.79    2.13
   2  -1  -8   63.28    1.71
   3  -1  -8   24.01    0.86
   4  -1  -8    8.94    0.58
   5  -1  -8   25.98    0.76
   6  -1  -8   16.60    0.62
   7  -1  -8    0.15    0.15
   8  -1  -8   55.84    1.88
   9  -1  -8    0.29    0.21
  10  -1  -8    7.18    0.66
  11  -1  -8   70.72    2.41
  12  -1  -8   23.52    1.29
  13  -1  -8    6.04    0.67
  14  -1  -8    1.78    0.56
  15  -1  -8    1.30    0.52
  16  -1  -8    6.03    0.90
  17  -1  -8    8.93    1.16
  18  -1  -8    3.50    0.77
  19  -1  -8    1.09    0.91
 -17   0  -8    0.92    0.80
 -16   0  -8   -0.32    0.59
 -15   0  -8   26.16    2.85
 -14   0  -8    1.06    0.61
 -13   0  -8    4.10    1.05
 -12   0  -8   36.96    2.80
 -11   0  -8    2.01    0.70
 -10   0  -8    6.68    0.74
  -9   0  -8    2.86    0.46
  -8   0  -8    0.90    0.29
  -7   0  -8    1.65    0.23
  -6   0  -8   44.03    1.35
  -5   0  -8   77.97    2.12
  -4   0  -8   61.71    1.75
  -3   0  -8    4.79    0.39
  -2   0  -8    5.81    0.47
  -1   0  -8   56.36    1.91
   0   0  -8   67.97    1.78
   1   0  -8  312.58    7.80
   2   0  -8  109.31    2.92
   3   0  -8    8.90    0.55
   4   0  -8    3.53    0.25
   5   0  -8   79.86    1.98
   6   0  -8   93.02    2.71
   7   0  -8   13.01    0.87
   8   0  -8  163.60    4.61
   9   0  -8   26.17    1.20
  10   0  -8    7.34    0.72
  11   0  -8  147.74    4.30
  12   0  -8   99.50    3.15
  13   0  -8  102.08    3.21
  14   0  -8   30.17    1.49
  15   0  -8    9.34    1.12
  16   0  -8   26.47    2.00
  17   0  -8    8.71    1.14
  18   0  -8   10.99    2.07
  19   0  -8   11.50    2.24
 -17   1  -8    2.94    1.04
 -16   1  -8    5.77    1.31
 -15   1  -8    1.64    0.74
 -14   1  -8    0.91    0.70
 -13   1  -8    8.59    1.49
 -12   1  -8   21.66    2.33
 -11   1  -8   18.47    2.00
 -10   1  -8   15.18    1.76
  -9   1  -8    0.32    0.38
  -8   1  -8   47.98    1.88
  -7   1  -8   12.54    0.79
  -6   1  -8    1.61    0.29
  -5   1  -8   30.89    1.29
  -4   1  -8    1.49    0.26
  -3   1  -8    0.66    0.20
  -2   1  -8  102.70    3.37
  -1   1  -8   40.11    1.49
   0   1  -8    4.69    0.30
   1   1  -8   83.46    2.15
   2   1  -8   61.31    2.02
   3   1  -8   24.28    0.83
   4   1  -8    9.33    0.51
   5   1  -8   24.80    0.77
   6   1  -8   16.96    0.82
   7   1  -8    0.32    0.19
   8   1  -8   57.63    1.94
   9   1  -8   -0.17    0.20
  10   1  -8    5.96    0.67
  11   1  -8   74.02    2.50
  12   1  -8   25.05    1.39
  13   1  -8    6.55    0.75
  14   1  -8    2.95    0.52
  15   1  -8    1.65    0.44
  16   1  -8    6.88    1.01
  17   1  -8   11.67    2.00
  18   1  -8    2.22    1.08
  19   1  -8    1.09    0.87
 -16   2  -8    1.12    0.75
 -15   2  -8    4.43    1.13
 -14   2  -8    2.15    0.85
 -13   2  -8    2.66    0.93
 -12   2  -8   14.85    1.85
 -11   2  -8    9.05    1.35
 -10   2  -8   61.24    2.47
  -9   2  -8    8.67    0.78
  -8   2  -8   18.59    1.09
  -7   2  -8   30.19    1.33
  -6   2  -8   41.30    1.63
  -5   2  -8    2.76    0.39
  -4   2  -8    2.34    0.35
  -3   2  -8    4.55    0.45
  -2   2  -8   78.27    2.65
  -1   2  -8   12.05    0.64
   0   2  -8    3.67    0.30
   1   2  -8   44.55    1.30
   2   2  -8   97.63    2.59
   3   2  -8  116.67    3.06
   4   2  -8   20.04    0.72
   5   2  -8  108.20    3.02
   6   2  -8    0.87    0.22
   7   2  -8    0.00    0.16
   8   2  -8   32.97    1.31
   9   2  -8  115.99    3.52
  10   2  -8    4.67    0.60
  11   2  -8   18.11    1.25
  12   2  -8   30.39    1.47
  13   2  -8   37.11    1.65
  14   2  -8    0.22    0.31
  15   2  -8    4.06    0.65
  16   2  -8   73.86    3.47
  17   2  -8   -0.34    0.61
  18   2  -8    8.06    1.67
  19   2  -8   -0.07    0.81
 -16   3  -8    0.11    0.71
 -15   3  -8   -0.23    0.54
 -14   3  -8    4.01    1.07
 -13   3  -8    9.69    1.59
 -12   3  -8    0.09    0.46
 -11   3  -8    0.72    0.34
 -10   3  -8   27.93    1.43
  -9   3  -8   12.46    1.04
  -8   3  -8   45.63    1.94
  -7   3  -8    0.02    0.19
  -6   3  -8   27.01    1.27
  -5   3  -8   18.60    1.00
  -4   3  -8   31.96    1.44
  -3   3  -8    2.39    0.37
  -2   3  -8   46.60    1.80
  -1   3  -8    1.32    0.25
   0   3  -8   25.88    0.89
   1   3  -8  121.39    3.12
   2   3  -8    4.74    0.28
   3   3  -8    8.06    0.72
   4   3  -8   29.55    1.38
   5   3  -8  101.18    3.67
   6   3  -8    2.07    0.33
   7   3  -8   25.18    1.07
   8   3  -8   18.46    1.02
   9   3  -8    0.31    0.23
  10   3  -8   54.13    2.02
  11   3  -8   50.16    2.00
  12   3  -8    0.18    0.29
  13   3  -8    0.94    0.39
  14   3  -8    1.51    0.46
  15   3  -8    1.99    0.69
  16   3  -8    1.42    0.66
  17   3  -8    0.51    0.78
  18   3  -8    5.36    1.69
 -15   4  -8    0.87    0.77
 -14   4  -8    1.68    0.84
 -13   4  -8    0.76    0.67
 -12   4  -8   19.29    1.52
 -11   4  -8   -0.26    0.27
 -10   4  -8   33.74    1.75
  -9   4  -8    3.75    0.62
  -8   4  -8   11.31    1.02
  -7   4  -8    0.15    0.24
  -6   4  -8   47.41    2.02
  -5   4  -8   16.74    1.05
  -4   4  -8    0.36    0.24
  -3   4  -8    1.52    0.32
  -2   4  -8    2.29    0.36
  -1   4  -8    3.06    0.37
   0   4  -8   42.14    1.32
   1   4  -8   13.69    1.02
   2   4  -8   43.62    1.78
   3   4  -8   24.23    1.23
   4   4  -8   10.87    0.91
   5   4  -8   10.62    0.95
   6   4  -8    2.78    0.39
   7   4  -8    0.52    0.25
   8   4  -8   20.34    1.13
   9   4  -8   63.82    2.22
  10   4  -8   -0.03    0.24
  11   4  -8    7.04    0.76
  12   4  -8   16.42    1.26
  13   4  -8   16.44    1.29
  14   4  -8    1.93    0.71
  15   4  -8    1.74    0.79
  16   4  -8   47.70    3.31
  17   4  -8    0.34    0.72
  18   4  -8    2.83    1.30
 -14   5  -8   -0.06    0.63
 -13   5  -8    1.38    0.83
 -12   5  -8    0.69    0.43
 -11   5  -8   12.02    1.19
 -10   5  -8   25.96    1.76
  -9   5  -8   -0.15    0.24
  -8   5  -8    0.99    0.39
  -7   5  -8    0.81    0.33
  -6   5  -8    1.67    0.42
  -5   5  -8    0.17    0.23
  -4   5  -8    0.88    0.31
  -3   5  -8   37.49    2.57
  -2   5  -8   27.07    2.08
  -1   5  -8   47.17    2.08
   0   5  -8   -0.01    0.22
   1   5  -8   28.06    1.46
   2   5  -8   90.79    3.42
   3   5  -8   12.64    1.07
   4   5  -8    2.85    0.52
   5   5  -8   15.46    1.23
   6   5  -8    0.07    0.19
   7   5  -8    0.81    0.29
   8   5  -8   48.72    1.82
   9   5  -8    6.37    0.72
  10   5  -8    6.05    0.74
  11   5  -8    9.21    0.94
  12   5  -8    2.95    0.69
  13   5  -8   30.75    2.41
  14   5  -8    1.13    0.68
  15   5  -8    2.60    0.91
  16   5  -8   10.22    1.53
  17   5  -8   -0.07    0.82
 -13   6  -8   -0.01    0.48
 -12   6  -8   18.19    1.62
 -11   6  -8    1.12    0.51
 -10   6  -8   15.87    1.43
  -9   6  -8    0.65    0.65
  -8   6  -8    7.57    1.36
  -7   6  -8   10.53    1.57
  -6   6  -8   37.85    2.77
  -5   6  -8   23.03    2.45
  -4   6  -8   -0.08    0.38
  -3   6  -8    0.10    0.40
  -2   6  -8    7.76    0.90
  -1   6  -8    0.58    0.34
   0   6  -8   65.98    2.76
   1   6  -8    4.20    0.67
   2   6  -8   10.37    1.02
   3   6  -8    2.18    0.50
   4   6  -8    4.40    0.69
   5   6  -8    0.22    0.32
   6   6  -8    2.62    0.42
   7   6  -8    1.28    0.38
   8   6  -8   13.49    1.03
   9   6  -8   22.37    1.46
  10   6  -8   -0.24    0.29
  11   6  -8    2.22    0.73
  12   6  -8    8.73    1.24
  13   6  -8    6.98    1.21
  14   6  -8    2.50    0.90
  15   6  -8    0.79    0.71
  16   6  -8   18.92    2.96
 -11   7  -8    0.16    0.76
 -10   7  -8   20.26    2.57
  -9   7  -8    1.10    0.74
  -8   7  -8    0.99    0.66
  -7   7  -8    0.66    0.61
  -6   7  -8    1.21    0.71
  -5   7  -8    0.65    0.70
  -4   7  -8    3.15    0.98
  -3   7  -8   15.08    1.38
  -2   7  -8    9.60    1.09
  -1   7  -8    5.49    0.81
   0   7  -8    0.41    0.38
   1   7  -8   21.80    1.67
   2   7  -8   24.36    1.79
   3   7  -8    1.48    0.46
   4   7  -8    0.20    0.37
   5   7  -8   20.51    1.68
   6   7  -8    0.51    0.34
   7   7  -8    1.34    0.43
   8   7  -8    7.86    0.86
   9   7  -8    0.64    0.40
  10   7  -8   17.06    1.72
  11   7  -8    3.79    0.87
  12   7  -8   -0.07    0.58
  13   7  -8    9.22    1.42
  14   7  -8   -0.12    0.89
  -8   8  -8   16.08    2.32
  -7   8  -8   -0.46    0.64
  -6   8  -8   14.23    2.16
  -5   8  -8    2.76    0.72
  -4   8  -8    3.33    0.73
  -3   8  -8    2.27    0.62
  -2   8  -8    0.24    0.42
  -1   8  -8    0.16    0.40
   0   8  -8   12.71    1.32
   1   8  -8    1.22    0.50
   2   8  -8    2.78    0.68
   3   8  -8   12.31    1.33
   4   8  -8    7.58    1.06
   5   8  -8    0.09    0.34
   6   8  -8   10.69    1.04
   7   8  -8    6.12    0.84
   8   8  -8   -0.05    0.42
   9   8  -8   21.33    2.00
  10   8  -8    0.43    0.55
  11   8  -8    0.68    0.89
  -3   9  -8    2.32    0.78
  -2   9  -8    7.11    1.14
  -1   9  -8    0.37    0.53
   0   9  -8    0.73    0.55
   1   9  -8    4.72    0.87
   2   9  -8   10.28    1.26
   3   9  -8    0.09    0.52
   4   9  -8    0.49    0.45
   5   9  -8    6.57    0.89
   6   9  -8    0.79    0.53
  -5  -9  -7    0.45    0.64
  -4  -9  -7    1.94    0.73
  -3  -9  -7   -0.12    0.53
  -2  -9  -7    2.12    0.77
  -1  -9  -7   -0.26    0.66
   0  -9  -7   -0.23    0.49
   1  -9  -7    1.75    0.90
   2  -9  -7    0.87    0.83
   3  -9  -7    2.12    0.71
   4  -9  -7   -0.05    0.51
   5  -9  -7    1.69    0.97
   6  -9  -7   -0.63    0.80
   7  -9  -7    1.53    1.00
  -8  -8  -7    1.69    0.67
  -7  -8  -7    0.26    0.47
  -6  -8  -7   -0.28    0.40
  -5  -8  -7   10.35    1.22
  -4  -8  -7    1.27    0.51
  -3  -8  -7    3.32    0.68
  -2  -8  -7    3.92    0.72
  -1  -8  -7    9.58    0.87
   0  -8  -7    8.97    0.88
   1  -8  -7    0.70    0.48
   2  -8  -7   23.13    1.38
   3  -8  -7    0.19    0.43
   4  -8  -7   -0.27    0.36
   5  -8  -7    7.23    0.72
   6  -8  -7    2.74    0.57
   7  -8  -7    1.32    0.50
   8  -8  -7    5.13    0.93
   9  -8  -7   16.00    1.67
  10  -8  -7    0.19    0.56
  11  -8  -7    0.15    0.61
 -11  -7  -7    7.00    1.46
 -10  -7  -7    0.84    0.75
  -9  -7  -7    4.77    1.18
  -8  -7  -7    5.02    0.86
  -7  -7  -7    0.80    0.38
  -6  -7  -7    2.32    0.59
  -5  -7  -7    0.54    0.40
  -4  -7  -7    3.45    0.67
  -3  -7  -7    4.50    0.74
  -2  -7  -7    0.45    0.36
  -1  -7  -7   -0.20    0.24
   0  -7  -7   -0.12    0.22
   1  -7  -7    2.46    0.38
   2  -7  -7    0.67    0.22
   3  -7  -7   -0.01    0.20
   4  -7  -7    0.05    0.26
   5  -7  -7   -0.41    0.22
   6  -7  -7    0.05    0.26
   7  -7  -7    0.27    0.31
   8  -7  -7   15.67    1.48
   9  -7  -7    5.10    0.88
  10  -7  -7   10.15    1.30
  11  -7  -7    0.21    0.41
  12  -7  -7    0.31    0.53
  13  -7  -7    1.12    0.60
 -13  -6  -7    4.35    1.22
 -12  -6  -7    3.32    1.05
 -11  -6  -7    1.00    0.63
 -10  -6  -7    0.11    0.41
  -9  -6  -7    1.07    0.60
  -8  -6  -7    2.72    0.60
  -7  -6  -7    1.46    0.50
  -6  -6  -7    7.18    0.86
  -5  -6  -7    0.65    0.34
  -4  -6  -7    1.87    0.46
  -3  -6  -7    0.59    0.33
  -2  -6  -7   -0.11    0.19
  -1  -6  -7   33.67    1.14
   0  -6  -7   40.97    1.17
   1  -6  -7    1.68    0.22
   2  -6  -7   17.25    0.67
   3  -6  -7    4.67    0.39
   4  -6  -7   -0.01    0.17
   5  -6  -7    0.05    0.22
   6  -6  -7    1.17    0.34
   7  -6  -7    6.09    0.64
   8  -6  -7    0.38    0.28
   9  -6  -7    3.47    0.54
  10  -6  -7    7.45    0.97
  11  -6  -7    4.65    0.87
  12  -6  -7    0.08    0.38
  13  -6  -7    4.89    0.99
  14  -6  -7    4.40    1.01
  15  -6  -7    0.69    0.63
 -15  -5  -7    2.73    1.01
 -14  -5  -7    2.13    0.93
 -13  -5  -7    0.20    0.59
 -12  -5  -7    2.99    0.87
 -11  -5  -7   16.93    1.98
 -10  -5  -7    0.05    0.40
  -9  -5  -7    3.45    0.86
  -8  -5  -7    6.85    0.97
  -7  -5  -7    1.61    0.38
  -6  -5  -7   18.64    1.01
  -5  -5  -7   11.25    0.81
  -4  -5  -7    0.25    0.20
  -3  -5  -7   12.08    0.80
  -2  -5  -7    0.48    0.20
  -1  -5  -7    2.82    0.32
   0  -5  -7    0.09    0.11
   1  -5  -7    0.54    0.14
   2  -5  -7    7.65    0.40
   3  -5  -7    2.94    0.26
   4  -5  -7    0.29    0.13
   5  -5  -7    6.04    0.45
   6  -5  -7   -0.05    0.17
   7  -5  -7   -0.12    0.18
   8  -5  -7   41.84    1.60
   9  -5  -7    7.01    0.68
  10  -5  -7   -0.08    0.25
  11  -5  -7    0.45    0.41
  12  -5  -7    0.94    0.52
  13  -5  -7    4.61    0.93
  14  -5  -7   -0.19    0.43
  15  -5  -7    3.93    0.88
  16  -5  -7    0.97    0.56
  17  -5  -7    2.90    0.95
 -15  -4  -7    2.20    0.88
 -14  -4  -7    0.44    0.60
 -13  -4  -7    3.58    0.97
 -12  -4  -7    5.85    0.83
 -11  -4  -7    1.85    0.52
 -10  -4  -7    0.85    0.36
  -9  -4  -7    0.22    0.29
  -8  -4  -7    3.16    0.56
  -7  -4  -7    3.19    0.51
  -6  -4  -7   12.65    0.85
  -5  -4  -7    0.00    0.18
  -4  -4  -7    8.13    0.62
  -3  -4  -7    0.19    0.16
  -2  -4  -7    0.21    0.16
  -1  -4  -7   46.59    1.26
   0  -4  -7   35.07    0.84
   1  -4  -7    1.41    0.16
   2  -4  -7   25.27    0.65
   3  -4  -7    2.07    0.20
   4  -4  -7   -0.16    0.09
   5  -4  -7    0.09    0.12
   6  -4  -7   12.78    0.59
   7  -4  -7    9.56    0.69
   8  -4  -7    0.01    0.18
   9  -4  -7    0.58    0.24
  10  -4  -7   17.05    1.09
  11  -4  -7    1.14    0.33
  12  -4  -7    0.34    0.39
  13  -4  -7    1.48    0.60
  14  -4  -7    7.72    1.23
  15  -4  -7    6.53    1.13
  16  -4  -7    0.96    0.61
  17  -4  -7    0.21    0.55
  18  -4  -7    0.50    0.64
 -16  -3  -7    0.72    0.77
 -15  -3  -7   -0.35    0.59
 -14  -3  -7    8.35    0.96
 -13  -3  -7    1.74    0.52
 -12  -3  -7    0.03    0.27
 -11  -3  -7   15.08    1.21
 -10  -3  -7    1.11    0.34
  -9  -3  -7   13.28    1.06
  -8  -3  -7    6.97    0.73
  -7  -3  -7   10.41    0.90
  -6  -3  -7    6.20    0.64
  -5  -3  -7   11.58    0.89
  -4  -3  -7   10.32    0.81
  -3  -3  -7   35.90    1.25
  -2  -3  -7   14.70    0.54
  -1  -3  -7    0.75    0.14
   0  -3  -7    1.71    0.16
   1  -3  -7   11.88    0.39
   2  -3  -7   51.02    1.06
   3  -3  -7   17.20    0.52
   4  -3  -7   14.73    0.48
   5  -3  -7    1.72    0.18
   6  -3  -7    1.75    0.24
   7  -3  -7   13.26    0.73
   8  -3  -7   41.16    1.46
   9  -3  -7   26.49    1.15
  10  -3  -7    0.30    0.20
  11  -3  -7   -0.10    0.20
  12  -3  -7    1.22    0.38
  13  -3  -7    1.79    0.63
  14  -3  -7    0.05    0.37
  15  -3  -7    1.39    0.55
  16  -3  -7    0.52    0.44
  17  -3  -7    0.74    0.48
  18  -3  -7   -0.60    0.40
  19  -3  -7    1.10    0.77
 -17  -2  -7    0.70    0.85
 -16  -2  -7    0.25    0.59
 -15  -2  -7    0.74    0.71
 -14  -2  -7   -0.08    0.47
 -13  -2  -7    1.78    0.47
 -12  -2  -7    2.95    0.57
 -11  -2  -7    1.27    0.39
 -10  -2  -7    0.47    0.27
  -9  -2  -7    0.04    0.20
  -8  -2  -7    1.94    0.41
  -7  -2  -7    1.06    0.30
  -6  -2  -7    7.56    0.70
  -5  -2  -7   -0.10    0.16
  -4  -2  -7    7.42    0.64
  -3  -2  -7   -0.03    0.14
  -2  -2  -7    0.30    0.10
  -1  -2  -7   24.88    0.80
   0  -2  -7   14.07    0.46
   1  -2  -7    4.99    0.29
   2  -2  -7   15.54    0.49
   3  -2  -7    0.18    0.09
   4  -2  -7   -0.09    0.07
   5  -2  -7   -0.02    0.08
   6  -2  -7    9.87    0.53
   7  -2  -7    5.90    0.48
   8  -2  -7   -0.02    0.16
   9  -2  -7   -0.07    0.16
  10  -2  -7    7.59    0.68
  11  -2  -7   -0.05    0.21
  12  -2  -7    0.46    0.30
  13  -2  -7    0.38    0.27
  14  -2  -7    5.74    0.91
  15  -2  -7    4.24    0.82
  16  -2  -7    0.13    0.33
  17  -2  -7    0.67    0.39
  18  -2  -7    0.70    0.49
  19  -2  -7    0.83    1.05
 -17  -1  -7   -0.12    0.62
 -16  -1  -7    0.55    0.69
 -15  -1  -7   -0.17    0.42
 -14  -1  -7    0.36    0.53
 -13  -1  -7    0.11    0.48
 -12  -1  -7    0.06    0.37
 -11  -1  -7    2.97    0.51
 -10  -1  -7    0.63    0.27
  -9  -1  -7    1.56    0.37
  -8  -1  -7    1.08    0.30
  -7  -1  -7    0.99    0.28
  -6  -1  -7    2.75    0.39
  -5  -1  -7    3.40    0.41
  -4  -1  -7    0.61    0.19
  -3  -1  -7    5.79    0.51
  -2  -1  -7    2.76    0.23
  -1  -1  -7    0.11    0.10
   0  -1  -7    0.02    0.14
   1  -1  -7    0.89    0.12
   2  -1  -7    8.81    0.41
   3  -1  -7    5.64    0.41
   4  -1  -7    1.21    0.13
   5  -1  -7    1.94    0.19
   6  -1  -7    0.30    0.14
   7  -1  -7    1.43    0.26
   8  -1  -7   10.27    0.74
   9  -1  -7    3.53    0.46
  10  -1  -7    0.19    0.22
  11  -1  -7   -0.17    0.20
  12  -1  -7   -0.01    0.22
  13  -1  -7    0.89    0.33
  14  -1  -7   -0.16    0.24
  15  -1  -7    0.98    0.46
  16  -1  -7   -0.37    0.34
  17  -1  -7   -0.58    0.32
  18  -1  -7   -0.57    0.63
  19  -1  -7    0.55    0.75
 -17   0  -7    0.02    0.61
 -16   0  -7    0.27    0.46
 -15   0  -7    0.21    0.52
 -14   0  -7   -0.29    0.43
 -13   0  -7   -0.07    0.39
 -12   0  -7    0.20    0.39
 -11   0  -7    0.08    0.37
 -10   0  -7   -0.21    0.19
  -9   0  -7    0.02    0.18
  -8   0  -7    0.03    0.12
  -7   0  -7    0.09    0.11
  -6   0  -7    0.00    0.09
  -5   0  -7   -0.03    0.08
  -4   0  -7   -0.09    0.08
  -3   0  -7    0.02    0.08
  -2   0  -7    0.03    0.10
  -1   0  -7    0.07    0.12
   0   0  -7   -0.25    0.12
   1   0  -7    0.04    0.09
   2   0  -7   -0.01    0.11
   3   0  -7   -0.08    0.12
   4   0  -7    0.05    0.09
   5   0  -7   -0.04    0.09
   6   0  -7    0.22    0.19
   7   0  -7    0.06    0.19
   8   0  -7    0.18    0.22
   9   0  -7    0.00    0.19
  10   0  -7    0.04    0.22
  11   0  -7    0.17    0.24
  12   0  -7   -0.02    0.21
  13   0  -7    0.00    0.25
  14   0  -7   -0.18    0.24
  15   0  -7    0.24    0.30
  16   0  -7   -0.41    0.32
  17   0  -7   -0.57    0.45
  18   0  -7   -0.12    0.72
  19   0  -7   -0.26    0.57
 -17   1  -7    0.08    0.66
 -16   1  -7    0.18    0.55
 -15   1  -7    0.67    0.72
 -14   1  -7    1.21    0.63
 -13   1  -7   -0.31    0.43
 -12   1  -7    0.04    0.43
 -11   1  -7    1.96    0.67
 -10   1  -7    0.48    0.44
  -9   1  -7    1.36    0.31
  -8   1  -7    0.42    0.21
  -7   1  -7    0.77    0.23
  -6   1  -7    3.28    0.39
  -5   1  -7    3.57    0.40
  -4   1  -7    0.55    0.18
  -3   1  -7    7.19    0.52
  -2   1  -7    2.73    0.31
  -1   1  -7    0.21    0.14
   0   1  -7    0.11    0.09
   1   1  -7    1.04    0.15
   2   1  -7    8.21    0.39
   3   1  -7    5.59    0.34
   4   1  -7    1.37    0.16
   5   1  -7    2.49    0.29
   6   1  -7    0.21    0.17
   7   1  -7    1.82    0.32
   8   1  -7   10.40    0.77
   9   1  -7    4.40    0.54
  10   1  -7    0.54    0.26
  11   1  -7    0.10    0.23
  12   1  -7    0.12    0.25
  13   1  -7    0.66    0.34
  14   1  -7    0.06    0.26
  15   1  -7    0.95    0.37
  16   1  -7    0.01    0.43
  17   1  -7    0.68    0.78
  18   1  -7    0.01    0.62
  19   1  -7    1.50    1.04
 -17   2  -7    1.40    0.92
 -16   2  -7   -0.33    0.54
 -15   2  -7    0.79    0.61
 -14   2  -7    0.41    0.48
 -13   2  -7    0.65    0.51
 -12   2  -7    3.48    0.94
 -11   2  -7    1.34    0.65
 -10   2  -7    0.46    0.27
  -9   2  -7    0.11    0.20
  -8   2  -7    1.67    0.35
  -7   2  -7    1.83    0.35
  -6   2  -7    6.99    0.63
  -5   2  -7    0.13    0.17
  -4   2  -7    7.84    0.62
  -3   2  -7    0.09    0.13
  -2   2  -7    0.51    0.18
  -1   2  -7   22.99    1.44
   0   2  -7   14.68    0.67
   1   2  -7    4.22    0.29
   2   2  -7   15.04    0.55
   3   2  -7    0.00    0.08
   4   2  -7   -0.10    0.16
   5   2  -7    0.02    0.12
   6   2  -7    9.56    0.64
   7   2  -7    5.69    0.53
   8   2  -7   -0.03    0.18
   9   2  -7   -0.19    0.20
  10   2  -7    6.40    0.69
  11   2  -7    0.06    0.26
  12   2  -7   -0.09    0.24
  13   2  -7    0.17    0.28
  14   2  -7    5.73    0.72
  15   2  -7    5.73    1.03
  16   2  -7    0.12    0.53
  17   2  -7    0.72    0.61
  18   2  -7   -0.70    0.72
  19   2  -7    0.38    0.75
 -16   3  -7   -0.27    0.56
 -15   3  -7    1.54    0.91
 -14   3  -7    4.69    1.16
 -13   3  -7    2.55    0.84
 -12   3  -7   -0.17    0.39
 -11   3  -7   14.90    1.16
 -10   3  -7    0.77    0.33
  -9   3  -7   13.15    1.03
  -8   3  -7    6.24    0.68
  -7   3  -7   12.95    0.95
  -6   3  -7    6.85    0.67
  -5   3  -7   13.98    0.94
  -4   3  -7   11.28    0.83
  -3   3  -7   36.10    1.46
  -2   3  -7   16.02    0.79
  -1   3  -7    0.97    0.22
   0   3  -7    1.47    0.24
   1   3  -7   11.67    0.49
   2   3  -7   49.75    1.43
   3   3  -7   16.34    0.89
   4   3  -7   15.80    0.96
   5   3  -7    2.42    0.42
   6   3  -7    1.91    0.32
   7   3  -7   12.35    0.82
   8   3  -7   39.63    1.53
   9   3  -7   27.15    1.26
  10   3  -7    0.25    0.26
  11   3  -7    0.08    0.25
  12   3  -7    0.86    0.35
  13   3  -7    0.77    0.38
  14   3  -7   -0.22    0.39
  15   3  -7    2.09    0.71
  16   3  -7   -0.32    0.49
  17   3  -7   -0.01    0.52
  18   3  -7    0.16    0.96
 -16   4  -7   -0.06    0.82
 -15   4  -7    1.75    0.88
 -14   4  -7    1.03    0.70
 -13   4  -7    5.91    1.27
 -12   4  -7    7.23    0.88
 -11   4  -7    1.79    0.47
 -10   4  -7    1.04    0.36
  -9   4  -7    0.39    0.29
  -8   4  -7    3.83    0.59
  -7   4  -7    2.34    0.42
  -6   4  -7   13.05    0.99
  -5   4  -7   -0.12    0.18
  -4   4  -7    8.77    0.76
  -3   4  -7    0.27    0.19
  -2   4  -7    0.48    0.21
  -1   4  -7   45.72    1.73
   0   4  -7   35.18    1.14
   1   4  -7    1.75    0.35
   2   4  -7   24.49    1.21
   3   4  -7    1.71    0.36
   4   4  -7   -0.11    0.19
   5   4  -7    0.07    0.21
   6   4  -7   10.75    0.79
   7   4  -7    9.91    0.77
   8   4  -7   -0.11    0.18
   9   4  -7    0.36    0.26
  10   4  -7   16.44    1.14
  11   4  -7    0.89    0.35
  12   4  -7    0.61    0.36
  13   4  -7    0.81    0.54
  14   4  -7    8.51    1.20
  15   4  -7    4.58    0.98
  16   4  -7    0.41    0.66
  17   4  -7    0.82    0.77
  18   4  -7    1.18    0.84
 -15   5  -7    4.26    1.30
 -14   5  -7    2.78    1.06
 -13   5  -7    0.76    0.48
 -12   5  -7    0.78    0.47
 -11   5  -7   19.14    1.50
 -10   5  -7    0.23    0.34
  -9   5  -7    2.01    0.53
  -8   5  -7    4.29    0.64
  -7   5  -7    1.75    0.43
  -6   5  -7   19.02    1.31
  -5   5  -7   11.06    0.94
  -4   5  -7    0.40    0.25
  -3   5  -7   12.31    0.93
  -2   5  -7    0.55    0.40
  -1   5  -7    2.66    0.69
   0   5  -7    0.04    0.22
   1   5  -7    0.46    0.27
   2   5  -7    7.49    0.76
   3   5  -7    1.93    0.42
   4   5  -7    0.37    0.25
   5   5  -7    5.48    0.68
   6   5  -7   -0.16    0.19
   7   5  -7    0.28    0.23
   8   5  -7   40.53    1.65
   9   5  -7    8.59    0.82
  10   5  -7    0.06    0.25
  11   5  -7    0.61    0.38
  12   5  -7    0.48    0.46
  13   5  -7    2.57    0.79
  14   5  -7    0.16    0.55
  15   5  -7    3.23    0.91
  16   5  -7    0.46    0.69
  17   5  -7    2.51    0.98
 -14   6  -7    2.15    1.04
 -13   6  -7    8.28    1.10
 -12   6  -7    6.97    0.99
 -11   6  -7    0.92    0.52
 -10   6  -7    0.36    0.42
  -9   6  -7    0.52    0.37
  -8   6  -7    3.08    1.03
  -7   6  -7    1.69    0.70
  -6   6  -7    6.31    1.20
  -5   6  -7    0.49    0.47
  -4   6  -7    1.67    0.67
  -3   6  -7    1.14    0.55
  -2   6  -7   -0.04    0.34
  -1   6  -7   32.98    1.68
   0   6  -7   42.07    1.98
   1   6  -7    2.25    0.47
   2   6  -7   16.53    1.30
   3   6  -7    4.29    0.64
   4   6  -7   -0.31    0.22
   5   6  -7   -0.08    0.26
   6   6  -7    0.84    0.32
   7   6  -7    5.91    0.69
   8   6  -7    0.03    0.26
   9   6  -7    2.19    0.48
  10   6  -7    8.14    0.89
  11   6  -7    2.73    0.74
  12   6  -7   -0.13    0.53
  13   6  -7    4.12    0.98
  14   6  -7    6.44    1.25
  15   6  -7    0.86    0.66
  16   6  -7   -0.52    0.99
 -12   7  -7    0.79    0.92
 -11   7  -7    6.14    1.42
 -10   7  -7    0.69    0.70
  -9   7  -7    4.54    1.23
  -8   7  -7    4.51    1.20
  -7   7  -7    0.60    0.62
  -6   7  -7    2.24    0.97
  -5   7  -7    0.72    0.61
  -4   7  -7    2.94    0.94
  -3   7  -7    3.31    0.67
  -2   7  -7    0.30    0.31
  -1   7  -7   -0.25    0.23
   0   7  -7   -0.09    0.31
   1   7  -7    2.73    0.56
   2   7  -7    0.24    0.34
   3   7  -7    0.46    0.35
   4   7  -7    0.47    0.34
   5   7  -7   -0.02    0.32
   6   7  -7    0.44    0.30
   7   7  -7    0.02    0.31
   8   7  -7   14.55    1.18
   9   7  -7    7.47    1.11
  10   7  -7   11.85    1.41
  11   7  -7    0.97    0.62
  12   7  -7    0.23    0.60
  13   7  -7    0.56    0.60
  14   7  -7    0.52    0.96
  -8   8  -7    2.82    1.12
  -7   8  -7   -0.02    0.60
  -6   8  -7   -0.51    0.58
  -5   8  -7   12.14    1.98
  -4   8  -7    0.13    0.45
  -3   8  -7    3.64    0.76
  -2   8  -7    2.75    0.72
  -1   8  -7    8.49    1.13
   0   8  -7    7.17    1.03
   1   8  -7    1.04    0.52
   2   8  -7   17.39    1.60
   3   8  -7    0.15    0.36
   4   8  -7    0.28    0.42
   5   8  -7    5.38    0.74
   6   8  -7    3.67    0.63
   7   8  -7    2.34    0.58
   8   8  -7    4.32    0.93
   9   8  -7   13.43    1.53
  10   8  -7   -0.25    0.49
  11   8  -7    0.09    0.63
  -4   9  -7    1.38    0.63
  -3   9  -7    0.14    0.54
  -2   9  -7    2.32    0.69
  -1   9  -7   -0.19    0.46
   0   9  -7    0.20    0.44
   1   9  -7    1.20    0.58
   2   9  -7    0.99    0.56
   3   9  -7    2.36    0.71
   4   9  -7    0.28    0.44
   5   9  -7   -0.14    0.38
   6   9  -7    0.48    0.54
  -6  -9  -6    2.51    1.22
  -5  -9  -6   -0.18    0.49
  -4  -9  -6   11.92    1.34
  -3  -9  -6    0.66    0.59
  -2  -9  -6    3.66    1.15
  -1  -9  -6   -0.08    0.44
   0  -9  -6    0.19    0.50
   1  -9  -6    1.20    0.60
   2  -9  -6    0.92    0.79
   3  -9  -6    0.93    0.57
   4  -9  -6    0.89    0.58
   5  -9  -6    0.65    0.59
   6  -9  -6    0.06    0.78
   7  -9  -6    0.10    0.75
  -9  -8  -6    0.54    0.55
  -8  -8  -6    0.38    0.44
  -7  -8  -6    3.74    0.80
  -6  -8  -6   13.38    1.43
  -5  -8  -6    5.66    0.91
  -4  -8  -6   -0.10    0.40
  -3  -8  -6   26.65    1.90
  -2  -8  -6    0.18    0.39
  -1  -8  -6    1.26    0.41
   0  -8  -6    8.96    0.88
   1  -8  -6    0.37    0.40
   2  -8  -6   14.94    1.11
   3  -8  -6    9.31    1.10
   4  -8  -6    4.80    0.81
   5  -8  -6    8.33    0.87
   6  -8  -6    1.59    0.49
   7  -8  -6    6.77    0.85
   8  -8  -6    6.65    1.03
   9  -8  -6   -0.11    0.42
  10  -8  -6    0.24    0.45
  11  -8  -6   -0.34    0.52
 -11  -7  -6    1.72    0.76
 -10  -7  -6    5.28    1.16
  -9  -7  -6   18.29    1.66
  -8  -7  -6    1.39    0.54
  -7  -7  -6    5.06    0.85
  -6  -7  -6   16.12    1.42
  -5  -7  -6    1.56    0.48
  -4  -7  -6   28.99    1.93
  -3  -7  -6    4.94    0.75
  -2  -7  -6   10.35    0.88
  -1  -7  -6    0.21    0.26
   0  -7  -6   -0.18    0.23
   1  -7  -6    1.12    0.30
   2  -7  -6    8.20    0.65
   3  -7  -6    1.11    0.28
   4  -7  -6    1.89    0.40
   5  -7  -6    0.78    0.31
   6  -7  -6    0.25    0.27
   7  -7  -6   -0.12    0.27
   8  -7  -6   13.46    1.08
   9  -7  -6   -0.12    0.32
  10  -7  -6   23.79    1.97
  11  -7  -6    0.39    0.49
  12  -7  -6    2.89    0.76
  13  -7  -6    1.09    0.63
 -13  -6  -6    0.15    0.62
 -12  -6  -6    0.43    0.65
 -11  -6  -6    8.40    1.50
 -10  -6  -6    0.96    0.68
  -9  -6  -6   -0.05    0.28
  -8  -6  -6    5.63    0.85
  -7  -6  -6   20.61    1.58
  -6  -6  -6    4.39    0.69
  -5  -6  -6    4.72    0.70
  -4  -6  -6    0.70    0.35
  -3  -6  -6   12.69    1.10
  -2  -6  -6    0.03    0.18
  -1  -6  -6   34.37    1.15
   0  -6  -6   79.82    1.91
   1  -6  -6    1.82    0.23
   2  -6  -6   10.53    0.53
   3  -6  -6   62.45    1.55
   4  -6  -6    1.83    0.30
   5  -6  -6   60.65    2.03
   6  -6  -6    5.68    0.60
   7  -6  -6    8.20    0.74
   8  -6  -6    1.85    0.41
   9  -6  -6    0.95    0.36
  10  -6  -6   13.74    1.08
  11  -6  -6    2.34    0.65
  12  -6  -6   13.69    1.49
  13  -6  -6    0.38    0.49
  14  -6  -6   -0.08    0.51
  15  -6  -6    4.39    1.04
 -15  -5  -6    7.47    1.46
 -14  -5  -6    4.95    1.17
 -13  -5  -6    0.19    0.51
 -12  -5  -6    4.91    1.11
 -11  -5  -6   13.18    1.74
 -10  -5  -6   23.74    2.33
  -9  -5  -6   19.58    2.07
  -8  -5  -6    6.43    0.85
  -7  -5  -6   -0.09    0.18
  -6  -5  -6   75.23    2.40
  -5  -5  -6   13.57    0.89
  -4  -5  -6    9.12    0.69
  -3  -5  -6    8.38    0.62
  -2  -5  -6    0.15    0.15
  -1  -5  -6    6.24    0.47
   0  -5  -6   -0.01    0.10
   1  -5  -6    4.13    0.30
   2  -5  -6    8.36    0.42
   3  -5  -6   34.27    0.85
   4  -5  -6   30.01    0.87
   5  -5  -6    4.78    0.41
   6  -5  -6    9.93    0.73
   7  -5  -6   17.75    0.99
   8  -5  -6   26.76    1.23
   9  -5  -6    3.17    0.48
  10  -5  -6   31.27    1.46
  11  -5  -6   -0.25    0.24
  12  -5  -6    0.05    0.37
  13  -5  -6    2.23    0.73
  14  -5  -6    7.99    1.20
  15  -5  -6    4.90    1.03
  16  -5  -6    6.06    1.07
  17  -5  -6    0.72    0.65
 -16  -4  -6    0.92    0.78
 -15  -4  -6    8.84    1.48
 -14  -4  -6   15.68    1.92
 -13  -4  -6   -0.21    0.46
 -12  -4  -6    3.53    0.66
 -11  -4  -6   13.26    1.18
 -10  -4  -6    0.20    0.28
  -9  -4  -6    6.97    0.80
  -8  -4  -6    8.09    0.82
  -7  -4  -6   44.28    1.63
  -6  -4  -6    8.71    0.70
  -5  -4  -6   56.24    1.86
  -4  -4  -6    0.57    0.20
  -3  -4  -6   59.11    1.85
  -2  -4  -6    1.57    0.25
  -1  -4  -6  134.75    2.82
   0  -4  -6   70.50    1.41
   1  -4  -6   25.73    0.65
   2  -4  -6   91.50    1.78
   3  -4  -6   75.45    1.51
   4  -4  -6    0.16    0.10
   5  -4  -6   35.57    1.04
   6  -4  -6    1.64    0.22
   7  -4  -6   69.54    2.20
   8  -4  -6   26.37    1.10
   9  -4  -6    0.12    0.20
  10  -4  -6    6.36    0.66
  11  -4  -6    0.73    0.30
  12  -4  -6    4.02    0.56
  13  -4  -6    7.39    1.09
  14  -4  -6    0.30    0.47
  15  -4  -6    3.91    0.91
  16  -4  -6    0.21    0.51
  17  -4  -6    0.28    0.51
  18  -4  -6    5.36    1.08
 -15  -3  -6   -0.19    0.44
 -14  -3  -6   14.39    1.27
 -13  -3  -6   13.74    1.21
 -12  -3  -6    0.10    0.29
 -11  -3  -6   38.57    1.84
 -10  -3  -6    0.81    0.29
  -9  -3  -6   61.65    2.55
  -8  -3  -6    0.29    0.24
  -7  -3  -6   20.63    1.11
  -6  -3  -6  117.04    3.98
  -5  -3  -6    0.80    0.22
  -4  -3  -6   77.33    2.28
  -3  -3  -6    6.85    0.52
  -2  -3  -6   19.63    0.64
  -1  -3  -6    4.34    0.30
   0  -3  -6    4.66    0.25
   1  -3  -6   26.87    0.64
   2  -3  -6   50.74    1.05
   3  -3  -6   29.59    0.69
   4  -3  -6    0.33    0.10
   5  -3  -6    4.11    0.28
   6  -3  -6   15.86    0.58
   7  -3  -6    6.71    0.53
   8  -3  -6   82.66    2.45
   9  -3  -6   17.78    0.96
  10  -3  -6  111.82    3.34
  11  -3  -6   27.28    1.31
  12  -3  -6    1.09    0.35
  13  -3  -6    9.38    0.88
  14  -3  -6    1.39    0.54
  15  -3  -6   31.00    2.09
  16  -3  -6    1.21    0.61
  17  -3  -6   -0.20    0.37
  18  -3  -6    8.36    1.19
 -18  -2  -6    3.31    1.24
 -17  -2  -6   10.43    1.77
 -16  -2  -6   13.21    1.90
 -15  -2  -6   19.88    2.27
 -14  -2  -6    3.23    0.94
 -13  -2  -6    0.02    0.28
 -12  -2  -6    4.25    0.63
 -11  -2  -6   10.68    0.97
 -10  -2  -6   12.90    1.04
  -9  -2  -6   47.36    1.93
  -8  -2  -6   10.91    0.87
  -7  -2  -6   78.37    2.73
  -6  -2  -6    6.77    0.63
  -5  -2  -6  240.36    7.32
  -4  -2  -6    0.27    0.17
  -3  -2  -6  165.36    5.19
  -2  -2  -6    8.97    0.40
  -1  -2  -6  386.87    8.07
   0  -2  -6   17.54    0.47
   1  -2  -6  113.62    2.06
   2  -2  -6  348.62    6.01
   3  -2  -6   75.00    1.76
   4  -2  -6   14.68    0.50
   5  -2  -6    0.84    0.15
   6  -2  -6   61.13    1.82
   7  -2  -6  254.64    6.67
   8  -2  -6   93.45    2.77
   9  -2  -6    0.63    0.25
  10  -2  -6    0.21    0.21
  11  -2  -6   28.98    1.34
  12  -2  -6    0.16    0.25
  13  -2  -6   36.83    1.69
  14  -2  -6   -0.08    0.28
  15  -2  -6    2.86    0.58
  16  -2  -6    2.13    0.66
  17  -2  -6    0.71    0.48
  18  -2  -6    3.10    0.74
  19  -2  -6    3.84    1.38
 -18  -1  -6   24.04    2.80
 -17  -1  -6    3.28    1.03
 -16  -1  -6    6.08    1.36
 -15  -1  -6    6.16    1.31
 -14  -1  -6    5.37    1.15
 -13  -1  -6   16.21    1.97
 -12  -1  -6   18.04    1.30
 -11  -1  -6   85.67    3.15
 -10  -1  -6   17.80    1.10
  -9  -1  -6   20.91    1.10
  -8  -1  -6    0.11    0.17
  -7  -1  -6    3.94    0.48
  -6  -1  -6  295.89    9.07
  -5  -1  -6   24.32    1.08
  -4  -1  -6    6.18    0.52
  -3  -1  -6    0.03    0.15
  -2  -1  -6   13.71    0.48
  -1  -1  -6   18.10    0.60
   0  -1  -6   -0.10    0.09
   1  -1  -6    2.71    0.20
   2  -1  -6   16.11    0.56
   3  -1  -6  200.00    4.31
   4  -1  -6   41.93    1.08
   5  -1  -6    6.30    0.34
   6  -1  -6    0.44    0.17
   7  -1  -6  103.41    3.00
   8  -1  -6   83.43    2.58
   9  -1  -6    0.19    0.21
  10  -1  -6  103.02    3.18
  11  -1  -6   26.92    1.31
  12  -1  -6   20.66    1.27
  13  -1  -6   28.35    1.47
  14  -1  -6   33.02    1.61
  15  -1  -6   15.54    1.17
  16  -1  -6    1.46    0.42
  17  -1  -6   14.90    1.47
  18  -1  -6   24.62    3.12
  19  -1  -6    2.66    1.21
 -18   0  -6    1.36    0.98
 -17   0  -6    0.16    0.73
 -16   0  -6    1.75    0.80
 -15   0  -6   23.27    2.59
 -14   0  -6   23.18    2.48
 -13   0  -6   16.08    1.97
 -12   0  -6   -0.47    0.35
 -11   0  -6   89.97    4.96
 -10   0  -6    4.56    0.57
  -9   0  -6   17.90    1.05
  -8   0  -6  118.49    3.12
  -7   0  -6  110.64    2.98
  -6   0  -6   33.41    1.05
  -5   0  -6  155.04    3.93
  -4   0  -6   12.81    0.50
  -3   0  -6   24.62    0.77
  -2   0  -6    2.13    0.23
  -1   0  -6  883.62   25.18
   0   0  -6  191.84    5.82
   1   0  -6  162.19    4.04
   2   0  -6  178.98    4.53
   3   0  -6  308.71    6.65
   4   0  -6   90.79    2.13
   5   0  -6   88.21    2.53
   6   0  -6   43.62    1.49
   7   0  -6  199.45    5.47
   8   0  -6   10.89    0.79
   9   0  -6    0.04    0.14
  10   0  -6   29.63    1.36
  11   0  -6    4.91    0.60
  12   0  -6    0.27    0.27
  13   0  -6    3.56    0.54
  14   0  -6    8.02    0.81
  15   0  -6   24.21    1.48
  16   0  -6    1.86    0.50
  17   0  -6    3.54    1.26
  18   0  -6   18.76    2.72
  19   0  -6   16.64    2.53
 -17   1  -6    6.50    1.40
 -16   1  -6    5.58    1.30
 -15   1  -6    3.95    1.08
 -14   1  -6    4.53    1.07
 -13   1  -6   14.76    1.92
 -12   1  -6   14.80    1.83
 -11   1  -6   80.84    4.61
 -10   1  -6   16.61    0.99
  -9   1  -6   19.82    1.02
  -8   1  -6    0.12    0.13
  -7   1  -6    3.51    0.32
  -6   1  -6  298.44    9.10
  -5   1  -6   23.82    1.03
  -4   1  -6    6.32    0.49
  -3   1  -6    0.34    0.17
  -2   1  -6   14.54    0.65
  -1   1  -6   16.57    0.73
   0   1  -6    0.21    0.13
   1   1  -6    2.23    0.20
   2   1  -6   14.62    0.61
   3   1  -6  198.92    4.99
   4   1  -6   42.65    1.08
   5   1  -6    6.76    0.50
   6   1  -6    0.57    0.20
   7   1  -6  103.52    3.03
   8   1  -6   83.63    2.62
   9   1  -6    0.44    0.22
  10   1  -6  103.87    3.21
  11   1  -6   27.64    1.07
  12   1  -6   18.92    1.26
  13   1  -6   26.60    1.41
  14   1  -6   40.05    1.76
  15   1  -6   16.29    1.19
  16   1  -6    0.97    0.54
  17   1  -6   13.63    1.50
  18   1  -6   27.45    3.25
  19   1  -6    2.16    1.14
 -17   2  -6    9.02    1.72
 -16   2  -6   11.48    1.85
 -15   2  -6   27.81    2.85
 -14   2  -6    4.50    1.10
 -13   2  -6   -0.12    0.44
 -12   2  -6    4.20    1.00
 -11   2  -6   11.75    0.96
 -10   2  -6   12.38    0.97
  -9   2  -6   44.73    1.87
  -8   2  -6   10.24    0.81
  -7   2  -6   74.71    2.69
  -6   2  -6    6.81    0.61
  -5   2  -6  239.13    7.33
  -4   2  -6    0.63    0.21
  -3   2  -6  168.27    5.20
  -2   2  -6    9.95    0.54
  -1   2  -6  390.84   11.41
   0   2  -6   17.18    0.73
   1   2  -6  114.09    2.90
   2   2  -6  352.06    8.51
   3   2  -6   74.77    2.01
   4   2  -6   15.36    0.82
   5   2  -6    1.17    0.21
   6   2  -6   59.20    1.85
   7   2  -6  257.26    6.73
   8   2  -6   93.61    2.83
   9   2  -6    0.15    0.21
  10   2  -6    0.06    0.22
  11   2  -6   28.41    1.42
  12   2  -6    0.66    0.31
  13   2  -6   38.79    1.68
  14   2  -6   -0.02    0.26
  15   2  -6    3.15    0.81
  16   2  -6    1.45    0.69
  17   2  -6    0.79    0.62
  18   2  -6    2.47    0.82
  19   2  -6    1.33    0.86
 -17   3  -6    1.12    1.04
 -16   3  -6    5.91    1.38
 -15   3  -6    0.07    0.49
 -14   3  -6   12.25    1.86
 -13   3  -6   15.43    2.00
 -12   3  -6    0.33    0.32
 -11   3  -6   38.60    1.84
 -10   3  -6    1.30    0.38
  -9   3  -6   65.31    2.57
  -8   3  -6    0.46    0.28
  -7   3  -6   21.77    1.11
  -6   3  -6  119.85    3.97
  -5   3  -6    0.69    0.23
  -4   3  -6   80.48    2.75
  -3   3  -6    8.31    0.63
  -2   3  -6   20.63    1.21
  -1   3  -6    5.42    0.44
   0   3  -6    4.34    0.38
   1   3  -6   27.33    0.86
   2   3  -6   49.14    1.91
   3   3  -6   29.77    1.29
   4   3  -6    0.58    0.24
   5   3  -6    2.82    0.34
   6   3  -6   14.50    0.85
   7   3  -6    6.45    0.57
   8   3  -6   80.01    2.52
   9   3  -6   16.48    1.04
  10   3  -6  112.15    3.42
  11   3  -6   31.91    1.48
  12   3  -6    2.31    0.47
  13   3  -6   10.36    0.94
  14   3  -6    2.54    0.73
  15   3  -6   33.91    2.54
  16   3  -6    1.18    0.63
  17   3  -6    0.12    0.57
  18   3  -6    5.99    1.16
 -16   4  -6    1.09    0.78
 -15   4  -6    6.92    1.42
 -14   4  -6   18.69    2.21
 -13   4  -6   -0.04    0.34
 -12   4  -6    3.08    0.61
 -11   4  -6   14.14    1.22
 -10   4  -6    0.16    0.29
  -9   4  -6    7.60    0.80
  -8   4  -6    8.34    0.83
  -7   4  -6   43.63    1.93
  -6   4  -6    8.43    0.78
  -5   4  -6   60.26    2.26
  -4   4  -6    1.08    0.29
  -3   4  -6   58.40    2.20
  -2   4  -6    2.14    0.33
  -1   4  -6  138.28    4.40
   0   4  -6   66.62    1.94
   1   4  -6   23.13    0.84
   2   4  -6   85.09    3.16
   3   4  -6   73.70    2.74
   4   4  -6    0.05    0.19
   5   4  -6   33.78    1.60
   6   4  -6    1.12    0.28
   7   4  -6   68.85    2.26
   8   4  -6   23.48    1.17
   9   4  -6    0.17    0.23
  10   4  -6    5.21    0.63
  11   4  -6    0.14    0.29
  12   4  -6    3.93    0.82
  13   4  -6    7.96    1.17
  14   4  -6    0.34    0.51
  15   4  -6    6.49    1.13
  16   4  -6    1.50    0.73
  17   4  -6    0.39    0.64
  18   4  -6    5.22    1.22
 -15   5  -6   13.18    1.99
 -14   5  -6    3.53    0.74
 -13   5  -6    0.16    0.41
 -12   5  -6    8.17    1.00
 -11   5  -6   13.28    1.25
 -10   5  -6   26.71    1.60
  -9   5  -6   17.37    1.32
  -8   5  -6    7.28    0.85
  -7   5  -6    0.12    0.26
  -6   5  -6   73.07    2.87
  -5   5  -6   17.02    1.06
  -4   5  -6    7.90    0.75
  -3   5  -6    7.97    0.72
  -2   5  -6   -0.03    0.26
  -1   5  -6    6.22    0.97
   0   5  -6   -0.09    0.17
   1   5  -6    4.38    0.59
   2   5  -6    9.94    0.88
   3   5  -6   27.32    1.49
   4   5  -6   29.16    1.48
   5   5  -6    5.38    0.71
   6   5  -6   10.96    0.83
   7   5  -6   22.37    1.24
   8   5  -6   25.62    1.26
   9   5  -6    3.40    0.52
  10   5  -6   30.24    1.58
  11   5  -6    0.03    0.38
  12   5  -6   -0.33    0.36
  13   5  -6    3.17    0.81
  14   5  -6    6.78    1.16
  15   5  -6    3.93    1.01
  16   5  -6    5.38    1.20
  17   5  -6    1.03    0.84
 -14   6  -6   24.68    1.93
 -13   6  -6    0.21    0.49
 -12   6  -6    1.34    0.55
 -11   6  -6    9.15    1.12
 -10   6  -6    1.89    0.55
  -9   6  -6    0.30    0.37
  -8   6  -6    6.67    0.85
  -7   6  -6   19.97    2.23
  -6   6  -6    7.73    1.32
  -5   6  -6    4.87    1.01
  -4   6  -6    0.58    0.53
  -3   6  -6   10.10    1.54
  -2   6  -6    0.14    0.41
  -1   6  -6   33.37    1.71
   0   6  -6   79.38    3.14
   1   6  -6    2.38    0.51
   2   6  -6   10.30    0.98
   3   6  -6   60.09    2.57
   4   6  -6    2.48    0.51
   5   6  -6   57.19    2.53
   6   6  -6    6.75    0.69
   7   6  -6    6.92    0.73
   8   6  -6    1.24    0.38
   9   6  -6    1.31    0.39
  10   6  -6   12.96    1.36
  11   6  -6    2.22    0.67
  12   6  -6   15.40    1.68
  13   6  -6   -0.44    0.45
  14   6  -6   -0.75    0.50
  15   6  -6    5.71    0.86
  16   6  -6    3.17    1.48
 -12   7  -6    0.18    0.77
 -11   7  -6    1.69    0.97
 -10   7  -6    4.79    1.23
  -9   7  -6   23.05    2.67
  -8   7  -6    2.54    0.95
  -7   7  -6    5.75    1.28
  -6   7  -6   10.83    1.72
  -5   7  -6    1.18    0.74
  -4   7  -6   23.48    2.52
  -3   7  -6    7.85    1.38
  -2   7  -6    7.70    0.96
  -1   7  -6    0.55    0.37
   0   7  -6    0.18    0.33
   1   7  -6    0.19    0.29
   2   7  -6    8.48    0.97
   3   7  -6    1.09    0.42
   4   7  -6    3.89    0.68
   5   7  -6    0.61    0.31
   6   7  -6   -0.43    0.23
   7   7  -6    0.40    0.34
   8   7  -6   12.73    1.07
   9   7  -6   -0.03    0.35
  10   7  -6   20.29    1.85
  11   7  -6    0.03    0.50
  12   7  -6    5.30    1.14
  13   7  -6    1.72    0.80
  14   7  -6   -0.22    0.86
  -9   8  -6    0.83    0.90
  -8   8  -6    0.78    0.75
  -7   8  -6    3.11    1.20
  -6   8  -6   13.98    2.05
  -5   8  -6    7.99    1.58
  -4   8  -6   -0.30    0.37
  -3   8  -6   18.28    1.65
  -2   8  -6    0.47    0.44
  -1   8  -6    0.38    0.38
   0   8  -6   11.55    1.26
   1   8  -6    0.32    0.40
   2   8  -6    9.42    1.14
   3   8  -6    8.62    1.10
   4   8  -6    4.22    0.82
   5   8  -6    7.49    0.82
   6   8  -6    1.75    0.48
   7   8  -6    5.58    1.00
   8   8  -6    6.25    1.03
   9   8  -6    0.34    0.50
  10   8  -6    0.90    0.63
  11   8  -6   -0.53    0.59
  -5   9  -6   -0.07    0.75
  -4   9  -6   12.69    1.47
  -3   9  -6    1.57    0.64
  -2   9  -6    3.35    0.81
  -1   9  -6    0.45    0.52
   0   9  -6    0.32    0.46
   1   9  -6    0.93    0.52
   2   9  -6    2.27    0.67
   3   9  -6   -0.03    0.44
   4   9  -6    0.28    0.42
   5   9  -6   -0.05    0.41
   6   9  -6    0.10    0.47
   7   9  -6    0.67    1.59
  -6  -9  -5    7.41    1.63
  -5  -9  -5    0.20    0.52
  -4  -9  -5   14.47    1.52
  -3  -9  -5    1.84    0.66
  -2  -9  -5    0.23    0.75
  -1  -9  -5    0.40    0.52
   0  -9  -5    0.40    0.48
   1  -9  -5   13.39    1.42
   2  -9  -5    1.52    0.90
   3  -9  -5    0.79    0.54
   4  -9  -5    3.38    0.82
   5  -9  -5    0.08    0.53
   6  -9  -5    1.18    0.64
   7  -9  -5    2.44    1.14
  -9  -8  -5   -0.02    0.49
  -8  -8  -5    3.79    0.80
  -7  -8  -5   11.13    1.90
  -6  -8  -5    3.30    0.70
  -5  -8  -5    3.45    0.71
  -4  -8  -5    2.07    0.56
  -3  -8  -5   11.33    1.20
  -2  -8  -5    0.00    0.30
  -1  -8  -5    0.84    0.40
   0  -8  -5    2.36    0.64
   1  -8  -5    0.80    0.38
   2  -8  -5   18.80    1.27
   3  -8  -5    0.60    0.43
   4  -8  -5   17.41    1.52
   5  -8  -5    0.43    0.43
   6  -8  -5    0.22    0.34
   7  -8  -5   14.85    1.22
   8  -8  -5   -0.01    0.34
   9  -8  -5   -0.06    0.46
  10  -8  -5   -0.64    0.44
  11  -8  -5    0.95    0.64
 -12  -7  -5    0.81    0.69
 -11  -7  -5    0.18    0.68
 -10  -7  -5    0.56    0.47
  -9  -7  -5    2.19    0.64
  -8  -7  -5   -0.14    0.36
  -7  -7  -5    4.48    0.77
  -6  -7  -5    9.24    1.10
  -5  -7  -5    0.14    0.33
  -4  -7  -5    3.99    0.73
  -3  -7  -5    2.09    0.52
  -2  -7  -5    0.87    0.30
  -1  -7  -5    0.30    0.25
   0  -7  -5    0.51    0.28
   1  -7  -5    4.96    0.49
   2  -7  -5    7.68    0.72
   3  -7  -5   10.09    0.72
   4  -7  -5    0.98    0.28
   5  -7  -5   -0.18    0.23
   6  -7  -5    1.04    0.34
   7  -7  -5    0.58    0.35
   8  -7  -5    0.30    0.31
   9  -7  -5    0.38    0.35
  10  -7  -5    8.83    0.96
  11  -7  -5    2.38    0.78
  12  -7  -5    3.34    0.84
  13  -7  -5    1.87    0.68
 -14  -6  -5   -0.17    0.53
 -13  -6  -5    1.04    0.70
 -12  -6  -5    0.10    0.65
 -11  -6  -5    2.31    0.81
 -10  -6  -5    2.72    0.67
  -9  -6  -5   -0.43    0.26
  -8  -6  -5   10.13    1.12
  -7  -6  -5   16.99    1.43
  -6  -6  -5    0.34    0.29
  -5  -6  -5   -0.05    0.24
  -4  -6  -5    0.43    0.33
  -3  -6  -5   -0.18    0.24
  -2  -6  -5    3.15    0.46
  -1  -6  -5   10.90    0.67
   0  -6  -5    2.07    0.27
   1  -6  -5    2.34    0.25
   2  -6  -5    3.46    0.33
   3  -6  -5    2.20    0.28
   4  -6  -5   29.42    1.05
   5  -6  -5   13.31    0.78
   6  -6  -5    0.54    0.27
   7  -6  -5    1.32    0.35
   8  -6  -5    0.50    0.28
   9  -6  -5    1.02    0.37
  10  -6  -5    0.18    0.32
  11  -6  -5   -0.04    0.29
  12  -6  -5    2.56    0.68
  13  -6  -5    8.65    1.23
  14  -6  -5    0.13    0.45
  15  -6  -5    0.72    0.73
 -15  -5  -5    0.39    0.68
 -14  -5  -5   -0.27    0.56
 -13  -5  -5    1.48    0.68
 -12  -5  -5   -0.07    0.50
 -11  -5  -5    0.34    0.41
 -10  -5  -5    0.09    0.42
  -9  -5  -5    0.15    0.32
  -8  -5  -5    7.57    0.88
  -7  -5  -5   13.95    1.21
  -6  -5  -5    7.70    0.64
  -5  -5  -5    0.28    0.21
  -4  -5  -5    4.81    0.49
  -3  -5  -5    0.24    0.21
  -2  -5  -5   30.63    1.00
  -1  -5  -5    0.33    0.15
   0  -5  -5    0.07    0.10
   1  -5  -5    4.52    0.31
   2  -5  -5   17.05    0.54
   3  -5  -5   82.61    1.86
   4  -5  -5    0.07    0.12
   5  -5  -5    2.64    0.31
   6  -5  -5    1.16    0.29
   7  -5  -5    0.43    0.22
   8  -5  -5   11.27    0.82
   9  -5  -5    0.25    0.25
  10  -5  -5   19.38    1.23
  11  -5  -5    2.00    0.42
  12  -5  -5    7.37    0.83
  13  -5  -5    0.14    0.44
  14  -5  -5    0.24    0.50
  15  -5  -5    7.35    1.20
  16  -5  -5   -0.07    0.56
  17  -5  -5    0.72    0.74
 -16  -4  -5    2.86    0.98
 -15  -4  -5    2.29    0.88
 -14  -4  -5    2.05    0.76
 -13  -4  -5    2.22    0.75
 -12  -4  -5    1.39    0.64
 -11  -4  -5    0.48    0.35
 -10  -4  -5   -0.05    0.27
  -9  -4  -5    4.54    0.63
  -8  -4  -5    8.81    0.70
  -7  -4  -5   31.63    1.25
  -6  -4  -5    8.56    0.65
  -5  -4  -5    0.57    0.23
  -4  -4  -5    6.28    0.53
  -3  -4  -5    0.79    0.21
  -2  -4  -5    4.64    0.36
  -1  -4  -5    1.10    0.15
   0  -4  -5    3.16    0.23
   1  -4  -5    0.29    0.10
   2  -4  -5    4.71    0.28
   3  -4  -5    0.01    0.09
   4  -4  -5   12.08    0.47
   5  -4  -5    4.62    0.36
   6  -4  -5    0.76    0.17
   7  -4  -5    2.30    0.32
   8  -4  -5    2.10    0.34
   9  -4  -5    4.62    0.50
  10  -4  -5    0.96    0.31
  11  -4  -5    0.75    0.30
  12  -4  -5    2.98    0.50
  13  -4  -5   14.02    1.12
  14  -4  -5   -0.23    0.38
  15  -4  -5    0.19    0.43
  16  -4  -5    2.34    0.72
  17  -4  -5    0.32    0.54
  18  -4  -5    1.66    0.72
 -15  -3  -5    0.19    0.34
 -14  -3  -5    0.23    0.33
 -13  -3  -5    0.21    0.34
 -12  -3  -5    4.15    0.64
 -11  -3  -5    0.69    0.32
 -10  -3  -5    2.85    0.47
  -9  -3  -5    1.07    0.33
  -8  -3  -5    5.08    0.61
  -7  -3  -5    1.11    0.25
  -6  -3  -5    3.37    0.37
  -5  -3  -5    4.92    0.45
  -4  -3  -5    8.37    0.53
  -3  -3  -5    0.58    0.18
  -2  -3  -5   14.77    0.63
  -1  -3  -5    8.36    0.37
   0  -3  -5    3.10    0.20
   1  -3  -5    2.23    0.17
   2  -3  -5   19.43    0.50
   3  -3  -5   65.74    1.30
   4  -3  -5   14.06    0.45
   5  -3  -5    1.06    0.16
   6  -3  -5    0.35    0.11
   7  -3  -5    0.72    0.22
   8  -3  -5   10.00    0.72
   9  -3  -5   16.78    0.96
  10  -3  -5   19.33    1.06
  11  -3  -5    9.68    0.83
  12  -3  -5    1.22    0.36
  13  -3  -5    0.27    0.29
  14  -3  -5    3.44    0.58
  15  -3  -5   10.26    1.05
  16  -3  -5    1.19    0.54
  17  -3  -5    0.44    0.48
  18  -3  -5    0.07    0.45
 -18  -2  -5   -0.32    0.70
 -17  -2  -5    0.09    0.70
 -16  -2  -5    5.34    1.30
 -15  -2  -5   -0.02    0.47
 -14  -2  -5    1.78    0.73
 -13  -2  -5    0.66    0.35
 -12  -2  -5    1.77    0.43
 -11  -2  -5    1.19    0.35
 -10  -2  -5    0.21    0.23
  -9  -2  -5    4.95    0.58
  -8  -2  -5    1.27    0.32
  -7  -2  -5   16.91    0.90
  -6  -2  -5   10.79    0.79
  -5  -2  -5    0.80    0.23
  -4  -2  -5    8.00    0.52
  -3  -2  -5    0.84    0.18
  -2  -2  -5    3.21    0.19
  -1  -2  -5    0.15    0.08
   0  -2  -5    2.73    0.16
   1  -2  -5    0.13    0.06
   2  -2  -5    3.13    0.18
   3  -2  -5    0.15    0.07
   4  -2  -5    1.16    0.13
   5  -2  -5    0.30    0.13
   6  -2  -5    1.43    0.23
   7  -2  -5    1.04    0.23
   8  -2  -5    3.78    0.44
   9  -2  -5    4.96    0.54
  10  -2  -5    3.48    0.48
  11  -2  -5    1.65    0.37
  12  -2  -5    2.92    0.47
  13  -2  -5    7.09    0.74
  14  -2  -5    0.38    0.31
  15  -2  -5    0.94    0.37
  16  -2  -5    1.25    0.45
  17  -2  -5    0.77    0.51
  18  -2  -5    0.67    0.96
  19  -2  -5   -0.29    0.84
 -18  -1  -5   -0.14    0.57
 -17  -1  -5    0.35    0.70
 -16  -1  -5    0.98    0.68
 -15  -1  -5    0.58    0.57
 -14  -1  -5    0.31    0.46
 -13  -1  -5   -0.23    0.43
 -12  -1  -5    0.15    0.25
 -11  -1  -5   -0.16    0.20
 -10  -1  -5    0.13    0.22
  -9  -1  -5    0.76    0.27
  -8  -1  -5    2.26    0.41
  -7  -1  -5    1.09    0.28
  -6  -1  -5    0.14    0.15
  -5  -1  -5    0.14    0.13
  -4  -1  -5    4.20    0.42
  -3  -1  -5    0.48    0.16
  -2  -1  -5    7.02    0.50
  -1  -1  -5    1.44    0.15
   0  -1  -5    0.08    0.06
   1  -1  -5    4.02    0.23
   2  -1  -5    4.10    0.21
   3  -1  -5   24.22    0.66
   4  -1  -5    1.84    0.17
   5  -1  -5    0.35    0.16
   6  -1  -5    0.09    0.15
   7  -1  -5   -0.01    0.14
   8  -1  -5    3.81    0.48
   9  -1  -5    2.06    0.38
  10  -1  -5    2.44    0.43
  11  -1  -5    0.54    0.29
  12  -1  -5    0.66    0.29
  13  -1  -5   -0.04    0.22
  14  -1  -5    0.14    0.28
  15  -1  -5    0.84    0.33
  16  -1  -5    0.64    0.38
  17  -1  -5    0.17    0.50
  18  -1  -5   -0.25    0.60
  19  -1  -5    1.20    0.91
 -18   0  -5    0.27    0.77
 -17   0  -5    0.68    0.75
 -16   0  -5   -0.43    0.42
 -15   0  -5   -0.25    0.47
 -14   0  -5   -0.11    0.49
 -13   0  -5   -0.18    0.35
 -12   0  -5   -0.02    0.34
 -11   0  -5   -0.25    0.33
 -10   0  -5    0.18    0.18
  -9   0  -5    0.21    0.19
  -8   0  -5   -0.12    0.16
  -7   0  -5   -0.07    0.13
  -6   0  -5   -0.08    0.11
  -5   0  -5   -0.14    0.07
  -4   0  -5   -0.16    0.06
  -3   0  -5    0.04    0.07
  -2   0  -5   -0.19    0.08
  -1   0  -5    0.02    0.10
   0   0  -5   -0.04    0.10
   1   0  -5   -0.11    0.08
   2   0  -5    0.02    0.10
   3   0  -5   -0.03    0.08
   4   0  -5   -0.05    0.10
   5   0  -5   -0.05    0.16
   6   0  -5   -0.15    0.17
   7   0  -5   -0.22    0.15
   8   0  -5   -0.03    0.10
   9   0  -5    0.01    0.12
  10   0  -5    0.21    0.16
  11   0  -5    0.08    0.22
  12   0  -5    0.19    0.24
  13   0  -5   -0.14    0.22
  14   0  -5   -0.18    0.25
  15   0  -5   -0.22    0.25
  16   0  -5   -0.19    0.37
  17   0  -5   -0.13    0.46
  18   0  -5    0.91    0.86
  19   0  -5   -0.43    0.72
 -18   1  -5   -0.36    0.67
 -17   1  -5    0.65    0.72
 -16   1  -5   -0.12    0.58
 -15   1  -5   -0.03    0.56
 -14   1  -5    0.08    0.49
 -13   1  -5    0.74    0.53
 -12   1  -5    0.63    0.47
 -11   1  -5   -0.18    0.35
 -10   1  -5    0.21    0.39
  -9   1  -5    0.48    0.38
  -8   1  -5    2.66    0.36
  -7   1  -5    0.65    0.21
  -6   1  -5    0.44    0.17
  -5   1  -5    0.01    0.11
  -4   1  -5    5.57    0.44
  -3   1  -5    1.16    0.20
  -2   1  -5    8.50    0.45
  -1   1  -5    0.86    0.17
   0   1  -5   -0.05    0.10
   1   1  -5    4.20    0.25
   2   1  -5    4.67    0.26
   3   1  -5   23.45    0.76
   4   1  -5    1.96    0.24
   5   1  -5    0.68    0.19
   6   1  -5    0.14    0.17
   7   1  -5    0.04    0.17
   8   1  -5    4.48    0.52
   9   1  -5    2.01    0.38
  10   1  -5    2.06    0.29
  11   1  -5    0.85    0.24
  12   1  -5   -0.22    0.23
  13   1  -5   -0.23    0.19
  14   1  -5    0.41    0.31
  15   1  -5    0.58    0.49
  16   1  -5    0.45    0.50
  17   1  -5    0.78    0.57
  18   1  -5    0.39    0.55
  19   1  -5    0.38    0.83
 -17   2  -5    1.29    0.82
 -16   2  -5    3.00    0.98
 -15   2  -5    0.67    0.63
 -14   2  -5    3.74    0.95
 -13   2  -5   -0.27    0.29
 -12   2  -5    1.34    0.63
 -11   2  -5    1.90    0.66
 -10   2  -5   -0.30    0.29
  -9   2  -5    4.80    0.90
  -8   2  -5    1.68    0.51
  -7   2  -5   14.49    0.89
  -6   2  -5    9.80    0.74
  -5   2  -5    0.53    0.19
  -4   2  -5    7.09    0.56
  -3   2  -5    1.15    0.22
  -2   2  -5    2.53    0.30
  -1   2  -5    0.25    0.13
   0   2  -5    2.22    0.24
   1   2  -5    0.22    0.08
   2   2  -5    2.96    0.34
   3   2  -5    0.33    0.18
   4   2  -5    1.15    0.27
   5   2  -5    0.69    0.19
   6   2  -5    1.19    0.24
   7   2  -5    1.69    0.30
   8   2  -5    4.15    0.48
   9   2  -5    5.20    0.57
  10   2  -5    5.08    0.59
  11   2  -5    0.85    0.31
  12   2  -5    2.87    0.40
  13   2  -5    8.98    0.82
  14   2  -5   -0.32    0.37
  15   2  -5    1.09    0.62
  16   2  -5    1.78    0.65
  17   2  -5    1.03    0.68
  18   2  -5   -0.01    0.55
  19   2  -5    0.68    0.63
 -17   3  -5    1.71    0.91
 -16   3  -5    0.47    0.65
 -15   3  -5   -0.22    0.43
 -14   3  -5    0.46    0.51
 -13   3  -5    0.06    0.29
 -12   3  -5    4.85    0.68
 -11   3  -5    1.78    0.44
 -10   3  -5    3.28    0.52
  -9   3  -5    1.01    0.32
  -8   3  -5    4.92    0.59
  -7   3  -5    1.32    0.31
  -6   3  -5    4.89    0.55
  -5   3  -5    5.17    0.53
  -4   3  -5    7.62    0.62
  -3   3  -5    0.64    0.21
  -2   3  -5   14.50    0.72
  -1   3  -5    9.33    0.54
   0   3  -5    2.33    0.25
   1   3  -5    2.53    0.21
   2   3  -5   18.75    0.92
   3   3  -5   66.29    2.37
   4   3  -5   13.84    0.86
   5   3  -5    1.54    0.27
   6   3  -5    0.51    0.21
   7   3  -5    0.52    0.23
   8   3  -5   11.69    0.84
   9   3  -5   16.08    1.05
  10   3  -5   16.49    1.11
  11   3  -5    9.00    0.81
  12   3  -5    0.45    0.31
  13   3  -5    0.01    0.27
  14   3  -5    3.93    0.87
  15   3  -5    9.37    1.33
  16   3  -5    4.11    0.96
  17   3  -5    0.27    0.59
  18   3  -5    0.79    0.64
  19   3  -5   -0.99    0.84
 -16   4  -5    4.34    1.27
 -15   4  -5    1.93    0.88
 -14   4  -5    2.86    0.67
 -13   4  -5    1.25    0.47
 -12   4  -5    1.88    0.49
 -11   4  -5    0.11    0.28
 -10   4  -5    0.27    0.30
  -9   4  -5    3.65    0.57
  -8   4  -5    9.03    0.86
  -7   4  -5   33.30    1.53
  -6   4  -5    8.67    0.77
  -5   4  -5    0.41    0.22
  -4   4  -5    8.44    0.69
  -3   4  -5    0.76    0.24
  -2   4  -5    4.52    0.46
  -1   4  -5    1.27    0.24
   0   4  -5    3.76    0.32
   1   4  -5    0.38    0.11
   2   4  -5    5.22    0.57
   3   4  -5    0.15    0.18
   4   4  -5   11.32    0.89
   5   4  -5    4.64    0.47
   6   4  -5    0.71    0.25
   7   4  -5    2.47    0.36
   8   4  -5    2.14    0.39
   9   4  -5    4.23    0.56
  10   4  -5    1.59    0.41
  11   4  -5    0.59    0.29
  12   4  -5    3.57    0.71
  13   4  -5   18.02    1.73
  14   4  -5    0.16    0.36
  15   4  -5    0.26    0.51
  16   4  -5    0.76    0.62
  17   4  -5    0.23    0.62
  18   4  -5    1.47    0.86
 -15   5  -5   -0.02    0.67
 -14   5  -5    1.14    0.50
 -13   5  -5    1.12    0.48
 -12   5  -5    0.19    0.35
 -11   5  -5    0.38    0.37
 -10   5  -5    0.10    0.29
  -9   5  -5    0.31    0.31
  -8   5  -5    6.19    0.76
  -7   5  -5   13.69    1.10
  -6   5  -5    9.27    0.86
  -5   5  -5    0.20    0.23
  -4   5  -5    5.85    0.62
  -3   5  -5    0.34    0.21
  -2   5  -5   28.77    1.30
  -1   5  -5    0.32    0.36
   0   5  -5    0.05    0.19
   1   5  -5    5.30    0.63
   2   5  -5   17.71    1.11
   3   5  -5   81.84    3.08
   4   5  -5   -0.11    0.20
   5   5  -5    2.86    0.41
   6   5  -5    0.69    0.25
   7   5  -5    0.18    0.21
   8   5  -5   10.12    0.83
   9   5  -5    1.35    0.36
  10   5  -5   19.97    1.29
  11   5  -5    1.37    0.52
  12   5  -5    7.78    1.14
  13   5  -5   -0.27    0.47
  14   5  -5    0.24    0.39
  15   5  -5    8.34    1.00
  16   5  -5    0.23    0.71
  17   5  -5    0.66    0.78
 -14   6  -5    0.38    0.53
 -13   6  -5    0.51    0.48
 -12   6  -5    0.16    0.41
 -11   6  -5    2.07    0.57
 -10   6  -5    2.30    0.59
  -9   6  -5    0.28    0.32
  -8   6  -5   17.34    1.36
  -7   6  -5   20.23    1.44
  -6   6  -5    0.54    0.49
  -5   6  -5    0.24    0.44
  -4   6  -5    0.04    0.38
  -3   6  -5    0.27    0.41
  -2   6  -5    2.64    0.73
  -1   6  -5   10.83    1.01
   0   6  -5    2.15    0.49
   1   6  -5    1.95    0.44
   2   6  -5    3.80    0.62
   3   6  -5    1.91    0.47
   4   6  -5   28.78    1.56
   5   6  -5   14.15    0.98
   6   6  -5    0.49    0.26
   7   6  -5    1.76    0.40
   8   6  -5    0.25    0.29
   9   6  -5    1.26    0.42
  10   6  -5    0.65    0.41
  11   6  -5   -0.17    0.42
  12   6  -5    2.23    0.70
  13   6  -5    8.98    1.40
  14   6  -5   -0.26    0.57
  15   6  -5    2.31    0.70
  16   6  -5    0.03    1.11
 -12   7  -5   -0.25    0.62
 -11   7  -5    0.98    0.76
 -10   7  -5    0.17    0.57
  -9   7  -5    4.49    1.18
  -8   7  -5   -0.34    0.41
  -7   7  -5    5.63    1.28
  -6   7  -5    9.22    1.56
  -5   7  -5   -0.01    0.42
  -4   7  -5    4.12    1.06
  -3   7  -5    1.84    0.74
  -2   7  -5    0.59    0.40
  -1   7  -5   -0.12    0.24
   0   7  -5    0.49    0.35
   1   7  -5    4.26    0.71
   2   7  -5    7.24    0.90
   3   7  -5   11.35    1.13
   4   7  -5    0.40    0.34
   5   7  -5    0.13    0.26
   6   7  -5    0.19    0.27
   7   7  -5    0.45    0.33
   8   7  -5   -0.18    0.37
   9   7  -5    0.35    0.43
  10   7  -5    8.17    1.22
  11   7  -5    4.60    0.99
  12   7  -5    4.25    1.01
  13   7  -5    1.38    0.78
  14   7  -5    0.58    1.09
  -9   8  -5   -0.63    0.56
  -8   8  -5    4.75    1.24
  -7   8  -5    9.94    1.76
  -6   8  -5    2.75    1.02
  -5   8  -5    2.82    0.96
  -4   8  -5    1.88    0.60
  -3   8  -5    8.61    1.10
  -2   8  -5    0.21    0.41
  -1   8  -5    0.97    0.50
   0   8  -5    2.64    0.60
   1   8  -5    0.43    0.38
   2   8  -5   19.82    1.66
   3   8  -5    1.19    0.49
   4   8  -5   16.54    1.25
   5   8  -5    0.99    0.40
   6   8  -5    0.22    0.36
   7   8  -5   14.86    1.57
   8   8  -5   -0.67    0.41
   9   8  -5    0.37    0.53
  10   8  -5   -0.02    0.55
  11   8  -5    1.46    0.73
  -5   9  -5   -0.29    0.44
  -4   9  -5   12.76    1.52
  -3   9  -5    3.40    0.79
  -2   9  -5    1.45    0.61
  -1   9  -5    0.16    0.48
   0   9  -5    0.40    0.49
   1   9  -5   12.33    1.44
   2   9  -5    2.31    0.65
   3   9  -5   -0.07    0.37
   4   9  -5    1.90    0.55
   5   9  -5    0.56    0.51
   6   9  -5    0.16    0.57
   7   9  -5    0.30    0.56
  -6  -9  -4   -0.02    0.48
  -5  -9  -4    0.57    0.56
  -4  -9  -4    4.62    0.84
  -3  -9  -4    2.28    0.70
  -2  -9  -4    2.90    0.76
  -1  -9  -4    1.40    0.64
   0  -9  -4    0.46    0.50
   1  -9  -4    7.68    1.05
   2  -9  -4    1.34    0.91
   3  -9  -4    1.79    0.71
   4  -9  -4    0.53    0.54
   5  -9  -4    0.60    0.57
   6  -9  -4    0.59    0.58
   7  -9  -4    0.03    0.57
  -9  -8  -4   -0.24    0.48
  -8  -8  -4    5.74    0.99
  -7  -8  -4    1.99    0.64
  -6  -8  -4    1.97    0.60
  -5  -8  -4    0.08    0.36
  -4  -8  -4    9.39    1.12
  -3  -8  -4    1.67    0.54
  -2  -8  -4   -0.27    0.26
  -1  -8  -4   11.91    1.00
   0  -8  -4   54.88    2.61
   1  -8  -4   31.30    1.59
   2  -8  -4   19.13    1.27
   3  -8  -4    1.41    0.40
   4  -8  -4   30.21    2.04
   5  -8  -4   38.63    2.11
   6  -8  -4   13.54    1.38
   7  -8  -4    9.71    0.97
   8  -8  -4   20.48    1.45
   9  -8  -4    1.05    0.45
  10  -8  -4    3.16    0.83
  11  -8  -4    1.46    0.69
 -12  -7  -4    1.77    0.85
 -11  -7  -4    3.26    0.80
 -10  -7  -4   -0.26    0.43
  -9  -7  -4    0.23    0.36
  -8  -7  -4    0.55    0.40
  -7  -7  -4   38.80    2.08
  -6  -7  -4    0.51    0.38
  -5  -7  -4    1.26    0.46
  -4  -7  -4   15.51    1.36
  -3  -7  -4   10.98    0.90
  -2  -7  -4   15.54    1.06
  -1  -7  -4    0.36    0.25
   0  -7  -4    0.31    0.25
   1  -7  -4   15.87    0.89
   2  -7  -4    2.28    0.42
   3  -7  -4    0.08    0.25
   4  -7  -4    0.99    0.29
   5  -7  -4    1.47    0.37
   6  -7  -4    1.49    0.39
   7  -7  -4    0.16    0.27
   8  -7  -4    4.07    0.62
   9  -7  -4    1.06    0.38
  10  -7  -4    0.49    0.37
  11  -7  -4    0.29    0.41
  12  -7  -4   34.73    3.89
  13  -7  -4    0.84    0.61
 -14  -6  -4    1.05    0.82
 -13  -6  -4    0.36    0.73
 -12  -6  -4    0.13    0.51
 -11  -6  -4    0.59    0.42
 -10  -6  -4   24.88    1.88
  -9  -6  -4   17.47    1.45
  -8  -6  -4   17.73    1.46
  -7  -6  -4   15.23    1.27
  -6  -6  -4    0.42    0.31
  -5  -6  -4    0.30    0.31
  -4  -6  -4   -0.39    0.20
  -3  -6  -4   27.69    1.22
  -2  -6  -4    0.08    0.19
  -1  -6  -4    0.88    0.26
   0  -6  -4   81.46    1.89
   1  -6  -4   24.95    0.93
   2  -6  -4    6.50    0.45
   3  -6  -4    6.16    0.44
   4  -6  -4  161.51    3.89
   5  -6  -4   32.45    1.11
   6  -6  -4   13.58    0.96
   7  -6  -4   -0.12    0.21
   8  -6  -4   56.04    2.07
   9  -6  -4   16.01    1.15
  10  -6  -4    0.01    0.25
  11  -6  -4    4.03    0.59
  12  -6  -4   44.54    2.06
  13  -6  -4    1.16    0.61
  14  -6  -4    5.12    0.97
  15  -6  -4    6.40    1.14
 -16  -5  -4    7.97    1.58
 -15  -5  -4   -0.76    0.43
 -14  -5  -4   12.01    1.79
 -13  -5  -4    0.70    0.61
 -12  -5  -4   -0.07    0.51
 -11  -5  -4   22.16    2.28
 -10  -5  -4    1.08    0.42
  -9  -5  -4    1.94    0.50
  -8  -5  -4    0.14    0.28
  -7  -5  -4  110.54    4.22
  -6  -5  -4    3.47    0.58
  -5  -5  -4   13.01    0.82
  -4  -5  -4   21.96    0.96
  -3  -5  -4   16.48    0.74
  -2  -5  -4   91.68    2.30
  -1  -5  -4    0.96    0.18
   0  -5  -4    4.68    0.31
   1  -5  -4   15.13    0.53
   2  -5  -4    7.61    0.40
   3  -5  -4   20.07    0.65
   4  -5  -4   15.44    0.62
   5  -5  -4    3.95    0.37
   6  -5  -4   -0.12    0.14
   7  -5  -4    2.17    0.38
   8  -5  -4   31.48    1.34
   9  -5  -4   14.67    1.04
  10  -5  -4    5.13    0.64
  11  -5  -4    0.10    0.26
  12  -5  -4   71.17    2.58
  13  -5  -4    1.72    0.49
  14  -5  -4    0.72    0.51
  15  -5  -4    6.16    1.06
  16  -5  -4    2.77    0.83
  17  -5  -4    9.46    1.77
 -16  -4  -4    1.12    0.76
 -15  -4  -4    5.84    1.23
 -14  -4  -4    7.96    1.35
 -13  -4  -4    0.43    0.51
 -12  -4  -4    9.54    1.39
 -11  -4  -4   -0.14    0.22
 -10  -4  -4   41.51    1.91
  -9  -4  -4   11.54    0.81
  -8  -4  -4   14.66    0.93
  -7  -4  -4   -0.18    0.14
  -6  -4  -4    1.29    0.26
  -5  -4  -4    3.77    0.41
  -4  -4  -4    0.14    0.14
  -3  -4  -4   28.14    1.01
  -2  -4  -4   27.80    0.87
  -1  -4  -4   14.26    0.50
   0  -4  -4   66.47    1.36
   1  -4  -4   48.18    1.03
   2  -4  -4   30.50    0.73
   3  -4  -4    8.58    0.42
   4  -4  -4  262.74    5.16
   5  -4  -4   23.28    0.80
   6  -4  -4   18.44    0.72
   7  -4  -4    0.17    0.19
   8  -4  -4   66.30    2.12
   9  -4  -4   16.82    1.02
  10  -4  -4    0.21    0.23
  11  -4  -4    3.95    0.54
  12  -4  -4   84.21    2.90
  13  -4  -4    1.16    0.41
  14  -4  -4    5.47    0.73
  15  -4  -4    4.90    0.77
  16  -4  -4   13.35    1.47
  17  -4  -4    3.18    0.80
  18  -4  -4    1.57    0.79
 -15  -3  -4    6.79    0.91
 -14  -3  -4   20.76    1.54
 -13  -3  -4   12.21    1.12
 -12  -3  -4    8.03    0.88
 -11  -3  -4    7.07    0.79
 -10  -3  -4   27.72    1.38
  -9  -3  -4   14.84    1.07
  -8  -3  -4   37.37    1.31
  -7  -3  -4   54.30    1.76
  -6  -3  -4    1.93    0.29
  -5  -3  -4   22.36    0.90
  -4  -3  -4  111.86    3.12
  -3  -3  -4  185.87    4.75
  -2  -3  -4   16.44    0.59
  -1  -3  -4    8.39    0.33
   0  -3  -4   30.73    0.69
   1  -3  -4  154.88    2.78
   2  -3  -4    0.15    0.07
   3  -3  -4    6.61    0.29
   4  -3  -4   18.84    0.63
   5  -3  -4    2.77    0.24
   6  -3  -4   81.12    1.97
   7  -3  -4   11.16    0.49
   8  -3  -4    0.15    0.18
   9  -3  -4    0.09    0.19
  10  -3  -4    8.25    0.73
  11  -3  -4   25.02    1.25
  12  -3  -4   48.78    1.90
  13  -3  -4    9.22    0.87
  14  -3  -4   27.99    1.54
  15  -3  -4   14.86    1.19
  16  -3  -4   34.85    1.76
  17  -3  -4    0.02    0.42
  18  -3  -4    0.47    0.83
 -18  -2  -4   12.31    1.90
 -17  -2  -4   20.50    2.40
 -16  -2  -4    8.19    1.49
 -15  -2  -4   16.63    2.02
 -14  -2  -4   21.82    1.53
 -13  -2  -4    4.19    0.63
 -12  -2  -4   47.79    2.13
 -11  -2  -4    0.36    0.23
 -10  -2  -4   50.56    2.07
  -9  -2  -4    6.88    0.69
  -8  -2  -4    4.83    0.55
  -7  -2  -4   33.82    1.45
  -6  -2  -4    8.38    0.66
  -5  -2  -4   34.40    1.16
  -4  -2  -4    0.66    0.16
  -3  -2  -4   15.78    0.62
  -2  -2  -4  178.80    4.51
  -1  -2  -4   68.83    1.62
   0  -2  -4   25.00    0.55
   1  -2  -4   71.44    1.33
   2  -2  -4   97.78    1.77
   3  -2  -4   12.59    0.37
   4  -2  -4  352.05    7.46
   5  -2  -4    7.33    0.31
   6  -2  -4   11.64    0.64
   7  -2  -4    0.45    0.18
   8  -2  -4   54.95    1.84
   9  -2  -4   11.91    0.83
  10  -2  -4    0.78    0.29
  11  -2  -4    1.15    0.33
  12  -2  -4  123.42    3.85
  13  -2  -4   24.51    1.32
  14  -2  -4    5.36    0.69
  15  -2  -4    1.75    0.48
  16  -2  -4   19.93    1.38
  17  -2  -4    4.13    0.72
  18  -2  -4    0.17    0.84
  19  -2  -4   -0.18    0.88
 -18  -1  -4   -0.10    0.72
 -17  -1  -4    9.36    1.61
 -16  -1  -4   10.62    1.71
 -15  -1  -4    1.98    0.79
 -14  -1  -4    5.88    1.19
 -13  -1  -4    0.26    0.49
 -12  -1  -4   17.80    1.14
 -11  -1  -4   38.26    1.73
 -10  -1  -4    8.69    0.78
  -9  -1  -4   40.62    1.69
  -8  -1  -4    7.74    0.66
  -7  -1  -4  112.73    3.71
  -6  -1  -4    0.11    0.13
  -5  -1  -4    0.10    0.14
  -4  -1  -4  154.86    4.68
  -3  -1  -4  175.68    5.19
  -2  -1  -4  124.91    3.85
  -1  -1  -4   21.01    0.62
   0  -1  -4    1.06    0.10
   1  -1  -4  124.65    2.41
   2  -1  -4    8.28    0.28
   3  -1  -4   18.33    0.53
   4  -1  -4   98.94    2.60
   5  -1  -4   25.05    0.89
   6  -1  -4   31.32    1.18
   7  -1  -4   40.30    1.45
   8  -1  -4   17.45    0.94
   9  -1  -4   22.63    0.86
  10  -1  -4   46.93    1.81
  11  -1  -4    3.01    0.44
  12  -1  -4   52.06    2.01
  13  -1  -4    7.96    0.77
  14  -1  -4   12.77    1.00
  15  -1  -4   21.74    1.39
  16  -1  -4   17.30    1.26
  17  -1  -4    0.73    0.49
  18  -1  -4    1.86    0.98
  19  -1  -4   -0.70    0.78
 -18   0  -4    5.23    1.30
 -17   0  -4    6.59    1.42
 -16   0  -4   26.31    2.75
 -15   0  -4   46.50    3.29
 -14   0  -4    0.53    0.53
 -13   0  -4   11.99    1.58
 -12   0  -4   15.20    1.79
 -11   0  -4   18.08    1.85
 -10   0  -4  109.26    3.72
  -9   0  -4   99.79    3.37
  -8   0  -4   17.05    0.87
  -7   0  -4    6.90    0.57
  -6   0  -4   26.06    1.09
  -5   0  -4   62.39    2.13
  -4   0  -4  101.89    3.26
  -3   0  -4  127.75    3.90
  -2   0  -4  172.27    4.17
  -1   0  -4    5.57    0.30
   0   0  -4    4.66    0.44
   1   0  -4    2.06    0.18
   2   0  -4    0.12    0.11
   3   0  -4   20.80    0.61
   4   0  -4  765.49   36.83
   5   0  -4   45.87    1.50
   6   0  -4    3.29    0.43
   7   0  -4  123.96    2.97
   8   0  -4  102.06    2.57
   9   0  -4   82.27    2.16
  10   0  -4   67.86    1.88
  11   0  -4    0.10    0.22
  12   0  -4   32.87    1.49
  13   0  -4    6.54    0.69
  14   0  -4   23.30    1.32
  15   0  -4   38.60    1.74
  16   0  -4    9.24    1.24
  17   0  -4    0.75    0.55
  18   0  -4    8.79    1.28
  19   0  -4    1.62    0.99
 -18   1  -4    0.71    0.77
 -17   1  -4    5.06    1.27
 -16   1  -4   11.37    1.76
 -15   1  -4    1.84    0.78
 -14   1  -4    6.65    1.25
 -13   1  -4    0.89    0.54
 -12   1  -4   15.18    1.78
 -11   1  -4   42.21    2.66
 -10   1  -4    7.83    1.12
  -9   1  -4   40.26    2.50
  -8   1  -4    7.88    0.59
  -7   1  -4  110.49    3.62
  -6   1  -4   -0.04    0.11
  -5   1  -4    0.35    0.14
  -4   1  -4  148.66    4.68
  -3   1  -4  170.57    5.19
  -2   1  -4  125.60    3.86
  -1   1  -4   21.20    0.78
   0   1  -4    1.12    0.16
   1   1  -4  124.46    3.12
   2   1  -4    8.72    0.33
   3   1  -4   18.32    0.64
   4   1  -4   96.56    2.62
   5   1  -4   25.08    0.92
   6   1  -4   34.77    1.23
   7   1  -4   41.01    1.46
   8   1  -4   16.39    0.98
   9   1  -4   21.08    1.13
  10   1  -4   50.53    1.51
  11   1  -4    2.96    0.37
  12   1  -4   55.23    2.06
  13   1  -4    6.74    0.74
  14   1  -4   13.63    1.05
  15   1  -4   15.64    1.58
  16   1  -4   17.05    1.70
  17   1  -4    0.50    0.51
  18   1  -4    1.68    0.70
  19   1  -4    2.11    0.79
 -18   2  -4    4.11    1.41
 -17   2  -4   20.95    2.61
 -16   2  -4    7.54    1.47
 -15   2  -4    7.77    1.45
 -14   2  -4   24.89    2.58
 -13   2  -4    6.00    1.16
 -12   2  -4   52.79    3.25
 -11   2  -4    0.26    0.40
 -10   2  -4   53.50    3.09
  -9   2  -4    6.17    0.98
  -8   2  -4    5.85    0.88
  -7   2  -4   33.22    2.11
  -6   2  -4    7.71    0.93
  -5   2  -4   36.17    1.41
  -4   2  -4    0.11    0.15
  -3   2  -4   15.06    0.72
  -2   2  -4  182.49    5.50
  -1   2  -4   73.34    2.29
   0   2  -4   27.26    0.94
   1   2  -4   70.80    1.86
   2   2  -4   97.03    3.17
   3   2  -4   11.64    0.64
   4   2  -4  344.25    8.71
   5   2  -4    6.93    0.50
   6   2  -4   12.70    0.70
   7   2  -4    1.01    0.23
   8   2  -4   56.73    1.90
   9   2  -4    8.55    0.74
  10   2  -4    0.22    0.23
  11   2  -4    1.19    0.27
  12   2  -4  129.90    3.30
  13   2  -4   23.04    1.49
  14   2  -4    6.10    1.03
  15   2  -4    2.11    0.72
  16   2  -4   19.35    1.85
  17   2  -4    4.56    0.95
  18   2  -4    0.13    0.55
  19   2  -4    1.15    0.73
 -17   3  -4    1.58    0.81
 -16   3  -4   -0.03    0.49
 -15   3  -4    6.92    1.36
 -14   3  -4   16.84    2.13
 -13   3  -4    9.12    1.45
 -12   3  -4    8.37    1.32
 -11   3  -4    8.06    1.29
 -10   3  -4   28.57    2.08
  -9   3  -4   16.11    1.63
  -8   3  -4   30.13    2.12
  -7   3  -4   57.44    2.17
  -6   3  -4    2.29    0.33
  -5   3  -4   22.62    1.08
  -4   3  -4  117.95    3.82
  -3   3  -4  185.93    5.80
  -2   3  -4   18.73    0.82
  -1   3  -4    8.37    0.50
   0   3  -4   30.10    1.11
   1   3  -4  156.90    3.91
   2   3  -4    0.44    0.18
   3   3  -4    6.01    0.56
   4   3  -4   21.37    1.01
   5   3  -4    3.18    0.36
   6   3  -4   78.51    2.39
   7   3  -4    9.60    0.71
   8   3  -4    0.21    0.19
   9   3  -4    0.81    0.26
  10   3  -4    8.87    0.77
  11   3  -4   27.39    1.39
  12   3  -4   44.63    2.46
  13   3  -4    9.50    0.90
  14   3  -4   27.38    2.24
  15   3  -4    8.71    1.26
  16   3  -4   32.29    2.54
  17   3  -4   -0.62    0.49
  18   3  -4    1.31    0.71
  19   3  -4    0.15    0.98
 -16   4  -4    0.44    0.72
 -15   4  -4    6.08    1.35
 -14   4  -4    9.85    1.09
 -13   4  -4    1.53    0.49
 -12   4  -4    8.38    0.98
 -11   4  -4    0.28    0.32
 -10   4  -4   43.38    1.96
  -9   4  -4   12.10    0.99
  -8   4  -4   17.26    1.22
  -7   4  -4    0.22    0.22
  -6   4  -4    1.50    0.34
  -5   4  -4    3.10    0.45
  -4   4  -4   -0.16    0.15
  -3   4  -4   26.83    1.19
  -2   4  -4   29.58    1.19
  -1   4  -4   12.86    0.72
   0   4  -4   63.75    2.24
   1   4  -4   47.43    1.39
   2   4  -4   28.86    1.33
   3   4  -4   10.11    0.81
   4   4  -4  255.31    8.33
   5   4  -4   25.12    1.02
   6   4  -4   18.05    0.96
   7   4  -4    0.16    0.19
   8   4  -4   65.58    2.17
   9   4  -4   16.82    1.06
  10   4  -4    0.09    0.24
  11   4  -4    2.96    0.67
  12   4  -4   91.97    3.88
  13   4  -4    1.13    0.41
  14   4  -4    5.92    0.78
  15   4  -4    1.84    0.74
  16   4  -4    9.32    1.42
  17   4  -4    1.86    0.77
  18   4  -4    2.19    0.93
 -15   5  -4    0.40    0.48
 -14   5  -4   13.99    1.38
 -13   5  -4    0.03    0.40
 -12   5  -4    0.08    0.36
 -11   5  -4   22.49    1.67
 -10   5  -4    0.69    0.37
  -9   5  -4    3.99    0.62
  -8   5  -4    0.12    0.26
  -7   5  -4  120.53    4.19
  -6   5  -4    3.97    0.53
  -5   5  -4   14.15    1.06
  -4   5  -4   24.11    1.19
  -3   5  -4   13.24    0.87
  -2   5  -4   90.45    3.17
  -1   5  -4    0.29    0.32
   0   5  -4    5.01    0.61
   1   5  -4   15.13    1.11
   2   5  -4    9.20    0.84
   3   5  -4   19.63    1.20
   4   5  -4   13.88    1.12
   5   5  -4    4.18    0.48
   6   5  -4    0.39    0.22
   7   5  -4    1.73    0.36
   8   5  -4   31.01    1.37
   9   5  -4   13.77    1.05
  10   5  -4    5.31    0.88
  11   5  -4    0.90    0.52
  12   5  -4   67.98    3.33
  13   5  -4    3.97    0.93
  14   5  -4    0.90    0.47
  15   5  -4    8.68    1.06
  16   5  -4    2.49    0.94
  17   5  -4    6.43    1.28
 -14   6  -4    2.89    0.73
 -13   6  -4    1.03    0.51
 -12   6  -4   -0.34    0.35
 -11   6  -4    0.44    0.41
 -10   6  -4   27.87    1.89
  -9   6  -4   16.88    1.38
  -8   6  -4   16.94    1.35
  -7   6  -4   13.92    1.18
  -6   6  -4   -0.04    0.25
  -5   6  -4    0.58    0.48
  -4   6  -4    0.40    0.50
  -3   6  -4   28.15    2.14
  -2   6  -4   -0.49    0.28
  -1   6  -4    1.05    0.35
   0   6  -4   78.05    3.11
   1   6  -4   24.06    1.37
   2   6  -4    4.49    0.62
   3   6  -4    5.49    0.72
   4   6  -4  160.03    5.60
   5   6  -4   29.80    1.31
   6   6  -4   15.34    1.06
   7   6  -4    0.01    0.23
   8   6  -4   56.99    2.11
   9   6  -4   15.64    1.50
  10   6  -4   -0.35    0.34
  11   6  -4    2.18    0.66
  12   6  -4   53.14    2.78
  13   6  -4    1.42    0.72
  14   6  -4    5.14    0.85
  15   6  -4    5.45    0.90
 -12   7  -4   -0.20    0.67
 -11   7  -4    5.23    1.35
 -10   7  -4   -0.03    0.50
  -9   7  -4   -0.36    0.52
  -8   7  -4    0.86    0.70
  -7   7  -4   27.22    3.00
  -6   7  -4    0.77    0.66
  -5   7  -4    1.57    0.74
  -4   7  -4   13.70    1.85
  -3   7  -4   12.00    1.71
  -2   7  -4   15.85    1.35
  -1   7  -4    0.64    0.34
   0   7  -4    0.29    0.34
   1   7  -4   14.49    1.27
   2   7  -4    1.28    0.42
   3   7  -4   -0.03    0.27
   4   7  -4    1.09    0.42
   5   7  -4    0.85    0.33
   6   7  -4    0.66    0.33
   7   7  -4    0.26    0.32
   8   7  -4    3.73    0.80
   9   7  -4    0.87    0.48
  10   7  -4    0.13    0.48
  11   7  -4    0.54    0.56
  12   7  -4   31.20    2.58
  13   7  -4   -0.70    0.57
  14   7  -4    0.55    0.76
  -9   8  -4    0.58    0.74
  -8   8  -4    5.50    1.48
  -7   8  -4    2.62    1.04
  -6   8  -4    4.49    1.13
  -5   8  -4   -0.12    0.55
  -4   8  -4    6.39    0.94
  -3   8  -4    2.67    0.67
  -2   8  -4   -0.16    0.32
  -1   8  -4   10.52    1.21
   0   8  -4   54.75    2.65
   1   8  -4   31.62    1.97
   2   8  -4   14.88    1.42
   3   8  -4    1.58    0.55
   4   8  -4   28.36    1.68
   5   8  -4   37.09    1.77
   6   8  -4   14.60    1.45
   7   8  -4   10.41    1.29
   8   8  -4   16.47    1.68
   9   8  -4    1.45    0.67
  10   8  -4    2.39    0.80
  11   8  -4    0.00    0.63
  -5   9  -4    1.33    0.63
  -4   9  -4    5.82    1.04
  -3   9  -4    2.43    0.71
  -2   9  -4    2.17    0.66
  -1   9  -4    0.41    0.48
   0   9  -4    0.02    0.42
   1   9  -4    4.51    0.91
   2   9  -4    1.52    0.60
   3   9  -4    1.06    0.44
   4   9  -4    0.27    0.39
   5   9  -4    0.75    0.57
   6   9  -4   -0.35    0.42
   7   9  -4   -0.47    0.52
  -7  -9  -3    0.88    1.01
  -6  -9  -3    0.08    0.47
  -5  -9  -3    0.46    0.54
  -4  -9  -3    2.07    0.66
  -3  -9  -3    0.20    0.48
  -2  -9  -3    4.02    0.87
  -1  -9  -3    0.16    0.48
   0  -9  -3    1.14    0.53
   1  -9  -3    1.78    0.65
   2  -9  -3    0.83    0.73
   3  -9  -3    0.69    0.55
   4  -9  -3    2.87    0.76
   5  -9  -3    0.65    0.58
   6  -9  -3   15.50    1.63
   7  -9  -3    4.44    1.01
   8  -9  -3   -1.26    0.64
 -10  -8  -3    0.57    0.56
  -9  -8  -3    0.45    0.48
  -8  -8  -3    1.04    0.59
  -7  -8  -3    0.87    0.55
  -6  -8  -3    0.43    0.43
  -5  -8  -3   -0.45    0.34
  -4  -8  -3   14.08    1.33
  -3  -8  -3    6.50    0.78
  -2  -8  -3   29.94    1.48
  -1  -8  -3    9.14    0.86
   0  -8  -3    1.01    0.44
   1  -8  -3   13.95    1.09
   2  -8  -3    8.26    0.84
   3  -8  -3    0.98    0.38
   4  -8  -3   -0.05    0.37
   5  -8  -3    2.16    0.63
   6  -8  -3    2.41    0.67
   7  -8  -3    0.21    0.45
   8  -8  -3   -0.25    0.35
   9  -8  -3    0.75    0.45
  10  -8  -3    0.23    0.42
  11  -8  -3    4.02    1.00
 -12  -7  -3    4.43    0.86
 -11  -7  -3    1.62    0.58
 -10  -7  -3   -0.33    0.31
  -9  -7  -3    0.06    0.41
  -8  -7  -3    1.08    0.49
  -7  -7  -3    4.75    0.78
  -6  -7  -3    0.17    0.32
  -5  -7  -3    3.59    0.66
  -4  -7  -3    6.46    0.85
  -3  -7  -3    8.08    0.78
  -2  -7  -3    9.65    0.82
  -1  -7  -3    0.60    0.29
   0  -7  -3    1.45    0.29
   1  -7  -3    2.35    0.34
   2  -7  -3    3.18    0.47
   3  -7  -3    0.60    0.29
   4  -7  -3   18.37    1.00
   5  -7  -3    0.61    0.30
   6  -7  -3   19.75    1.24
   7  -7  -3    2.24    0.47
   8  -7  -3    1.31    0.41
   9  -7  -3    5.48    0.73
  10  -7  -3    2.36    0.55
  11  -7  -3    0.15    0.37
  12  -7  -3    3.13    0.64
  13  -7  -3    0.16    0.58
 -14  -6  -3    0.75    0.65
 -13  -6  -3    0.46    0.62
 -12  -6  -3    0.47    0.39
 -11  -6  -3    0.46    0.38
 -10  -6  -3   13.91    1.31
  -9  -6  -3   -0.01    0.33
  -8  -6  -3    6.86    0.90
  -7  -6  -3    1.67    0.47
  -6  -6  -3    0.74    0.40
  -5  -6  -3    7.23    0.86
  -4  -6  -3   36.70    1.79
  -3  -6  -3    6.65    0.63
  -2  -6  -3   11.73    0.83
  -1  -6  -3    2.48    0.39
   0  -6  -3    0.12    0.17
   1  -6  -3    4.12    0.40
   2  -6  -3    1.49    0.23
   3  -6  -3    8.11    0.58
   4  -6  -3   11.32    0.68
   5  -6  -3    3.38    0.37
   6  -6  -3    0.03    0.20
   7  -6  -3   13.98    1.00
   8  -6  -3    0.77    0.31
   9  -6  -3   21.39    1.35
  10  -6  -3    0.59    0.34
  11  -6  -3    0.54    0.33
  12  -6  -3    0.55    0.37
  13  -6  -3   -0.16    0.34
  14  -6  -3   10.67    1.44
  15  -6  -3    0.47    0.53
 -16  -5  -3    3.79    1.14
 -15  -5  -3   -0.42    0.43
 -14  -5  -3    3.03    0.96
 -13  -5  -3    0.39    0.52
 -12  -5  -3    1.58    0.66
 -11  -5  -3   10.06    1.12
 -10  -5  -3    0.46    0.33
  -9  -5  -3    0.76    0.36
  -8  -5  -3    3.06    0.57
  -7  -5  -3   15.99    1.25
  -6  -5  -3    3.89    0.59
  -5  -5  -3    5.67    0.69
  -4  -5  -3   11.39    0.71
  -3  -5  -3   27.50    0.92
  -2  -5  -3   41.36    1.23
  -1  -5  -3    0.91    0.17
   0  -5  -3    0.55    0.15
   1  -5  -3    2.00    0.20
   2  -5  -3   22.25    0.70
   3  -5  -3   18.13    0.62
   4  -5  -3   54.15    1.31
   5  -5  -3    5.01    0.42
   6  -5  -3   12.46    0.69
   7  -5  -3    0.59    0.25
   8  -5  -3   12.67    0.91
   9  -5  -3   30.68    1.34
  10  -5  -3   23.60    1.30
  11  -5  -3    3.12    0.52
  12  -5  -3    2.50    0.50
  13  -5  -3   -0.12    0.32
  14  -5  -3    1.28    0.42
  15  -5  -3    0.83    0.56
  16  -5  -3    1.05    0.59
  17  -5  -3   -0.06    0.69
 -16  -4  -3    2.09    0.83
 -15  -4  -3   13.84    1.83
 -14  -4  -3   -0.16    0.40
 -13  -4  -3   -0.06    0.34
 -12  -4  -3    1.27    0.55
 -11  -4  -3    1.13    0.51
 -10  -4  -3   24.29    1.19
  -9  -4  -3    0.04    0.21
  -8  -4  -3   12.69    0.83
  -7  -4  -3    0.59    0.23
  -6  -4  -3    4.78    0.46
  -5  -4  -3   14.17    0.75
  -4  -4  -3   13.31    0.70
  -3  -4  -3    1.73    0.22
  -2  -4  -3   17.62    0.64
  -1  -4  -3    7.19    0.38
   0  -4  -3    0.72    0.12
   1  -4  -3   16.24    0.48
   2  -4  -3    4.01    0.25
   3  -4  -3    4.65    0.29
   4  -4  -3   11.74    0.45
   5  -4  -3   10.24    0.51
   6  -4  -3    0.73    0.18
   7  -4  -3    8.65    0.54
   8  -4  -3    0.58    0.24
   9  -4  -3   24.98    1.19
  10  -4  -3    0.57    0.27
  11  -4  -3   -0.22    0.20
  12  -4  -3    1.93    0.46
  13  -4  -3    0.17    0.27
  14  -4  -3   16.58    1.28
  15  -4  -3    2.86    0.55
  16  -4  -3    2.09    0.65
  17  -4  -3    7.51    1.16
 -15  -3  -3    0.67    0.56
 -14  -3  -3    9.61    1.00
 -13  -3  -3    2.56    0.54
 -12  -3  -3    0.06    0.27
 -11  -3  -3    5.69    0.69
 -10  -3  -3    5.91    0.66
  -9  -3  -3   -0.04    0.16
  -8  -3  -3   24.53    0.98
  -7  -3  -3   16.45    0.78
  -6  -3  -3   -0.10    0.11
  -5  -3  -3   27.63    0.99
  -4  -3  -3    7.68    0.50
  -3  -3  -3  103.53    2.82
  -2  -3  -3   27.62    0.82
  -1  -3  -3    9.51    0.32
   0  -3  -3    4.67    0.24
   1  -3  -3    5.08    0.25
   2  -3  -3   93.22    1.75
   3  -3  -3    7.29    0.30
   4  -3  -3   74.79    1.85
   5  -3  -3    0.34    0.12
   6  -3  -3   19.74    0.65
   7  -3  -3    5.66    0.33
   8  -3  -3    1.38    0.28
   9  -3  -3   31.44    1.26
  10  -3  -3   13.16    0.93
  11  -3  -3    0.23    0.24
  12  -3  -3    2.64    0.47
  13  -3  -3    0.90    0.36
  14  -3  -3    0.68    0.35
  15  -3  -3    0.61    0.39
  16  -3  -3   -0.33    0.30
  17  -3  -3    0.95    0.48
  18  -3  -3    1.06    1.06
 -18  -2  -3    0.08    0.71
 -17  -2  -3    0.27    0.64
 -16  -2  -3    0.50    0.66
 -15  -2  -3    5.62    1.16
 -14  -2  -3   -0.08    0.30
 -13  -2  -3    0.17    0.26
 -12  -2  -3    0.29    0.24
 -11  -2  -3    0.18    0.25
 -10  -2  -3   11.64    0.92
  -9  -2  -3    0.96    0.27
  -8  -2  -3    7.39    0.66
  -7  -2  -3    0.29    0.16
  -6  -2  -3    3.86    0.37
  -5  -2  -3    9.30    0.54
  -4  -2  -3    1.65    0.22
  -3  -2  -3    0.07    0.10
  -2  -2  -3   11.72    0.48
  -1  -2  -3    6.55    0.23
   0  -2  -3    0.91    0.10
   1  -2  -3   16.49    0.40
   2  -2  -3    3.18    0.17
   3  -2  -3    0.74    0.10
   4  -2  -3    4.84    0.25
   5  -2  -3    6.31    0.30
   6  -2  -3    1.29    0.14
   7  -2  -3    2.91    0.21
   8  -2  -3   -0.01    0.07
   9  -2  -3   10.65    0.79
  10  -2  -3    2.36    0.39
  11  -2  -3    0.19    0.22
  12  -2  -3    2.69    0.46
  13  -2  -3    0.31    0.28
  14  -2  -3    7.04    0.79
  15  -2  -3    1.38    0.43
  16  -2  -3    1.17    0.43
  17  -2  -3    4.96    0.95
  18  -2  -3   -0.09    0.75
  19  -2  -3    0.15    0.75
 -19  -1  -3    0.22    0.91
 -18  -1  -3    0.86    0.81
 -17  -1  -3   -0.28    0.60
 -16  -1  -3    0.66    0.65
 -15  -1  -3    0.24    0.52
 -14  -1  -3    0.52    0.48
 -13  -1  -3    0.11    0.42
 -12  -1  -3   -0.18    0.18
 -11  -1  -3    2.68    0.46
 -10  -1  -3    1.45    0.33
  -9  -1  -3    0.18    0.19
  -8  -1  -3    3.10    0.41
  -7  -1  -3    3.97    0.44
  -6  -1  -3    0.70    0.20
  -5  -1  -3    3.08    0.35
  -4  -1  -3    1.26    0.22
  -3  -1  -3   19.87    0.79
  -2  -1  -3   10.49    0.42
  -1  -1  -3    1.45    0.11
   0  -1  -3    0.06    0.05
   1  -1  -3    0.28    0.07
   2  -1  -3   20.30    0.47
   3  -1  -3    5.29    0.26
   4  -1  -3   18.48    0.68
   5  -1  -3    1.88    0.26
   6  -1  -3    1.47    0.18
   7  -1  -3    1.17    0.16
   8  -1  -3    2.12    0.25
   9  -1  -3    8.86    0.54
  10  -1  -3    3.54    0.50
  11  -1  -3    0.32    0.26
  12  -1  -3    0.63    0.29
  13  -1  -3   -0.03    0.22
  14  -1  -3    0.60    0.31
  15  -1  -3    0.20    0.29
  16  -1  -3    1.00    0.56
  17  -1  -3    0.17    0.50
  18  -1  -3    0.35    0.53
  19  -1  -3    0.16    0.65
 -19   0  -3    0.41    0.97
 -18   0  -3   -0.24    0.57
 -17   0  -3   -0.05    0.49
 -16   0  -3    0.93    0.67
 -15   0  -3    0.19    0.54
 -14   0  -3   -0.06    0.35
 -13   0  -3    0.29    0.45
 -12   0  -3    0.25    0.39
 -11   0  -3    0.17    0.21
 -10   0  -3    0.29    0.21
  -9   0  -3   -0.02    0.16
  -8   0  -3   -0.03    0.13
  -7   0  -3    0.03    0.13
  -6   0  -3   -0.02    0.11
  -5   0  -3   -0.02    0.11
  -4   0  -3   -0.07    0.11
  -3   0  -3   -0.03    0.10
  -2   0  -3   -0.05    0.06
  -1   0  -3    0.07    0.06
   0   0  -3   -0.20    0.06
   1   0  -3   -0.24    0.06
   2   0  -3   -0.11    0.08
   3   0  -3    0.11    0.15
   4   0  -3   -0.10    0.16
   5   0  -3   -0.03    0.16
   6   0  -3   -0.20    0.09
   7   0  -3    0.04    0.11
   8   0  -3    0.02    0.12
   9   0  -3   -0.13    0.14
  10   0  -3   -0.05    0.15
  11   0  -3   -0.33    0.18
  12   0  -3   -0.02    0.23
  13   0  -3   -0.05    0.24
  14   0  -3    0.08    0.24
  15   0  -3    0.25    0.41
  16   0  -3   -0.24    0.38
  17   0  -3   -0.35    0.48
  18   0  -3   -0.41    0.43
  19   0  -3   -0.28    0.54
 -18   1  -3    0.15    0.69
 -17   1  -3   -0.41    0.59
 -16   1  -3    1.06    0.72
 -15   1  -3    0.03    0.43
 -14   1  -3    0.77    0.52
 -13   1  -3    0.15    0.42
 -12   1  -3    0.12    0.36
 -11   1  -3    2.85    0.71
 -10   1  -3    1.35    0.52
  -9   1  -3   -0.09    0.14
  -8   1  -3    3.13    0.36
  -7   1  -3    4.08    0.37
  -6   1  -3    0.43    0.14
  -5   1  -3    3.42    0.30
  -4   1  -3    0.83    0.29
  -3   1  -3   18.93    1.12
  -2   1  -3    9.96    0.47
  -1   1  -3    1.60    0.18
   0   1  -3   -0.15    0.07
   1   1  -3    0.17    0.14
   2   1  -3   22.50    1.17
   3   1  -3    5.19    0.33
   4   1  -3   18.17    0.70
   5   1  -3    1.31    0.22
   6   1  -3    1.74    0.30
   7   1  -3    1.56    0.30
   8   1  -3    1.89    0.36
   9   1  -3    7.63    0.53
  10   1  -3    4.03    0.40
  11   1  -3    0.32    0.18
  12   1  -3    0.65    0.25
  13   1  -3    0.04    0.27
  14   1  -3    1.11    0.53
  15   1  -3    0.42    0.43
  16   1  -3    0.40    0.48
  17   1  -3    0.05    0.49
  18   1  -3    0.15    0.49
  19   1  -3    0.02    0.56
  20   1  -3   -1.15    0.92
 -18   2  -3    0.06    0.62
 -17   2  -3    0.63    0.60
 -16   2  -3   -0.02    0.43
 -15   2  -3    5.14    1.14
 -14   2  -3    0.23    0.53
 -13   2  -3    0.01    0.41
 -12   2  -3    1.31    0.55
 -11   2  -3    0.05    0.33
 -10   2  -3   11.74    1.44
  -9   2  -3    0.72    0.39
  -8   2  -3    7.72    1.02
  -7   2  -3    0.47    0.31
  -6   2  -3    3.92    0.63
  -5   2  -3    7.29    0.86
  -4   2  -3    1.71    0.38
  -3   2  -3    0.13    0.12
  -2   2  -3   11.51    0.57
  -1   2  -3    6.90    0.39
   0   2  -3    1.27    0.16
   1   2  -3   17.06    0.74
   2   2  -3    2.50    0.30
   3   2  -3    0.81    0.21
   4   2  -3    4.65    0.38
   5   2  -3    6.16    0.45
   6   2  -3    0.99    0.23
   7   2  -3    2.53    0.35
   8   2  -3    0.15    0.18
   9   2  -3   12.69    0.87
  10   2  -3    1.55    0.38
  11   2  -3    0.18    0.17
  12   2  -3    1.62    0.31
  13   2  -3   -0.10    0.26
  14   2  -3    5.74    0.99
  15   2  -3    1.70    0.67
  16   2  -3    1.11    0.62
  17   2  -3    4.74    0.96
  18   2  -3   -0.50    0.49
  19   2  -3    1.17    0.72
 -17   3  -3    0.35    0.59
 -16   3  -3    0.41    0.62
 -15   3  -3    0.23    0.55
 -14   3  -3    6.96    1.32
 -13   3  -3    1.94    0.72
 -12   3  -3    0.22    0.45
 -11   3  -3    6.55    1.12
 -10   3  -3    7.46    1.12
  -9   3  -3    0.01    0.30
  -8   3  -3   24.94    1.73
  -7   3  -3   15.83    1.28
  -6   3  -3    0.29    0.25
  -5   3  -3   27.76    1.21
  -4   3  -3    8.08    0.62
  -3   3  -3  108.19    3.47
  -2   3  -3   28.42    1.13
  -1   3  -3   11.31    0.54
   0   3  -3    5.02    0.34
   1   3  -3    5.17    0.28
   2   3  -3   93.62    3.13
   3   3  -3    7.72    0.61
   4   3  -3   83.38    2.24
   5   3  -3    0.34    0.16
   6   3  -3   20.07    0.85
   7   3  -3    4.96    0.48
   8   3  -3    1.79    0.33
   9   3  -3   30.33    1.28
  10   3  -3   13.26    0.95
  11   3  -3   -0.48    0.19
  12   3  -3    3.70    0.57
  13   3  -3    1.04    0.39
  14   3  -3    0.33    0.36
  15   3  -3    0.22    0.50
  16   3  -3    0.04    0.57
  17   3  -3    0.84    0.63
  18   3  -3    0.98    0.66
  19   3  -3    0.19    0.95
 -17   4  -3    1.12    0.90
 -16   4  -3    1.54    0.78
 -15   4  -3   10.94    1.20
 -14   4  -3    0.15    0.36
 -13   4  -3    0.65    0.38
 -12   4  -3    0.25    0.32
 -11   4  -3    0.53    0.34
 -10   4  -3   20.82    1.46
  -9   4  -3    0.72    0.31
  -8   4  -3   14.11    1.08
  -7   4  -3    0.59    0.25
  -6   4  -3    3.50    0.49
  -5   4  -3   13.67    0.95
  -4   4  -3   13.83    0.84
  -3   4  -3    2.28    0.33
  -2   4  -3   19.71    0.90
  -1   4  -3    9.00    0.53
   0   4  -3    0.50    0.16
   1   4  -3   16.88    0.62
   2   4  -3    3.90    0.23
   3   4  -3    4.49    0.52
   4   4  -3   10.42    0.84
   5   4  -3    8.87    0.65
   6   4  -3    0.59    0.22
   7   4  -3    8.60    0.67
   8   4  -3    0.60    0.27
   9   4  -3   27.55    1.36
  10   4  -3    0.24    0.28
  11   4  -3   -0.02    0.32
  12   4  -3    2.95    0.73
  13   4  -3    0.33    0.32
  14   4  -3   15.48    1.28
  15   4  -3    3.26    0.89
  16   4  -3    2.50    0.79
  17   4  -3    6.81    1.25
  18   4  -3   -0.02    0.67
 -16   5  -3    2.23    0.95
 -15   5  -3   -0.32    0.42
 -14   5  -3    4.21    0.83
 -13   5  -3    0.89    0.47
 -12   5  -3    1.85    0.52
 -11   5  -3   14.33    1.23
 -10   5  -3    0.74    0.36
  -9   5  -3    0.38    0.29
  -8   5  -3    2.28    0.46
  -7   5  -3   17.78    1.15
  -6   5  -3    4.94    0.61
  -5   5  -3    5.37    0.62
  -4   5  -3    9.64    0.80
  -3   5  -3   27.19    1.26
  -2   5  -3   43.51    1.71
  -1   5  -3    0.61    0.22
   0   5  -3    0.86    0.29
   1   5  -3    0.90    0.30
   2   5  -3   21.39    1.15
   3   5  -3   20.89    1.11
   4   5  -3   51.44    2.17
   5   5  -3    5.31    0.54
   6   5  -3   12.23    0.84
   7   5  -3    0.33    0.23
   8   5  -3   12.55    0.93
   9   5  -3   27.40    1.79
  10   5  -3   20.73    1.73
  11   5  -3    2.45    0.63
  12   5  -3    1.09    0.53
  13   5  -3    0.55    0.37
  14   5  -3    1.65    0.53
  15   5  -3    1.41    0.54
  16   5  -3    0.37    0.70
  17   5  -3    0.74    0.71
 -15   6  -3    7.60    1.17
 -14   6  -3    0.00    0.46
 -13   6  -3    0.59    0.46
 -12   6  -3    1.43    0.56
 -11   6  -3    0.37    0.35
 -10   6  -3   10.27    1.11
  -9   6  -3   -0.02    0.31
  -8   6  -3    8.89    0.92
  -7   6  -3    1.84    0.45
  -6   6  -3    1.02    0.35
  -5   6  -3    6.49    1.24
  -4   6  -3   33.27    2.51
  -3   6  -3    7.98    1.24
  -2   6  -3   11.55    1.45
  -1   6  -3    2.39    0.49
   0   6  -3    0.14    0.24
   1   6  -3    3.83    0.59
   2   6  -3    1.34    0.38
   3   6  -3    6.38    0.74
   4   6  -3   10.09    0.96
   5   6  -3    2.89    0.41
   6   6  -3    0.06    0.21
   7   6  -3   13.17    1.00
   8   6  -3    0.22    0.35
   9   6  -3   19.14    1.70
  10   6  -3    1.53    0.52
  11   6  -3    1.69    0.64
  12   6  -3    0.22    0.43
  13   6  -3    0.17    0.44
  14   6  -3   11.06    1.15
  15   6  -3    0.42    0.53
 -13   7  -3    1.38    1.03
 -12   7  -3    5.94    1.37
 -11   7  -3   -0.28    0.50
 -10   7  -3   -0.17    0.57
  -9   7  -3    0.98    0.73
  -8   7  -3    1.59    0.82
  -7   7  -3    6.48    1.31
  -6   7  -3    0.61    0.55
  -5   7  -3    3.26    0.92
  -4   7  -3    5.32    1.12
  -3   7  -3    8.25    1.37
  -2   7  -3   10.22    1.06
  -1   7  -3    0.19    0.29
   0   7  -3    0.69    0.39
   1   7  -3    2.78    0.58
   2   7  -3    3.89    0.67
   3   7  -3    0.86    0.36
   4   7  -3   19.08    1.21
   5   7  -3    0.97    0.36
   6   7  -3   20.67    1.30
   7   7  -3    1.33    0.53
   8   7  -3    1.08    0.50
   9   7  -3    5.79    0.99
  10   7  -3    3.05    0.82
  11   7  -3    0.02    0.54
  12   7  -3    3.90    1.02
  13   7  -3    0.01    0.45
  14   7  -3    0.09    0.66
 -10   8  -3    0.32    0.77
  -9   8  -3    2.58    1.06
  -8   8  -3    0.02    0.58
  -7   8  -3    0.61    0.64
  -6   8  -3    1.76    0.83
  -5   8  -3    0.55    0.66
  -4   8  -3   11.59    1.28
  -3   8  -3    5.85    0.90
  -2   8  -3   26.34    1.96
  -1   8  -3    7.30    0.99
   0   8  -3    1.48    0.51
   1   8  -3   13.88    1.37
   2   8  -3    8.06    1.03
   3   8  -3    1.73    0.54
   4   8  -3    0.20    0.29
   5   8  -3    2.60    0.53
   6   8  -3    3.89    0.79
   7   8  -3   -0.01    0.47
   8   8  -3    0.19    0.47
   9   8  -3    1.25    0.63
  10   8  -3   -0.34    0.57
  11   8  -3    5.11    1.05
  -6   9  -3    0.39    0.53
  -5   9  -3    0.54    0.53
  -4   9  -3    1.38    0.66
  -3   9  -3    0.14    0.41
  -2   9  -3    1.86    0.66
  -1   9  -3    0.11    0.47
   0   9  -3    0.43    0.48
   1   9  -3    1.47    0.59
   2   9  -3    0.36    0.43
   3   9  -3    0.14    0.37
   4   9  -3    2.86    0.76
   5   9  -3    1.85    0.64
   6   9  -3   15.46    1.68
   7   9  -3    5.32    1.08
  -7  -9  -2    1.05    0.85
  -6  -9  -2    0.71    0.52
  -5  -9  -2    0.85    0.59
  -4  -9  -2    2.36    0.69
  -3  -9  -2    0.22    0.39
  -2  -9  -2    5.07    0.83
  -1  -9  -2    0.34    0.49
   0  -9  -2    1.78    0.66
   1  -9  -2   -0.18    0.38
   2  -9  -2    1.89    0.50
   3  -9  -2    0.51    0.52
   4  -9  -2    0.89    0.55
   5  -9  -2    0.40    0.50
   6  -9  -2   16.61    1.68
   7  -9  -2    0.70    0.60
   8  -9  -2    0.60    0.85
 -10  -8  -2    0.63    0.55
  -9  -8  -2   13.31    1.46
  -8  -8  -2    0.30    0.44
  -7  -8  -2   17.14    1.60
  -6  -8  -2    3.65    0.75
  -5  -8  -2   11.89    1.26
  -4  -8  -2   24.68    1.53
  -3  -8  -2    0.10    0.30
  -2  -8  -2   27.71    1.57
  -1  -8  -2   16.96    1.21
   0  -8  -2    6.12    0.88
   1  -8  -2   10.28    0.92
   2  -8  -2    1.35    0.41
   3  -8  -2    5.39    0.66
   4  -8  -2    7.40    1.03
   5  -8  -2    0.11    0.40
   6  -8  -2   -0.05    0.39
   7  -8  -2    5.06    0.91
   8  -8  -2   20.84    1.79
   9  -8  -2    0.26    0.40
  10  -8  -2   -0.26    0.38
  11  -8  -2   -0.29    0.41
 -13  -7  -2   17.51    2.57
 -12  -7  -2    2.47    0.70
 -11  -7  -2   11.57    1.32
 -10  -7  -2    4.91    0.89
  -9  -7  -2    0.22    0.38
  -8  -7  -2    7.87    1.04
  -7  -7  -2    0.36    0.36
  -6  -7  -2    1.32    0.52
  -5  -7  -2    4.29    0.73
  -4  -7  -2    0.70    0.29
  -3  -7  -2   -0.07    0.22
  -2  -7  -2   13.28    0.96
  -1  -7  -2    0.03    0.23
   0  -7  -2    1.65    0.33
   1  -7  -2    0.24    0.20
   2  -7  -2    5.24    0.60
   3  -7  -2    2.70    0.46
   4  -7  -2   12.56    0.92
   5  -7  -2    0.26    0.27
   6  -7  -2   53.11    2.02
   7  -7  -2    0.35    0.32
   8  -7  -2    1.20    0.42
   9  -7  -2    7.77    0.83
  10  -7  -2    1.07    0.43
  11  -7  -2    8.33    0.94
  12  -7  -2   -0.04    0.39
  13  -7  -2    2.65    0.67
 -15  -6  -2   13.46    2.81
 -14  -6  -2    0.07    0.60
 -13  -6  -2   16.35    1.51
 -12  -6  -2   -0.08    0.36
 -11  -6  -2    6.93    0.95
 -10  -6  -2    9.25    1.06
  -9  -6  -2   14.61    1.34
  -8  -6  -2    1.96    0.53
  -7  -6  -2    7.81    0.92
  -6  -6  -2    6.01    0.80
  -5  -6  -2   81.03    3.21
  -4  -6  -2  123.84    3.65
  -3  -6  -2    1.81    0.37
  -2  -6  -2   23.55    1.03
  -1  -6  -2   66.15    2.08
   0  -6  -2    0.41    0.17
   1  -6  -2   54.24    1.56
   2  -6  -2    1.21    0.23
   3  -6  -2    0.70    0.22
   4  -6  -2    0.30    0.19
   5  -6  -2    1.47    0.28
   6  -6  -2    7.45    0.70
   7  -6  -2    0.36    0.27
   8  -6  -2   59.46    2.14
   9  -6  -2    9.87    0.91
  10  -6  -2    0.51    0.37
  11  -6  -2    4.70    0.69
  12  -6  -2    2.32    0.52
  13  -6  -2    1.13    0.47
  14  -6  -2    7.92    0.95
  15  -6  -2    2.39    0.82
 -16  -5  -2    3.25    1.04
 -15  -5  -2    6.84    1.34
 -14  -5  -2    1.24    0.70
 -13  -5  -2   15.55    1.92
 -12  -5  -2   15.60    1.34
 -11  -5  -2   -0.11    0.28
 -10  -5  -2   17.34    1.43
  -9  -5  -2    5.40    0.75
  -8  -5  -2    2.32    0.51
  -7  -5  -2    1.20    0.39
  -6  -5  -2    6.39    0.74
  -5  -5  -2    0.56    0.28
  -4  -5  -2    7.64    0.64
  -3  -5  -2   10.65    0.56
  -2  -5  -2   35.29    1.03
  -1  -5  -2   18.06    0.60
   0  -5  -2    2.75    0.25
   1  -5  -2    2.28    0.23
   2  -5  -2    0.18    0.13
   3  -5  -2   17.13    0.62
   4  -5  -2   18.72    0.63
   5  -5  -2    8.00    0.53
   6  -5  -2  103.33    2.58
   7  -5  -2    5.98    0.60
   8  -5  -2    3.43    0.48
   9  -5  -2   10.83    0.89
  10  -5  -2   19.71    1.24
  11  -5  -2    2.35    0.49
  12  -5  -2    2.54    0.54
  13  -5  -2    0.44    0.35
  14  -5  -2    1.07    0.43
  15  -5  -2   -0.12    0.39
  16  -5  -2    8.93    1.28
  17  -5  -2    0.35    0.78
 -17  -4  -2    1.91    1.10
 -16  -4  -2    1.71    0.81
 -15  -4  -2   14.23    1.80
 -14  -4  -2    0.26    0.44
 -13  -4  -2   38.53    2.65
 -12  -4  -2    3.76    0.92
 -11  -4  -2    3.68    0.62
 -10  -4  -2    2.08    0.45
  -9  -4  -2   38.05    1.38
  -8  -4  -2    4.10    0.47
  -7  -4  -2   25.84    1.03
  -6  -4  -2    1.85    0.29
  -5  -4  -2   92.10    2.60
  -4  -4  -2  148.38    3.82
  -3  -4  -2    1.00    0.17
  -2  -4  -2   88.16    2.13
  -1  -4  -2   22.11    0.63
   0  -4  -2    8.41    0.35
   1  -4  -2    6.44    0.31
   2  -4  -2   -0.05    0.08
   3  -4  -2   17.50    0.53
   4  -4  -2   27.82    0.75
   5  -4  -2    1.03    0.19
   6  -4  -2   13.65    0.63
   7  -4  -2    0.91    0.20
   8  -4  -2   64.24    2.14
   9  -4  -2    6.33    0.63
  10  -4  -2   -0.13    0.22
  11  -4  -2    0.56    0.29
  12  -4  -2    2.74    0.53
  13  -4  -2    7.96    0.85
  14  -4  -2    9.87    0.96
  15  -4  -2    0.69    0.41
  16  -4  -2   11.30    1.14
  17  -4  -2   32.25    2.21
 -15  -3  -2   28.08    2.19
 -14  -3  -2    2.89    0.58
 -13  -3  -2   24.01    1.46
 -12  -3  -2    3.40    0.57
 -11  -3  -2    4.89    0.63
 -10  -3  -2   28.95    1.17
  -9  -3  -2    0.18    0.18
  -8  -3  -2   26.87    1.06
  -7  -3  -2   -0.03    0.12
  -6  -3  -2    1.28    0.24
  -5  -3  -2   31.06    1.06
  -4  -3  -2    0.82    0.18
  -3  -3  -2    5.33    0.35
  -2  -3  -2   36.86    0.98
  -1  -3  -2    0.39    0.09
   0  -3  -2   27.63    0.63
   1  -3  -2    0.11    0.07
   2  -3  -2   59.64    1.19
   3  -3  -2    1.10    0.13
   4  -3  -2  141.63    2.85
   5  -3  -2   15.71    0.56
   6  -3  -2  164.82    3.74
   7  -3  -2    0.90    0.17
   8  -3  -2    0.34    0.20
   9  -3  -2   41.12    1.53
  10  -3  -2    0.12    0.19
  11  -3  -2    4.99    0.58
  12  -3  -2    0.35    0.28
  13  -3  -2    0.72    0.34
  14  -3  -2    0.19    0.31
  15  -3  -2    5.14    0.70
  16  -3  -2    6.74    0.85
  17  -3  -2   -0.35    0.53
  18  -3  -2    4.52    1.53
 -18  -2  -2    5.18    1.48
 -17  -2  -2    0.72    0.69
 -16  -2  -2    3.86    1.06
 -15  -2  -2    4.11    1.04
 -14  -2  -2    3.88    0.64
 -13  -2  -2   59.83    2.41
 -12  -2  -2   12.12    1.01
 -11  -2  -2    0.47    0.25
 -10  -2  -2    4.88    0.59
  -9  -2  -2   64.93    2.40
  -8  -2  -2    5.85    0.50
  -7  -2  -2   51.99    1.61
  -6  -2  -2   67.80    1.93
  -5  -2  -2   60.70    1.78
  -4  -2  -2  116.24    3.01
  -3  -2  -2   -0.01    0.08
  -2  -2  -2  232.27    5.08
  -1  -2  -2   11.06    0.30
   0  -2  -2   55.74    1.05
   1  -2  -2   55.97    1.06
   2  -2  -2    1.90    0.14
   3  -2  -2   80.18    1.84
   4  -2  -2  180.33    3.92
   5  -2  -2    0.13    0.08
   6  -2  -2  200.81    4.36
   7  -2  -2    0.03    0.09
   8  -2  -2   49.51    1.37
   9  -2  -2    1.34    0.32
  10  -2  -2    0.25    0.24
  11  -2  -2   27.21    1.33
  12  -2  -2    2.00    0.42
  13  -2  -2   27.45    1.45
  14  -2  -2   14.98    1.17
  15  -2  -2   -0.22    0.27
  16  -2  -2   29.60    2.32
  17  -2  -2   64.49    3.29
  18  -2  -2    0.06    0.58
  19  -2  -2   10.32    2.14
 -19  -1  -2    2.51    1.16
 -18  -1  -2   -0.89    0.56
 -17  -1  -2    0.55    0.66
 -16  -1  -2   15.18    1.96
 -15  -1  -2   33.90    2.65
 -14  -1  -2   -0.38    0.43
 -13  -1  -2    2.86    0.51
 -12  -1  -2   19.95    1.19
 -11  -1  -2   15.30    1.04
 -10  -1  -2   67.16    2.50
  -9  -1  -2   16.48    0.86
  -8  -1  -2    0.10    0.17
  -7  -1  -2    1.31    0.25
  -6  -1  -2   55.73    1.98
  -5  -1  -2    9.64    0.54
  -4  -1  -2   52.08    1.46
  -3  -1  -2   42.97    1.20
  -2  -1  -2   74.05    1.85
  -1  -1  -2   70.32    1.55
   0  -1  -2    0.00    0.04
   1  -1  -2    1.52    0.09
   2  -1  -2   -0.22    0.06
   3  -1  -2   35.97    1.04
   4  -1  -2  122.15    3.25
   5  -1  -2    2.96    0.21
   6  -1  -2  151.99    3.52
   7  -1  -2   30.98    0.95
   8  -1  -2   33.23    1.17
   9  -1  -2   38.82    1.25
  10  -1  -2   33.24    1.48
  11  -1  -2    2.01    0.41
  12  -1  -2   12.76    0.99
  13  -1  -2   20.22    1.17
  14  -1  -2    0.09    0.28
  15  -1  -2    0.44    0.29
  16  -1  -2   33.48    2.46
  17  -1  -2    0.95    0.54
  18  -1  -2    1.76    0.74
  19  -1  -2   11.63    1.48
 -19   0  -2    2.27    1.02
 -18   0  -2   27.29    2.94
 -17   0  -2    2.72    0.91
 -16   0  -2    0.54    0.63
 -15   0  -2   29.94    2.44
 -14   0  -2   11.38    1.56
 -13   0  -2   13.19    1.63
 -12   0  -2   -0.18    0.32
 -11   0  -2    1.56    0.34
 -10   0  -2    6.63    0.62
  -9   0  -2   21.65    1.02
  -8   0  -2   61.08    2.16
  -7   0  -2    0.75    0.20
  -6   0  -2  106.98    3.44
  -5   0  -2  268.00    7.87
  -4   0  -2  387.71   11.05
  -3   0  -2    5.49    0.33
  -2   0  -2   35.21    1.16
  -1   0  -2    1.10    0.14
   0   0  -2    4.48    0.22
   1   0  -2    0.25    0.07
   2   0  -2   27.10    1.06
   3   0  -2    0.11    0.14
   4   0  -2   66.56    1.99
   5   0  -2    6.39    0.36
   6   0  -2   91.58    2.28
   7   0  -2   39.51    1.17
   8   0  -2  144.01    3.43
   9   0  -2   69.79    1.88
  10   0  -2    0.53    0.19
  11   0  -2    3.30    0.37
  12   0  -2   47.67    1.83
  13   0  -2   22.18    1.24
  14   0  -2   94.64    3.28
  15   0  -2    1.36    0.51
  16   0  -2   15.11    1.59
  17   0  -2   32.46    2.42
  18   0  -2    1.27    0.64
  19   0  -2   29.03    2.41
  20   0  -2    0.83    1.00
 -18   1  -2    0.36    0.72
 -17   1  -2    2.07    0.92
 -16   1  -2   16.32    2.06
 -15   1  -2   36.72    2.76
 -14   1  -2   -0.29    0.43
 -13   1  -2    2.59    0.76
 -12   1  -2   20.94    2.08
 -11   1  -2    8.46    1.25
 -10   1  -2   69.57    3.74
  -9   1  -2   15.53    0.82
  -8   1  -2    0.33    0.15
  -7   1  -2    1.43    0.23
  -6   1  -2   56.58    1.89
  -5   1  -2   10.06    0.46
  -4   1  -2   51.68    1.68
  -2   1  -2   69.42    3.16
  -1   1  -2   70.52    2.19
   0   1  -2    0.06    0.07
   1   1  -2    2.47    0.21
   2   1  -2   -0.14    0.14
   3   1  -2   35.18    1.05
   4   1  -2  121.92    3.27
   5   1  -2    3.61    0.36
   6   1  -2  156.14    4.18
   7   1  -2   30.32    1.19
   8   1  -2   32.92    1.06
   9   1  -2   41.30    1.26
  10   1  -2   35.60    1.18
  11   1  -2    2.35    0.32
  12   1  -2   14.50    0.84
  13   1  -2   20.99    1.74
  14   1  -2    0.67    0.45
  15   1  -2    0.25    0.42
  16   1  -2   40.59    2.45
  17   1  -2   -0.01    0.46
  18   1  -2    1.32    0.65
  19   1  -2   10.89    1.41
 -18   2  -2    5.52    1.38
 -17   2  -2    0.09    0.58
 -16   2  -2    5.04    1.21
 -15   2  -2    4.05    1.04
 -14   2  -2    2.60    0.82
 -13   2  -2   61.38    3.64
 -12   2  -2   13.14    1.61
 -11   2  -2    1.10    0.56
 -10   2  -2    7.00    1.05
  -9   2  -2   62.00    3.50
  -8   2  -2    4.56    0.81
  -7   2  -2   56.08    2.85
  -6   2  -2   66.38    3.34
  -5   2  -2   64.58    3.11
  -4   2  -2  108.93    5.16
  -3   2  -2    0.10    0.15
  -2   2  -2  237.11    7.18
  -1   2  -2   11.12    0.50
   0   2  -2   54.88    1.77
   1   2  -2   55.10    1.88
   2   2  -2    1.65    0.27
   3   2  -2   80.15    2.17
   4   2  -2  175.18    4.58
   5   2  -2    0.25    0.14
   6   2  -2  191.64    5.13
   7   2  -2    0.08    0.16
   8   2  -2   53.06    1.76
   9   2  -2    0.81    0.27
  10   2  -2    0.13    0.18
  11   2  -2   28.93    1.14
  12   2  -2    1.75    0.40
  13   2  -2   26.58    1.44
  14   2  -2   15.46    1.63
  15   2  -2   -0.18    0.46
  16   2  -2   33.98    2.52
  17   2  -2   62.70    3.26
  18   2  -2    0.26    0.58
  19   2  -2    8.62    1.34
 -17   3  -2    8.29    1.60
 -16   3  -2    0.64    0.58
 -15   3  -2   26.18    2.80
 -14   3  -2    4.35    1.03
 -13   3  -2   22.98    2.37
 -12   3  -2    4.10    0.90
 -11   3  -2    6.38    1.07
 -10   3  -2   30.39    2.12
  -9   3  -2    0.26    0.37
  -8   3  -2   25.28    1.82
  -7   3  -2    0.22    0.30
  -6   3  -2    2.53    0.54
  -5   3  -2   30.34    1.80
  -4   3  -2    1.13    0.33
  -3   3  -2    6.58    0.52
  -2   3  -2   35.60    1.35
  -1   3  -2    0.32    0.13
   0   3  -2   26.77    1.03
   1   3  -2    0.07    0.08
   2   3  -2   60.81    1.64
   3   3  -2    1.69    0.28
   4   3  -2  145.27    3.80
   5   3  -2   15.66    0.71
   6   3  -2  167.95    4.42
   7   3  -2    0.54    0.21
   8   3  -2    0.85    0.27
   9   3  -2   43.28    1.58
  10   3  -2    0.36    0.26
  11   3  -2    6.33    0.69
  12   3  -2   -0.04    0.26
  13   3  -2    1.16    0.41
  14   3  -2   -0.08    0.30
  15   3  -2    4.22    0.97
  16   3  -2    5.00    1.07
  17   3  -2   -0.37    0.52
  18   3  -2    3.85    1.02
  19   3  -2    8.49    1.96
 -17   4  -2    0.86    0.76
 -16   4  -2    1.88    0.92
 -15   4  -2   15.40    2.05
 -14   4  -2   -0.42    0.50
 -13   4  -2   34.63    2.66
 -12   4  -2    2.83    0.82
 -11   4  -2    2.81    0.77
 -10   4  -2    1.73    0.63
  -9   4  -2   31.21    2.25
  -8   4  -2    4.69    0.81
  -7   4  -2   25.60    1.75
  -6   4  -2    1.64    0.35
  -5   4  -2   90.52    3.21
  -4   4  -2  144.97    4.71
  -3   4  -2    1.18    0.27
  -2   4  -2   89.51    2.99
  -1   4  -2   21.19    0.94
   0   4  -2    8.49    0.51
   1   4  -2    6.19    0.36
   2   4  -2    0.20    0.10
   3   4  -2   16.00    0.60
   4   4  -2   27.62    1.05
   5   4  -2    1.36    0.26
   6   4  -2   14.60    0.87
   7   4  -2    0.57    0.25
   8   4  -2   66.64    2.17
   9   4  -2    6.02    0.63
  10   4  -2   -0.17    0.27
  11   4  -2    0.50    0.44
  12   4  -2    1.87    0.48
  13   4  -2    7.94    0.88
  14   4  -2   12.80    1.16
  15   4  -2    0.56    0.47
  16   4  -2    7.90    1.29
  17   4  -2   34.14    2.79
  18   4  -2   -0.98    0.61
 -16   5  -2    2.39    0.75
 -15   5  -2    6.84    0.98
 -14   5  -2    2.06    0.64
 -13   5  -2   13.58    1.32
 -12   5  -2   12.61    1.20
 -11   5  -2    0.02    0.32
 -10   5  -2   17.66    1.40
  -9   5  -2    7.03    0.82
  -8   5  -2    1.75    0.44
  -7   5  -2    0.77    0.32
  -6   5  -2    8.58    0.81
  -5   5  -2    0.40    0.25
  -4   5  -2    8.26    0.73
  -3   5  -2   11.60    0.86
  -2   5  -2   31.34    1.38
  -1   5  -2   16.68    0.91
   0   5  -2    3.09    0.46
   1   5  -2    2.09    0.40
   2   5  -2    0.04    0.17
   3   5  -2   15.66    1.13
   4   5  -2   19.48    0.93
   5   5  -2    6.35    0.60
   6   5  -2  101.66    3.05
   7   5  -2    6.02    0.61
   8   5  -2    2.34    0.42
   9   5  -2   11.21    1.22
  10   5  -2   19.01    1.65
  11   5  -2    2.63    0.70
  12   5  -2    2.76    0.75
  13   5  -2    0.66    0.44
  14   5  -2    1.29    0.53
  15   5  -2    0.49    0.45
  16   5  -2    9.73    1.58
  17   5  -2   -0.29    0.69
 -15   6  -2   14.83    1.51
 -14   6  -2    0.26    0.47
 -13   6  -2   13.99    1.44
 -12   6  -2   -0.30    0.37
 -11   6  -2    6.09    0.89
 -10   6  -2   11.85    1.19
  -9   6  -2   16.90    1.39
  -8   6  -2    2.19    0.50
  -7   6  -2    7.40    0.87
  -6   6  -2    5.42    0.67
  -5   6  -2   85.18    3.14
  -4   6  -2  117.96    6.33
  -3   6  -2    1.93    0.63
  -2   6  -2   21.83    2.12
  -1   6  -2   62.37    2.60
   0   6  -2    0.52    0.29
   1   6  -2   55.91    2.30
   2   6  -2    0.26    0.23
   3   6  -2    0.86    0.33
   4   6  -2    0.11    0.20
   5   6  -2    1.85    0.38
   6   6  -2    8.37    0.75
   7   6  -2    1.11    0.37
   8   6  -2   58.09    2.71
   9   6  -2    9.15    1.14
  10   6  -2    0.39    0.47
  11   6  -2    5.43    0.96
  12   6  -2    1.14    0.59
  13   6  -2    1.32    0.51
  14   6  -2    6.94    0.95
  15   6  -2    2.63    0.75
 -13   7  -2   15.14    1.53
 -12   7  -2    2.83    0.81
 -11   7  -2   13.35    2.04
 -10   7  -2    5.69    1.30
  -9   7  -2   -0.18    0.44
  -8   7  -2    9.04    1.59
  -7   7  -2    0.07    0.48
  -6   7  -2    2.52    0.83
  -5   7  -2    1.69    0.80
  -4   7  -2    1.17    0.59
  -3   7  -2    0.70    0.51
  -2   7  -2   12.53    1.20
  -1   7  -2    0.18    0.28
   0   7  -2    1.75    0.48
   1   7  -2    0.22    0.30
   2   7  -2    5.45    0.76
   3   7  -2    1.90    0.51
   4   7  -2   11.18    0.93
   5   7  -2    0.11    0.27
   6   7  -2   51.09    2.51
   7   7  -2    0.25    0.35
   8   7  -2    0.95    0.48
   9   7  -2    2.99    0.71
  10   7  -2    1.23    0.63
  11   7  -2    9.26    1.33
  12   7  -2    0.08    0.55
  13   7  -2    1.00    0.56
  14   7  -2    0.68    0.77
 -10   8  -2    0.11    0.73
  -9   8  -2    9.14    1.78
  -8   8  -2    0.57    0.66
  -7   8  -2   16.94    2.32
  -6   8  -2    6.06    1.39
  -5   8  -2   10.29    1.74
  -4   8  -2   24.38    2.66
  -3   8  -2   -0.17    0.33
  -2   8  -2   27.16    1.96
  -1   8  -2   22.36    1.74
   0   8  -2    4.33    0.75
   1   8  -2    8.73    1.07
   2   8  -2    1.50    0.52
   3   8  -2    6.06    0.72
   4   8  -2    5.85    0.73
   5   8  -2    0.17    0.39
   6   8  -2   -0.16    0.39
   7   8  -2    3.64    0.83
   8   8  -2   17.33    1.71
   9   8  -2    1.05    0.62
  10   8  -2   -0.57    0.51
  11   8  -2    0.06    0.66
  -6   9  -2    0.23    0.53
  -5   9  -2    1.19    0.57
  -4   9  -2    2.45    0.73
  -3   9  -2    1.00    0.62
  -2   9  -2    3.56    0.81
  -1   9  -2   -0.61    0.34
   0   9  -2    1.31    0.61
   1   9  -2   -0.03    0.43
   2   9  -2    1.69    0.50
   3   9  -2    0.54    0.50
   4   9  -2    2.05    0.66
   5   9  -2    0.36    0.45
   6   9  -2   16.53    1.69
   7   9  -2    0.69    0.59
  -7  -9  -1    0.68    0.82
  -6  -9  -1    0.65    0.60
  -5  -9  -1    0.20    0.50
  -4  -9  -1    0.00    0.43
  -3  -9  -1   -0.19    0.41
  -2  -9  -1    3.80    0.81
  -1  -9  -1   -0.18    0.40
   0  -9  -1    0.91    0.54
   1  -9  -1    1.45    0.61
   2  -9  -1    0.27    0.40
   3  -9  -1    5.24    0.95
   4  -9  -1    1.44    0.67
   5  -9  -1    0.31    0.51
   6  -9  -1    7.11    1.16
   7  -9  -1    1.01    0.66
   8  -9  -1   11.02    2.07
 -10  -8  -1    0.62    0.54
  -9  -8  -1    0.69    0.46
  -8  -8  -1    9.81    1.21
  -7  -8  -1    3.83    0.74
  -6  -8  -1    0.83    0.47
  -5  -8  -1    2.30    0.61
  -4  -8  -1    2.06    0.49
  -3  -8  -1    1.32    0.38
  -2  -8  -1   10.36    0.92
  -1  -8  -1    0.04    0.32
   0  -8  -1   18.02    1.52
   1  -8  -1    0.22    0.30
   2  -8  -1   13.66    1.08
   3  -8  -1   17.94    1.26
   4  -8  -1    0.28    0.42
   5  -8  -1    1.02    0.54
   6  -8  -1   19.42    1.68
   7  -8  -1    3.39    0.78
   8  -8  -1   -0.02    0.45
   9  -8  -1    1.59    0.65
  10  -8  -1    2.62    0.82
  11  -8  -1    0.25    0.77
 -13  -7  -1    5.08    0.93
 -12  -7  -1    0.19    0.47
 -11  -7  -1    2.01    0.67
 -10  -7  -1   11.19    1.27
  -9  -7  -1   -0.29    0.36
  -8  -7  -1   14.26    1.33
  -7  -7  -1    0.23    0.34
  -6  -7  -1    0.04    0.32
  -5  -7  -1    0.29    0.31
  -4  -7  -1    4.67    0.60
  -3  -7  -1    0.12    0.25
  -2  -7  -1   -0.32    0.16
  -1  -7  -1    0.11    0.19
   0  -7  -1    0.23    0.21
   1  -7  -1    0.11    0.22
   2  -7  -1    0.42    0.28
   3  -7  -1    0.00    0.21
   4  -7  -1    5.14    0.61
   5  -7  -1    1.46    0.48
   6  -7  -1   10.09    0.89
   7  -7  -1    0.21    0.27
   8  -7  -1    4.61    0.66
   9  -7  -1    6.46    0.78
  10  -7  -1    4.22    0.66
  11  -7  -1    4.59    0.73
  12  -7  -1   -0.43    0.31
  13  -7  -1    0.58    0.49
 -15  -6  -1    1.79    0.76
 -14  -6  -1    1.36    0.75
 -13  -6  -1    0.44    0.48
 -12  -6  -1    5.58    0.87
 -11  -6  -1    0.68    0.40
 -10  -6  -1   -0.29    0.27
  -9  -6  -1   -0.11    0.30
  -8  -6  -1    2.12    0.53
  -7  -6  -1    0.21    0.28
  -6  -6  -1    0.98    0.38
  -5  -6  -1   22.45    1.39
  -4  -6  -1    0.96    0.31
  -3  -6  -1    0.81    0.26
  -2  -6  -1    0.57    0.25
  -1  -6  -1    0.94    0.27
   0  -6  -1   57.85    1.67
   1  -6  -1   10.59    0.64
   2  -6  -1    8.71    0.57
   3  -6  -1    6.62    0.53
   4  -6  -1    3.81    0.41
   5  -6  -1    0.31    0.19
   6  -6  -1    4.24    0.55
   7  -6  -1    3.75    0.56
   8  -6  -1   -0.11    0.23
   9  -6  -1    0.69    0.33
  10  -6  -1   -0.36    0.24
  11  -6  -1    5.84    0.74
  12  -6  -1    0.27    0.29
  13  -6  -1    0.85    0.43
  14  -6  -1   15.32    1.34
  15  -6  -1    5.29    0.80
 -16  -5  -1    3.89    1.06
 -15  -5  -1    0.60    0.60
 -14  -5  -1    2.24    0.86
 -13  -5  -1    7.66    0.95
 -12  -5  -1   -0.19    0.27
 -11  -5  -1    8.97    1.01
 -10  -5  -1   17.66    1.42
  -9  -5  -1   14.61    1.24
  -8  -5  -1   12.95    1.14
  -7  -5  -1    3.74    0.59
  -6  -5  -1    3.60    0.55
  -5  -5  -1    1.22    0.35
  -4  -5  -1   60.27    1.98
  -3  -5  -1    3.64    0.41
  -2  -5  -1   20.50    0.71
  -1  -5  -1    0.75    0.15
   0  -5  -1    0.22    0.14
   1  -5  -1   16.55    0.65
   2  -5  -1    2.54    0.25
   3  -5  -1   23.73    0.72
   4  -5  -1    4.88    0.41
   5  -5  -1    1.71    0.26
   6  -5  -1   19.62    0.85
   7  -5  -1    1.57    0.33
   8  -5  -1   -0.23    0.18
   9  -5  -1    5.87    0.66
  10  -5  -1    4.19    0.58
  11  -5  -1    1.23    0.37
  12  -5  -1    1.38    0.43
  13  -5  -1   -0.05    0.32
  14  -5  -1   -0.16    0.35
  15  -5  -1    0.58    0.45
  16  -5  -1    3.30    0.66
  17  -5  -1   -0.32    0.59
 -17  -4  -1    0.23    0.68
 -16  -4  -1    5.25    1.20
 -15  -4  -1    0.30    0.52
 -14  -4  -1    5.09    1.06
 -13  -4  -1    2.21    0.72
 -12  -4  -1    4.01    0.66
 -11  -4  -1    6.42    0.81
 -10  -4  -1    0.30    0.27
  -9  -4  -1    6.95    0.76
  -8  -4  -1    5.33    0.51
  -7  -4  -1    0.29    0.18
  -6  -4  -1    0.20    0.16
  -5  -4  -1   11.50    0.61
  -4  -4  -1    4.29    0.34
  -3  -4  -1    0.14    0.10
  -2  -4  -1    3.08    0.26
  -1  -4  -1    1.64    0.18
   0  -4  -1   38.51    0.92
   1  -4  -1    5.18    0.32
   2  -4  -1    8.09    0.38
   3  -4  -1   22.90    0.66
   4  -4  -1    2.78    0.23
   5  -4  -1    5.58    0.41
   6  -4  -1   11.02    0.55
   7  -4  -1    3.89    0.34
   8  -4  -1    4.84    0.51
   9  -4  -1   -0.04    0.19
  10  -4  -1    1.72    0.36
  11  -4  -1    4.25    0.58
  12  -4  -1    0.24    0.27
  13  -4  -1    4.99    0.69
  14  -4  -1    9.71    1.00
  15  -4  -1   14.30    1.22
  16  -4  -1   -0.15    0.36
  17  -4  -1    0.85    0.76
 -16  -3  -1    1.03    0.61
 -15  -3  -1    1.15    0.56
 -14  -3  -1    1.14    0.44
 -13  -3  -1    9.92    0.97
 -12  -3  -1    1.71    0.42
 -11  -3  -1    1.32    0.29
 -10  -3  -1   22.61    0.99
  -9  -3  -1   10.77    0.73
  -8  -3  -1   20.68    0.88
  -7  -3  -1    1.37    0.25
  -6  -3  -1    0.77    0.18
  -5  -3  -1    3.23    0.32
  -4  -3  -1   48.01    1.44
  -3  -3  -1    0.38    0.11
  -2  -3  -1   33.62    0.91
  -1  -3  -1   10.54    0.36
   0  -3  -1    0.49    0.09
   1  -3  -1   13.04    0.36
   2  -3  -1    0.96    0.12
   3  -3  -1   65.38    1.40
   4  -3  -1   32.34    0.78
   5  -3  -1   15.58    0.55
   6  -3  -1    7.16    0.41
   7  -3  -1   -0.04    0.10
   8  -3  -1    8.63    0.48
   9  -3  -1   14.65    0.95
  10  -3  -1   22.23    1.17
  11  -3  -1   -0.30    0.17
  12  -3  -1    0.20    0.25
  13  -3  -1    2.24    0.48
  14  -3  -1   -0.12    0.28
  15  -3  -1    1.63    0.46
  16  -3  -1    1.77    0.50
  17  -3  -1    0.84    0.61
  18  -3  -1   -0.34    0.55
 -17  -2  -1    0.41    0.62
 -16  -2  -1    7.04    1.38
 -15  -2  -1   -0.21    0.49
 -14  -2  -1    2.93    0.55
 -13  -2  -1    1.15    0.39
 -12  -2  -1    0.80    0.30
 -11  -2  -1    7.60    0.73
 -10  -2  -1    0.67    0.28
  -9  -2  -1    4.58    0.45
  -8  -2  -1    2.43    0.28
  -7  -2  -1   -0.10    0.10
  -6  -2  -1    1.16    0.21
  -5  -2  -1    1.84    0.23
  -4  -2  -1    3.44    0.29
  -3  -2  -1    0.10    0.09
  -2  -2  -1    3.59    0.23
  -1  -2  -1    1.10    0.12
   0  -2  -1   11.36    0.30
   1  -2  -1    1.93    0.13
   2  -2  -1    3.54    0.18
   3  -2  -1   21.86    0.52
   4  -2  -1    0.70    0.13
   5  -2  -1    7.74    0.37
   6  -2  -1    6.00    0.33
   7  -2  -1    1.01    0.16
   8  -2  -1    7.78    0.42
   9  -2  -1    0.19    0.14
  10  -2  -1    4.58    0.55
  11  -2  -1    1.24    0.35
  12  -2  -1    0.77    0.31
  13  -2  -1    3.48    0.55
  14  -2  -1    2.92    0.54
  15  -2  -1    9.15    0.92
  16  -2  -1    0.53    0.57
  17  -2  -1   -0.39    0.46
  18  -2  -1   -0.12    0.57
  19  -2  -1    0.48    0.68
 -19  -1  -1   -0.48    0.77
 -18  -1  -1    1.04    0.73
 -17  -1  -1    0.98    0.73
 -16  -1  -1   -0.01    0.53
 -15  -1  -1   -0.30    0.42
 -14  -1  -1   -0.39    0.37
 -13  -1  -1    1.43    0.39
 -12  -1  -1    0.10    0.21
 -11  -1  -1    0.63    0.26
 -10  -1  -1    2.85    0.43
  -9  -1  -1    5.03    0.53
  -8  -1  -1    2.11    0.32
  -7  -1  -1    1.29    0.23
  -6  -1  -1   -0.10    0.09
  -5  -1  -1    0.48    0.14
  -4  -1  -1   17.95    0.64
  -3  -1  -1    0.05    0.09
  -2  -1  -1   13.58    0.45
  -1  -1  -1    0.48    0.09
   0  -1  -1   -0.01    0.04
   1  -1  -1    7.35    0.20
   2  -1  -1    0.02    0.06
   3  -1  -1   19.17    0.53
   4  -1  -1    4.00    0.23
   5  -1  -1    1.44    0.18
   6  -1  -1    1.48    0.20
   7  -1  -1    0.48    0.17
   8  -1  -1    1.48    0.26
   9  -1  -1    1.61    0.29
  10  -1  -1    2.11    0.32
  11  -1  -1   -0.08    0.18
  12  -1  -1    0.12    0.25
  13  -1  -1    0.07    0.24
  14  -1  -1   -0.01    0.24
  15  -1  -1    0.01    0.40
  16  -1  -1    0.92    0.56
  17  -1  -1    0.07    0.44
  18  -1  -1    0.22    0.55
  19  -1  -1    0.16    0.55
 -19   0  -1    0.99    0.91
 -18   0  -1   -0.80    0.59
 -17   0  -1    0.78    0.69
 -16   0  -1   -0.08    0.41
 -15   0  -1   -0.36    0.39
 -14   0  -1   -0.25    0.38
 -13   0  -1   -0.09    0.32
 -12   0  -1    0.05    0.29
 -11   0  -1   -0.09    0.17
 -10   0  -1   -0.11    0.15
  -9   0  -1    0.23    0.17
  -8   0  -1   -0.01    0.13
  -7   0  -1    0.15    0.13
  -6   0  -1    0.04    0.11
  -5   0  -1   -0.09    0.08
  -4   0  -1   -0.18    0.08
  -3   0  -1   -0.01    0.09
  -2   0  -1   -0.45    0.08
  -1   0  -1   -0.03    0.04
   1   0  -1   -0.09    0.07
   2   0  -1    0.01    0.10
   3   0  -1   -0.19    0.08
   4   0  -1   -0.12    0.10
   5   0  -1    0.07    0.11
   6   0  -1   -0.16    0.10
   7   0  -1   -0.11    0.11
   8   0  -1    0.11    0.14
   9   0  -1   -0.08    0.14
  10   0  -1   -0.04    0.15
  11   0  -1    0.07    0.18
  12   0  -1   -0.15    0.19
  13   0  -1    0.36    0.25
  14   0  -1   -0.38    0.28
  15   0  -1    0.49    0.46
  16   0  -1    0.34    0.48
  17   0  -1    0.43    0.52
  18   0  -1   -0.17    0.49
  19   0  -1    0.21    0.64
 -19   1  -1    0.51    0.79
 -18   1  -1    0.76    0.72
 -17   1  -1    0.14    0.58
 -16   1  -1   -0.21    0.40
 -15   1  -1    0.96    0.66
 -14   1  -1    0.38    0.45
 -13   1  -1    2.08    0.66
 -12   1  -1    0.20    0.41
 -11   1  -1    0.47    0.40
 -10   1  -1    2.55    0.62
  -9   1  -1    4.78    0.45
  -8   1  -1    2.69    0.30
  -7   1  -1    1.23    0.20
  -6   1  -1    0.01    0.09
  -5   1  -1    0.80    0.14
  -4   1  -1   19.06    0.69
  -3   1  -1   -0.15    0.13
  -2   1  -1   12.07    0.76
  -1   1  -1    0.54    0.16
   0   1  -1   -0.13    0.05
   1   1  -1    7.76    0.35
   2   1  -1    0.14    0.10
   3   1  -1   18.54    0.65
   4   1  -1    3.90    0.34
   5   1  -1    1.65    0.26
   6   1  -1    1.59    0.28
   7   1  -1    0.29    0.15
   8   1  -1    1.62    0.24
   9   1  -1    2.04    0.29
  10   1  -1    1.71    0.27
  11   1  -1   -0.01    0.17
  12   1  -1    0.37    0.21
  13   1  -1    0.13    0.38
  14   1  -1    0.21    0.40
  15   1  -1    0.23    0.37
  16   1  -1    1.08    0.54
  17   1  -1    0.27    0.54
  18   1  -1   -0.33    0.48
  19   1  -1   -0.10    0.58
 -18   2  -1    0.62    0.60
 -17   2  -1    0.67    0.61
 -16   2  -1    2.20    0.80
 -15   2  -1   -0.28    0.41
 -14   2  -1    2.34    0.78
 -13   2  -1    2.57    0.80
 -12   2  -1    0.69    0.48
 -11   2  -1    5.50    1.03
 -10   2  -1    0.98    0.46
  -9   2  -1    5.10    0.83
  -8   2  -1    3.24    0.63
  -7   2  -1    0.08    0.21
  -6   2  -1    1.40    0.40
  -5   2  -1    2.41    0.47
  -4   2  -1    2.48    0.44
  -3   2  -1    0.13    0.17
  -2   2  -1    3.63    0.44
  -1   2  -1    1.08    0.17
   0   2  -1   11.23    0.47
   1   2  -1    2.40    0.26
   2   2  -1    3.42    0.33
   3   2  -1   21.02    0.74
   4   2  -1    0.66    0.16
   5   2  -1    7.78    0.52
   6   2  -1    7.06    0.52
   7   2  -1    1.23    0.26
   8   2  -1    7.30    0.62
   9   2  -1    0.02    0.15
  10   2  -1    4.65    0.46
  11   2  -1    1.07    0.35
  12   2  -1    0.43    0.29
  13   2  -1    3.87    0.60
  14   2  -1    3.82    0.85
  15   2  -1    4.90    0.98
  16   2  -1   -0.57    0.41
  17   2  -1    0.15    0.46
  18   2  -1    0.01    0.54
  19   2  -1    0.35    0.66
 -18   3  -1    3.89    1.20
 -17   3  -1    2.55    0.99
 -16   3  -1    1.86    0.79
 -15   3  -1    1.26    0.72
 -14   3  -1    0.39    0.48
 -13   3  -1    8.87    1.38
 -12   3  -1    1.12    0.56
 -11   3  -1    1.02    0.49
 -10   3  -1   23.17    1.79
  -9   3  -1   11.01    1.29
  -8   3  -1   21.14    1.56
  -7   3  -1    1.22    0.43
  -6   3  -1    0.20    0.24
  -5   3  -1    3.32    0.58
  -4   3  -1   48.54    2.49
  -3   3  -1    0.21    0.18
  -2   3  -1   33.38    1.29
  -1   3  -1   10.07    0.55
   0   3  -1    0.70    0.15
   1   3  -1   12.39    0.48
   2   3  -1    0.74    0.19
   3   3  -1   63.68    2.27
   4   3  -1   32.84    1.10
   5   3  -1   15.59    0.69
   6   3  -1    7.75    0.57
   7   3  -1    0.15    0.18
   8   3  -1    8.86    0.70
   9   3  -1   17.04    0.97
  10   3  -1   20.01    1.14
  11   3  -1    0.08    0.24
  12   3  -1    0.02    0.27
  13   3  -1    0.80    0.36
  14   3  -1    0.28    0.36
  15   3  -1    0.50    0.53
  16   3  -1    2.34    0.81
  17   3  -1    0.36    0.60
  18   3  -1   -0.10    0.59
 -17   4  -1    0.04    0.56
 -16   4  -1    2.61    0.98
 -15   4  -1    0.69    0.63
 -14   4  -1    5.33    1.17
 -13   4  -1    2.66    0.81
 -12   4  -1    2.41    0.75
 -11   4  -1    9.51    1.33
 -10   4  -1    0.17    0.34
  -9   4  -1    5.21    0.94
  -8   4  -1    5.71    0.92
  -7   4  -1    0.62    0.33
  -6   4  -1    0.52    0.32
  -5   4  -1   10.46    1.10
  -4   4  -1    3.32    0.43
  -3   4  -1    0.17    0.16
  -2   4  -1    3.09    0.39
  -1   4  -1    1.52    0.25
   0   4  -1   35.90    1.37
   1   4  -1    5.49    0.38
   2   4  -1    6.82    0.39
   3   4  -1   23.52    1.11
   4   4  -1    3.07    0.37
   5   4  -1    4.39    0.43
   6   4  -1   11.09    0.75
   7   4  -1    3.32    0.42
   8   4  -1    6.54    0.61
   9   4  -1    0.22    0.31
  10   4  -1    2.30    0.63
  11   4  -1    4.21    0.61
  12   4  -1    0.22    0.32
  13   4  -1    2.81    0.57
  14   4  -1    7.62    0.90
  15   4  -1   12.15    1.18
  16   4  -1   -0.18    0.60
  17   4  -1    0.72    0.73
  18   4  -1    0.00    0.75
 -16   5  -1    3.23    0.78
 -15   5  -1   -0.14    0.42
 -14   5  -1    2.48    0.64
 -13   5  -1    7.93    0.95
 -12   5  -1    0.26    0.33
 -11   5  -1    9.81    1.43
 -10   5  -1   15.85    1.30
  -9   5  -1   14.73    1.19
  -8   5  -1   14.94    1.17
  -7   5  -1    3.96    0.61
  -6   5  -1    3.49    0.52
  -5   5  -1    0.81    0.31
  -4   5  -1   59.21    2.33
  -3   5  -1    3.18    0.44
  -2   5  -1   17.07    0.98
  -1   5  -1    0.32    0.18
   0   5  -1    0.56    0.17
   1   5  -1   14.26    1.04
   2   5  -1    1.55    0.34
   3   5  -1   23.40    1.19
   4   5  -1    4.90    0.50
   5   5  -1    1.57    0.33
   6   5  -1   16.69    0.95
   7   5  -1    2.76    0.43
   8   5  -1   -0.21    0.25
   9   5  -1    5.09    0.84
  10   5  -1    4.96    0.84
  11   5  -1    0.88    0.48
  12   5  -1    1.78    0.52
  13   5  -1    0.11    0.38
  14   5  -1    0.62    0.47
  15   5  -1    0.43    0.47
  16   5  -1    2.42    0.95
  17   5  -1    0.33    1.08
 -15   6  -1    2.33    0.76
 -14   6  -1    1.67    0.59
 -13   6  -1    0.75    0.48
 -12   6  -1    4.49    0.81
 -11   6  -1    0.56    0.37
 -10   6  -1    0.00    0.31
  -9   6  -1   -0.06    0.25
  -8   6  -1    2.70    0.57
  -7   6  -1    0.24    0.28
  -6   6  -1    1.63    0.43
  -5   6  -1   19.49    1.24
  -4   6  -1    0.65    0.30
  -3   6  -1    0.40    0.44
  -2   6  -1    0.74    0.48
  -1   6  -1    1.42    0.37
   0   6  -1   58.37    2.43
   1   6  -1    8.88    0.87
   2   6  -1    9.05    0.88
   3   6  -1    6.93    0.78
   4   6  -1    3.07    0.45
   5   6  -1    0.10    0.20
   6   6  -1    7.01    0.67
   7   6  -1    4.96    0.77
   8   6  -1   -0.10    0.27
   9   6  -1    1.12    0.45
  10   6  -1   -0.18    0.40
  11   6  -1    4.30    0.84
  12   6  -1    0.35    0.39
  13   6  -1    1.19    0.54
  14   6  -1   14.04    1.33
  15   6  -1    7.56    1.05
 -13   7  -1    4.55    0.91
 -12   7  -1   -0.38    0.45
 -11   7  -1    2.28    0.65
 -10   7  -1    6.05    1.43
  -9   7  -1   -0.14    0.45
  -8   7  -1   15.47    2.05
  -7   7  -1    0.23    0.44
  -6   7  -1    0.13    0.44
  -5   7  -1    0.08    0.39
  -4   7  -1    4.04    0.98
  -3   7  -1    0.19    0.41
  -2   7  -1    0.31    0.29
  -1   7  -1    0.28    0.32
   0   7  -1   -0.15    0.24
   1   7  -1   -0.17    0.21
   2   7  -1    0.10    0.25
   3   7  -1   -0.10    0.19
   4   7  -1    4.23    0.57
   5   7  -1    1.45    0.39
   6   7  -1   10.75    1.18
   7   7  -1    0.31    0.36
   8   7  -1    2.83    0.71
   9   7  -1    4.91    0.88
  10   7  -1    3.80    0.88
  11   7  -1    5.93    1.14
  12   7  -1   -0.08    0.41
  13   7  -1   -0.27    0.48
  14   7  -1    0.25    1.26
 -10   8  -1    0.96    0.85
  -9   8  -1    0.35    0.59
  -8   8  -1    9.07    1.69
  -7   8  -1    3.14    1.07
  -6   8  -1   -0.09    0.54
  -5   8  -1    1.96    0.92
  -4   8  -1    0.85    0.60
  -3   8  -1    0.71    0.42
  -2   8  -1    8.91    1.08
  -1   8  -1   -0.05    0.32
   0   8  -1   18.60    1.56
   1   8  -1    0.52    0.40
   2   8  -1   12.37    1.28
   3   8  -1   18.74    1.29
   4   8  -1    0.12    0.36
   5   8  -1    1.67    0.57
   6   8  -1   20.07    2.51
   7   8  -1    4.35    0.84
   8   8  -1    0.03    0.46
   9   8  -1    2.01    0.67
  10   8  -1    1.77    0.76
  11   8  -1    0.85    0.82
  -6   9  -1   -0.31    0.66
  -5   9  -1    0.84    0.54
  -4   9  -1   -0.25    0.44
  -3   9  -1   -0.16    0.43
  -2   9  -1    1.93    0.65
  -1   9  -1    0.21    0.48
   0   9  -1    0.19    0.42
   1   9  -1    1.49    0.56
   2   9  -1    0.64    0.41
   3   9  -1    6.07    1.02
   4   9  -1    1.38    0.65
   5   9  -1    0.79    0.59
   6   9  -1    7.53    1.19
   7   9  -1    0.86    0.69
   8   9  -1    5.47    1.88
  -7  -9   0    2.49    0.81
  -6  -9   0    1.11    0.62
  -5  -9   0   -0.07    0.47
  -4  -9   0   -0.07    0.38
  -3  -9   0    4.15    0.85
  -2  -9   0    0.25    0.41
  -1  -9   0   -0.06    0.40
   0  -9   0    0.53    0.49
   1  -9   0   -0.24    0.40
   2  -9   0   -0.04    0.35
   3  -9   0    3.87    0.84
   4  -9   0    0.15    0.47
   5  -9   0    0.10    0.55
   6  -9   0    0.21    0.49
   7  -9   0    1.99    0.82
   8  -9   0   12.44    2.10
 -10  -8   0    0.41    0.50
  -9  -8   0    2.85    0.73
  -8  -8   0   11.81    1.30
  -7  -8   0    3.31    0.73
  -6  -8   0    0.52    0.43
  -5  -8   0    9.51    1.14
  -4  -8   0   13.32    1.04
  -3  -8   0    9.29    0.90
  -2  -8   0   23.24    1.42
  -1  -8   0    0.15    0.36
   0  -8   0   11.54    1.22
   1  -8   0    0.13    0.30
   2  -8   0   26.69    1.53
   3  -8   0   12.27    1.01
   4  -8   0   17.37    1.55
   5  -8   0   12.76    1.33
   6  -8   0    0.88    0.53
   7  -8   0    3.37    0.80
   8  -8   0   12.26    1.40
   9  -8   0    2.69    0.75
  10  -8   0    0.83    0.63
  11  -8   0    0.73    0.83
 -13  -7   0    1.14    0.61
 -12  -7   0   -0.53    0.38
 -11  -7   0   22.79    1.93
 -10  -7   0    0.79    0.45
  -9  -7   0   -0.05    0.31
  -8  -7   0   31.30    1.91
  -7  -7   0    0.89    0.44
  -6  -7   0    1.84    0.49
  -5  -7   0    0.44    0.32
  -4  -7   0    0.25    0.26
  -3  -7   0    3.79    0.53
  -2  -7   0    0.54    0.28
  -1  -7   0    0.29    0.26
   0  -7   0   -0.09    0.16
   1  -7   0    0.06    0.22
   2  -7   0    0.10    0.20
   3  -7   0    3.49    0.53
   4  -7   0    0.03    0.23
   5  -7   0    0.46    0.29
   6  -7   0    2.20    0.56
   7  -7   0    1.62    0.41
   8  -7   0   29.27    1.70
   9  -7   0    0.03    0.29
  10  -7   0    1.51    0.48
  11  -7   0   26.66    1.73
  12  -7   0    0.29    0.43
  13  -7   0    0.65    0.48
 -15  -6   0    1.40    0.85
 -14  -6   0   12.11    1.37
 -13  -6   0    6.67    1.00
 -12  -6   0    2.49    0.65
 -11  -6   0    4.80    0.79
 -10  -6   0    0.67    0.41
  -9  -6   0    1.24    0.47
  -8  -6   0    6.72    0.87
  -7  -6   0    0.36    0.27
  -6  -6   0    0.47    0.33
  -5  -6   0    0.55    0.29
  -4  -6   0   39.82    1.56
  -3  -6   0    1.38    0.30
  -2  -6   0   19.76    0.98
  -1  -6   0    3.16    0.37
   0  -6   0  159.63    3.78
   1  -6   0    2.97    0.34
   2  -6   0   20.60    0.84
   3  -6   0    1.50    0.33
   4  -6   0   40.87    1.33
   5  -6   0    0.68    0.23
   6  -6   0    0.21    0.18
   7  -6   0    0.20    0.22
   8  -6   0    5.14    0.65
   9  -6   0    1.41    0.40
  10  -6   0    0.63    0.37
  11  -6   0    2.82    0.53
  12  -6   0    2.38    0.56
  13  -6   0    6.54    0.85
  14  -6   0   10.43    1.11
  15  -6   0    0.50    0.50
 -17  -5   0    2.07    0.96
 -16  -5   0    2.98    1.05
 -15  -5   0   12.22    1.80
 -14  -5   0    4.18    1.10
 -13  -5   0    7.52    0.96
 -12  -5   0    0.30    0.35
 -11  -5   0   59.74    2.72
 -10  -5   0    1.94    0.50
  -9  -5   0    2.78    0.53
  -8  -5   0   72.88    2.92
  -7  -5   0    0.17    0.24
  -6  -5   0   28.52    1.42
  -5  -5   0    1.26    0.31
  -4  -5   0   21.65    0.96
  -3  -5   0    0.19    0.18
  -2  -5   0   12.92    0.77
  -1  -5   0   10.42    0.59
   0  -5   0    0.17    0.13
   1  -5   0    9.87    0.56
   2  -5   0   11.53    0.52
   3  -5   0    0.26    0.12
   4  -5   0   19.86    0.80
   5  -5   0    1.84    0.27
   6  -5   0   26.90    0.96
   7  -5   0    0.03    0.16
   8  -5   0   72.58    2.43
   9  -5   0    4.06    0.53
  10  -5   0    2.50    0.48
  11  -5   0   62.86    2.32
  12  -5   0    0.09    0.28
  13  -5   0    7.07    0.83
  14  -5   0    3.61    0.67
  15  -5   0   14.03    1.25
  16  -5   0    4.84    0.80
  17  -5   0    3.49    1.41
 -17  -4   0    0.22    0.65
 -16  -4   0    3.36    0.96
 -15  -4   0    0.29    0.54
 -14  -4   0   14.21    1.77
 -13  -4   0    0.70    0.35
 -12  -4   0   20.83    1.51
 -11  -4   0    4.66    0.67
 -10  -4   0    0.86    0.34
  -9  -4   0    4.78    0.62
  -8  -4   0   53.56    2.24
  -7  -4   0    3.00    0.36
  -6  -4   0    4.22    0.40
  -5  -4   0    0.12    0.12
  -4  -4   0  107.28    2.55
  -3  -4   0   23.16    0.73
  -2  -4   0   47.45    1.24
  -1  -4   0    0.25    0.10
   0  -4   0  472.63   10.10
   1  -4   0    0.13    0.10
   2  -4   0   47.49    1.12
   3  -4   0   23.60    0.66
   4  -4   0  107.48    2.27
   5  -4   0    0.54    0.16
   6  -4   0    3.46    0.33
   7  -4   0    3.14    0.32
   8  -4   0   56.05    1.90
   9  -4   0    4.74    0.55
  10  -4   0    1.45    0.38
  11  -4   0    4.27    0.58
  12  -4   0   21.03    1.25
  13  -4   0   -0.18    0.28
  14  -4   0   12.67    1.11
  15  -4   0    0.25    0.36
  16  -4   0    1.42    0.52
  17  -4   0    0.06    0.58
  18  -4   0    1.19    1.15
 -16  -3   0    6.32    1.25
 -15  -3   0    1.52    0.66
 -14  -3   0    4.86    0.98
 -13  -3   0   10.14    0.97
 -12  -3   0   49.94    2.15
 -11  -3   0   58.04    1.94
 -10  -3   0   63.99    2.02
  -9  -3   0   23.12    0.96
  -8  -3   0  146.25    3.93
  -7  -3   0   84.41    2.38
  -6  -3   0    3.74    0.35
  -5  -3   0    8.89    0.49
  -4  -3   0    5.77    0.34
  -3  -3   0   14.46    0.49
  -2  -3   0    8.51    0.37
  -1  -3   0   14.49    0.43
   0  -3   0   -0.22    0.06
   1  -3   0   14.13    0.43
   2  -3   0    8.07    0.34
   3  -3   0   14.10    0.43
   4  -3   0    5.01    0.24
   5  -3   0    7.83    0.43
   6  -3   0    4.22    0.32
   7  -3   0   85.21    2.10
   8  -3   0  144.91    3.46
   9  -3   0   24.56    1.15
  10  -3   0   63.05    2.19
  11  -3   0   63.20    2.19
  12  -3   0   51.10    2.00
  13  -3   0    8.86    0.90
  14  -3   0    2.10    0.43
  15  -3   0    2.52    0.54
  16  -3   0    6.71    1.12
  17  -3   0    6.61    1.12
  18  -3   0    0.89    0.71
 -17  -2   0    0.77    0.79
 -16  -2   0    2.88    0.92
 -15  -2   0    0.87    0.37
 -14  -2   0   15.40    1.21
 -13  -2   0    6.80    0.79
 -12  -2   0   63.15    2.53
 -11  -2   0    0.55    0.26
 -10  -2   0    2.05    0.33
  -9  -2   0    7.93    0.58
  -8  -2   0  194.51    5.00
  -7  -2   0   28.76    1.00
  -6  -2   0   35.86    1.16
  -5  -2   0   11.35    0.63
  -4  -2   0  238.54    5.90
  -3  -2   0  103.41    2.34
  -2  -2   0   89.78    2.06
  -1  -2   0    5.82    0.23
   0  -2   0  914.54   15.38
   1  -2   0    5.74    0.23
   2  -2   0   92.65    1.84
   3  -2   0  107.64    2.32
   4  -2   0  240.47    5.18
   5  -2   0   11.90    0.47
   6  -2   0   37.85    1.05
   7  -2   0   29.71    0.91
   8  -2   0  194.68    4.45
   9  -2   0    9.19    0.56
  10  -2   0    1.95    0.38
  11  -2   0    0.56    0.28
  12  -2   0   66.46    2.36
  13  -2   0    6.19    0.73
  14  -2   0   15.83    1.17
  15  -2   0    1.21    0.59
  16  -2   0    3.87    0.85
  17  -2   0    0.37    0.53
  18  -2   0    2.54    0.86
  19  -2   0    3.72    1.04
 -19  -1   0   36.28    3.37
 -18  -1   0    1.43    0.87
 -17  -1   0    3.07    1.03
 -16  -1   0    6.08    1.29
 -15  -1   0   25.36    2.48
 -14  -1   0    1.32    0.65
 -13  -1   0   36.84    1.66
 -12  -1   0   39.90    1.75
 -11  -1   0  107.51    3.73
 -10  -1   0   50.49    1.94
  -9  -1   0    2.57    0.39
  -8  -1   0  219.89    6.85
  -7  -1   0   55.36    1.63
  -6  -1   0   58.58    1.68
  -5  -1   0    4.15    0.30
  -4  -1   0   24.07    0.77
  -3  -1   0    2.77    0.21
  -2  -1   0    0.17    0.09
  -1  -1   0   15.58    0.47
   0  -1   0   -0.76    0.06
   1  -1   0   16.26    0.40
   2  -1   0    0.17    0.08
   3  -1   0    2.85    0.19
   4  -1   0   24.16    0.71
   5  -1   0    4.99    0.32
   6  -1   0   59.86    1.58
   7  -1   0   56.21    1.57
   8  -1   0  220.46    5.15
   9  -1   0    4.04    0.41
  10  -1   0   47.47    1.52
  11  -1   0  108.49    3.36
  12  -1   0   41.60    1.67
  13  -1   0   35.71    1.59
  14  -1   0    0.65    0.46
  15  -1   0   19.51    1.84
  16  -1   0    7.48    1.13
  17  -1   0    3.64    0.86
  18  -1   0    1.56    0.66
  19  -1   0   24.74    2.20
 -19   0   0   25.24    2.87
 -18   0   0   -0.35    0.64
 -17   0   0   -0.28    0.50
 -16   0   0    4.70    1.15
 -15   0   0    0.74    0.57
 -14   0   0   55.59    3.51
 -13   0   0    0.81    0.50
 -12   0   0   99.84    5.16
 -11   0   0   49.57    1.95
 -10   0   0   52.73    2.00
  -9   0   0   -0.01    0.15
  -8   0   0   72.51    2.46
  -7   0   0  123.90    3.98
  -6   0   0    0.60    0.17
  -5   0   0  249.05    7.46
  -4   0   0  343.25    9.79
  -3   0   0    1.24    0.15
  -2   0   0    0.75    0.12
  -1   0   0    1.70    0.16
   1   0   0    1.88    0.19
   2   0   0    1.06    0.13
   3   0   0    1.47    0.16
   4   0   0  327.84    7.18
   5   0   0  252.13    5.54
   6   0   0    0.82    0.18
   7   0   0  128.77    3.06
   8   0   0   71.90    1.94
   9   0   0    0.26    0.14
  10   0   0   53.84    1.61
  11   0   0   50.35    1.56
  12   0   0  100.41    3.15
  13   0   0    1.44    0.56
  14   0   0   57.33    2.82
  15   0   0    0.89    0.48
  16   0   0    4.99    0.89
  17   0   0    0.07    0.50
  18   0   0    0.00    0.55
  19   0   0   27.93    2.31
 -18   1   0    0.85    0.74
 -17   1   0    2.86    0.98
 -16   1   0    5.41    1.23
 -15   1   0   20.84    2.28
 -14   1   0    1.50    0.68
 -13   1   0   36.82    2.54
 -12   1   0   40.62    2.66
 -11   1   0  108.57    5.48
 -10   1   0   49.28    2.87
  -9   1   0    3.92    0.40
  -8   1   0  227.67    6.79
  -7   1   0   55.92    1.90
  -6   1   0   60.71    1.97
  -5   1   0    3.95    0.25
  -4   1   0   24.98    0.85
  -3   1   0    3.23    0.41
  -2   1   0    0.26    0.17
  -1   1   0   16.58    0.81
   0   1   0   -0.81    0.13
   1   1   0   16.10    0.59
   2   1   0    0.31    0.11
   3   1   0    2.12    0.22
   4   1   0   26.41    1.05
   5   1   0    4.30    0.38
   6   1   0   61.11    1.58
   7   1   0   58.76    1.56
   8   1   0  226.20    5.11
   9   1   0    2.96    0.34
  10   1   0   53.42    1.55
  11   1   0  113.09    2.87
  12   1   0   41.77    1.71
  13   1   0   31.42    2.28
  14   1   0    0.66    0.46
  15   1   0   21.51    1.91
  16   1   0    8.98    1.24
  17   1   0    3.65    0.88
  18   1   0    1.11    0.65
  19   1   0   24.22    2.12
 -18   2   0    0.89    0.67
 -17   2   0    0.19    0.54
 -16   2   0    3.18    1.05
 -15   2   0    0.06    0.52
 -14   2   0   13.59    1.82
 -13   2   0    5.31    1.05
 -12   2   0   67.43    3.83
 -11   2   0    0.91    0.45
 -10   2   0    1.71    0.53
  -9   2   0    7.19    0.97
  -8   2   0  195.24    8.74
  -7   2   0   27.32    1.76
  -6   2   0   36.85    2.07
  -5   2   0   13.01    0.94
  -4   2   0  240.50   10.23
  -3   2   0  104.30    4.66
  -2   2   0   97.59    4.10
  -1   2   0    5.37    0.44
   0   2   0  913.58   26.62
   1   2   0    6.39    0.39
   2   2   0   96.09    2.96
   3   2   0  104.14    2.75
   4   2   0  238.77    6.01
   5   2   0   12.93    0.63
   6   2   0   37.33    1.27
   7   2   0   28.32    1.11
   8   2   0  194.12    4.50
   9   2   0    9.03    0.58
  10   2   0    2.35    0.33
  11   2   0    1.05    0.34
  12   2   0   66.26    2.38
  13   2   0    6.77    0.80
  14   2   0   14.26    1.59
  15   2   0    0.86    0.57
  16   2   0    4.25    0.88
  17   2   0    0.63    0.60
  18   2   0    1.56    0.73
  19   2   0    4.01    0.99
 -18   3   0    0.78    0.72
 -17   3   0    4.01    1.20
 -16   3   0    5.62    1.30
 -15   3   0    1.36    0.70
 -14   3   0    4.17    0.99
 -13   3   0   10.57    1.51
 -12   3   0   51.42    3.23
 -11   3   0   60.74    3.51
 -10   3   0   69.29    3.64
  -9   3   0   20.16    1.64
  -8   3   0  153.76    6.90
  -7   3   0   79.75    4.12
  -6   3   0    3.37    0.60
  -5   3   0    9.69    0.98
  -4   3   0    4.63    0.65
  -3   3   0   18.24    1.04
  -2   3   0    9.77    0.69
  -1   3   0   15.15    0.67
   0   3   0   -0.06    0.10
   1   3   0   14.58    0.71
   2   3   0    8.09    0.54
   3   3   0   14.13    0.60
   4   3   0    5.92    0.44
   5   3   0    8.15    0.55
   6   3   0    4.11    0.41
   7   3   0   80.85    2.48
   8   3   0  148.70    4.10
   9   3   0   21.82    0.97
  10   3   0   62.62    2.23
  11   3   0   56.94    2.18
  12   3   0   51.04    2.04
  13   3   0    9.04    0.91
  14   3   0    2.72    0.56
  15   3   0    1.12    0.66
  16   3   0    4.42    1.02
  17   3   0    4.58    0.98
  18   3   0    0.39    0.63
 -17   4   0    0.79    0.63
 -16   4   0    1.29    0.77
 -15   4   0   -0.06    0.52
 -14   4   0   12.33    1.74
 -13   4   0    0.89    0.58
 -12   4   0   18.18    2.02
 -11   4   0    6.71    1.14
 -10   4   0    0.96    0.49
  -9   4   0    3.99    0.81
  -8   4   0   50.84    3.06
  -7   4   0    3.96    0.76
  -6   4   0    2.54    0.55
  -5   4   0    0.24    0.25
  -4   4   0  110.32    5.04
  -3   4   0   21.46    1.03
  -2   4   0   47.54    1.76
  -1   4   0    0.11    0.14
   0   4   0  483.57   14.18
   1   4   0    0.25    0.12
   2   4   0   44.96    1.79
   3   4   0   23.21    0.90
   4   4   0  109.51    3.02
   5   4   0    0.25    0.17
   6   4   0    3.78    0.43
   7   4   0    3.37    0.43
   8   4   0   55.71    2.05
   9   4   0    4.21    0.69
  10   4   0    0.51    0.29
  11   4   0    2.88    0.52
  12   4   0   21.73    1.44
  13   4   0    0.13    0.34
  14   4   0   12.70    1.19
  15   4   0    0.25    0.39
  16   4   0    1.81    0.76
  17   4   0    0.66    0.71
  18   4   0    1.40    1.23
 -17   5   0    4.76    1.29
 -16   5   0    6.04    0.97
 -15   5   0   11.04    1.76
 -14   5   0    3.06    0.98
 -13   5   0    7.30    1.37
 -12   5   0    0.15    0.42
 -11   5   0   64.04    3.81
 -10   5   0    1.88    0.65
  -9   5   0    3.69    0.85
  -8   5   0   76.30    4.03
  -7   5   0    1.20    0.48
  -6   5   0   25.50    1.33
  -5   5   0    1.70    0.36
  -4   5   0   20.78    1.09
  -3   5   0    0.20    0.21
  -2   5   0   11.85    0.76
  -1   5   0   11.10    0.78
   0   5   0    0.19    0.13
   1   5   0    9.41    0.53
   2   5   0   12.06    0.91
   3   5   0    0.10    0.18
   4   5   0   20.73    0.93
   5   5   0    1.78    0.32
   6   5   0   27.52    1.16
   7   5   0   -0.01    0.26
   8   5   0   72.50    3.07
   9   5   0    3.45    0.70
  10   5   0    1.50    0.58
  11   5   0   62.76    2.41
  12   5   0    0.46    0.39
  13   5   0    6.97    0.87
  14   5   0    3.75    0.71
  15   5   0   12.94    1.27
  16   5   0    4.16    1.06
  17   5   0    2.10    1.25
 -15   6   0    0.65    0.57
 -14   6   0    8.74    1.14
 -13   6   0    7.23    1.01
 -12   6   0    3.04    0.68
 -11   6   0    5.87    0.84
 -10   6   0    0.23    0.29
  -9   6   0    1.61    0.47
  -8   6   0    6.45    0.84
  -7   6   0    0.17    0.26
  -6   6   0   -0.04    0.24
  -5   6   0    0.74    0.31
  -4   6   0   43.87    1.85
  -3   6   0    0.93    0.48
  -2   6   0   19.56    1.93
  -1   6   0    2.88    0.51
   0   6   0  159.03    5.43
   1   6   0    2.21    0.43
   2   6   0   22.22    1.21
   3   6   0    1.52    0.32
   4   6   0   41.22    1.56
   5   6   0    0.44    0.25
   6   6   0    0.58    0.32
   7   6   0    0.17    0.28
   8   6   0    4.03    0.70
   9   6   0    1.03    0.52
  10   6   0    0.48    0.45
  11   6   0    5.07    0.76
  12   6   0    2.50    0.63
  13   6   0    9.52    1.07
  14   6   0    8.46    1.09
  15   6   0    0.73    0.59
 -13   7   0    1.53    0.61
 -12   7   0    0.16    0.42
 -11   7   0   28.30    2.02
 -10   7   0    0.75    0.46
  -9   7   0   -0.05    0.53
  -8   7   0   30.64    2.95
  -7   7   0    1.67    0.73
  -6   7   0    1.81    0.72
  -5   7   0    0.15    0.43
  -4   7   0    0.44    0.50
  -3   7   0    4.49    0.99
  -2   7   0    0.21    0.28
  -1   7   0    0.27    0.28
   0   7   0   -0.06    0.27
   1   7   0   -0.15    0.23
   2   7   0    0.60    0.33
   3   7   0    4.46    0.56
   4   7   0    0.15    0.24
   5   7   0    1.13    0.46
   6   7   0    2.69    0.63
   7   7   0    2.03    0.59
   8   7   0   25.15    2.02
   9   7   0   -0.47    0.37
  10   7   0    0.44    0.51
  11   7   0   25.94    1.77
  12   7   0   -0.44    0.43
  13   7   0    0.88    0.58
 -10   8   0    0.34    0.71
  -9   8   0    2.20    0.94
  -8   8   0   11.05    1.91
  -7   8   0    3.94    1.17
  -6   8   0    1.41    0.80
  -5   8   0   11.56    1.86
  -4   8   0   18.42    2.25
  -3   8   0   11.69    1.24
  -2   8   0   22.47    1.75
  -1   8   0    0.14    0.37
   0   8   0   12.12    1.24
   1   8   0    0.27    0.37
   2   8   0   21.70    1.41
   3   8   0   12.31    1.02
   4   8   0   14.93    1.42
   5   8   0   10.81    1.28
   6   8   0   -0.03    0.40
   7   8   0    2.34    0.55
   8   8   0   10.30    1.33
   9   8   0    1.72    0.71
  10   8   0    0.52    0.62
  11   8   0    0.23    0.93
  -7   9   0    0.40    0.76
  -6   9   0    1.07    0.76
  -5   9   0   -0.02    0.46
  -4   9   0   -0.28    0.43
  -3   9   0    2.66    0.72
  -2   9   0    0.26    0.42
  -1   9   0   -0.38    0.35
   0   9   0    0.18    0.44
   1   9   0   -0.47    0.29
   2   9   0    0.25    0.41
   3   9   0    4.43    0.84
   4   9   0   -0.30    0.40
   5   9   0    1.33    0.60
   6   9   0    0.99    0.62
   7   9   0    1.73    0.83
   8   9   0    5.85    1.88
  -7  -9   1    0.45    0.47
  -6  -9   1    7.56    1.10
  -5  -9   1    0.53    0.50
  -4  -9   1    0.95    0.43
  -3  -9   1    5.84    1.01
  -2  -9   1    1.39    0.59
  -1  -9   1    0.19    0.47
   0  -9   1    0.64    0.52
   1  -9   1    0.01    0.43
   2  -9   1    5.46    0.76
   3  -9   1   -0.35    0.44
   4  -9   1    0.57    0.55
   5  -9   1    0.33    0.46
   6  -9   1   -0.37    0.48
   7  -9   1    0.53    0.83
 -11  -8   1   -0.74    0.53
 -10  -8   1    0.88    0.53
  -9  -8   1    1.14    0.56
  -8  -8   1    0.23    0.43
  -7  -8   1    3.42    0.77
  -6  -8   1   18.07    1.61
  -5  -8   1    1.32    0.41
  -4  -8   1    0.16    0.29
  -3  -8   1   18.48    1.27
  -2  -8   1   13.08    1.02
  -1  -8   1    0.72    0.39
   0  -8   1   15.41    1.43
   1  -8   1    0.18    0.29
   2  -8   1    9.74    0.89
   3  -8   1    1.17    0.41
   4  -8   1    0.29    0.32
   5  -8   1    1.78    0.63
   6  -8   1    1.22    0.53
   7  -8   1    4.99    0.95
   8  -8   1   10.91    1.33
   9  -8   1    0.98    0.57
  10  -8   1    1.27    0.65
  11  -8   1    0.63    0.91
 -14  -7   1   -0.27    0.87
 -13  -7   1   -0.53    0.42
 -12  -7   1    0.39    0.46
 -11  -7   1    5.66    0.97
 -10  -7   1    2.88    0.66
  -9  -7   1    5.89    0.93
  -8  -7   1    3.90    0.73
  -7  -7   1   -0.08    0.28
  -6  -7   1    8.19    1.00
  -5  -7   1    1.73    0.40
  -4  -7   1    4.54    0.58
  -3  -7   1   -0.14    0.20
  -2  -7   1    0.02    0.22
  -1  -7   1    0.02    0.21
   0  -7   1    0.20    0.19
   1  -7   1    0.33    0.23
   2  -7   1   -0.34    0.22
   3  -7   1   -0.07    0.21
   4  -7   1    4.16    0.52
   5  -7   1   -0.03    0.24
   6  -7   1   -0.06    0.27
   7  -7   1   -0.17    0.32
   8  -7   1   16.00    1.54
   9  -7   1    0.01    0.30
  10  -7   1   10.79    1.04
  11  -7   1    2.07    0.55
  12  -7   1   -0.22    0.36
  13  -7   1    3.22    0.69
 -15  -6   1    5.13    0.91
 -14  -6   1   15.12    1.49
 -13  -6   1    1.19    0.52
 -12  -6   1    0.22    0.44
 -11  -6   1    6.79    0.93
 -10  -6   1   -0.18    0.32
  -9  -6   1   -0.09    0.28
  -8  -6   1    0.32    0.32
  -7  -6   1    3.91    0.65
  -6  -6   1    5.76    0.76
  -5  -6   1    0.25    0.23
  -4  -6   1    5.02    0.56
  -3  -6   1    5.64    0.56
  -2  -6   1    7.85    0.68
  -1  -6   1    8.77    0.61
   0  -6   1   60.01    1.69
   1  -6   1    1.35    0.25
   2  -6   1    0.24    0.18
   3  -6   1    0.32    0.22
   4  -6   1    0.77    0.27
   5  -6   1   22.77    1.01
   6  -6   1    1.08    0.27
   7  -6   1    0.37    0.29
   8  -6   1    2.86    0.50
   9  -6   1    0.60    0.29
  10  -6   1   -0.03    0.29
  11  -6   1    0.49    0.35
  12  -6   1    4.82    0.71
  13  -6   1    1.24    0.50
  14  -6   1    1.32    0.50
  15  -6   1    0.87    0.55
 -17  -5   1    0.14    0.73
 -16  -5   1    3.26    1.02
 -15  -5   1   -0.03    0.54
 -14  -5   1    0.63    0.44
 -13  -5   1    0.11    0.33
 -12  -5   1    1.75    0.53
 -11  -5   1    1.84    0.53
 -10  -5   1    4.78    0.73
  -9  -5   1    4.87    0.68
  -8  -5   1    0.03    0.24
  -7  -5   1    2.85    0.48
  -6  -5   1   14.89    1.16
  -5  -5   1    0.99    0.28
  -4  -5   1    4.82    0.49
  -3  -5   1   22.24    0.96
  -2  -5   1    2.30    0.32
  -1  -5   1   15.78    0.72
   0  -5   1    0.40    0.16
   1  -5   1    0.22    0.14
   2  -5   1   18.90    0.73
   3  -5   1    2.93    0.27
   4  -5   1   60.74    1.69
   5  -5   1    0.39    0.17
   6  -5   1    4.66    0.43
   7  -5   1    5.23    0.47
   8  -5   1   14.93    1.01
   9  -5   1   16.63    1.09
  10  -5   1   17.11    1.18
  11  -5   1    9.87    0.94
  12  -5   1    0.23    0.29
  13  -5   1    7.61    0.86
  14  -5   1    2.99    0.59
  15  -5   1    0.11    0.36
  16  -5   1    4.11    0.77
 -17  -4   1    0.41    0.62
 -16  -4   1    0.11    0.55
 -15  -4   1   10.44    1.59
 -14  -4   1    7.27    1.29
 -13  -4   1    4.56    0.72
 -12  -4   1   -0.15    0.26
 -11  -4   1    3.03    0.57
 -10  -4   1    2.50    0.47
  -9  -4   1    0.27    0.24
  -8  -4   1    4.78    0.63
  -7  -4   1    3.29    0.51
  -6  -4   1   10.73    0.59
  -5  -4   1    5.22    0.35
  -4  -4   1    2.93    0.25
  -3  -4   1   23.22    0.72
  -2  -4   1    7.84    0.37
  -1  -4   1    5.91    0.40
   0  -4   1   36.46    1.05
   1  -4   1    1.78    0.21
   2  -4   1    2.65    0.23
   3  -4   1   -0.02    0.08
   4  -4   1    4.54    0.28
   5  -4   1    9.57    0.56
   6  -4   1   -0.08    0.12
   7  -4   1    0.55    0.17
   8  -4   1    6.02    0.47
   9  -4   1    3.97    0.51
  10  -4   1    0.15    0.24
  11  -4   1    7.21    0.77
  12  -4   1    3.61    0.57
  13  -4   1    3.49    0.60
  14  -4   1    5.47    0.76
  15  -4   1    0.20    0.37
  16  -4   1    3.51    0.92
  17  -4   1   -0.40    0.52
 -16  -3   1    2.15    0.77
 -15  -3   1    1.38    0.66
 -14  -3   1   -0.06    0.42
 -13  -3   1    1.73    0.48
 -12  -3   1    0.19    0.21
 -11  -3   1   -0.05    0.18
 -10  -3   1   19.91    0.91
  -9  -3   1   14.92    0.79
  -8  -3   1    9.63    0.61
  -7  -3   1   -0.16    0.10
  -6  -3   1    7.60    0.45
  -5  -3   1   14.16    0.59
  -4  -3   1   31.55    0.89
  -3  -3   1   65.82    1.56
  -2  -3   1    0.96    0.12
  -1  -3   1   12.40    0.38
   0  -3   1    0.82    0.12
   1  -3   1   10.09    0.35
   2  -3   1   34.27    0.82
   3  -3   1    0.32    0.09
   4  -3   1   49.14    1.10
   5  -3   1    2.11    0.23
   6  -3   1    0.37    0.14
   7  -3   1    1.96    0.25
   8  -3   1   21.27    0.81
   9  -3   1   11.46    0.84
  10  -3   1   22.19    1.20
  11  -3   1    1.45    0.37
  12  -3   1    2.11    0.43
  13  -3   1    8.98    0.88
  14  -3   1    0.11    0.29
  15  -3   1    0.45    0.35
  16  -3   1    1.72    0.72
  17  -3   1    4.00    0.97
  18  -3   1    2.45    0.89
 -17  -2   1   -0.50    0.58
 -16  -2   1    0.34    0.58
 -15  -2   1   10.32    1.01
 -14  -2   1    1.94    0.46
 -13  -2   1    2.75    0.52
 -12  -2   1    0.55    0.28
 -11  -2   1    1.38    0.33
 -10  -2   1    4.91    0.47
  -9  -2   1    0.13    0.14
  -8  -2   1    6.05    0.47
  -7  -2   1    1.20    0.20
  -6  -2   1    5.99    0.41
  -5  -2   1    8.07    0.42
  -4  -2   1    1.00    0.15
  -3  -2   1   20.46    0.59
  -2  -2   1    3.41    0.18
  -1  -2   1    2.07    0.14
   0  -2   1   11.36    0.37
   1  -2   1    0.92    0.11
   2  -2   1    3.30    0.18
   3  -2   1   -0.03    0.07
   4  -2   1    3.63    0.26
   5  -2   1    2.10    0.21
   6  -2   1    1.00    0.17
   7  -2   1    0.06    0.11
   8  -2   1    2.74    0.30
   9  -2   1    5.93    0.47
  10  -2   1    0.71    0.28
  11  -2   1    6.17    0.65
  12  -2   1    0.38    0.27
  13  -2   1    2.80    0.48
  14  -2   1    5.02    0.67
  15  -2   1   -0.27    0.39
  16  -2   1    2.56    0.76
  17  -2   1    0.46    0.56
  18  -2   1    0.62    0.62
  19  -2   1    1.85    1.18
 -19  -1   1    0.40    0.77
 -18  -1   1   -0.55    0.56
 -17  -1   1    1.91    0.78
 -16  -1   1    0.14    0.52
 -15  -1   1    0.02    0.42
 -14  -1   1    0.01    0.39
 -13  -1   1    0.10    0.21
 -12  -1   1    0.09    0.21
 -11  -1   1   -0.04    0.16
 -10  -1   1    1.00    0.28
  -9  -1   1    2.24    0.33
  -8  -1   1    1.50    0.22
  -7  -1   1    0.47    0.15
  -6  -1   1    1.70    0.20
  -5  -1   1    1.27    0.17
  -4  -1   1    4.07    0.27
  -3  -1   1   18.25    0.58
  -2  -1   1    0.02    0.06
  -1  -1   1    7.24    0.34
   0  -1   1   -0.05    0.04
   1  -1   1    0.39    0.07
   2  -1   1   13.99    0.47
   3  -1   1    0.04    0.09
   4  -1   1   19.96    0.61
   5  -1   1    0.66    0.15
   6  -1   1    0.02    0.11
   7  -1   1    1.79    0.26
   8  -1   1    3.73    0.38
   9  -1   1    5.19    0.47
  10  -1   1    2.59    0.34
  11  -1   1    0.68    0.26
  12  -1   1    0.22    0.23
  13  -1   1    1.83    0.39
  14  -1   1    0.22    0.39
  15  -1   1   -0.26    0.31
  16  -1   1   -0.20    0.48
  17  -1   1    0.04    0.47
  18  -1   1    0.84    0.61
  19  -1   1   -0.17    0.54
 -19   0   1    0.04    0.65
 -18   0   1    0.69    0.66
 -17   0   1   -0.34    0.51
 -16   0   1   -0.38    0.38
 -15   0   1   -0.60    0.35
 -14   0   1    0.18    0.34
 -13   0   1    0.01    0.36
 -12   0   1    0.10    0.21
 -11   0   1    0.00    0.17
 -10   0   1    0.21    0.16
  -9   0   1   -0.08    0.13
  -8   0   1    0.05    0.12
  -7   0   1   -0.06    0.12
  -6   0   1   -0.01    0.10
  -5   0   1    0.12    0.10
  -4   0   1   -0.16    0.08
  -3   0   1   -0.05    0.06
  -2   0   1    0.02    0.06
  -1   0   1    0.01    0.04
   1   0   1   -0.11    0.06
   2   0   1   -0.31    0.07
   3   0   1   -0.22    0.09
   4   0   1   -0.11    0.09
   5   0   1    0.00    0.10
   6   0   1   -0.02    0.11
   7   0   1   -0.06    0.10
   8   0   1    0.08    0.13
   9   0   1    0.00    0.15
  10   0   1    0.34    0.18
  11   0   1   -0.17    0.16
  12   0   1    0.19    0.21
  13   0   1   -0.01    0.37
  14   0   1   -0.15    0.33
  15   0   1    0.12    0.41
  16   0   1   -0.22    0.43
  17   0   1   -0.10    0.47
  18   0   1    0.09    0.52
  19   0   1   -0.41    0.54
 -19   1   1    0.61    0.66
 -18   1   1    1.00    0.72
 -17   1   1   -0.50    0.49
 -16   1   1    0.36    0.50
 -15   1   1    0.41    0.53
 -14   1   1   -0.43    0.36
 -13   1   1    0.37    0.39
 -12   1   1   -0.57    0.28
 -11   1   1    0.31    0.36
 -10   1   1    2.83    0.36
  -9   1   1    2.20    0.29
  -8   1   1    1.21    0.22
  -7   1   1    0.25    0.13
  -6   1   1    1.45    0.18
  -5   1   1    1.41    0.17
  -4   1   1    4.24    0.25
  -3   1   1   18.96    0.68
  -2   1   1   -0.01    0.08
  -1   1   1    7.12    0.46
   1   1   1    0.50    0.10
   2   1   1   13.46    0.45
   3   1   1    0.21    0.12
   4   1   1   19.43    0.61
   5   1   1    0.75    0.15
   6   1   1    0.08    0.11
   7   1   1    1.76    0.23
   8   1   1    2.85    0.31
   9   1   1    4.92    0.42
  10   1   1    2.59    0.33
  11   1   1    0.88    0.34
  12   1   1   -0.16    0.24
  13   1   1    1.04    0.37
  14   1   1    0.25    0.38
  15   1   1    0.48    0.43
  16   1   1    0.05    0.49
  17   1   1    0.13    0.46
  18   1   1    0.78    0.61
  19   1   1    0.25    0.61
 -19   2   1    1.24    0.78
 -18   2   1   -0.29    0.56
 -17   2   1    0.00    0.48
 -16   2   1    0.11    0.46
 -15   2   1    9.82    1.55
 -14   2   1    1.95    0.66
 -13   2   1    2.58    0.74
 -12   2   1   -0.11    0.29
 -11   2   1    1.49    0.56
 -10   2   1    5.15    0.87
  -9   2   1    0.24    0.27
  -8   2   1    4.88    0.78
  -7   2   1    0.83    0.36
  -6   2   1    4.27    0.65
  -5   2   1    5.85    0.72
  -4   2   1    0.88    0.13
  -3   2   1   21.58    0.77
  -2   2   1    4.88    0.51
  -1   2   1    2.18    0.31
   0   2   1   11.65    0.73
   1   2   1    0.94    0.17
   2   2   1    3.46    0.26
   3   2   1    0.05    0.09
   4   2   1    3.59    0.30
   5   2   1    2.14    0.26
   6   2   1    1.01    0.22
   7   2   1    0.05    0.14
   8   2   1    3.34    0.35
   9   2   1    5.38    0.46
  10   2   1    1.05    0.33
  11   2   1    5.39    0.61
  12   2   1    0.36    0.32
  13   2   1    1.88    0.47
  14   2   1    2.96    0.56
  15   2   1   -0.26    0.37
  16   2   1    2.64    0.71
  17   2   1    0.48    0.54
  18   2   1   -0.13    0.56
  19   2   1   -0.54    0.56
 -18   3   1   -0.30    0.49
 -17   3   1    0.14    0.50
 -16   3   1    1.59    0.76
 -15   3   1    1.45    0.65
 -14   3   1   -0.06    0.42
 -13   3   1    2.23    0.73
 -12   3   1    0.29    0.38
 -11   3   1    0.28    0.40
 -10   3   1   20.83    1.66
  -9   3   1   14.65    1.54
  -8   3   1    9.67    1.17
  -7   3   1    0.07    0.23
  -6   3   1    7.63    0.92
  -5   3   1   14.95    0.60
  -4   3   1   31.42    1.15
  -3   3   1   62.64    3.09
  -2   3   1    0.86    0.26
  -1   3   1   13.49    0.63
   0   3   1    0.47    0.22
   1   3   1   10.53    0.57
   2   3   1   35.76    1.32
   3   3   1    0.47    0.14
   4   3   1   48.13    1.48
   5   3   1    3.51    0.36
   6   3   1    0.08    0.13
   7   3   1    1.62    0.29
   8   3   1   20.58    1.03
   9   3   1   12.10    0.90
  10   3   1   21.90    1.25
  11   3   1    1.96    0.45
  12   3   1    2.44    0.48
  13   3   1   10.37    0.98
  14   3   1    0.74    0.42
  15   3   1    1.52    0.73
  16   3   1    1.75    0.72
  17   3   1    3.86    0.91
  18   3   1    1.53    0.78
 -17   4   1   -0.48    0.61
 -16   4   1    0.16    0.55
 -15   4   1    8.95    1.58
 -14   4   1    9.95    1.55
 -13   4   1    3.97    0.96
 -12   4   1    0.04    0.38
 -11   4   1    2.66    0.76
 -10   4   1    1.45    0.57
  -9   4   1    0.10    0.28
  -8   4   1    6.48    0.97
  -7   4   1    3.39    0.71
  -6   4   1   12.38    1.27
  -5   4   1    4.79    0.73
  -4   4   1    2.83    0.56
  -3   4   1   23.83    1.46
  -2   4   1    7.75    0.60
  -1   4   1    6.33    0.51
   0   4   1   36.13    1.39
   1   4   1    1.67    0.30
   2   4   1    2.45    0.35
   3   4   1    0.07    0.13
   4   4   1    4.68    0.42
   5   4   1   11.05    0.71
   6   4   1    0.13    0.17
   7   4   1    0.42    0.20
   8   4   1    5.35    0.75
   9   4   1    3.89    0.69
  10   4   1    0.11    0.28
  11   4   1    8.63    0.86
  12   4   1    2.71    0.55
  13   4   1    3.61    0.65
  14   4   1    5.94    0.86
  15   4   1    0.13    0.39
  16   4   1    4.27    0.94
  17   4   1   -0.04    0.67
 -16   5   1    3.66    1.14
 -15   5   1    0.18    0.63
 -14   5   1    0.67    0.57
 -13   5   1    0.07    0.48
 -12   5   1    1.02    0.64
 -11   5   1    0.86    0.59
 -10   5   1    5.74    1.09
  -9   5   1    4.93    0.98
  -8   5   1    0.12    0.37
  -7   5   1    2.75    0.65
  -6   5   1   16.09    1.55
  -5   5   1    2.35    0.41
  -4   5   1    4.98    0.57
  -3   5   1   21.91    1.12
  -2   5   1    2.28    0.36
  -1   5   1   14.77    0.87
   0   5   1    0.43    0.16
   1   5   1    0.48    0.16
   2   5   1   19.33    0.81
   3   5   1    2.93    0.38
   4   5   1   63.50    1.98
   5   5   1    1.33    0.27
   6   5   1    3.92    0.48
   7   5   1    4.46    0.69
   8   5   1   15.42    1.33
   9   5   1   17.07    1.48
  10   5   1   15.56    1.18
  11   5   1    8.92    0.94
  12   5   1    0.13    0.34
  13   5   1    9.70    1.07
  14   5   1    2.10    0.56
  15   5   1    0.00    0.47
  16   5   1    4.34    0.90
 -15   6   1    8.19    1.14
 -14   6   1   15.68    1.52
 -13   6   1    0.40    0.41
 -12   6   1    0.18    0.32
 -11   6   1    4.73    0.68
 -10   6   1    0.41    0.39
  -9   6   1    0.76    0.38
  -8   6   1    0.19    0.29
  -7   6   1    3.40    0.59
  -6   6   1    5.90    0.73
  -5   6   1    0.29    0.28
  -4   6   1    3.87    0.55
  -3   6   1    5.86    0.66
  -2   6   1   10.54    1.34
  -1   6   1    9.44    0.91
   0   6   1   58.28    2.40
   1   6   1    0.67    0.28
   2   6   1    0.10    0.23
   3   6   1    0.30    0.21
   4   6   1    0.56    0.26
   5   6   1   22.58    1.15
   6   6   1    1.14    0.41
   7   6   1    0.33    0.38
   8   6   1    2.43    0.53
   9   6   1   -0.32    0.32
  10   6   1   -0.04    0.28
  11   6   1    1.01    0.44
  12   6   1    7.21    0.93
  13   6   1    0.33    0.43
  14   6   1    0.22    0.47
  15   6   1    1.44    0.67
 -14   7   1    0.48    0.82
 -13   7   1    0.19    0.51
 -12   7   1   -0.10    0.39
 -11   7   1    5.69    0.92
 -10   7   1    2.91    0.65
  -9   7   1    6.35    0.90
  -8   7   1    3.29    0.99
  -7   7   1    0.41    0.47
  -6   7   1    9.88    1.55
  -5   7   1    1.86    0.72
  -4   7   1    2.84    0.87
  -3   7   1    0.53    0.47
  -2   7   1   -0.04    0.26
  -1   7   1    0.09    0.28
   0   7   1    0.02    0.28
   1   7   1   -0.03    0.24
   2   7   1    0.01    0.27
   3   7   1    0.30    0.25
   4   7   1    3.90    0.58
   5   7   1    0.38    0.34
   6   7   1    0.31    0.39
   7   7   1   -0.20    0.34
   8   7   1   11.93    1.32
   9   7   1    0.40    0.44
  10   7   1   12.17    1.15
  11   7   1    2.51    0.62
  12   7   1   -0.03    0.44
  13   7   1    3.51    0.79
 -10   8   1    1.29    0.84
  -9   8   1    0.60    0.65
  -8   8   1    0.69    0.71
  -7   8   1    3.21    1.02
  -6   8   1   14.70    2.07
  -5   8   1    0.47    0.60
  -4   8   1   -0.04    0.45
  -3   8   1   15.96    1.48
  -2   8   1   12.93    1.30
  -1   8   1    0.15    0.33
   0   8   1   16.54    1.44
   1   8   1    0.23    0.33
   2   8   1   10.23    0.93
   3   8   1    0.69    0.44
   4   8   1    0.15    0.38
   5   8   1    2.82    0.67
   6   8   1    0.68    0.48
   7   8   1    3.31    0.81
   8   8   1   10.86    1.38
   9   8   1    1.61    0.69
  10   8   1    0.60    0.44
  11   8   1    0.80    1.06
  -7   9   1   -0.23    0.75
  -6   9   1    7.60    1.63
  -5   9   1    0.86    0.55
  -4   9   1    0.81    0.54
  -3   9   1    6.61    1.00
  -2   9   1    0.05    0.45
  -1   9   1    1.07    0.55
   0   9   1    0.88    0.48
   1   9   1   -0.08    0.33
   2   9   1    2.62    0.75
   3   9   1    0.02    0.46
   4   9   1    0.18    0.48
   5   9   1    0.36    0.52
   6   9   1    0.25    0.55
   7   9   1    0.24    0.82
   8   9   1   12.25    2.49
  -8  -9   2    0.50    0.83
  -7  -9   2   -0.09    0.49
  -6  -9   2   13.00    1.41
  -5  -9   2    0.33    0.37
  -4  -9   2    2.12    0.55
  -3  -9   2    0.87    0.51
  -2  -9   2    1.87    0.64
  -1  -9   2    0.02    0.42
   0  -9   2    1.23    0.59
   1  -9   2    0.09    0.39
   2  -9   2    4.29    0.71
   3  -9   2    0.93    0.61
   4  -9   2    2.07    0.73
   5  -9   2    0.49    0.56
   6  -9   2    1.05    0.61
   7  -9   2    2.58    1.17
 -11  -8   2   -0.46    0.48
 -10  -8   2   -0.26    0.42
  -9  -8   2    0.02    0.41
  -8  -8   2   16.67    1.60
  -7  -8   2    3.26    0.74
  -6  -8   2    0.26    0.40
  -5  -8   2   -0.28    0.29
  -4  -8   2    5.60    0.71
  -3  -8   2    7.51    0.79
  -2  -8   2    1.68    0.46
  -1  -8   2    6.39    0.91
   0  -8   2    5.33    0.78
   1  -8   2   21.47    1.40
   2  -8   2   29.07    1.55
   3  -8   2    0.86    0.39
   4  -8   2   24.62    1.54
   5  -8   2   13.60    1.40
   6  -8   2    4.00    0.81
   7  -8   2   20.09    1.82
   8  -8   2    0.53    0.50
   9  -8   2   11.86    1.44
  10  -8   2    0.45    0.64
  11  -8   2    4.42    1.54
 -14  -7   2    0.16    0.89
 -13  -7   2    2.13    0.67
 -12  -7   2   -0.07    0.39
 -11  -7   2    8.10    1.09
 -10  -7   2    1.34    0.56
  -9  -7   2    4.33    0.80
  -8  -7   2    0.22    0.41
  -7  -7   2   -0.06    0.28
  -6  -7   2   51.09    2.01
  -5  -7   2    0.34    0.29
  -4  -7   2    9.03    0.83
  -3  -7   2    2.53    0.44
  -2  -7   2    5.19    0.60
  -1  -7   2    0.26    0.24
   0  -7   2    1.15    0.29
   1  -7   2    0.52    0.27
   2  -7   2   12.33    0.96
   3  -7   2    0.26    0.26
   4  -7   2    0.79    0.32
   5  -7   2    2.63    0.47
   6  -7   2    1.58    0.55
   7  -7   2    0.27    0.39
   8  -7   2    9.04    1.14
   9  -7   2   -0.01    0.39
  10  -7   2    3.65    0.82
  11  -7   2   10.98    1.35
  12  -7   2    4.34    0.95
  13  -7   2   18.52    2.74
 -15  -6   2    2.82    0.77
 -14  -6   2    6.47    1.01
 -13  -6   2    0.81    0.52
 -12  -6   2    2.20    0.59
 -11  -6   2    3.18    0.64
 -10  -6   2    0.25    0.33
  -9  -6   2   12.30    1.16
  -8  -6   2   57.10    2.55
  -7  -6   2    0.82    0.39
  -6  -6   2    7.70    0.74
  -5  -6   2    0.91    0.31
  -4  -6   2    0.07    0.22
  -3  -6   2    0.22    0.22
  -2  -6   2    1.44    0.33
  -1  -6   2   52.44    1.58
   0  -6   2    0.49    0.18
   1  -6   2   64.27    1.78
   2  -6   2   20.97    1.08
   3  -6   2    2.79    0.41
   4  -6   2  127.78    3.65
   5  -6   2   84.38    2.63
   6  -6   2    6.62    0.55
   7  -6   2    8.52    0.79
   8  -6   2    2.45    0.47
   9  -6   2   15.45    1.14
  10  -6   2   11.41    1.03
  11  -6   2    7.67    0.88
  12  -6   2    0.34    0.37
  13  -6   2   13.07    1.20
  14  -6   2    0.49    0.43
  15  -6   2   16.08    1.68
 -17  -5   2    0.60    0.75
 -16  -5   2    9.64    1.63
 -15  -5   2    0.08    0.42
 -14  -5   2    1.06    0.48
 -13  -5   2    0.22    0.32
 -12  -5   2    1.77    0.53
 -11  -5   2    2.75    0.56
 -10  -5   2   18.99    1.45
  -9  -5   2   12.94    1.16
  -8  -5   2    2.50    0.50
  -7  -5   2    7.78    0.84
  -6  -5   2  100.67    3.03
  -5  -5   2    9.05    0.69
  -4  -5   2   18.46    0.95
  -3  -5   2   16.31    0.88
  -2  -5   2    0.47    0.19
  -1  -5   2    2.96    0.32
   0  -5   2    2.54    0.28
   1  -5   2   17.07    0.68
   2  -5   2   31.67    1.01
   3  -5   2   11.81    0.57
   4  -5   2    6.80    0.51
   5  -5   2    1.14    0.24
   6  -5   2    6.77    0.53
   7  -5   2    1.23    0.27
   8  -5   2    1.58    0.36
   9  -5   2    5.74    0.63
  10  -5   2   19.46    1.31
  11  -5   2   -0.46    0.23
  12  -5   2   11.28    1.04
  13  -5   2   14.20    1.18
  14  -5   2    1.04    0.46
  15  -5   2    7.87    0.95
  16  -5   2    3.45    0.98
 -17  -4   2   34.08    3.15
 -16  -4   2   10.53    1.59
 -15  -4   2    0.88    0.61
 -14  -4   2   11.03    1.13
 -13  -4   2    7.85    0.91
 -12  -4   2    1.81    0.46
 -11  -4   2   -0.09    0.23
 -10  -4   2    0.13    0.25
  -9  -4   2    7.03    0.78
  -8  -4   2   64.25    2.54
  -7  -4   2    0.67    0.28
  -6  -4   2   11.99    0.94
  -5  -4   2    1.58    0.30
  -4  -4   2   26.19    0.80
  -3  -4   2   16.06    0.55
  -2  -4   2   -0.15    0.12
  -1  -4   2    5.40    0.37
   0  -4   2    7.77    0.45
   1  -4   2   20.64    0.70
   2  -4   2   89.50    2.13
   3  -4   2    1.11    0.16
   4  -4   2  144.94    2.96
   5  -4   2   92.41    2.31
   6  -4   2    1.79    0.26
   7  -4   2   24.26    0.89
   8  -4   2    4.47    0.42
   9  -4   2   32.98    1.42
  10  -4   2    1.80    0.39
  11  -4   2    5.80    0.68
  12  -4   2    1.66    0.42
  13  -4   2   33.90    1.78
  14  -4   2    0.16    0.33
  15  -4   2   12.93    1.17
  16  -4   2    2.54    0.86
  17  -4   2    2.48    0.79
 -16  -3   2    4.89    1.09
 -15  -3   2    5.67    1.10
 -14  -3   2   -0.24    0.32
 -13  -3   2    1.26    0.41
 -12  -3   2    0.15    0.20
 -11  -3   2    6.82    0.59
 -10  -3   2    0.08    0.15
  -9  -3   2   39.36    1.37
  -8  -3   2    0.56    0.19
  -7  -3   2    1.28    0.22
  -6  -3   2  163.23    4.24
  -5  -3   2   16.40    0.56
  -4  -3   2  143.16    3.19
  -3  -3   2    1.46    0.14
  -2  -3   2   60.41    1.73
  -1  -3   2   -0.12    0.07
   0  -3   2   27.51    0.90
   1  -3   2    0.20    0.09
   2  -3   2   36.91    1.09
   3  -3   2    5.86    0.27
   4  -3   2    1.20    0.12
   5  -3   2   30.32    0.94
   6  -3   2    1.33    0.21
   7  -3   2    0.13    0.14
   8  -3   2   30.10    0.97
   9  -3   2    0.30    0.17
  10  -3   2   30.19    1.37
  11  -3   2    6.09    0.68
  12  -3   2    3.47    0.53
  13  -3   2   26.21    1.46
  14  -3   2    5.16    0.66
  15  -3   2   26.34    2.20
  16  -3   2    0.88    0.63
  17  -3   2    9.64    1.39
  18  -3   2    1.69    0.85
 -16  -2   2   30.76    2.45
 -15  -2   2   -0.32    0.26
 -14  -2   2   17.11    1.28
 -13  -2   2   26.13    1.38
 -12  -2   2    2.12    0.43
 -11  -2   2   28.48    1.10
 -10  -2   2    0.20    0.16
  -9  -2   2    1.22    0.23
  -8  -2   2   49.14    1.54
  -7  -2   2    0.21    0.12
  -6  -2   2  194.69    4.94
  -5  -2   2    0.05    0.09
  -4  -2   2  178.90    3.88
  -3  -2   2   81.80    2.08
  -2  -2   2    1.63    0.20
  -1  -2   2   55.45    1.52
   0  -2   2   54.50    1.29
   1  -2   2   10.81    0.33
   2  -2   2  242.31    4.55
   3  -2   2    0.04    0.05
   4  -2   2  117.12    2.65
   5  -2   2   64.04    1.60
   6  -2   2   69.16    1.73
   7  -2   2   51.01    1.45
   8  -2   2    6.81    0.48
   9  -2   2   66.04    1.83
  10  -2   2    6.86    0.54
  11  -2   2    0.77    0.32
  12  -2   2   12.91    0.97
  13  -2   2   53.42    2.12
  14  -2   2    2.16    0.70
  15  -2   2    3.67    0.85
  16  -2   2    3.76    0.90
  17  -2   2    0.47    0.56
  18  -2   2    5.49    1.08
 -19  -1   2   10.88    1.87
 -18  -1   2    1.81    0.89
 -17  -1   2    0.04    0.60
 -16  -1   2   41.00    2.86
 -15  -1   2   -0.18    0.44
 -14  -1   2    1.10    0.40
 -13  -1   2   19.97    1.17
 -12  -1   2   12.25    0.96
 -11  -1   2    2.67    0.41
 -10  -1   2   33.41    1.45
  -9  -1   2   39.77    1.29
  -8  -1   2   31.90    1.06
  -7  -1   2   30.45    0.98
  -6  -1   2  155.00    3.92
  -5  -1   2    3.75    0.27
  -4  -1   2  126.26    3.12
  -3  -1   2   34.87    0.97
  -2  -1   2   -0.20    0.07
  -1  -1   2    1.37    0.13
   0  -1   2   -0.06    0.05
   1  -1   2   70.58    1.39
   2  -1   2   70.06    1.42
   3  -1   2   43.03    0.92
   4  -1   2   52.65    1.25
   5  -1   2   10.04    0.48
   6  -1   2   57.18    1.54
   7  -1   2    0.98    0.22
   8  -1   2    0.14    0.14
   9  -1   2   15.62    0.79
  10  -1   2   69.50    1.97
  11  -1   2   14.30    0.83
  12  -1   2   21.85    1.18
  13  -1   2    1.79    0.57
  14  -1   2   -0.13    0.34
  15  -1   2   31.97    2.37
  16  -1   2   12.16    1.46
  17  -1   2    1.82    0.68
  18  -1   2   -0.03    0.48
  19  -1   2    2.73    0.85
 -20   0   2    0.97    0.95
 -19   0   2   36.93    3.44
 -18   0   2    0.60    0.74
 -17   0   2   30.68    2.95
 -16   0   2   18.56    2.06
 -15   0   2    1.86    0.70
 -14   0   2   90.82    5.01
 -13   0   2   22.08    2.10
 -12   0   2   47.67    1.91
 -11   0   2    3.22    0.44
 -10   0   2    0.20    0.17
  -9   0   2   64.77    2.34
  -8   0   2  142.94    4.50
  -7   0   2   37.49    1.41
  -6   0   2   95.42    2.97
  -5   0   2    6.83    0.32
  -4   0   2   69.85    1.76
  -3   0   2    0.06    0.06
  -2   0   2   26.62    1.30
  -1   0   2    0.24    0.10
   0   0   2    5.43    0.24
   1   0   2    1.47    0.16
   2   0   2   35.82    1.00
   3   0   2    5.96    0.29
   4   0   2  369.40    8.07
   5   0   2  260.72    5.80
   6   0   2  109.56    2.63
   7   0   2    0.62    0.17
   8   0   2   60.98    1.70
   9   0   2   21.78    0.90
  10   0   2    7.80    0.56
  11   0   2    1.21    0.27
  12   0   2    0.38    0.31
  13   0   2   15.49    1.51
  14   0   2    9.75    1.24
  15   0   2   29.97    2.23
  16   0   2    0.08    0.47
  17   0   2    2.93    0.81
  18   0   2   26.59    2.24
  19   0   2    3.52    0.95
 -19   1   2    8.13    1.68
 -18   1   2    0.96    0.71
 -17   1   2    0.17    0.53
 -16   1   2   31.71    2.67
 -15   1   2    0.52    0.54
 -14   1   2    0.27    0.40
 -13   1   2   15.73    1.79
 -12   1   2   13.06    1.55
 -11   1   2    2.64    0.64
 -10   1   2   35.43    1.39
  -9   1   2   40.76    1.50
  -8   1   2   32.06    1.23
  -7   1   2   29.22    1.13
  -6   1   2  160.39    4.74
  -5   1   2    3.01    0.26
  -4   1   2  129.41    3.79
  -3   1   2   36.07    1.17
  -2   1   2   -0.12    0.10
   1   1   2   70.57    1.79
   2   1   2   71.36    1.89
   3   1   2   41.20    1.19
   4   1   2   52.38    1.32
   5   1   2    9.80    0.45
   6   1   2   56.09    1.50
   7   1   2    1.16    0.20
   8   1   2    0.28    0.14
   9   1   2   14.42    0.71
  10   1   2   67.25    2.36
  11   1   2   12.48    0.98
  12   1   2   20.99    1.34
  13   1   2    2.63    0.51
  14   1   2   -0.54    0.34
  15   1   2   37.18    2.36
  16   1   2   13.11    1.51
  17   1   2    0.68    0.57
  18   1   2   -0.46    0.49
  19   1   2    1.12    0.71
 -19   2   2    4.56    1.25
 -18   2   2   -0.42    0.54
 -17   2   2   72.53    4.39
 -16   2   2   23.97    2.62
 -15   2   2   -0.31    0.39
 -14   2   2   15.21    1.85
 -13   2   2   28.69    2.14
 -12   2   2    1.75    0.65
 -11   2   2   28.28    2.03
 -10   2   2    0.04    0.29
  -9   2   2    0.43    0.36
  -8   2   2   51.41    1.74
  -7   2   2    0.17    0.09
  -6   2   2  197.60    5.90
  -5   2   2    0.26    0.09
  -4   2   2  184.11    5.39
  -3   2   2   79.70    2.51
  -2   2   2    1.52    0.33
   1   2   2   11.30    0.50
   2   2   2  241.57    5.90
   3   2   2    0.08    0.09
   4   2   2  115.10    3.04
   5   2   2   63.58    1.84
   6   2   2   64.05    1.71
   7   2   2   52.89    1.46
   8   2   2    6.81    0.47
   9   2   2   64.38    2.22
  10   2   2    6.32    0.65
  11   2   2    0.66    0.31
  12   2   2   12.82    1.08
  13   2   2   58.60    2.27
  14   2   2    2.39    0.54
  15   2   2    3.55    0.81
  16   2   2    4.91    0.94
  17   2   2   -0.21    0.49
  18   2   2    5.58    1.09
  19   2   2    1.18    0.99
 -18   3   2    4.97    1.33
 -17   3   2    0.20    0.59
 -16   3   2    6.35    1.36
 -15   3   2    8.98    1.51
 -14   3   2    0.32    0.45
 -13   3   2    1.11    0.59
 -12   3   2   -0.18    0.28
 -11   3   2    6.97    1.12
 -10   3   2    0.43    0.36
  -9   3   2   40.76    2.50
  -8   3   2    0.65    0.38
  -7   3   2    0.80    0.37
  -6   3   2  164.43    5.01
  -5   3   2   16.05    0.68
  -4   3   2  146.68    4.41
  -3   3   2    0.62    0.26
  -2   3   2   58.92    2.87
  -1   3   2   -0.06    0.14
   0   3   2   30.10    1.58
   1   3   2    0.11    0.12
   2   3   2   35.48    1.13
   3   3   2    7.00    0.45
   4   3   2    1.13    0.20
   5   3   2   31.11    1.27
   6   3   2    1.54    0.25
   7   3   2    0.06    0.14
   8   3   2   26.27    1.18
   9   3   2    0.62    0.27
  10   3   2   27.38    1.44
  11   3   2    5.87    0.73
  12   3   2    3.52    0.61
  13   3   2   24.16    1.55
  14   3   2    3.67    0.64
  15   3   2   27.10    1.93
  16   3   2    1.30    0.65
  17   3   2    5.74    1.06
  18   3   2    1.19    0.73
 -17   4   2   34.61    3.32
 -16   4   2   10.83    1.75
 -15   4   2    1.55    0.75
 -14   4   2   10.48    1.58
 -13   4   2    9.54    1.49
 -12   4   2    0.68    0.51
 -11   4   2    0.18    0.37
 -10   4   2    0.60    0.37
  -9   4   2    6.31    1.01
  -8   4   2   66.30    3.58
  -7   4   2    1.10    0.42
  -6   4   2   13.77    1.33
  -5   4   2    1.41    0.24
  -4   4   2   27.77    1.69
  -3   4   2   16.11    1.15
  -2   4   2    0.31    0.23
  -1   4   2    6.29    0.53
   0   4   2    5.80    0.77
   1   4   2   21.37    1.00
   2   4   2   88.10    3.03
   3   4   2    1.14    0.22
   4   4   2  140.41    3.87
   5   4   2   93.42    2.66
   6   4   2    1.86    0.32
   7   4   2   22.72    1.42
   8   4   2    5.96    0.82
   9   4   2   34.22    1.49
  10   4   2    1.55    0.42
  11   4   2    4.95    0.69
  12   4   2    2.15    0.52
  13   4   2   33.68    1.85
  14   4   2   -0.34    0.34
  15   4   2   13.28    1.27
  16   4   2    2.86    0.89
  17   4   2    1.04    0.73
 -16   5   2   10.78    1.81
 -15   5   2    0.45    0.59
 -14   5   2    1.78    0.79
 -13   5   2    0.62    0.53
 -12   5   2    2.96    0.88
 -11   5   2    2.84    0.85
 -10   5   2   21.01    2.09
  -9   5   2   12.38    1.52
  -8   5   2    1.91    0.59
  -7   5   2    9.49    1.20
  -6   5   2  101.53    5.05
  -5   5   2   10.32    1.18
  -4   5   2   18.26    1.02
  -3   5   2   16.90    1.00
  -2   5   2    0.13    0.18
  -1   5   2    3.32    0.43
   0   5   2    3.36    0.36
   1   5   2   16.88    0.75
   2   5   2   32.50    1.45
   3   5   2   12.39    0.68
   4   5   2    8.61    0.63
   5   5   2    0.55    0.20
   6   5   2    4.49    0.67
   7   5   2    0.87    0.37
   8   5   2    2.15    0.54
   9   5   2    4.87    0.61
  10   5   2   18.75    1.31
  11   5   2    0.30    0.32
  12   5   2   12.05    1.12
  13   5   2   12.52    1.21
  14   5   2    1.07    0.51
  15   5   2   10.41    1.14
  16   5   2    5.04    0.87
 -15   6   2    1.33    0.61
 -14   6   2    6.43    1.39
 -13   6   2    0.34    0.62
 -12   6   2    1.45    0.75
 -11   6   2    7.18    1.31
 -10   6   2    1.43    0.65
  -9   6   2   11.38    1.50
  -8   6   2   57.86    2.52
  -7   6   2    1.01    0.39
  -6   6   2    9.17    0.90
  -5   6   2    1.60    0.41
  -4   6   2    0.14    0.24
  -3   6   2    0.74    0.29
  -2   6   2    0.80    0.27
  -1   6   2   53.46    2.25
   0   6   2    0.05    0.22
   1   6   2   61.38    2.52
   2   6   2   19.42    1.06
   3   6   2    1.82    0.34
   4   6   2  125.83    3.63
   5   6   2   79.31    3.27
   6   6   2    5.69    0.80
   7   6   2    7.05    0.97
   8   6   2    2.04    0.58
   9   6   2   14.91    1.50
  10   6   2    9.72    0.98
  11   6   2    6.74    0.86
  12   6   2    0.29    0.42
  13   6   2   17.60    1.51
  14   6   2    0.68    0.55
  15   6   2   14.87    1.73
 -14   7   2    0.55    0.79
 -13   7   2    1.17    0.56
 -12   7   2   -0.15    0.41
 -11   7   2    5.58    0.93
 -10   7   2    0.97    0.49
  -9   7   2    4.78    0.70
  -8   7   2    1.33    0.47
  -7   7   2    0.02    0.47
  -6   7   2   57.00    3.60
  -5   7   2    0.34    0.44
  -4   7   2    9.01    1.42
  -3   7   2    2.33    0.78
  -2   7   2    4.40    0.69
  -1   7   2   -0.01    0.27
   0   7   2    1.68    0.45
   1   7   2   -0.05    0.25
   2   7   2   12.09    0.90
   3   7   2    0.21    0.24
   4   7   2    0.54    0.36
   5   7   2    2.36    0.57
   6   7   2    2.03    0.59
   7   7   2    0.08    0.36
   8   7   2    8.47    1.11
   9   7   2    0.50    0.39
  10   7   2    4.21    0.72
  11   7   2   10.82    1.15
  12   7   2    1.65    0.60
  13   7   2   14.08    1.71
 -11   8   2   -0.08    0.77
 -10   8   2   -0.83    0.54
  -9   8   2    0.26    0.65
  -8   8   2   21.88    2.64
  -7   8   2    3.22    1.06
  -6   8   2   -0.36    0.49
  -5   8   2    0.54    0.58
  -4   8   2    4.99    1.21
  -3   8   2    6.34    0.93
  -2   8   2    1.52    0.51
  -1   8   2    8.09    1.02
   0   8   2    5.37    0.84
   1   8   2   22.26    1.38
   2   8   2   28.51    1.78
   3   8   2    0.33    0.37
   4   8   2   24.45    1.90
   5   8   2   10.97    1.80
   6   8   2    6.57    1.05
   7   8   2   22.37    1.91
   8   8   2    0.27    0.57
   9   8   2   12.94    1.23
  10   8   2   -0.02    0.47
  11   8   2    2.88    1.46
  -7   9   2    0.35    0.78
  -6   9   2   14.27    2.20
  -5   9   2   -0.24    0.37
  -4   9   2    1.22    0.60
  -3   9   2    0.78    0.52
  -2   9   2    1.59    0.60
  -1   9   2    0.58    0.45
   0   9   2    1.48    0.48
   1   9   2    0.27    0.40
   2   9   2    3.83    0.77
   3   9   2    0.23    0.47
   4   9   2    2.22    0.71
   5   9   2    0.87    0.58
   6   9   2    1.13    0.68
   7   9   2    1.45    1.09
  -8  -9   3   -0.32    0.63
  -7  -9   3    5.19    0.94
  -6  -9   3   11.76    1.41
  -5  -9   3    2.07    0.56
  -4  -9   3    1.62    0.65
  -3  -9   3    0.16    0.46
  -2  -9   3    0.16    0.41
  -1  -9   3    0.96    0.54
   0  -9   3    0.26    0.49
   1  -9   3    0.08    0.45
   2  -9   3    3.66    0.66
   3  -9   3    0.79    0.46
   4  -9   3    2.39    0.75
   5  -9   3   -0.11    0.56
   6  -9   3    0.02    0.54
 -11  -8   3    5.02    0.93
 -10  -8   3    0.08    0.46
  -9  -8   3   -0.31    0.44
  -8  -8   3    0.60    0.48
  -7  -8   3    0.18    0.39
  -6  -8   3    3.90    0.64
  -5  -8   3    2.63    0.55
  -4  -8   3    0.10    0.32
  -3  -8   3    0.64    0.37
  -2  -8   3    7.67    0.79
  -1  -8   3   13.70    1.35
   0  -8   3    1.63    0.54
   1  -8   3    6.73    0.79
   2  -8   3   26.21    1.60
   3  -8   3    6.55    0.78
   4  -8   3   11.32    1.00
   5  -8   3   -0.05    0.40
   6  -8   3    0.66    0.49
   7  -8   3    2.06    0.67
   8  -8   3    0.67    0.54
   9  -8   3    0.47    0.54
  10  -8   3    0.34    0.60
 -14  -7   3   -0.20    0.74
 -13  -7   3   -0.53    0.43
 -12  -7   3    3.76    0.81
 -11  -7   3    1.02    0.52
 -10  -7   3    1.84    0.60
  -9  -7   3    4.92    0.82
  -8  -7   3    0.81    0.43
  -7  -7   3    3.16    0.66
  -6  -7   3   14.97    1.12
  -5  -7   3    0.97    0.34
  -4  -7   3   19.38    1.21
  -3  -7   3    0.60    0.28
  -2  -7   3    3.27    0.50
  -1  -7   3    2.17    0.41
   0  -7   3    0.94    0.31
   1  -7   3    0.48    0.25
   2  -7   3   11.59    0.91
   3  -7   3    7.52    0.76
   4  -7   3    5.50    0.64
   5  -7   3    2.98    0.52
   6  -7   3    0.20    0.37
   7  -7   3    3.77    0.74
   8  -7   3    1.59    0.58
   9  -7   3    0.20    0.43
  10  -7   3    0.43    0.49
  11  -7   3    1.29    0.65
  12  -7   3    2.40    0.75
  13  -7   3    1.19    1.08
 -15  -6   3   -0.90    0.39
 -14  -6   3   10.24    1.24
 -13  -6   3    0.00    0.35
 -12  -6   3    0.39    0.36
 -11  -6   3    0.38    0.35
 -10  -6   3    0.29    0.36
  -9  -6   3   18.49    1.50
  -8  -6   3    0.15    0.31
  -7  -6   3   12.46    1.13
  -6  -6   3   -0.06    0.18
  -5  -6   3    3.64    0.49
  -4  -6   3   12.70    0.88
  -3  -6   3    8.26    0.70
  -2  -6   3    0.95    0.27
  -1  -6   3    4.67    0.43
   0  -6   3    0.14    0.17
   1  -6   3    2.43    0.32
   2  -6   3   11.73    0.84
   3  -6   3    5.55    0.58
   4  -6   3   36.47    1.45
   5  -6   3    8.70    0.75
   6  -6   3    1.57    0.35
   7  -6   3    2.08    0.50
   8  -6   3    7.12    0.76
   9  -6   3   -0.22    0.24
  10  -6   3   12.36    1.04
  11  -6   3    0.98    0.39
  12  -6   3    1.47    0.52
  13  -6   3   -0.01    0.38
  14  -6   3    0.02    0.38
  15  -6   3    5.81    1.06
 -17  -5   3   -0.22    0.64
 -16  -5   3    1.99    0.86
 -15  -5   3    1.32    0.55
 -14  -5   3    1.16    0.45
 -13  -5   3    0.23    0.35
 -12  -5   3    1.99    0.54
 -11  -5   3    3.01    0.61
 -10  -5   3   24.52    1.66
  -9  -5   3   27.76    1.54
  -8  -5   3   10.50    0.99
  -7  -5   3    0.57    0.28
  -6  -5   3   11.41    0.81
  -5  -5   3    5.38    0.53
  -4  -5   3   53.09    1.78
  -3  -5   3   17.61    0.92
  -2  -5   3   21.55    0.92
  -1  -5   3    2.35    0.29
   0  -5   3    0.63    0.18
   1  -5   3    0.71    0.17
   2  -5   3   42.97    1.25
   3  -5   3   28.24    1.13
   4  -5   3    9.29    0.70
   5  -5   3    5.65    0.48
   6  -5   3    3.01    0.36
   7  -5   3   18.54    0.88
   8  -5   3    2.56    0.45
   9  -5   3    1.06    0.33
  10  -5   3    0.55    0.31
  11  -5   3   10.88    0.98
  12  -5   3    0.83    0.39
  13  -5   3    0.20    0.34
  14  -5   3    2.69    0.61
  15  -5   3    0.31    0.39
  16  -5   3    2.82    0.91
 -18  -4   3    0.36    0.68
 -17  -4   3    7.91    1.48
 -16  -4   3    2.97    0.93
 -15  -4   3    2.42    0.80
 -14  -4   3   15.83    1.35
 -13  -4   3    0.37    0.32
 -12  -4   3    1.22    0.43
 -11  -4   3    0.10    0.26
 -10  -4   3    0.67    0.30
  -9  -4   3   25.93    1.35
  -8  -4   3    1.04    0.32
  -7  -4   3    8.08    0.78
  -6  -4   3    1.21    0.27
  -5  -4   3    8.57    0.63
  -4  -4   3   11.31    0.71
  -3  -4   3    4.07    0.40
  -2  -4   3    3.27    0.35
  -1  -4   3   15.32    0.59
   0  -4   3    0.36    0.13
   1  -4   3    7.88    0.45
   2  -4   3   18.29    0.63
   3  -4   3    1.56    0.18
   4  -4   3   13.54    0.51
   5  -4   3   13.91    0.67
   6  -4   3    5.02    0.42
   7  -4   3    0.88    0.22
   8  -4   3   15.05    0.75
   9  -4   3    0.59    0.27
  10  -4   3   20.96    1.29
  11  -4   3    0.17    0.25
  12  -4   3    0.69    0.36
  13  -4   3   -0.04    0.27
  14  -4   3   -0.13    0.29
  15  -4   3   12.86    1.60
  16  -4   3    1.37    0.65
  17  -4   3    0.37    0.62
 -17  -3   3    0.21    0.85
 -16  -3   3   -0.31    0.38
 -15  -3   3    0.94    0.56
 -14  -3   3    0.14    0.41
 -13  -3   3    2.03    0.47
 -12  -3   3    2.05    0.45
 -11  -3   3   -0.19    0.15
 -10  -3   3   13.80    0.81
  -9  -3   3   29.57    1.11
  -8  -3   3    2.43    0.31
  -7  -3   3    5.21    0.41
  -6  -3   3   18.63    0.72
  -5  -3   3    0.26    0.10
  -4  -3   3   76.92    1.81
  -3  -3   3    7.63    0.48
  -2  -3   3   94.05    2.52
  -1  -3   3    6.01    0.35
   0  -3   3    3.88    0.28
   1  -3   3    9.84    0.43
   2  -3   3   29.58    0.81
   3  -3   3  105.98    2.18
   4  -3   3    6.94    0.29
   5  -3   3   27.86    0.88
   6  -3   3    0.18    0.13
   7  -3   3   15.41    0.70
   8  -3   3   21.83    0.87
   9  -3   3    0.17    0.16
  10  -3   3    6.57    0.68
  11  -3   3    5.49    0.63
  12  -3   3   -0.19    0.24
  13  -3   3    1.88    0.42
  14  -3   3    9.21    1.31
  15  -3   3    0.40    0.52
  16  -3   3    1.21    0.70
  17  -3   3    0.79    0.71
  18  -3   3    0.44    0.71
 -16  -2   3    2.16    0.83
 -15  -2   3    2.16    0.51
 -14  -2   3    7.07    0.80
 -13  -2   3    0.10    0.26
 -12  -2   3    1.36    0.30
 -11  -2   3    0.00    0.16
 -10  -2   3    1.77    0.28
  -9  -2   3   13.07    0.67
  -8  -2   3    0.00    0.11
  -7  -2   3    2.64    0.26
  -6  -2   3    0.94    0.16
  -5  -2   3    6.80    0.36
  -4  -2   3    5.21    0.26
  -3  -2   3    0.72    0.15
  -2  -2   3    3.13    0.26
  -1  -2   3   16.56    0.51
   0  -2   3    0.87    0.13
   1  -2   3    6.51    0.29
   2  -2   3   12.03    0.36
   3  -2   3    0.20    0.07
   4  -2   3    1.44    0.19
   5  -2   3   10.62    0.51
   6  -2   3    4.40    0.35
   7  -2   3    0.14    0.13
   8  -2   3    8.19    0.55
   9  -2   3    0.72    0.23
  10  -2   3   12.33    0.75
  11  -2   3    0.11    0.23
  12  -2   3    0.05    0.25
  13  -2   3    0.37    0.30
  14  -2   3    0.02    0.37
  15  -2   3    4.49    0.92
  16  -2   3    1.27    0.62
  17  -2   3    0.16    0.54
  18  -2   3   -0.54    0.53
 -19  -1   3   -0.41    0.71
 -18  -1   3    0.51    0.76
 -17  -1   3   -0.15    0.57
 -16  -1   3    0.95    0.60
 -15  -1   3    0.54    0.47
 -14  -1   3    0.59    0.31
 -13  -1   3    0.08    0.21
 -12  -1   3    0.47    0.26
 -11  -1   3    0.27    0.22
 -10  -1   3    3.70    0.37
  -9  -1   3    7.57    0.51
  -8  -1   3    1.27    0.21
  -7  -1   3    1.23    0.19
  -6  -1   3    1.67    0.20
  -5  -1   3    1.53    0.18
  -4  -1   3   18.35    0.59
  -3  -1   3    5.35    0.23
  -2  -1   3   20.65    0.52
  -1  -1   3    0.27    0.11
   0  -1   3    0.06    0.06
   1  -1   3    1.57    0.13
   2  -1   3   10.31    0.31
   3  -1   3   19.09    0.50
   4  -1   3    2.10    0.17
   5  -1   3    3.84    0.25
   6  -1   3    0.65    0.17
   7  -1   3    3.76    0.36
   8  -1   3    2.10    0.34
   9  -1   3    0.28    0.17
  10  -1   3    1.09    0.26
  11  -1   3    1.79    0.32
  12  -1   3    0.35    0.36
  13  -1   3    0.16    0.39
  14  -1   3    0.30    0.41
  15  -1   3    0.35    0.44
  16  -1   3    0.14    0.45
  17  -1   3   -0.12    0.48
  18  -1   3   -0.24    0.52
  19  -1   3    1.67    1.03
 -20   0   3    0.88    0.87
 -19   0   3    0.01    0.69
 -18   0   3    0.03    0.58
 -17   0   3   -0.53    0.52
 -16   0   3    0.52    0.53
 -15   0   3   -0.20    0.33
 -14   0   3   -0.28    0.33
 -13   0   3   -0.06    0.31
 -12   0   3   -0.10    0.16
 -11   0   3    0.06    0.18
 -10   0   3    0.15    0.16
  -9   0   3   -0.10    0.12
  -8   0   3    0.00    0.12
  -7   0   3   -0.07    0.10
  -6   0   3    0.10    0.08
  -5   0   3   -0.04    0.07
  -4   0   3   -0.03    0.06
  -3   0   3   -0.03    0.06
  -2   0   3   -0.08    0.07
  -1   0   3   -0.11    0.08
   0   0   3   -0.16    0.07
   1   0   3    0.01    0.06
   2   0   3   -0.03    0.06
   3   0   3    0.02    0.08
   4   0   3   -0.05    0.09
   5   0   3   -0.04    0.09
   6   0   3   -0.06    0.10
   7   0   3   -0.10    0.10
   8   0   3    0.09    0.14
   9   0   3   -0.09    0.13
  10   0   3   -0.02    0.16
  11   0   3    0.36    0.29
  12   0   3    0.06    0.28
  13   0   3    0.18    0.38
  14   0   3   -0.07    0.35
  15   0   3   -0.41    0.40
  16   0   3   -0.16    0.45
  17   0   3   -0.18    0.48
  18   0   3    0.49    0.55
  19   0   3    0.78    0.71
 -19   1   3   -0.55    0.51
 -18   1   3   -0.01    0.60
 -17   1   3    0.10    0.49
 -16   1   3    0.33    0.48
 -15   1   3    0.21    0.45
 -14   1   3   -0.11    0.41
 -13   1   3    0.11    0.38
 -12   1   3    0.62    0.46
 -11   1   3   -0.30    0.20
 -10   1   3    3.79    0.42
  -9   1   3    8.57    0.55
  -8   1   3    1.89    0.27
  -7   1   3    1.23    0.20
  -6   1   3    1.73    0.22
  -5   1   3    1.35    0.20
  -4   1   3   17.63    0.71
  -3   1   3    5.35    0.33
  -2   1   3   21.04    0.72
  -1   1   3    0.32    0.13
   0   1   3   -0.15    0.08
   1   1   3    1.69    0.16
   2   1   3   11.58    0.45
   3   1   3   18.44    0.72
   4   1   3    2.00    0.17
   5   1   3    3.51    0.26
   6   1   3    0.77    0.15
   7   1   3    3.89    0.32
   8   1   3    2.85    0.29
   9   1   3    0.06    0.14
  10   1   3    0.87    0.32
  11   1   3    2.37    0.46
  12   1   3   -0.21    0.24
  13   1   3    0.09    0.32
  14   1   3    0.79    0.51
  15   1   3    0.42    0.46
  16   1   3    0.60    0.54
  17   1   3   -0.22    0.50
  18   1   3    0.33    0.54
  19   1   3   -0.12    0.78
 -19   2   3    0.87    0.76
 -18   2   3    0.29    0.53
 -17   2   3    4.80    1.21
 -16   2   3   -0.11    0.50
 -15   2   3    2.94    0.84
 -14   2   3    4.94    1.02
 -13   2   3    0.07    0.32
 -12   2   3    0.97    0.49
 -11   2   3   -0.28    0.24
 -10   2   3    1.01    0.50
  -9   2   3   11.00    1.28
  -8   2   3    0.08    0.11
  -7   2   3    2.97    0.28
  -6   2   3    2.13    0.23
  -5   2   3    6.59    0.39
  -4   2   3    5.13    0.34
  -3   2   3    0.55    0.14
  -2   2   3    3.05    0.43
   1   2   3    6.86    0.32
   2   2   3   12.72    0.46
   3   2   3    0.04    0.09
   4   2   3    1.42    0.17
   5   2   3   10.13    0.46
   6   2   3    4.20    0.32
   7   2   3    0.14    0.12
   8   2   3    9.95    0.80
   9   2   3    0.70    0.29
  10   2   3   11.41    0.94
  11   2   3    0.53    0.33
  12   2   3   -0.23    0.26
  13   2   3    0.47    0.32
  14   2   3    0.30    0.36
  15   2   3    4.83    0.95
  16   2   3    0.36    0.48
  17   2   3    0.49    0.55
  18   2   3    0.69    0.64
 -18   3   3    0.51    0.68
 -17   3   3    0.36    0.59
 -16   3   3   -0.64    0.46
 -15   3   3    1.05    0.66
 -14   3   3    0.67    0.50
 -13   3   3    0.57    0.46
 -12   3   3    2.01    0.67
 -11   3   3    0.01    0.27
 -10   3   3   13.50    1.52
  -9   3   3   28.96    2.03
  -8   3   3    1.74    0.51
  -7   3   3    5.95    0.86
  -6   3   3   19.04    0.80
  -5   3   3    0.47    0.15
  -4   3   3   75.80    2.51
  -3   3   3    7.70    0.81
  -2   3   3   95.39    4.28
   1   3   3    9.67    0.52
   2   3   3   28.63    0.94
   3   3   3  107.20    2.83
   4   3   3    7.74    0.45
   5   3   3   26.71    0.97
   6   3   3   -0.12    0.11
   7   3   3   16.07    1.00
   8   3   3   22.05    1.18
   9   3   3   -0.12    0.22
  10   3   3    7.31    0.75
  11   3   3    4.01    0.62
  12   3   3   -0.12    0.27
  13   3   3    2.43    0.56
  14   3   3    6.81    0.87
  15   3   3    0.22    0.40
  16   3   3    0.74    0.60
  17   3   3   -0.23    0.51
  18   3   3    0.34    0.77
 -17   4   3    9.16    1.66
 -16   4   3    2.08    0.92
 -15   4   3    0.92    0.62
 -14   4   3   15.22    1.93
 -13   4   3    0.28    0.49
 -12   4   3    1.67    0.68
 -11   4   3    0.12    0.36
 -10   4   3    0.75    0.45
  -9   4   3   22.88    1.85
  -8   4   3    0.50    0.41
  -7   4   3    8.12    1.10
  -6   4   3    0.94    0.41
  -5   4   3    9.28    0.56
  -4   4   3   11.06    0.64
  -3   4   3    3.68    0.59
  -2   4   3    2.99    0.52
  -1   4   3   17.63    0.83
   0   4   3    0.41    0.19
   1   4   3    8.47    0.64
   2   4   3   18.20    0.75
   3   4   3    1.26    0.22
   4   4   3   13.85    0.71
   5   4   3   14.58    0.75
   6   4   3    4.11    0.62
   7   4   3    1.07    0.34
   8   4   3   14.00    0.98
   9   4   3    0.13    0.25
  10   4   3   23.21    1.44
  11   4   3    0.25    0.33
  12   4   3    0.89    0.41
  13   4   3   -0.19    0.31
  14   4   3   -0.04    0.39
  15   4   3   11.28    1.20
  16   4   3    2.18    0.80
  17   4   3    1.13    0.76
 -16   5   3    0.10    0.60
 -15   5   3    0.69    0.67
 -14   5   3    1.03    0.66
 -13   5   3    0.28    0.52
 -12   5   3    2.05    0.81
 -11   5   3    2.32    0.80
 -10   5   3   21.54    2.14
  -9   5   3   28.60    2.14
  -8   5   3   13.79    1.52
  -7   5   3    0.31    0.34
  -6   5   3   13.48    1.40
  -5   5   3    5.85    0.87
  -4   5   3   54.22    2.92
  -3   5   3   18.47    0.99
  -2   5   3   21.84    1.08
  -1   5   3    1.72    0.32
   0   5   3    0.70    0.20
   1   5   3    1.40    0.32
   2   5   3   43.96    1.47
   3   5   3   26.65    1.06
   4   5   3   10.02    0.70
   5   5   3    3.57    0.58
   6   5   3    2.85    0.55
   7   5   3   18.33    1.44
   8   5   3    2.60    0.46
   9   5   3    0.74    0.35
  10   5   3    0.32    0.32
  11   5   3   13.03    1.14
  12   5   3    1.59    0.51
  13   5   3    1.23    0.50
  14   5   3    2.42    0.64
  15   5   3   -0.23    0.46
  16   5   3    3.12    0.97
 -15   6   3    0.00    0.66
 -14   6   3   10.80    1.79
 -13   6   3   -0.53    0.49
 -12   6   3   -0.40    0.42
 -11   6   3    0.03    0.53
 -10   6   3    0.37    0.51
  -9   6   3   19.20    2.02
  -8   6   3    0.64    0.46
  -7   6   3   15.57    1.72
  -6   6   3    0.04    0.25
  -5   6   3    2.79    0.49
  -4   6   3   11.00    0.96
  -3   6   3    7.24    0.73
  -2   6   3    1.02    0.32
  -1   6   3    3.90    0.54
   0   6   3   -0.02    0.21
   1   6   3    2.07    0.44
   2   6   3   11.70    0.80
   3   6   3    6.20    0.58
   4   6   3   39.47    1.85
   5   6   3    8.17    0.94
   6   6   3    0.28    0.33
   7   6   3    2.52    0.62
   8   6   3    7.72    1.03
   9   6   3   -0.13    0.30
  10   6   3   15.27    1.22
  11   6   3   -0.01    0.36
  12   6   3   -0.05    0.38
  13   6   3    0.32    0.46
  14   6   3   -0.07    0.50
  15   6   3    7.48    1.74
 -14   7   3   -0.68    0.64
 -13   7   3    0.26    0.49
 -12   7   3    2.82    0.76
 -11   7   3    0.12    0.40
 -10   7   3    1.21    0.51
  -9   7   3    4.20    0.78
  -8   7   3    1.24    0.47
  -7   7   3    2.20    0.53
  -6   7   3   26.20    2.56
  -5   7   3    0.83    0.57
  -4   7   3   14.56    1.87
  -3   7   3    0.10    0.33
  -2   7   3    4.11    0.64
  -1   7   3    1.73    0.47
   0   7   3    1.04    0.38
   1   7   3    0.39    0.23
   2   7   3    9.31    0.81
   3   7   3    7.94    0.93
   4   7   3    3.40    0.65
   5   7   3    4.23    0.75
   6   7   3    0.24    0.36
   7   7   3    3.55    0.77
   8   7   3    1.43    0.44
   9   7   3   -0.01    0.33
  10   7   3   -0.34    0.35
  11   7   3    1.10    0.53
  12   7   3    2.61    0.69
 -11   8   3    7.26    1.72
 -10   8   3    0.26    0.70
  -9   8   3    0.42    0.64
  -8   8   3    0.22    0.69
  -7   8   3    1.10    0.74
  -6   8   3    2.03    0.82
  -5   8   3    1.99    0.86
  -4   8   3    0.23    0.55
  -3   8   3    0.30    0.37
  -2   8   3    8.46    1.00
  -1   8   3   14.92    1.39
   0   8   3    1.28    0.44
   1   8   3   10.13    0.90
   2   8   3   27.04    1.77
   3   8   3    7.10    1.00
   4   8   3   12.35    1.30
   5   8   3   -0.10    0.32
   6   8   3    0.71    0.47
   7   8   3    0.95    0.56
   8   8   3    1.23    0.47
   9   8   3    0.78    0.50
  10   8   3    0.03    0.48
  -7   9   3    2.60    1.09
  -6   9   3   15.24    2.22
  -5   9   3    3.25    0.80
  -4   9   3    1.65    0.64
  -3   9   3    0.03    0.40
  -2   9   3    0.67    0.51
  -1   9   3    1.95    0.61
   0   9   3    1.59    0.58
   1   9   3    0.15    0.44
   2   9   3    3.65    0.83
   3   9   3    0.76    0.50
   4   9   3    1.61    0.60
   5   9   3    0.23    0.53
   6   9   3    0.00    0.41
   7   9   3    0.74    0.96
  -8  -9   4    0.94    0.84
  -7  -9   4    0.08    0.54
  -6  -9   4    0.03    0.46
  -5  -9   4    0.69    0.44
  -4  -9   4    0.03    0.50
  -3  -9   4    1.40    0.59
  -2  -9   4    1.36    0.65
  -1  -9   4    5.66    0.98
   0  -9   4    0.05    0.43
   1  -9   4    1.45    0.57
   2  -9   4    1.72    0.51
   3  -9   4    3.03    0.64
   4  -9   4    6.55    1.09
   5  -9   4    1.28    0.61
   6  -9   4    0.13    0.80
 -11  -8   4    1.17    0.59
 -10  -8   4    3.27    0.81
  -9  -8   4    1.21    0.58
  -8  -8   4   19.13    1.67
  -7  -8   4    6.79    0.98
  -6  -8   4   13.66    1.13
  -5  -8   4   38.59    1.73
  -4  -8   4   29.91    1.68
  -3  -8   4    1.53    0.42
  -2  -8   4   14.14    1.40
  -1  -8   4   27.25    2.00
   0  -8   4   56.49    2.68
   1  -8   4    8.01    0.86
   2  -8   4   -0.11    0.29
   3  -8   4    2.32    0.52
   4  -8   4    6.91    0.70
   5  -8   4    0.25    0.42
   6  -8   4    2.56    0.69
   7  -8   4    3.03    0.75
   8  -8   4    6.10    1.09
   9  -8   4    0.52    0.58
  10  -8   4    3.68    1.31
 -14  -7   4    1.72    1.09
 -13  -7   4    0.85    0.53
 -12  -7   4   39.35    2.35
 -11  -7   4    0.43    0.44
 -10  -7   4    0.40    0.42
  -9  -7   4    0.45    0.38
  -8  -7   4    3.48    0.67
  -7  -7   4    0.24    0.37
  -6  -7   4    1.19    0.37
  -5  -7   4    0.67    0.30
  -4  -7   4    0.70    0.29
  -3  -7   4   -0.05    0.24
  -2  -7   4    2.39    0.42
  -1  -7   4   14.59    1.01
   0  -7   4    0.49    0.29
   1  -7   4    0.63    0.29
   2  -7   4   13.42    1.01
   3  -7   4   11.51    0.94
   4  -7   4   12.98    1.02
   5  -7   4    2.19    0.45
   6  -7   4    0.28    0.40
   7  -7   4   40.21    2.17
   8  -7   4    0.93    0.52
   9  -7   4    0.32    0.46
  10  -7   4    0.34    0.50
  11  -7   4    2.93    0.79
  12  -7   4    1.89    0.79
 -15  -6   4    5.50    0.98
 -14  -6   4    3.75    0.79
 -13  -6   4    2.45    0.65
 -12  -6   4   45.35    2.34
 -11  -6   4    2.80    0.62
 -10  -6   4    0.35    0.39
  -9  -6   4   18.13    1.46
  -8  -6   4   55.02    2.49
  -7  -6   4   -0.17    0.24
  -6  -6   4   14.76    1.03
  -5  -6   4   29.26    1.28
  -4  -6   4  166.96    4.55
  -3  -6   4    5.33    0.56
  -2  -6   4    7.12    0.63
  -1  -6   4   26.10    0.97
   0  -6   4   78.98    2.15
   1  -6   4    0.78    0.21
   2  -6   4    0.24    0.22
   3  -6   4   27.08    1.21
   4  -6   4   -0.04    0.19
   5  -6   4    0.17    0.22
   6  -6   4   -0.17    0.19
   7  -6   4   15.00    1.07
   8  -6   4   22.61    1.72
   9  -6   4   10.87    1.25
  10  -6   4   26.04    2.05
  11  -6   4    0.16    0.46
  12  -6   4    0.45    0.56
  13  -6   4   -0.32    0.49
  14  -6   4    2.46    0.91
 -17  -5   4    5.47    1.34
 -16  -5   4    1.57    0.87
 -15  -5   4    7.98    1.44
 -14  -5   4    0.09    0.34
 -13  -5   4    3.07    0.64
 -12  -5   4   73.62    3.05
 -11  -5   4    0.22    0.29
 -10  -5   4    6.32    0.81
  -9  -5   4   15.79    1.27
  -8  -5   4   33.07    1.63
  -7  -5   4    2.02    0.43
  -6  -5   4    0.07    0.18
  -5  -5   4    3.26    0.42
  -4  -5   4   14.42    0.89
  -3  -5   4   18.83    0.88
  -2  -5   4    8.22    0.62
  -1  -5   4   15.63    0.70
   0  -5   4    4.84    0.40
   1  -5   4    0.58    0.17
   2  -5   4   94.32    2.31
   3  -5   4   14.41    0.89
   4  -5   4   23.35    1.03
   5  -5   4   13.50    0.90
   6  -5   4    4.94    0.45
   7  -5   4  118.70    3.01
   8  -5   4    0.78    0.25
   9  -5   4    3.38    0.51
  10  -5   4    0.43    0.31
  11  -5   4   23.11    1.46
  12  -5   4    0.30    0.32
  13  -5   4    0.21    0.34
  14  -5   4   13.96    1.25
  15  -5   4    0.03    0.59
  16  -5   4    2.75    1.57
 -18  -4   4    2.05    0.92
 -17  -4   4    3.20    0.92
 -16  -4   4   10.60    1.61
 -15  -4   4    4.84    1.09
 -14  -4   4    6.09    0.84
 -13  -4   4    2.15    0.51
 -12  -4   4   87.62    3.37
 -11  -4   4    3.26    0.55
 -10  -4   4   -0.04    0.21
  -9  -4   4   16.70    1.20
  -8  -4   4   59.93    2.49
  -7  -4   4    0.20    0.22
  -6  -4   4   18.30    0.88
  -5  -4   4   26.17    1.01
  -4  -4   4  269.17    6.75
  -3  -4   4   10.28    0.63
  -2  -4   4   28.85    1.05
  -1  -4   4   45.17    1.28
   0  -4   4   68.62    1.70
   1  -4   4   15.95    0.58
   2  -4   4   27.29    0.85
   3  -4   4   27.79    0.85
   4  -4   4    0.12    0.13
   5  -4   4    2.71    0.31
   6  -4   4    0.97    0.22
   7  -4   4   -0.09    0.13
   8  -4   4   17.76    0.86
   9  -4   4    9.09    0.79
  10  -4   4   38.83    1.66
  11  -4   4    0.02    0.26
  12  -4   4    8.82    0.87
  13  -4   4    1.02    0.38
  14  -4   4    8.87    0.93
  15  -4   4    4.88    1.06
  16  -4   4    1.96    0.80
  17  -4   4    7.59    1.22
 -17  -3   4   -0.29    0.49
 -16  -3   4   38.48    2.67
 -15  -3   4   15.23    1.78
 -14  -3   4   27.14    2.12
 -13  -3   4   10.84    0.98
 -12  -3   4   49.46    2.10
 -11  -3   4   23.45    1.29
 -10  -3   4    8.93    0.64
  -9  -3   4    0.67    0.20
  -8  -3   4    0.06    0.14
  -7  -3   4   12.09    0.60
  -6  -3   4   81.76    2.23
  -5  -3   4    3.18    0.22
  -4  -3   4   21.19    0.79
  -3  -3   4    6.50    0.45
  -2  -3   4    0.32    0.14
  -1  -3   4  151.90    3.44
   0  -3   4   28.96    0.85
   1  -3   4    8.53    0.39
   2  -3   4   18.21    0.58
   3  -3   4  187.48    3.68
   4  -3   4  117.19    2.39
   5  -3   4   23.65    0.80
   6  -3   4    2.29    0.27
   7  -3   4   55.13    1.57
   8  -3   4   32.82    1.12
   9  -3   4   14.01    0.78
  10  -3   4   27.77    1.30
  11  -3   4    7.65    0.73
  12  -3   4    8.12    0.81
  13  -3   4    9.17    0.91
  14  -3   4   19.86    1.93
  15  -3   4    6.09    1.10
  16  -3   4    0.09    0.57
  17  -3   4    1.00    0.69
 -15  -2   4    1.25    0.44
 -14  -2   4    7.01    0.77
 -13  -2   4   21.63    1.29
 -12  -2   4  125.69    3.53
 -11  -2   4    0.75    0.23
 -10  -2   4    0.54    0.19
  -9  -2   4   10.46    0.63
  -8  -2   4   56.19    1.67
  -7  -2   4    1.45    0.19
  -6  -2   4   12.89    0.53
  -5  -2   4    6.58    0.36
  -4  -2   4  351.33    7.39
  -3  -2   4   11.87    0.50
  -2  -2   4   96.82    2.54
  -1  -2   4   70.76    1.90
   0  -2   4   25.03    0.69
   1  -2   4   71.60    1.88
   2  -2   4  178.94    3.89
   3  -2   4   15.96    0.46
   4  -2   4    0.32    0.09
   5  -2   4   35.66    0.87
   6  -2   4    6.87    0.32
   7  -2   4   36.53    1.12
   8  -2   4    5.44    0.46
   9  -2   4    7.19    0.57
  10  -2   4   49.44    1.59
  11  -2   4    0.13    0.21
  12  -2   4   48.57    1.94
  13  -2   4    5.52    0.93
  14  -2   4   28.89    2.23
  15  -2   4    9.61    1.30
  16  -2   4    5.24    0.99
  17  -2   4   24.28    2.13
  18  -2   4   10.20    1.40
 -19  -1   4    1.45    0.93
 -18  -1   4    1.26    0.83
 -17  -1   4   -0.03    0.55
 -16  -1   4   19.53    2.14
 -15  -1   4   16.92    1.90
 -14  -1   4   10.53    0.95
 -13  -1   4    6.45    0.71
 -12  -1   4   57.48    2.18
 -11  -1   4    3.37    0.46
 -10  -1   4   49.97    1.55
  -9  -1   4   21.84    0.82
  -8  -1   4   14.81    0.62
  -7  -1   4   40.44    1.23
  -6  -1   4   34.08    1.02
  -5  -1   4   24.22    0.76
  -4  -1   4   95.80    2.48
  -3  -1   4   18.39    0.50
  -2  -1   4    8.42    0.34
  -1  -1   4  127.66    3.13
   0  -1   4    1.20    0.12
   1  -1   4   20.00    0.56
   2  -1   4  126.49    2.76
   3  -1   4  171.31    3.32
   4  -1   4  152.00    3.01
   5  -1   4    0.53    0.11
   6  -1   4    0.15    0.09
   7  -1   4  112.40    2.82
   8  -1   4    7.73    0.55
   9  -1   4   42.77    1.35
  10  -1   4    8.44    0.62
  11  -1   4   39.17    1.35
  12  -1   4   19.02    1.68
  13  -1   4    0.12    0.37
  14  -1   4    8.60    1.14
  15  -1   4    1.44    0.56
  16  -1   4   12.96    1.47
  17  -1   4    6.12    1.06
  18  -1   4    0.61    0.57
 -20   0   4    0.30    0.79
 -19   0   4    1.24    0.89
 -18   0   4    5.44    1.29
 -17   0   4    0.53    0.60
 -16   0   4    6.49    1.24
 -15   0   4   31.84    2.51
 -14   0   4   23.41    2.23
 -13   0   4    6.92    1.09
 -12   0   4   32.15    1.44
 -11   0   4    0.09    0.17
 -10   0   4   67.82    2.42
  -9   0   4   81.86    2.78
  -8   0   4  104.45    3.36
  -7   0   4  123.95    3.17
  -6   0   4    2.68    0.22
  -5   0   4   44.46    1.22
  -4   0   4  909.08   20.80
  -3   0   4   20.01    0.60
  -2   0   4    0.33    0.10
  -1   0   4    1.67    0.21
   0   0   4    3.05    0.23
   1   0   4    5.63    0.24
   2   0   4  167.97    3.71
   3   0   4  129.85    2.92
   4   0   4  105.40    2.45
   5   0   4   63.47    1.63
   6   0   4   27.16    0.88
   7   0   4    7.42    0.44
   8   0   4   16.92    0.75
   9   0   4   98.75    2.56
  10   0   4  110.83    3.43
  11   0   4   19.38    1.28
  12   0   4   14.14    1.10
  13   0   4    8.22    1.09
  14   0   4    2.11    0.67
  15   0   4   47.94    2.58
  16   0   4   23.79    2.06
  17   0   4    5.72    1.07
  18   0   4    7.93    1.20
 -19   1   4    1.61    0.85
 -18   1   4    1.39    0.86
 -17   1   4    0.64    0.60
 -16   1   4   17.11    2.01
 -15   1   4   17.32    1.97
 -14   1   4   12.32    1.56
 -13   1   4    7.26    1.18
 -12   1   4   53.83    3.18
 -11   1   4    4.35    0.82
 -10   1   4   51.21    1.86
  -9   1   4   21.90    0.98
  -8   1   4   15.32    0.75
  -7   1   4   42.22    1.49
  -6   1   4   34.42    1.24
  -5   1   4   23.30    0.93
  -4   1   4  100.52    3.06
  -3   1   4   18.25    0.56
  -2   1   4    9.22    0.41
  -1   1   4  127.29    3.84
   0   1   4    1.23    0.19
   1   1   4   20.73    0.66
   2   1   4  123.38    3.24
   3   1   4  162.18    4.38
   4   1   4  147.59    4.03
   5   1   4    0.50    0.10
   6   1   4    0.05    0.08
   7   1   4  115.50    2.77
   8   1   4    7.47    0.43
   9   1   4   40.24    1.64
  10   1   4    9.82    0.87
  11   1   4   40.33    1.69
  12   1   4   17.56    1.24
  13   1   4    0.41    0.34
  14   1   4    5.35    0.93
  15   1   4    2.02    0.66
  16   1   4   11.16    1.39
  17   1   4    6.42    1.10
  18   1   4   -0.62    0.54
 -19   2   4    0.01    0.61
 -18   2   4    0.13    0.60
 -17   2   4    2.43    0.91
 -16   2   4   18.11    2.17
 -15   2   4    1.80    0.72
 -14   2   4    5.34    1.07
 -13   2   4   23.63    2.25
 -12   2   4  131.75    6.36
 -11   2   4    1.13    0.48
 -10   2   4    0.72    0.46
  -9   2   4   11.08    1.25
  -8   2   4   56.78    1.95
  -7   2   4    0.86    0.18
  -6   2   4   12.83    0.63
  -5   2   4    6.53    0.41
  -4   2   4  361.46   10.39
  -3   2   4   12.76    0.59
  -2   2   4   96.48    4.27
   0   2   4   22.55    1.34
   1   2   4   68.17    2.29
   2   2   4  178.87    3.91
   3   2   4   15.61    0.50
   4   2   4    0.20    0.10
   5   2   4   35.55    1.00
   6   2   4    7.20    0.36
   7   2   4   34.22    1.37
   8   2   4    4.37    0.53
   9   2   4    7.41    0.73
  10   2   4   52.41    1.98
  11   2   4    0.60    0.31
  12   2   4   53.60    2.07
  13   2   4    5.11    0.69
  14   2   4   21.22    1.48
  15   2   4    9.34    1.27
  16   2   4    6.65    1.09
  17   2   4   20.63    1.96
  18   2   4   12.06    1.46
 -18   3   4    1.62    0.80
 -17   3   4   -0.37    0.47
 -16   3   4   29.42    2.93
 -15   3   4   10.73    1.62
 -14   3   4   27.33    2.23
 -13   3   4   12.08    1.62
 -12   3   4   49.82    3.10
 -11   3   4   27.09    1.97
 -10   3   4    9.41    1.25
  -9   3   4    0.90    0.45
  -8   3   4    0.05    0.24
  -7   3   4   11.55    0.60
  -6   3   4   83.29    2.67
  -5   3   4    3.00    0.34
  -4   3   4   20.09    0.86
  -3   3   4    6.96    0.45
   1   3   4    7.92    0.43
   2   3   4   18.06    0.66
   3   3   4  184.86    4.75
   4   3   4  117.41    3.11
   5   3   4   23.80    0.77
   6   3   4    2.42    0.36
   7   3   4   58.06    1.94
   8   3   4   34.47    1.43
   9   3   4   15.12    1.08
  10   3   4   24.68    1.40
  11   3   4    7.54    0.83
  12   3   4    9.15    0.92
  13   3   4   11.29    1.07
  14   3   4   19.23    1.45
  15   3   4    8.37    0.99
  16   3   4    0.27    0.54
  17   3   4    2.32    0.82
 -18   4   4    1.77    1.40
 -17   4   4    1.10    0.85
 -16   4   4   10.99    1.76
 -15   4   4    3.14    0.97
 -14   4   4    7.16    1.36
 -13   4   4    0.48    0.44
 -12   4   4   84.45    4.80
 -11   4   4    4.42    0.97
 -10   4   4    0.02    0.32
  -9   4   4   17.36    1.71
  -8   4   4   66.45    3.57
  -7   4   4    0.41    0.36
  -6   4   4   18.31    1.41
  -5   4   4   26.08    1.07
  -4   4   4  272.15    8.03
  -3   4   4    7.98    0.91
  -2   4   4   32.50    1.80
   0   4   4   66.15    2.36
   1   4   4   14.02    0.69
   2   4   4   26.43    0.98
   3   4   4   27.17    0.99
   4   4   4    0.15    0.15
   5   4   4    3.52    0.37
   6   4   4    0.76    0.25
   7   4   4    0.02    0.21
   8   4   4   16.34    1.10
   9   4   4   13.29    1.02
  10   4   4   42.66    1.81
  11   4   4    0.46    0.33
  12   4   4    6.71    0.85
  13   4   4    1.29    0.45
  14   4   4    6.66    0.91
  15   4   4    4.44    0.79
  16   4   4    0.27    0.63
 -17   5   4    5.15    2.11
 -16   5   4    2.04    0.89
 -15   5   4    8.28    1.59
 -14   5   4    0.81    0.55
 -13   5   4    1.90    0.75
 -12   5   4   67.51    4.18
 -11   5   4    0.20    0.45
 -10   5   4    7.34    1.24
  -9   5   4   13.31    1.64
  -8   5   4   35.19    2.31
  -7   5   4    2.02    0.60
  -6   5   4    0.14    0.29
  -5   5   4    4.66    0.78
  -4   5   4   16.68    0.85
  -3   5   4   21.64    1.47
  -2   5   4    8.07    0.71
  -1   5   4   14.79    0.84
   0   5   4    4.97    0.56
   1   5   4    0.46    0.24
   2   5   4   91.00    2.67
   3   5   4   15.84    0.81
   4   5   4   24.09    0.99
   5   5   4   14.81    1.19
   6   5   4    4.07    0.65
   7   5   4  118.91    3.58
   8   5   4    0.18    0.28
   9   5   4    2.27    0.48
  10   5   4    0.86    0.38
  11   5   4   24.18    1.62
  12   5   4    0.38    0.42
  13   5   4    0.64    0.47
  14   5   4   15.20    1.41
  15   5   4    0.11    0.57
  16   5   4    4.75    1.40
 -15   6   4    6.19    1.48
 -14   6   4    4.05    1.14
 -13   6   4    0.90    0.67
 -12   6   4   42.57    3.20
 -11   6   4    3.40    0.94
 -10   6   4    0.08    0.45
  -9   6   4   17.39    1.92
  -8   6   4   55.03    3.38
  -7   6   4    0.29    0.39
  -6   6   4   17.00    1.68
  -5   6   4   28.90    1.50
  -4   6   4  162.48    5.47
  -3   6   4    6.99    0.73
  -2   6   4    7.35    0.72
  -1   6   4   26.29    1.06
   0   6   4   82.59    3.04
   1   6   4    0.74    0.24
   2   6   4    0.20    0.18
   3   6   4   28.64    1.17
   4   6   4    0.03    0.26
   5   6   4    0.48    0.34
   6   6   4    0.37    0.33
   7   6   4   14.39    1.09
   8   6   4   21.58    1.41
   9   6   4   12.48    1.10
  10   6   4   24.89    1.68
  11   6   4   -0.01    0.37
  12   6   4   -0.31    0.38
  13   6   4    0.43    0.53
  14   6   4    1.81    0.81
 -14   7   4    1.73    0.99
 -13   7   4    1.36    0.58
 -12   7   4   38.71    2.30
 -11   7   4    0.51    0.49
 -10   7   4   -0.69    0.30
  -9   7   4    0.07    0.31
  -8   7   4    3.51    0.66
  -7   7   4    0.03    0.31
  -6   7   4    1.24    0.47
  -5   7   4    1.27    0.57
  -4   7   4    1.53    0.66
  -3   7   4    0.76    0.50
  -2   7   4    1.28    0.42
  -1   7   4   17.41    1.33
   0   7   4    0.47    0.32
   1   7   4    0.37    0.25
   2   7   4   13.00    0.96
   3   7   4   10.68    1.10
   4   7   4   13.88    1.27
   5   7   4    1.58    0.52
   6   7   4    0.10    0.36
   7   7   4   43.37    2.21
   8   7   4    0.33    0.35
   9   7   4    0.32    0.36
  10   7   4   -0.13    0.38
  11   7   4    3.11    0.71
  12   7   4    0.90    0.64
 -11   8   4    2.65    1.04
 -10   8   4    2.39    1.08
  -9   8   4    0.90    0.74
  -8   8   4   15.54    2.21
  -7   8   4    7.12    1.51
  -6   8   4   11.32    1.80
  -5   8   4   34.52    2.88
  -4   8   4   28.32    2.02
  -3   8   4    1.68    0.51
  -2   8   4   12.61    1.30
  -1   8   4   32.67    1.81
   0   8   4   56.74    2.11
   1   8   4   12.23    1.26
   2   8   4    0.23    0.37
   3   8   4    2.01    0.60
   4   8   4    5.79    0.92
   5   8   4    0.00    0.37
   6   8   4    3.87    0.80
   7   8   4    2.54    0.59
   8   8   4    4.77    0.78
   9   8   4    0.54    0.47
  -7   9   4    1.33    0.92
  -6   9   4    0.14    0.67
  -5   9   4    0.31    0.46
  -4   9   4    0.73    0.49
  -3   9   4    1.12    0.57
  -2   9   4    2.15    0.64
  -1   9   4    6.03    0.81
   0   9   4   -0.14    0.38
   1   9   4    0.16    0.46
   2   9   4    1.39    0.57
   3   9   4    3.23    0.79
   4   9   4    5.09    0.95
   5   9   4    0.65    0.61
   6   9   4    0.67    0.47
  -8  -9   5    3.92    1.28
  -7  -9   5    0.45    0.60
  -6  -9   5   -0.01    0.42
  -5  -9   5    0.38    0.43
  -4  -9   5    2.27    0.72
  -3  -9   5    0.13    0.51
  -2  -9   5    2.05    0.68
  -1  -9   5   11.64    1.41
   0  -9   5    0.95    0.50
   1  -9   5    0.50    0.55
   2  -9   5    0.40    0.42
   3  -9   5    3.56    0.71
   4  -9   5   12.99    1.53
   5  -9   5   -0.15    0.40
 -11  -8   5    1.25    0.62
 -10  -8   5    0.01    0.46
  -9  -8   5   -0.28    0.34
  -8  -8   5   -0.52    0.37
  -7  -8   5   15.03    1.48
  -6  -8   5    0.17    0.33
  -5  -8   5    0.44    0.35
  -4  -8   5   15.38    1.18
  -3  -8   5    0.47    0.30
  -2  -8   5   21.21    1.73
  -1  -8   5    0.09    0.38
   0  -8   5    2.12    0.62
   1  -8   5    1.69    0.46
   2  -8   5    0.57    0.35
   3  -8   5   10.27    0.95
   4  -8   5    1.62    0.45
   5  -8   5    3.28    0.81
   6  -8   5    4.84    0.93
   7  -8   5   14.02    1.49
   8  -8   5    4.86    1.00
   9  -8   5    0.64    0.58
 -14  -7   5   -0.25    0.76
 -13  -7   5    1.52    0.62
 -12  -7   5    4.61    0.84
 -11  -7   5    3.33    0.76
 -10  -7   5    7.41    1.03
  -9  -7   5    0.29    0.38
  -8  -7   5    0.45    0.37
  -7  -7   5    0.39    0.28
  -6  -7   5    0.20    0.24
  -5  -7   5   -0.03    0.22
  -4  -7   5    1.15    0.35
  -3  -7   5   10.03    0.85
  -2  -7   5    6.80    0.69
  -1  -7   5    4.61    0.59
   0  -7   5    0.67    0.29
   1  -7   5   -0.11    0.22
   2  -7   5    0.52    0.30
   3  -7   5    1.42    0.38
   4  -7   5    4.34    0.60
   5  -7   5   -0.17    0.26
   6  -7   5    8.34    0.83
   7  -7   5    3.48    0.73
   8  -7   5    0.22    0.44
   9  -7   5    4.65    0.94
  10  -7   5    0.19    0.46
  11  -7   5    0.23    0.54
  12  -7   5   -0.46    0.54
 -15  -6   5    2.30    0.68
 -14  -6   5   -0.23    0.41
 -13  -6   5    6.76    0.94
 -12  -6   5    4.79    0.79
 -11  -6   5   -0.10    0.33
 -10  -6   5    0.70    0.38
  -9  -6   5    0.75    0.40
  -8  -6   5    0.60    0.36
  -7  -6   5    2.69    0.45
  -6  -6   5    0.19    0.22
  -5  -6   5   12.39    0.89
  -4  -6   5   31.92    1.30
  -3  -6   5    2.41    0.38
  -2  -6   5    3.02    0.42
  -1  -6   5    2.35    0.33
   0  -6   5    1.77    0.29
   1  -6   5   11.43    0.69
   2  -6   5    2.76    0.42
   3  -6   5    0.26    0.24
   4  -6   5    0.42    0.25
   5  -6   5   -0.02    0.21
   6  -6   5    0.03    0.24
   7  -6   5   19.81    1.22
   8  -6   5   10.68    1.15
   9  -6   5    0.05    0.33
  10  -6   5    1.30    0.62
  11  -6   5    3.37    0.82
  12  -6   5    0.71    0.56
  13  -6   5    0.24    0.59
  14  -6   5    0.47    0.66
 -17  -5   5    0.76    0.77
 -16  -5   5    0.53    0.65
 -15  -5   5    7.71    1.40
 -14  -5   5    0.33    0.39
 -13  -5   5    0.28    0.39
 -12  -5   5    7.09    0.94
 -11  -5   5    2.63    0.55
 -10  -5   5   16.55    1.33
  -9  -5   5    1.16    0.37
  -8  -5   5   10.35    0.99
  -7  -5   5    0.22    0.20
  -6  -5   5    1.18    0.29
  -5  -5   5    2.80    0.40
  -4  -5   5    0.28    0.18
  -3  -5   5   81.74    2.46
  -2  -5   5   15.67    0.84
  -1  -5   5    4.68    0.40
   0  -5   5    0.10    0.13
   1  -5   5    0.48    0.17
   2  -5   5   29.00    0.96
   3  -5   5    0.18    0.18
   4  -5   5    5.62    0.55
   5  -5   5    0.20    0.21
   6  -5   5    7.84    0.69
   7  -5   5   13.85    0.95
   8  -5   5    8.23    0.64
   9  -5   5   -0.21    0.22
  10  -5   5    0.38    0.28
  11  -5   5    0.50    0.33
  12  -5   5   -0.12    0.30
  13  -5   5    1.08    0.44
  14  -5   5    0.59    0.47
  15  -5   5    0.83    0.71
 -18  -4   5    1.00    0.86
 -17  -4   5    0.44    0.64
 -16  -4   5    1.21    0.71
 -15  -4   5    0.47    0.52
 -14  -4   5    0.07    0.30
 -13  -4   5   14.57    1.23
 -12  -4   5    6.59    0.80
 -11  -4   5    1.17    0.40
 -10  -4   5    1.90    0.43
  -9  -4   5    3.24    0.54
  -8  -4   5    2.44    0.45
  -7  -4   5    3.44    0.51
  -6  -4   5    1.20    0.26
  -5  -4   5    4.11    0.43
  -4  -4   5   12.11    0.73
  -3  -4   5    0.04    0.14
  -2  -4   5    4.91    0.44
  -1  -4   5    0.29    0.13
   0  -4   5    3.77    0.32
   1  -4   5    1.02    0.18
   2  -4   5    4.27    0.33
   3  -4   5    1.48    0.20
   4  -4   5    7.92    0.61
   5  -4   5    0.74    0.22
   6  -4   5    9.70    0.61
   7  -4   5   32.59    1.12
   8  -4   5    7.59    0.58
   9  -4   5    4.69    0.48
  10  -4   5    0.57    0.31
  11  -4   5    0.15    0.28
  12  -4   5    1.86    0.46
  13  -4   5    1.72    0.48
  14  -4   5    2.63    0.82
  15  -4   5    1.84    0.74
  16  -4   5    4.97    1.07
 -17  -3   5    0.69    0.59
 -16  -3   5    4.03    0.93
 -15  -3   5   14.61    1.74
 -14  -3   5    6.37    1.14
 -13  -3   5   -0.11    0.24
 -12  -3   5    1.55    0.40
 -11  -3   5   10.05    0.88
 -10  -3   5   18.86    1.14
  -9  -3   5   18.36    0.77
  -8  -3   5   11.17    0.59
  -7  -3   5    0.68    0.17
  -6  -3   5    0.58    0.13
  -5  -3   5    1.31    0.23
  -4  -3   5   13.70    0.62
  -3  -3   5   64.97    1.89
  -2  -3   5   19.31    0.73
  -1  -3   5    2.08    0.21
   0  -3   5    2.44    0.23
   1  -3   5    9.70    0.44
   2  -3   5   14.31    0.52
   3  -3   5    0.72    0.13
   4  -3   5    7.77    0.37
   5  -3   5    4.63    0.26
   6  -3   5    4.07    0.37
   7  -3   5    1.09    0.22
   8  -3   5    5.13    0.46
   9  -3   5    1.32    0.26
  10  -3   5    2.81    0.38
  11  -3   5    1.24    0.36
  12  -3   5    4.87    0.64
  13  -3   5    0.30    0.41
  14  -3   5    0.36    0.48
  15  -3   5   -0.26    0.48
  16  -3   5   -0.27    0.51
  17  -3   5    1.81    0.79
 -16  -2   5    1.81    0.67
 -15  -2   5    1.38    0.39
 -14  -2   5    0.11    0.26
 -13  -2   5    8.06    0.80
 -12  -2   5    2.93    0.39
 -11  -2   5    1.45    0.28
 -10  -2   5    3.49    0.38
  -9  -2   5    4.69    0.41
  -8  -2   5    3.64    0.34
  -7  -2   5    1.73    0.23
  -6  -2   5    1.10    0.16
  -5  -2   5    0.56    0.11
  -4  -2   5    0.91    0.12
  -3  -2   5    0.38    0.13
  -2  -2   5    2.91    0.26
  -1  -2   5    0.06    0.09
   0  -2   5    2.28    0.19
   1  -2   5    0.17    0.09
   2  -2   5    2.64    0.22
   3  -2   5    0.66    0.13
   4  -2   5    7.85    0.34
   5  -2   5    0.71    0.13
   6  -2   5   10.58    0.44
   7  -2   5   16.63    0.73
   8  -2   5    1.40    0.26
   9  -2   5    6.49    0.54
  10  -2   5    0.20    0.19
  11  -2   5    1.12    0.28
  12  -2   5    0.74    0.43
  13  -2   5    0.50    0.43
  14  -2   5    1.41    0.62
  15  -2   5   -0.09    0.45
  16  -2   5    5.54    1.05
  17  -2   5    2.18    0.73
  18  -2   5    0.33    0.59
 -18  -1   5    0.66    0.71
 -17  -1   5    0.03    0.51
 -16  -1   5    0.01    0.44
 -15  -1   5    0.30    0.53
 -14  -1   5    0.86    0.30
 -13  -1   5   -0.17    0.21
 -12  -1   5    0.80    0.29
 -11  -1   5    1.02    0.24
 -10  -1   5    2.58    0.30
  -9  -1   5    1.82    0.25
  -8  -1   5    4.77    0.37
  -7  -1   5   -0.07    0.08
  -6  -1   5    0.20    0.11
  -5  -1   5    0.38    0.11
  -4  -1   5    2.14    0.19
  -3  -1   5   24.00    0.63
  -2  -1   5    4.92    0.29
  -1  -1   5    3.54    0.25
   0  -1   5   -0.02    0.07
   1  -1   5    1.62    0.16
   2  -1   5    8.20    0.35
   3  -1   5    0.66    0.13
   4  -1   5    5.52    0.30
   5  -1   5    0.15    0.09
   6  -1   5    0.47    0.13
   7  -1   5    0.69    0.15
   8  -1   5    2.30    0.24
   9  -1   5    0.69    0.18
  10  -1   5   -0.05    0.17
  11  -1   5    0.70    0.30
  12  -1   5    0.16    0.32
  13  -1   5    0.71    0.49
  14  -1   5   -0.04    0.39
  15  -1   5   -0.01    0.44
  16  -1   5    0.07    0.46
  17  -1   5    0.04    0.52
  18  -1   5    0.04    0.56
 -20   0   5   -0.52    0.64
 -19   0   5   -0.36    0.62
 -18   0   5    0.35    0.57
 -17   0   5   -0.33    0.48
 -16   0   5   -0.16    0.46
 -15   0   5    0.37    0.46
 -14   0   5    0.16    0.37
 -13   0   5   -0.02    0.22
 -12   0   5    0.04    0.20
 -11   0   5    0.16    0.17
 -10   0   5    0.06    0.17
  -9   0   5    0.10    0.17
  -8   0   5    0.00    0.10
  -7   0   5   -0.18    0.07
  -6   0   5   -0.06    0.07
  -5   0   5   -0.03    0.07
  -4   0   5   -0.08    0.07
  -3   0   5    0.02    0.09
  -2   0   5   -0.22    0.10
  -1   0   5   -0.07    0.06
   0   0   5    0.00    0.10
   1   0   5    0.10    0.06
   2   0   5   -0.21    0.09
   3   0   5    0.15    0.11
   4   0   5    0.05    0.15
   5   0   5   -0.11    0.08
   6   0   5    0.00    0.11
   7   0   5    0.19    0.13
   8   0   5   -0.09    0.11
   9   0   5   -0.07    0.14
  10   0   5   -0.06    0.24
  11   0   5   -0.30    0.24
  12   0   5    0.06    0.29
  13   0   5   -0.18    0.30
  14   0   5    0.04    0.37
  15   0   5   -0.25    0.39
  16   0   5   -0.02    0.46
  17   0   5   -0.01    0.49
  18   0   5    0.14    0.57
 -20   1   5    0.32    0.84
 -19   1   5    0.26    0.67
 -18   1   5    0.03    0.51
 -17   1   5   -0.14    0.50
 -16   1   5    1.18    0.63
 -15   1   5    0.95    0.56
 -14   1   5    0.17    0.41
 -13   1   5    0.94    0.52
 -12   1   5    0.20    0.32
 -11   1   5    0.62    0.22
 -10   1   5    2.15    0.35
  -9   1   5    1.93    0.30
  -8   1   5    5.35    0.46
  -7   1   5    0.04    0.12
  -6   1   5    0.20    0.14
  -5   1   5    0.61    0.16
  -4   1   5    2.15    0.26
  -3   1   5   25.52    0.89
  -2   1   5    5.16    0.37
  -1   1   5    4.21    0.25
   0   1   5   -0.04    0.06
   1   1   5    1.14    0.16
   2   1   5    8.43    0.47
   3   1   5    0.70    0.20
   4   1   5    4.49    0.44
   5   1   5    0.03    0.17
   6   1   5    0.56    0.11
   7   1   5    1.00    0.17
   8   1   5    2.16    0.39
   9   1   5    0.71    0.30
  10   1   5   -0.28    0.23
  11   1   5    0.00    0.25
  12   1   5    0.49    0.35
  13   1   5    0.31    0.32
  14   1   5    0.24    0.42
  15   1   5    0.33    0.48
  16   1   5   -0.10    0.45
  17   1   5    0.12    0.53
  18   1   5    0.37    0.66
 -19   2   5    1.00    0.78
 -18   2   5    1.75    0.77
 -17   2   5    0.43    0.57
 -16   2   5    1.68    0.70
 -15   2   5    1.71    0.70
 -14   2   5   -0.10    0.37
 -13   2   5    5.78    1.10
 -12   2   5    3.23    0.76
 -11   2   5    0.23    0.33
 -10   2   5    3.12    0.70
  -9   2   5    4.99    0.44
  -8   2   5    3.57    0.37
  -7   2   5    1.58    0.25
  -6   2   5    1.25    0.22
  -5   2   5    0.82    0.12
  -4   2   5    1.33    0.16
  -3   2   5    0.41    0.14
  -2   2   5    3.01    0.29
  -1   2   5    0.12    0.16
   0   2   5    2.14    0.28
   1   2   5    0.41    0.12
   2   2   5    3.04    0.21
   3   2   5    0.75    0.11
   4   2   5    8.00    0.56
   5   2   5    0.40    0.19
   6   2   5   10.60    0.77
   7   2   5   14.08    0.96
   8   2   5    0.93    0.32
   9   2   5    5.16    0.64
  10   2   5   -0.03    0.25
  11   2   5    1.04    0.34
  12   2   5    1.64    0.46
  13   2   5    0.80    0.40
  14   2   5    2.62    0.57
  15   2   5    0.38    0.47
  16   2   5    4.57    0.93
  17   2   5    1.02    0.67
 -18   3   5    0.21    0.54
 -17   3   5    0.59    0.59
 -16   3   5    2.09    0.77
 -15   3   5    8.67    1.49
 -14   3   5    2.17    0.73
 -13   3   5    0.54    0.48
 -12   3   5    0.41    0.42
 -11   3   5    8.83    1.24
 -10   3   5   18.08    1.79
  -9   3   5   15.05    1.56
  -8   3   5    9.00    1.12
  -7   3   5    0.51    0.18
  -6   3   5    1.07    0.21
  -5   3   5    1.69    0.27
  -4   3   5   13.97    0.69
  -3   3   5   67.37    2.24
   1   3   5    7.99    0.43
   2   3   5   14.13    0.57
   3   3   5    0.79    0.14
   4   3   5    7.88    0.40
   5   3   5    5.40    0.34
   6   3   5    3.18    0.43
   7   3   5    0.93    0.30
   8   3   5    5.86    0.63
   9   3   5    0.98    0.33
  10   3   5    2.42    0.46
  11   3   5    0.87    0.34
  12   3   5    5.26    0.73
  13   3   5   -0.04    0.34
  14   3   5    0.37    0.41
  15   3   5    0.34    0.42
  16   3   5   -0.41    0.71
  17   3   5    3.55    1.55
 -18   4   5   -0.04    0.72
 -17   4   5   -0.07    0.58
 -16   4   5    1.45    0.80
 -15   4   5    0.84    0.58
 -14   4   5    0.71    0.51
 -13   4   5   14.02    1.77
 -12   4   5    3.21    0.85
 -11   4   5    0.77    0.49
 -10   4   5    1.22    0.54
  -9   4   5    4.75    0.87
  -8   4   5    3.45    0.74
  -7   4   5    2.50    0.60
  -6   4   5    0.60    0.37
  -5   4   5    5.31    0.50
  -4   4   5   11.03    0.70
  -3   4   5   -0.06    0.13
  -2   4   5    6.57    0.83
   0   4   5    3.00    0.37
   1   4   5    1.27    0.22
   2   4   5    4.29    0.38
   3   4   5    1.60    0.24
   4   4   5    8.95    0.53
   5   4   5    0.10    0.16
   6   4   5    9.13    0.73
   7   4   5   31.12    1.35
   8   4   5    6.28    0.70
   9   4   5    4.69    0.63
  10   4   5    0.08    0.29
  11   4   5   -0.17    0.25
  12   4   5    2.25    0.54
  13   4   5    1.43    0.51
  14   4   5    2.14    0.60
  15   4   5    1.92    0.81
  16   4   5    5.25    1.27
 -17   5   5    0.86    0.97
 -16   5   5    1.75    0.86
 -15   5   5    9.00    1.62
 -14   5   5   -0.13    0.47
 -13   5   5   -0.43    0.45
 -12   5   5    8.75    1.40
 -11   5   5    2.85    0.80
 -10   5   5   18.98    1.98
  -9   5   5    0.35    0.39
  -8   5   5   12.04    1.44
  -7   5   5    0.08    0.35
  -6   5   5    2.32    0.59
  -5   5   5    2.83    0.65
  -4   5   5   -0.03    0.17
  -3   5   5   83.58    4.12
  -2   5   5   16.67    1.27
  -1   5   5    3.96    0.50
   0   5   5   -0.08    0.16
   1   5   5    0.44    0.18
   2   5   5   30.39    1.13
   3   5   5    0.42    0.18
   4   5   5    5.46    0.70
   5   5   5    0.43    0.30
   6   5   5    7.90    0.71
   7   5   5   15.05    1.09
   8   5   5    7.48    0.78
   9   5   5    0.23    0.31
  10   5   5    0.24    0.29
  11   5   5   -0.17    0.29
  12   5   5    0.35    0.38
  13   5   5    0.37    0.47
  14   5   5    0.00    0.51
  15   5   5    0.27    0.64
 -15   6   5    2.16    0.95
 -14   6   5   -0.56    0.57
 -13   6   5    4.86    1.26
 -12   6   5    1.02    0.69
 -11   6   5   -0.09    0.50
 -10   6   5    0.64    0.50
  -9   6   5   -0.02    0.41
  -8   6   5    1.52    0.59
  -7   6   5    1.47    0.55
  -6   6   5    0.42    0.43
  -5   6   5   12.33    1.41
  -4   6   5   28.33    1.46
  -3   6   5    2.27    0.43
  -2   6   5    3.62    0.52
  -1   6   5    1.82    0.31
   0   6   5    2.11    0.34
   1   6   5   12.23    0.82
   2   6   5    2.11    0.36
   3   6   5    0.12    0.25
   4   6   5    0.61    0.32
   5   6   5    0.35    0.34
   6   6   5    0.24    0.29
   7   6   5   19.06    1.26
   8   6   5   15.02    1.17
   9   6   5    0.06    0.27
  10   6   5    1.86    0.53
  11   6   5    1.48    0.52
  12   6   5    0.01    0.44
  13   6   5    0.82    0.64
  14   6   5   -0.58    0.62
 -14   7   5    1.44    0.87
 -13   7   5    1.53    0.59
 -12   7   5    2.33    0.93
 -11   7   5    5.30    1.21
 -10   7   5    8.94    1.13
  -9   7   5   -0.03    0.33
  -8   7   5    0.52    0.36
  -7   7   5    0.02    0.31
  -6   7   5    0.28    0.33
  -5   7   5    0.65    0.56
  -4   7   5    0.26    0.38
  -3   7   5   11.68    1.52
  -2   7   5    8.16    0.90
  -1   7   5    4.97    0.71
   0   7   5    0.41    0.26
   1   7   5    0.21    0.23
   2   7   5    0.14    0.27
   3   7   5    1.82    0.51
   4   7   5    4.62    0.73
   5   7   5    0.22    0.33
   6   7   5   10.23    0.96
   7   7   5    3.88    0.62
   8   7   5   -0.10    0.32
   9   7   5    4.13    0.74
  10   7   5    0.25    0.42
  11   7   5    0.17    0.51
  12   7   5   -0.55    0.58
 -11   8   5    2.58    1.14
 -10   8   5   -0.29    0.68
  -9   8   5   -0.22    0.58
  -8   8   5    0.68    0.60
  -7   8   5   18.56    2.39
  -6   8   5    0.13    0.50
  -5   8   5    1.18    0.72
  -4   8   5   13.86    1.36
  -3   8   5    0.35    0.39
  -2   8   5   18.66    1.55
  -1   8   5    0.32    0.35
   0   8   5    2.97    0.53
   1   8   5    1.42    0.49
   2   8   5   -0.27    0.29
   3   8   5    9.96    1.17
   4   8   5    1.09    0.52
   5   8   5    3.38    0.62
   6   8   5    2.79    0.59
   7   8   5    8.51    0.99
   8   8   5    5.54    1.03
   9   8   5    0.05    0.55
  -7   9   5   -0.27    0.70
  -6   9   5    0.88    0.57
  -5   9   5   -0.02    0.47
  -4   9   5    3.70    0.78
  -3   9   5    0.12    0.47
  -2   9   5    2.04    0.57
  -1   9   5   13.89    1.46
   0   9   5    0.53    0.43
   1   9   5    0.21    0.45
   2   9   5    0.66    0.50
   3   9   5    3.67    0.82
   4   9   5   10.74    1.11
   5   9   5    0.02    0.47
   6   9   5    5.72    1.89
  -8  -9   6    2.04    1.08
  -7  -9   6    0.12    0.68
  -6  -9   6   -0.41    0.34
  -5  -9   6    0.69    0.46
  -4  -9   6    0.67    0.53
  -3  -9   6   -0.22    0.42
  -2  -9   6    1.38    0.59
  -1  -9   6    0.08    0.45
   0  -9   6   -0.03    0.51
   1  -9   6   -0.20    0.48
   2  -9   6    3.49    0.84
   3  -9   6    1.38    0.50
   4  -9   6   11.66    1.46
   5  -9   6    0.92    0.68
 -11  -8   6    0.09    0.53
 -10  -8   6    0.00    0.43
  -9  -8   6    1.12    0.52
  -8  -8   6    5.64    0.88
  -7  -8   6    5.55    0.74
  -6  -8   6    0.83    0.39
  -5  -8   6    7.99    0.84
  -4  -8   6    4.33    0.61
  -3  -8   6    8.61    0.86
  -2  -8   6   11.70    1.30
  -1  -8   6    0.33    0.41
   0  -8   6    8.13    1.03
   1  -8   6    0.59    0.35
   2  -8   6    0.11    0.32
   3  -8   6   24.50    1.51
   4  -8   6    0.08    0.34
   5  -8   6    6.79    0.85
   6  -8   6   15.35    1.57
   7  -8   6    3.09    0.75
   8  -8   6    1.39    0.59
   9  -8   6    0.65    0.56
 -14  -7   6   -1.72    0.65
 -13  -7   6    0.36    0.55
 -12  -7   6    4.67    0.87
 -11  -7   6    0.19    0.37
 -10  -7   6   18.19    1.61
  -9  -7   6   -0.18    0.34
  -8  -7   6   13.10    1.30
  -7  -7   6    0.45    0.29
  -6  -7   6    0.51    0.30
  -5  -7   6    1.13    0.34
  -4  -7   6    2.82    0.48
  -3  -7   6    0.83    0.32
  -2  -7   6    8.73    0.76
  -1  -7   6    0.97    0.34
   0  -7   6    0.32    0.27
   1  -7   6    0.31    0.29
   2  -7   6    7.34    0.77
   3  -7   6    5.51    0.62
   4  -7   6   27.24    1.55
   5  -7   6    1.62    0.42
   6  -7   6   12.99    1.06
   7  -7   6    5.26    0.91
   8  -7   6    2.42    0.69
   9  -7   6   22.37    1.96
  10  -7   6    4.45    0.93
  11  -7   6    1.72    0.74
  12  -7   6    1.23    0.81
 -15  -6   6    4.39    1.00
 -14  -6   6   -0.04    0.41
 -13  -6   6   -0.02    0.35
 -12  -6   6   13.47    1.35
 -11  -6   6    2.30    0.57
 -10  -6   6   11.81    1.22
  -9  -6   6    0.74    0.39
  -8  -6   6    1.34    0.43
  -7  -6   6    7.10    0.71
  -6  -6   6    5.96    0.62
  -5  -6   6   57.61    2.03
  -4  -6   6    1.76    0.36
  -3  -6   6   59.45    2.05
  -2  -6   6   10.97    0.81
  -1  -6   6    1.96    0.31
   0  -6   6   82.11    2.17
   1  -6   6   34.58    1.40
   2  -6   6    0.06    0.21
   3  -6   6   13.94    0.97
   4  -6   6    0.39    0.24
   5  -6   6    5.48    0.61
   6  -6   6    5.51    0.64
   7  -6   6   18.94    1.23
   8  -6   6    5.11    0.79
   9  -6   6   -0.54    0.33
  10  -6   6    1.78    0.55
  11  -6   6    9.03    1.23
  12  -6   6    1.24    0.65
  13  -6   6   -0.04    0.52
  14  -6   6   17.12    2.97
 -17  -5   6    0.18    0.74
 -16  -5   6   10.02    1.68
 -15  -5   6    4.38    1.10
 -14  -5   6   11.37    1.22
 -13  -5   6    2.86    0.63
 -12  -5   6    0.49    0.36
 -11  -5   6   -0.30    0.21
 -10  -5   6   30.97    1.67
  -9  -5   6    2.71    0.54
  -8  -5   6   23.13    1.36
  -7  -5   6   16.28    1.04
  -6  -5   6    9.65    0.76
  -5  -5   6    4.03    0.46
  -4  -5   6   29.34    1.19
  -3  -5   6   32.17    1.23
  -2  -5   6    8.27    0.63
  -1  -5   6    4.06    0.38
   0  -5   6   -0.05    0.12
   1  -5   6    7.74    0.52
   2  -5   6    0.33    0.15
   3  -5   6    7.58    0.63
   4  -5   6    9.17    0.73
   5  -5   6   15.42    0.98
   6  -5   6   76.36    2.46
   7  -5   6   -0.30    0.19
   8  -5   6    6.25    0.67
   9  -5   6   15.79    1.46
  10  -5   6   19.64    1.69
  11  -5   6   11.77    1.36
  12  -5   6    7.50    1.16
  13  -5   6   -0.27    0.46
  14  -5   6    4.58    1.04
  15  -5   6    7.94    1.36
 -18  -4   6    4.11    1.16
 -17  -4   6    0.11    0.60
 -16  -4   6    0.54    0.62
 -15  -4   6    5.22    1.14
 -14  -4   6    0.13    0.41
 -13  -4   6    9.35    0.98
 -12  -4   6    5.51    0.71
 -11  -4   6    0.50    0.29
 -10  -4   6    6.61    0.75
  -9  -4   6    0.47    0.27
  -8  -4   6   24.66    1.28
  -7  -4   6   71.65    2.21
  -6  -4   6    1.62    0.29
  -5  -4   6   33.72    1.25
  -4  -4   6    0.22    0.16
  -3  -4   6   72.89    2.18
  -2  -4   6   91.16    2.56
  -1  -4   6   25.15    0.82
   0  -4   6   68.47    1.75
   1  -4   6  137.89    3.18
   2  -4   6    1.39    0.20
   3  -4   6   60.03    1.57
   4  -4   6    0.64    0.23
   5  -4   6   57.05    1.91
   6  -4   6    8.60    0.69
   7  -4   6   47.67    1.70
   8  -4   6    8.88    0.65
   9  -4   6    7.91    0.62
  10  -4   6    0.18    0.25
  11  -4   6   11.17    0.97
  12  -4   6    3.57    0.59
  13  -4   6    0.14    0.34
  14  -4   6   16.89    1.85
  15  -4   6    5.13    1.10
  16  -4   6    1.33    0.78
 -17  -3   6   -0.02    0.50
 -16  -3   6    1.07    0.62
 -15  -3   6   36.80    2.54
 -14  -3   6    1.75    0.68
 -13  -3   6    9.51    0.94
 -12  -3   6    1.49    0.39
 -11  -3   6   30.41    1.46
 -10  -3   6  111.83    3.89
  -9  -3   6   17.25    1.06
  -8  -3   6   81.05    2.28
  -7  -3   6    7.28    0.43
  -6  -3   6   15.07    0.54
  -5  -3   6    3.29    0.33
  -4  -3   6    0.67    0.18
  -3  -3   6   29.07    1.01
  -2  -3   6   52.15    1.53
  -1  -3   6   26.51    0.81
   0  -3   6    3.99    0.31
   1  -3   6    4.69    0.32
   2  -3   6   19.94    0.66
   3  -3   6    7.69    0.39
   4  -3   6   77.72    1.92
   5  -3   6    0.56    0.16
   6  -3   6  118.01    2.89
   7  -3   6   21.22    0.85
   8  -3   6    0.03    0.14
   9  -3   6   68.50    1.94
  10  -3   6    0.94    0.28
  11  -3   6   39.71    1.71
  12  -3   6    0.26    0.31
  13  -3   6   19.09    1.78
  14  -3   6   10.12    1.36
  15  -3   6   -0.35    0.45
  16  -3   6    7.10    1.16
  17  -3   6   -0.44    0.54
 -16  -2   6    1.58    0.64
 -15  -2   6    2.55    0.71
 -14  -2   6    0.14    0.29
 -13  -2   6   40.73    1.78
 -12  -2   6    0.17    0.18
 -11  -2   6   28.31    1.08
 -10  -2   6    0.03    0.15
  -9  -2   6    0.26    0.15
  -8  -2   6   94.55    2.57
  -7  -2   6  260.39    6.45
  -6  -2   6   60.76    1.70
  -5  -2   6    1.39    0.15
  -4  -2   6   14.97    0.46
  -3  -2   6   75.42    1.72
  -2  -2   6  340.57    8.51
  -1  -2   6  110.87    2.54
   0  -2   6   16.51    0.54
   1  -2   6  378.75    8.08
   2  -2   6    9.04    0.42
   3  -2   6  166.18    3.70
   4  -2   6    0.40    0.13
   5  -2   6  236.33    4.68
   6  -2   6    6.22    0.37
   7  -2   6   73.76    2.02
   8  -2   6   11.38    0.70
   9  -2   6   44.25    1.46
  10  -2   6   14.04    0.84
  11  -2   6   12.27    0.79
  12  -2   6    4.43    0.81
  13  -2   6   -0.57    0.36
  14  -2   6    3.03    0.77
  15  -2   6   18.90    1.82
  16  -2   6    9.35    1.31
  17  -2   6    7.44    1.22
  18  -2   6    5.30    1.52
 -18  -1   6   29.12    2.86
 -17  -1   6   15.65    1.93
 -16  -1   6    0.11    0.52
 -15  -1   6   13.74    1.68
 -14  -1   6   40.23    1.77
 -13  -1   6   26.30    1.34
 -12  -1   6   18.35    1.12
 -11  -1   6   27.37    1.15
 -10  -1   6  105.53    2.84
  -9  -1   6    0.21    0.14
  -8  -1   6   85.29    2.30
  -7  -1   6  104.39    2.74
  -6  -1   6    0.43    0.12
  -5  -1   6    6.81    0.36
  -4  -1   6   41.72    1.03
  -3  -1   6  203.41    6.04
  -2  -1   6   15.10    0.53
  -1  -1   6    2.60    0.22
   0  -1   6   -0.15    0.07
   1  -1   6   16.84    0.53
   2  -1   6   13.26    0.49
   3  -1   6    0.59    0.15
   4  -1   6    5.53    0.37
   5  -1   6   24.69    0.70
   6  -1   6  303.57    5.87
   7  -1   6    3.13    0.28
   8  -1   6   -0.05    0.11
   9  -1   6   19.57    0.87
  10  -1   6   16.85    1.17
  11  -1   6   84.75    2.87
  12  -1   6   20.70    1.35
  13  -1   6   19.49    1.69
  14  -1   6    3.41    0.77
  15  -1   6    5.18    0.94
  16  -1   6    8.91    1.26
  17  -1   6    4.44    0.96
  18  -1   6   28.85    2.68
 -20   0   6    2.52    1.13
 -19   0   6   13.48    1.92
 -18   0   6   21.65    2.44
 -17   0   6    2.73    0.94
 -16   0   6    1.59    0.74
 -15   0   6   23.65    2.29
 -14   0   6    8.24    1.27
 -13   0   6    4.12    0.55
 -12   0   6   -0.10    0.19
 -11   0   6    4.88    0.54
 -10   0   6   30.22    1.31
  -9   0   6    0.26    0.13
  -8   0   6   10.79    0.48
  -7   0   6  206.78    5.06
  -6   0   6   40.44    1.18
  -5   0   6   85.89    2.25
  -4   0   6   89.23    2.31
  -3   0   6  318.11    9.27
  -2   0   6  180.13    5.46
  -1   0   6  161.41    4.02
   0   0   6  191.66    5.79
   1   0   6  848.36   17.84
   2   0   6    2.02    0.18
   3   0   6   24.08    0.75
   4   0   6   12.44    0.54
   5   0   6  155.52    4.25
   6   0   6   33.89    1.03
   7   0   6  115.70    2.80
   8   0   6  116.67    2.92
   9   0   6   20.75    1.26
  10   0   6    4.22    0.60
  11   0   6   94.88    3.10
  12   0   6    0.36    0.32
  13   0   6   16.96    1.25
  14   0   6   24.42    1.96
  15   0   6   28.46    2.16
  16   0   6    1.77    0.62
  17   0   6    0.94    0.60
  18   0   6   -0.15    0.88
 -20   1   6    3.18    1.14
 -19   1   6    4.65    1.27
 -18   1   6   32.33    3.06
 -17   1   6   11.29    1.73
 -16   1   6    1.16    0.56
 -15   1   6   15.23    1.87
 -14   1   6   40.66    2.66
 -13   1   6   23.41    1.98
 -12   1   6   22.53    1.70
 -11   1   6   27.50    1.24
 -10   1   6  102.66    3.46
  -9   1   6    0.44    0.18
  -8   1   6   84.34    2.82
  -7   1   6  105.90    3.37
  -6   1   6    0.13    0.13
  -5   1   6    6.94    0.49
  -4   1   6   42.73    1.18
  -3   1   6  196.20    6.03
  -2   1   6   14.63    0.50
  -1   1   6    2.50    0.22
   0   1   6   -0.06    0.06
   1   1   6   17.70    0.54
   2   1   6   14.96    0.62
   3   1   6    0.51    0.21
   4   1   6    5.99    0.52
   5   1   6   25.37    1.08
   6   1   6  290.87    7.75
   7   1   6    3.20    0.48
   8   1   6    0.98    0.25
   9   1   6   21.82    1.21
  10   1   6   16.38    1.16
  11   1   6   85.18    2.88
  12   1   6   17.53    1.25
  13   1   6   21.69    1.45
  14   1   6    4.92    0.74
  15   1   6    6.48    1.03
  16   1   6    7.21    1.15
  17   1   6    5.03    1.50
 -19   2   6    2.29    0.94
 -18   2   6    4.48    1.19
 -17   2   6   -0.06    0.48
 -16   2   6    2.07    0.80
 -15   2   6    2.85    0.85
 -14   2   6   -0.08    0.28
 -13   2   6   37.05    2.59
 -12   2   6    0.81    0.42
 -11   2   6   26.18    1.97
 -10   2   6   -0.04    0.28
  -9   2   6    0.50    0.19
  -8   2   6   94.24    3.10
  -7   2   6  267.33    7.86
  -6   2   6   60.18    2.08
  -5   2   6    1.06    0.15
  -4   2   6   14.91    0.55
  -3   2   6   74.87    2.44
  -2   2   6  352.74   10.38
  -1   2   6  113.96    2.91
   0   2   6   17.69    0.61
   1   2   6  373.80    9.37
   2   2   6   10.11    0.51
   3   2   6  165.55    4.34
   4   2   6    0.52    0.20
   5   2   6  234.85    6.20
   6   2   6    5.20    0.56
   7   2   6   76.24    2.46
   8   2   6   11.77    0.90
   9   2   6   46.97    1.82
  10   2   6   13.98    1.07
  11   2   6   10.30    0.97
  12   2   6    4.43    0.66
  13   2   6   -0.23    0.28
  14   2   6    3.47    0.63
  15   2   6   22.00    1.94
  16   2   6   11.44    2.22
  17   2   6    5.26    1.61
 -18   3   6    9.50    1.74
 -17   3   6    0.18    0.58
 -16   3   6    0.98    0.66
 -15   3   6   28.51    2.85
 -14   3   6    0.60    0.58
 -13   3   6    6.46    1.17
 -12   3   6    1.22    0.54
 -11   3   6   23.79    2.00
 -10   3   6  106.24    5.54
  -9   3   6   18.29    1.46
  -8   3   6   74.02    4.08
  -7   3   6    6.38    0.55
  -6   3   6   16.38    0.61
  -5   3   6    3.72    0.41
  -4   3   6    0.31    0.17
  -3   3   6   30.59    1.67
  -2   3   6   51.67    2.57
   0   3   6    3.88    0.34
   1   3   6    4.31    0.35
   2   3   6   20.24    0.64
   3   3   6    8.66    0.40
   4   3   6   78.88    1.93
   5   3   6    0.97    0.26
   6   3   6  115.63    3.41
   7   3   6   19.97    1.16
   8   3   6    0.49    0.26
   9   3   6   66.96    2.38
  10   3   6    0.18    0.29
  11   3   6   41.07    1.78
  12   3   6    0.19    0.33
  13   3   6   15.46    1.31
  14   3   6   12.31    1.17
  15   3   6    0.15    0.54
  16   3   6    6.47    1.77
  17   3   6   -0.58    1.04
 -18   4   6    3.64    1.17
 -17   4   6    0.05    0.57
 -16   4   6    0.56    0.68
 -15   4   6    5.56    1.17
 -14   4   6    0.17    0.52
 -13   4   6    6.25    1.27
 -12   4   6    5.00    0.99
 -11   4   6    1.11    0.54
 -10   4   6    5.59    1.04
  -9   4   6    0.36    0.39
  -8   4   6   22.26    1.78
  -7   4   6   71.70    3.76
  -6   4   6    1.70    0.31
  -5   4   6   35.05    1.41
  -4   4   6    0.79    0.23
  -3   4   6   74.77    2.59
   0   4   6   66.23    2.43
   1   4   6  140.07    3.65
   2   4   6    1.60    0.23
   3   4   6   60.43    1.58
   4   4   6    1.25    0.28
   5   4   6   60.01    1.95
   6   4   6    8.21    0.72
   7   4   6   47.79    1.77
   8   4   6    8.98    0.82
   9   4   6    5.44    0.69
  10   4   6   -0.23    0.25
  11   4   6   11.75    1.33
  12   4   6    3.43    0.64
  13   4   6    0.38    0.46
  14   4   6   17.90    1.80
  15   4   6    8.12    1.32
  16   4   6    0.38    0.60
 -17   5   6    0.40    0.83
 -16   5   6    5.98    1.34
 -15   5   6    4.25    1.13
 -14   5   6   11.29    1.77
 -13   5   6    2.65    0.85
 -12   5   6    0.41    0.44
 -11   5   6    0.09    0.34
 -10   5   6   32.57    2.37
  -9   5   6    2.05    0.66
  -8   5   6   27.27    2.02
  -7   5   6   16.04    1.69
  -6   5   6   10.71    1.30
  -5   5   6    4.45    0.81
  -4   5   6   29.40    1.31
  -3   5   6   33.83    1.42
  -2   5   6    9.37    1.06
  -1   5   6    4.13    0.72
   0   5   6   -0.19    0.12
   1   5   6    6.27    0.54
   2   5   6    0.13    0.16
   3   5   6    9.09    0.72
   4   5   6    9.20    0.74
   5   5   6   14.91    0.97
   6   5   6   76.30    2.50
   7   5   6   -0.42    0.21
   8   5   6    7.59    0.81
   9   5   6   15.22    1.18
  10   5   6   21.18    1.47
  11   5   6   12.04    1.16
  12   5   6    8.71    1.21
  13   5   6    0.29    0.49
  14   5   6    4.95    1.03
  15   5   6   10.42    1.54
 -15   6   6    3.89    1.18
 -14   6   6   -0.11    0.62
 -13   6   6    0.55    0.62
 -12   6   6   10.86    1.69
 -11   6   6    2.58    0.91
 -10   6   6   16.72    1.98
  -9   6   6    1.55    0.70
  -8   6   6    1.76    0.62
  -7   6   6    6.71    1.10
  -6   6   6    5.15    0.94
  -5   6   6   57.47    3.33
  -4   6   6    1.45    0.52
  -3   6   6   61.93    1.96
  -2   6   6    8.71    0.83
  -1   6   6    2.01    0.34
   0   6   6   80.78    2.12
   1   6   6   34.21    1.32
   2   6   6    0.21    0.23
   3   6   6   14.54    1.20
   4   6   6    0.64    0.34
   5   6   6    4.46    0.58
   6   6   6    5.08    0.63
   7   6   6   18.79    1.30
   8   6   6    6.23    0.77
   9   6   6    0.36    0.34
  10   6   6    1.72    0.66
  11   6   6    9.58    1.31
  12   6   6    0.68    0.55
  13   6   6    1.06    0.67
  14   6   6   22.10    2.94
 -14   7   6   -0.14    0.78
 -13   7   6    0.40    0.70
 -12   7   6    4.80    1.24
 -11   7   6   -0.32    0.51
 -10   7   6   24.15    2.54
  -9   7   6   -0.22    0.44
  -8   7   6   14.46    1.32
  -7   7   6    0.22    0.34
  -6   7   6    0.01    0.30
  -5   7   6    1.11    0.39
  -4   7   6    2.03    0.75
  -3   7   6    0.48    0.42
  -2   7   6    7.66    0.85
  -1   7   6    1.37    0.43
   0   7   6    0.47    0.27
   1   7   6   -0.07    0.22
   2   7   6   10.55    1.06
   3   7   6    5.59    0.82
   4   7   6   25.20    1.84
   5   7   6    1.35    0.40
   6   7   6   12.93    1.05
   7   7   6    4.67    0.68
   8   7   6    1.81    0.60
   9   7   6   20.46    1.85
  10   7   6    4.55    0.99
  11   7   6    1.49    0.67
 -11   8   6    0.57    0.74
 -10   8   6    0.61    0.69
  -9   8   6    0.72    0.72
  -8   8   6    6.97    1.50
  -7   8   6    8.27    1.63
  -6   8   6    0.73    0.70
  -5   8   6    7.50    1.44
  -4   8   6    5.18    0.82
  -3   8   6    9.32    1.06
  -2   8   6   13.95    1.30
  -1   8   6    0.42    0.31
   0   8   6   10.20    1.14
   1   8   6    0.19    0.34
   2   8   6    0.65    0.45
   3   8   6   20.13    1.72
   4   8   6   -0.07    0.29
   5   8   6    4.75    0.72
   6   8   6   16.67    1.67
   7   8   6    3.37    0.78
   8   8   6    0.09    0.45
   9   8   6    0.13    0.57
  -7   9   6   -0.59    0.69
  -6   9   6   -0.36    0.41
  -5   9   6   -0.31    0.46
  -4   9   6    1.18    0.56
  -3   9   6    0.62    0.51
  -2   9   6    1.77    0.64
  -1   9   6   -0.19    0.42
   0   9   6   -0.35    0.39
   1   9   6   -0.10    0.42
   2   9   6    2.98    0.62
   3   9   6    1.72    0.64
   4   9   6   12.25    1.47
   5   9   6    0.32    0.58
  -8  -9   7    1.77    1.16
  -7  -9   7    0.61    0.81
  -6  -9   7    0.38    0.41
  -5  -9   7   -0.01    0.51
  -4  -9   7   -0.06    0.46
  -3  -9   7    1.79    0.67
  -2  -9   7    0.94    0.52
  -1  -9   7    0.98    0.60
   0  -9   7    0.01    0.46
   1  -9   7    0.10    0.49
   2  -9   7    3.44    0.84
   3  -9   7   -0.06    0.41
   4  -9   7    2.69    0.80
 -11  -8   7   -0.30    0.46
 -10  -8   7    0.22    0.47
  -9  -8   7   10.95    1.29
  -8  -8   7    3.41    0.78
  -7  -8   7    2.96    0.56
  -6  -8   7    3.22    0.57
  -5  -8   7    4.91    0.64
  -4  -8   7    0.23    0.33
  -3  -8   7    0.29    0.34
  -2  -8   7   20.25    1.71
  -1  -8   7    1.25    0.53
   0  -8   7   10.13    1.18
   1  -8   7    9.68    0.95
   2  -8   7    5.38    0.73
   3  -8   7    2.01    0.50
   4  -8   7    0.40    0.37
   5  -8   7   10.14    1.00
   6  -8   7   -0.19    0.45
   7  -8   7    0.21    0.52
   8  -8   7    1.47    0.66
   9  -8   7    2.57    1.28
 -14  -7   7    1.04    0.90
 -13  -7   7    0.04    0.46
 -12  -7   7   -0.05    0.48
 -11  -7   7   -0.15    0.40
 -10  -7   7   13.58    1.39
  -9  -7   7    6.78    0.94
  -8  -7   7   14.62    1.36
  -7  -7   7   -0.26    0.21
  -6  -7   7    0.41    0.32
  -5  -7   7    0.04    0.26
  -4  -7   7    0.37    0.27
  -3  -7   7    0.23    0.24
  -2  -7   7    0.11    0.24
  -1  -7   7    2.71    0.48
   0  -7   7   -0.11    0.23
   1  -7   7    0.07    0.23
   2  -7   7    0.49    0.27
   3  -7   7    1.83    0.42
   4  -7   7    3.21    0.54
   5  -7   7    1.17    0.39
   6  -7   7    2.94    0.57
   7  -7   7    1.35    0.56
   8  -7   7    3.29    0.71
   9  -7   7    5.00    0.99
  10  -7   7    0.88    0.60
  11  -7   7    6.44    1.16
 -15  -6   7    1.39    0.93
 -14  -6   7    5.44    0.88
 -13  -6   7    3.89    0.78
 -12  -6   7    1.01    0.46
 -11  -6   7    4.55    0.72
 -10  -6   7    6.78    0.89
  -9  -6   7    2.89    0.62
  -8  -6   7    0.10    0.30
  -7  -6   7    6.23    0.68
  -6  -6   7    0.92    0.31
  -5  -6   7    0.03    0.21
  -4  -6   7   -0.13    0.19
  -3  -6   7    5.25    0.56
  -2  -6   7   17.05    1.04
  -1  -6   7    1.37    0.31
   0  -6   7   41.31    1.34
   1  -6   7   32.41    1.37
   2  -6   7    0.15    0.23
   3  -6   7    0.26    0.23
   4  -6   7    1.82    0.40
   5  -6   7    0.23    0.26
   6  -6   7    6.61    0.71
   7  -6   7    1.19    0.38
   8  -6   7    2.39    0.63
   9  -6   7    0.19    0.41
  10  -6   7    0.14    0.42
  11  -6   7    1.96    0.71
  12  -6   7    3.72    0.95
  13  -6   7    5.22    1.05
 -17  -5   7    6.50    1.41
 -16  -5   7    0.26    0.61
 -15  -5   7    2.97    0.93
 -14  -5   7    0.26    0.34
 -13  -5   7    3.64    0.71
 -12  -5   7    1.18    0.45
 -11  -5   7    1.05    0.43
 -10  -5   7    0.32    0.30
  -9  -5   7    7.96    0.88
  -8  -5   7   43.77    1.98
  -7  -5   7    0.12    0.18
  -6  -5   7    0.00    0.16
  -5  -5   7    4.63    0.50
  -4  -5   7    0.01    0.17
  -3  -5   7    2.36    0.35
  -2  -5   7    8.24    0.64
  -1  -5   7    0.56    0.17
   0  -5   7    0.04    0.13
   1  -5   7    2.77    0.32
   2  -5   7    0.20    0.16
   3  -5   7   11.89    0.84
   4  -5   7    0.57    0.24
   5  -5   7   10.54    0.83
   6  -5   7   15.58    1.03
   7  -5   7    0.93    0.36
   8  -5   7    5.02    0.60
   9  -5   7    3.18    0.65
  10  -5   7    0.87    0.45
  11  -5   7   14.86    1.51
  12  -5   7    1.31    0.63
  13  -5   7    0.88    0.53
  14  -5   7    1.09    0.65
  15  -5   7    1.06    0.89
 -18  -4   7    0.10    0.66
 -17  -4   7    0.80    0.71
 -16  -4   7    0.63    0.58
 -15  -4   7    5.07    1.11
 -14  -4   7    8.07    1.36
 -13  -4   7    2.25    0.53
 -12  -4   7    0.58    0.32
 -11  -4   7    1.11    0.38
 -10  -4   7   15.78    1.24
  -9  -4   7    0.67    0.29
  -8  -4   7    0.37    0.24
  -7  -4   7    8.40    0.66
  -6  -4   7   10.20    0.72
  -5  -4   7    0.04    0.15
  -4  -4   7    0.00    0.13
  -3  -4   7    1.72    0.29
  -2  -4   7   23.51    0.94
  -1  -4   7    1.71    0.23
   0  -4   7   34.18    1.05
   1  -4   7   44.04    1.27
   2  -4   7    0.21    0.12
   3  -4   7    0.30    0.14
   4  -4   7    9.41    0.70
   5  -4   7    0.21    0.19
   6  -4   7   14.17    0.91
   7  -4   7    2.49    0.42
   8  -4   7    3.50    0.49
   9  -4   7    0.15    0.26
  10  -4   7    0.37    0.41
  11  -4   7    2.62    0.66
  12  -4   7    8.20    1.14
  13  -4   7    3.59    0.91
  14  -4   7    0.82    0.57
  15  -4   7    1.61    0.81
  16  -4   7   -0.41    0.59
 -17  -3   7    0.46    0.62
 -16  -3   7   -0.22    0.40
 -15  -3   7    1.93    0.72
 -14  -3   7   -0.03    0.37
 -13  -3   7    1.95    0.70
 -12  -3   7    0.87    0.32
 -11  -3   7    0.34    0.24
 -10  -3   7    0.03    0.20
  -9  -3   7   26.01    1.29
  -8  -3   7   40.38    1.73
  -7  -3   7   11.50    0.88
  -6  -3   7    2.17    0.20
  -5  -3   7    2.25    0.30
  -4  -3   7   14.98    0.67
  -3  -3   7   16.81    0.71
  -2  -3   7   49.94    1.53
  -1  -3   7   11.66    0.51
   0  -3   7    1.59    0.20
   1  -3   7    0.85    0.15
   2  -3   7   15.27    0.57
   3  -3   7   36.88    1.05
   4  -3   7   12.07    0.51
   5  -3   7   12.02    0.78
   6  -3   7    6.50    0.58
   7  -3   7   10.81    0.81
   8  -3   7    6.72    0.55
   9  -3   7   12.29    0.76
  10  -3   7    1.32    0.31
  11  -3   7   12.26    0.97
  12  -3   7   -0.29    0.36
  13  -3   7    1.78    0.58
  14  -3   7    4.95    0.96
  15  -3   7    0.65    0.56
  16  -3   7   -0.07    0.53
  17  -3   7    0.22    0.73
 -16  -2   7   -0.25    0.37
 -15  -2   7    3.82    0.90
 -14  -2   7    4.34    0.64
 -13  -2   7   -0.17    0.22
 -12  -2   7    0.45    0.25
 -11  -2   7    0.15    0.17
 -10  -2   7    8.27    0.57
  -9  -2   7   -0.03    0.13
  -8  -2   7    0.05    0.13
  -7  -2   7    6.25    0.42
  -6  -2   7    8.97    0.46
  -5  -2   7   -0.05    0.07
  -4  -2   7   -0.09    0.06
  -3  -2   7    0.07    0.11
  -2  -2   7   15.50    0.61
  -1  -2   7    4.08    0.28
   0  -2   7   14.41    0.50
   1  -2   7   23.62    0.72
   2  -2   7    0.56    0.14
   3  -2   7   -0.01    0.09
   4  -2   7    7.88    0.46
   5  -2   7    0.04    0.11
   6  -2   7    8.60    0.54
   7  -2   7    1.35    0.25
   8  -2   7    1.59    0.29
   9  -2   7    0.03    0.18
  10  -2   7    0.24    0.20
  11  -2   7    1.52    0.43
  12  -2   7    3.89    0.78
  13  -2   7    0.87    0.49
  14  -2   7    0.76    0.47
  15  -2   7    1.34    0.60
  16  -2   7   -0.59    0.49
  17  -2   7    0.65    0.64
 -18  -1   7    0.22    0.75
 -17  -1   7   -0.47    0.45
 -16  -1   7    0.58    0.50
 -15  -1   7    0.85    0.38
 -14  -1   7    0.05    0.27
 -13  -1   7    0.22    0.26
 -12  -1   7    0.09    0.21
 -11  -1   7    0.10    0.20
 -10  -1   7    0.17    0.15
  -9  -1   7    3.22    0.32
  -8  -1   7    9.85    0.52
  -7  -1   7    1.66    0.21
  -6  -1   7    0.11    0.10
  -5  -1   7    1.46    0.18
  -4  -1   7    1.56    0.16
  -3  -1   7    5.45    0.32
  -2  -1   7    9.28    0.41
  -1  -1   7    0.84    0.16
   0  -1   7    0.07    0.09
   1  -1   7   -0.01    0.08
   2  -1   7    3.24    0.25
   3  -1   7    6.21    0.38
   4  -1   7    0.28    0.13
   5  -1   7    3.25    0.30
   6  -1   7    3.21    0.33
   7  -1   7    1.17    0.19
   8  -1   7    1.16    0.20
   9  -1   7    1.27    0.24
  10  -1   7    0.63    0.32
  11  -1   7    2.35    0.49
  12  -1   7   -0.10    0.30
  13  -1   7    0.00    0.37
  14  -1   7    0.62    0.49
  15  -1   7    0.41    0.48
  16  -1   7   -0.11    0.48
  17  -1   7    0.04    0.53
 -20   0   7   -0.43    0.58
 -19   0   7   -0.12    0.62
 -18   0   7   -0.25    0.54
 -17   0   7    0.23    0.56
 -16   0   7    0.00    0.50
 -15   0   7   -0.03    0.42
 -14   0   7   -0.14    0.30
 -13   0   7   -0.17    0.20
 -12   0   7    0.11    0.23
 -11   0   7    0.11    0.18
 -10   0   7    0.05    0.18
  -9   0   7   -0.13    0.09
  -8   0   7    0.07    0.10
  -7   0   7   -0.06    0.08
  -6   0   7   -0.14    0.07
  -5   0   7   -0.14    0.07
  -4   0   7   -0.03    0.10
  -3   0   7   -0.05    0.12
  -2   0   7    0.08    0.07
  -1   0   7   -0.17    0.08
   0   0   7   -0.18    0.12
   1   0   7    0.00    0.06
   2   0   7    0.03    0.07
   3   0   7    0.01    0.08
   4   0   7   -0.12    0.09
   5   0   7    0.03    0.13
   6   0   7    0.09    0.19
   7   0   7   -0.10    0.20
   8   0   7    0.01    0.20
   9   0   7    0.00    0.23
  10   0   7   -0.16    0.23
  11   0   7    0.14    0.28
  12   0   7   -0.09    0.26
  13   0   7   -0.37    0.28
  14   0   7   -0.06    0.35
  15   0   7    0.21    0.45
  16   0   7   -0.16    0.47
  17   0   7    0.26    0.91
 -20   1   7    0.46    0.81
 -19   1   7    0.88    0.85
 -18   1   7    0.03    0.45
 -17   1   7   -0.08    0.50
 -16   1   7   -0.36    0.42
 -15   1   7    0.39    0.52
 -14   1   7    0.00    0.29
 -13   1   7   -0.06    0.30
 -12   1   7    0.18    0.33
 -11   1   7   -0.10    0.17
 -10   1   7    0.57    0.22
  -9   1   7    3.29    0.41
  -8   1   7   10.51    0.64
  -7   1   7    1.33    0.27
  -6   1   7    0.34    0.16
  -5   1   7    1.95    0.18
  -4   1   7    1.30    0.21
  -3   1   7    6.10    0.46
  -2   1   7    9.03    0.37
  -1   1   7    0.85    0.16
   0   1   7    0.10    0.12
   1   1   7   -0.02    0.09
   2   1   7    3.56    0.29
   3   1   7    5.95    0.46
   4   1   7    0.65    0.21
   5   1   7    3.08    0.42
   6   1   7    3.22    0.45
   7   1   7    1.44    0.33
   8   1   7    1.41    0.33
   9   1   7    0.52    0.29
  10   1   7    0.91    0.36
  11   1   7    2.68    0.50
  12   1   7    0.19    0.30
  13   1   7    0.42    0.38
  14   1   7    0.24    0.37
  15   1   7    0.74    0.55
  16   1   7    0.17    0.78
  17   1   7    1.13    1.01
 -19   2   7    0.05    0.68
 -18   2   7    0.73    0.63
 -17   2   7    0.39    0.56
 -16   2   7    0.10    0.47
 -15   2   7    4.08    1.02
 -14   2   7    4.35    0.94
 -13   2   7    0.94    0.55
 -12   2   7    0.07    0.34
 -11   2   7   -0.10    0.30
 -10   2   7   11.47    1.27
  -9   2   7    0.19    0.18
  -8   2   7    0.00    0.16
  -7   2   7    6.91    0.55
  -6   2   7    9.29    0.60
  -5   2   7    0.11    0.10
  -4   2   7    0.04    0.12
  -3   2   7    0.01    0.12
  -2   2   7   16.13    0.58
  -1   2   7    5.14    0.35
   0   2   7   14.40    0.48
   1   2   7   23.75    0.81
   2   2   7    0.16    0.13
   3   2   7    0.04    0.13
   4   2   7    7.49    0.58
   5   2   7   -0.04    0.16
   6   2   7    8.25    0.70
   7   2   7    1.51    0.36
   8   2   7    1.78    0.41
   9   2   7   -0.17    0.23
  10   2   7    0.44    0.33
  11   2   7    1.03    0.38
  12   2   7    4.04    0.64
  13   2   7    2.00    0.52
  14   2   7    0.12    0.40
  15   2   7    0.00    0.64
  16   2   7   -0.24    0.68
  17   2   7   -0.23    0.97
 -18   3   7   -0.24    0.57
 -17   3   7    0.86    0.62
 -16   3   7   -0.44    0.47
 -15   3   7    1.35    0.67
 -14   3   7    0.23    0.38
 -13   3   7    1.69    0.64
 -12   3   7    0.35    0.44
 -11   3   7    0.03    0.31
 -10   3   7   -0.27    0.23
  -9   3   7   25.32    1.88
  -8   3   7   43.35    1.62
  -7   3   7   13.16    0.76
  -6   3   7    2.42    0.24
  -5   3   7    2.67    0.26
  -4   3   7   14.73    0.61
  -3   3   7   17.85    0.82
  -2   3   7   50.45    1.84
  -1   3   7   10.86    0.63
   0   3   7    1.90    0.24
   1   3   7    1.13    0.19
   2   3   7   15.80    0.54
   3   3   7   36.63    1.02
   4   3   7   10.76    0.72
   5   3   7   12.34    0.81
   6   3   7    6.55    0.64
   7   3   7   12.09    0.91
   8   3   7    6.21    0.68
   9   3   7   13.34    1.06
  10   3   7    0.60    0.35
  11   3   7   11.20    1.02
  12   3   7    0.25    0.35
  13   3   7    1.69    0.68
  14   3   7    5.26    0.97
  15   3   7    0.15    0.59
  16   3   7    0.94    0.99
 -18   4   7    1.42    0.85
 -17   4   7    0.12    0.61
 -16   4   7   -0.01    0.53
 -15   4   7    5.88    1.21
 -14   4   7    8.78    1.47
 -13   4   7    2.59    0.81
 -12   4   7    0.25    0.42
 -11   4   7    0.52    0.44
 -10   4   7   12.00    1.53
  -9   4   7    1.35    0.53
  -8   4   7   -0.11    0.22
  -7   4   7    9.34    1.21
  -6   4   7   11.20    0.82
  -5   4   7    0.22    0.19
  -4   4   7   -0.05    0.16
  -3   4   7    1.75    0.42
  -2   4   7   22.78    1.53
   0   4   7   35.80    1.21
   1   4   7   45.69    1.26
   2   4   7    0.38    0.13
   3   4   7    0.32    0.14
   4   4   7   10.99    0.75
   5   4   7    0.16    0.20
   6   4   7   13.67    0.93
   7   4   7    2.18    0.44
   8   4   7    2.39    0.46
   9   4   7    0.16    0.27
  10   4   7    0.15    0.29
  11   4   7    1.67    0.47
  12   4   7    6.13    0.99
  13   4   7    2.92    0.80
  14   4   7    0.25    0.54
  15   4   7    1.83    0.77
  16   4   7    0.81    1.04
 -17   5   7    2.97    1.24
 -16   5   7   -0.02    0.61
 -15   5   7    3.12    1.03
 -14   5   7    0.89    0.68
 -13   5   7    4.18    1.07
 -12   5   7    0.53    0.57
 -11   5   7    0.01    0.38
 -10   5   7    0.26    0.39
  -9   5   7    9.88    1.38
  -8   5   7   41.61    2.72
  -7   5   7   -0.33    0.28
  -6   5   7   -0.07    0.27
  -5   5   7    5.81    0.59
  -4   5   7   -0.19    0.16
  -3   5   7    2.74    0.40
  -2   5   7    5.72    0.88
  -1   5   7    0.90    0.26
   0   5   7    0.27    0.17
   1   5   7    2.74    0.35
   2   5   7    0.24    0.16
   3   5   7   12.76    0.86
   4   5   7    0.54    0.23
   5   5   7   11.38    0.86
   6   5   7   15.11    1.04
   7   5   7    1.15    0.37
   8   5   7    3.93    0.60
   9   5   7    3.35    0.59
  10   5   7    0.67    0.46
  11   5   7   20.84    1.85
  12   5   7    0.29    0.49
  13   5   7   -0.17    0.42
  14   5   7    2.02    0.81
  15   5   7    0.11    0.81
 -15   6   7    1.20    0.85
 -14   6   7    5.35    1.28
 -13   6   7    3.68    1.09
 -12   6   7    1.01    0.66
 -11   6   7    5.33    1.16
 -10   6   7   10.56    1.52
  -9   6   7    1.77    0.69
  -8   6   7    0.48    0.51
  -7   6   7    5.23    1.04
  -6   6   7    0.62    0.45
  -5   6   7   -0.45    0.28
  -4   6   7    0.11    0.31
  -3   6   7    4.30    0.47
  -2   6   7   16.00    1.17
  -1   6   7    2.57    0.32
   0   6   7   42.64    1.52
   1   6   7   31.45    1.27
   2   6   7   -0.02    0.23
   3   6   7    0.74    0.27
   4   6   7    1.90    0.39
   5   6   7    0.37    0.27
   6   6   7    7.27    0.74
   7   6   7    1.79    0.45
   8   6   7    2.93    0.68
   9   6   7   -0.17    0.38
  10   6   7    0.79    0.47
  11   6   7    1.21    0.69
  12   6   7    2.99    0.89
  13   6   7    3.60    0.93
 -14   7   7   -0.29    0.63
 -13   7   7    1.21    0.79
 -12   7   7    0.73    0.70
 -11   7   7    0.45    0.68
 -10   7   7   14.01    1.87
  -9   7   7    3.35    0.95
  -8   7   7   12.73    1.74
  -7   7   7    0.18    0.43
  -6   7   7   -0.04    0.29
  -5   7   7   -0.05    0.28
  -4   7   7    0.32    0.31
  -3   7   7    0.31    0.38
  -2   7   7    1.00    0.38
  -1   7   7    1.79    0.38
   0   7   7   -0.18    0.20
   1   7   7    0.19    0.30
   2   7   7    0.69    0.35
   3   7   7    3.30    0.55
   4   7   7    2.78    0.51
   5   7   7    1.15    0.40
   6   7   7    2.54    0.64
   7   7   7    0.50    0.40
   8   7   7    3.30    0.79
   9   7   7    2.66    0.80
  10   7   7    1.32    0.66
  11   7   7    9.33    1.41
 -11   8   7    0.12    0.83
 -10   8   7    0.24    0.82
  -9   8   7   12.10    2.05
  -8   8   7    2.25    1.04
  -7   8   7    4.17    1.16
  -6   8   7    3.56    1.06
  -5   8   7    4.23    1.05
  -4   8   7   -0.17    0.31
  -3   8   7    0.28    0.36
  -2   8   7   20.44    1.32
  -1   8   7    1.91    0.53
   0   8   7    9.14    1.08
   1   8   7    9.77    1.13
   2   8   7    4.57    0.65
   3   8   7    2.62    0.53
   4   8   7   -0.12    0.38
   5   8   7    8.79    1.19
   6   8   7   -0.07    0.38
   7   8   7   -0.06    0.46
   8   8   7    1.73    0.72
   9   8   7    0.36    1.04
  -7   9   7    0.57    0.83
  -6   9   7   -0.02    0.50
  -5   9   7    0.76    0.52
  -4   9   7    0.47    0.49
  -3   9   7    3.25    0.80
  -2   9   7    2.17    0.64
  -1   9   7    1.08    0.55
   0   9   7    0.38    0.37
   1   9   7   -0.25    0.45
   2   9   7    2.43    0.71
   3   9   7   -0.11    0.49
   4   9   7    0.69    0.56
   5   9   7    0.49    0.63
  -7  -9   8    0.22    0.84
  -6  -9   8    0.46    0.45
  -5  -9   8    9.89    1.33
  -4  -9   8    0.25    0.49
  -3  -9   8    0.26    0.49
  -2  -9   8   12.05    1.44
  -1  -9   8    5.24    1.00
   0  -9   8   -0.17    0.45
   1  -9   8    0.76    0.61
   2  -9   8    6.05    1.05
   3  -9   8    3.92    0.73
   4  -9   8    1.14    1.48
 -11  -8   8   -0.38    0.45
 -10  -8   8    0.25    0.47
  -9  -8   8   23.67    1.91
  -8  -8   8    0.28    0.46
  -7  -8   8    5.70    0.76
  -6  -8   8    9.65    0.93
  -5  -8   8    0.03    0.29
  -4  -8   8    7.51    0.83
  -3  -8   8    9.82    1.19
  -2  -8   8    2.50    0.64
  -1  -8   8    0.71    0.47
   0  -8   8   12.17    1.34
   1  -8   8    0.17    0.32
   2  -8   8   -0.39    0.31
   3  -8   8    1.57    0.44
   4  -8   8    3.98    0.69
   5  -8   8    2.35    0.54
   6  -8   8   12.74    1.49
   7  -8   8   -0.16    0.45
   8  -8   8    8.49    1.29
 -14  -7   8   -0.45    0.72
 -13  -7   8    9.47    1.24
 -12  -7   8   -0.25    0.42
 -11  -7   8    5.14    0.88
 -10  -7   8   17.31    1.55
  -9  -7   8    0.55    0.43
  -8  -7   8    6.46    0.92
  -7  -7   8    1.52    0.41
  -6  -7   8    0.30    0.30
  -5  -7   8   23.34    1.38
  -4  -7   8    0.09    0.26
  -3  -7   8    0.80    0.32
  -2  -7   8   25.67    1.37
  -1  -7   8   23.35    1.71
   0  -7   8    0.78    0.31
   1  -7   8    6.08    0.67
   2  -7   8   11.06    0.94
   3  -7   8   11.38    0.98
   4  -7   8    4.98    0.65
   5  -7   8    0.90    0.39
   6  -7   8    0.69    0.36
   7  -7   8    0.09    0.39
   8  -7   8    0.59    0.52
   9  -7   8    1.97    0.67
  10  -7   8   19.57    1.89
  11  -7   8    0.57    0.59
 -15  -6   8    0.95    0.73
 -14  -6   8    2.11    0.69
 -13  -6   8    5.52    0.89
 -12  -6   8    8.67    1.00
 -11  -6   8    3.29    0.65
 -10  -6   8    0.69    0.38
  -9  -6   8   19.51    1.57
  -8  -6   8   12.40    0.97
  -7  -6   8    3.58    0.53
  -6  -6   8    2.56    0.42
  -5  -6   8    0.15    0.23
  -4  -6   8    4.47    0.54
  -3  -6   8    2.02    0.37
  -2  -6   8    8.45    0.72
  -1  -6   8    5.96    0.59
   0  -6   8   66.24    1.89
   1  -6   8    1.51    0.34
   2  -6   8    8.65    0.76
   3  -6   8    0.07    0.22
   4  -6   8    0.11    0.25
   5  -6   8   27.99    1.45
   6  -6   8   36.68    1.58
   7  -6   8    5.26    0.66
   8  -6   8    6.85    1.00
   9  -6   8    0.59    0.46
  10  -6   8   13.61    1.56
  11  -6   8    1.30    0.72
  12  -6   8   22.33    2.05
  13  -6   8    0.30    0.57
 -17  -5   8    0.43    0.67
 -16  -5   8    8.00    1.55
 -15  -5   8    1.81    0.81
 -14  -5   8    0.74    0.45
 -13  -5   8   36.01    1.89
 -12  -5   8    1.81    0.51
 -11  -5   8   10.87    1.11
 -10  -5   8    4.87    0.72
  -9  -5   8    8.08    0.90
  -8  -5   8   45.05    2.08
  -7  -5   8    0.86    0.29
  -6  -5   8    0.17    0.19
  -5  -5   8   13.33    0.89
  -4  -5   8    3.25    0.42
  -3  -5   8   12.56    0.81
  -2  -5   8   92.79    2.75
  -1  -5   8   29.02    1.01
   0  -5   8    0.06    0.15
   1  -5   8   49.68    1.45
   2  -5   8   30.08    1.09
   3  -5   8   38.02    1.50
   4  -5   8    0.51    0.24
   5  -5   8    0.12    0.21
   6  -5   8    1.58    0.37
   7  -5   8    0.86    0.34
   8  -5   8    0.54    0.33
   9  -5   8    0.53    0.44
  10  -5   8   23.82    1.95
  11  -5   8   13.90    1.54
  12  -5   8    0.59    0.48
  13  -5   8    1.09    0.63
  14  -5   8    0.23    0.58
  15  -5   8   -0.21    0.72
 -18  -4   8    2.77    1.04
 -17  -4   8    0.72    0.67
 -16  -4   8   41.89    3.14
 -15  -4   8    3.34    0.91
 -14  -4   8    1.66    0.71
 -13  -4   8   17.76    1.40
 -12  -4   8   16.52    1.31
 -11  -4   8    8.28    0.88
 -10  -4   8   -0.01    0.23
  -9  -4   8   64.23    2.54
  -8  -4   8   22.41    1.23
  -7  -4   8    0.63    0.24
  -6  -4   8    3.21    0.40
  -5  -4   8   11.60    0.74
  -4  -4   8   10.60    0.70
  -3  -4   8   23.66    0.96
  -2  -4   8   39.68    1.38
  -1  -4   8   15.91    0.64
   0  -4   8   40.88    1.20
   1  -4   8    3.29    0.32
   2  -4   8    1.97    0.25
   3  -4   8    1.03    0.19
   4  -4   8    0.33    0.20
   5  -4   8   16.78    1.04
   6  -4   8   47.12    1.75
   7  -4   8   -0.01    0.20
   8  -4   8   12.27    0.95
   9  -4   8    3.54    0.55
  10  -4   8   35.65    2.16
  11  -4   8   -0.16    0.32
  12  -4   8   22.30    1.92
  13  -4   8    0.18    0.45
  14  -4   8    1.81    0.75
  15  -4   8    0.71    0.66
  16  -4   8    1.14    0.84
 -17  -3   8    0.06    0.53
 -16  -3   8    0.59    0.48
 -15  -3   8    2.53    0.79
 -14  -3   8    0.76    0.52
 -13  -3   8    1.28    0.53
 -12  -3   8    0.04    0.21
 -11  -3   8   54.77    2.21
 -10  -3   8   58.81    2.27
  -9  -3   8    0.27    0.24
  -8  -3   8   20.00    1.06
  -7  -3   8   24.22    1.22
  -6  -3   8    1.93    0.28
  -5  -3   8  101.76    2.87
  -4  -3   8   29.04    1.06
  -3  -3   8    9.31    0.58
  -2  -3   8    4.61    0.40
  -1  -3   8  115.95    2.76
   0  -3   8   24.87    0.80
   1  -3   8    0.56    0.14
   2  -3   8   47.90    1.31
   3  -3   8    2.04    0.25
   4  -3   8   34.11    1.03
   5  -3   8   20.46    0.96
   6  -3   8   26.46    1.14
   7  -3   8   -0.15    0.18
   8  -3   8   49.17    1.80
   9  -3   8   14.11    1.04
  10  -3   8   27.28    1.47
  11  -3   8    1.35    0.53
  12  -3   8    0.51    0.45
  13  -3   8    6.61    1.06
  14  -3   8    4.71    0.96
  15  -3   8    0.17    0.46
  16  -3   8    0.51    0.57
 -16  -2   8   78.17    4.20
 -15  -2   8    4.44    0.93
 -14  -2   8    0.03    0.33
 -13  -2   8   35.13    1.66
 -12  -2   8   26.36    1.35
 -11  -2   8   18.83    0.86
 -10  -2   8    7.15    0.53
  -9  -2   8  122.80    3.21
  -8  -2   8   32.15    1.10
  -7  -2   8    0.11    0.11
  -6  -2   8    0.81    0.14
  -5  -2   8  109.13    2.48
  -4  -2   8   20.14    0.60
  -3  -2   8  114.71    3.07
  -2  -2   8   96.55    2.63
  -1  -2   8   45.25    1.16
   0  -2   8    3.53    0.28
   1  -2   8   12.63    0.49
   2  -2   8   77.29    1.90
   3  -2   8    5.16    0.37
   4  -2   8    1.62    0.22
   5  -2   8    2.11    0.26
   6  -2   8   38.26    1.21
   7  -2   8   28.24    1.34
   8  -2   8   19.25    1.12
   9  -2   8    7.78    0.81
  10  -2   8   62.97    2.36
  11  -2   8    8.02    0.87
  12  -2   8   13.59    1.41
  13  -2   8    1.22    0.51
  14  -2   8    2.78    0.74
  15  -2   8    2.94    0.80
  16  -2   8    0.55    0.59
  17  -2   8   -1.07    1.15
 -17  -1   8   10.40    1.57
 -16  -1   8    8.60    1.34
 -15  -1   8    2.70    0.54
 -14  -1   8    3.17    0.55
 -13  -1   8    4.26    0.59
 -12  -1   8   25.54    1.27
 -11  -1   8   72.10    2.65
 -10  -1   8    7.86    0.52
  -9  -1   8    0.16    0.13
  -8  -1   8   57.61    1.65
  -7  -1   8   -0.01    0.08
  -6  -1   8   16.52    0.62
  -5  -1   8   25.81    0.84
  -4  -1   8   11.43    0.47
  -3  -1   8   25.32    0.80
  -2  -1   8   59.02    1.68
  -1  -1   8   82.23    2.18
   0  -1   8    4.71    0.28
   1  -1   8   40.55    1.08
   2  -1   8  105.01    2.44
   3  -1   8    0.81    0.16
   4  -1   8    1.28    0.19
   5  -1   8   32.88    1.02
   6  -1   8    1.57    0.24
   7  -1   8   14.35    0.67
   8  -1   8   50.69    1.50
   9  -1   8    0.86    0.31
  10  -1   8   16.94    1.18
  11  -1   8   20.45    1.35
  12  -1   8   25.13    1.55
  13  -1   8   10.56    1.23
  14  -1   8   -0.18    0.35
  15  -1   8    2.30    0.68
  16  -1   8    3.45    1.32
  17  -1   8    3.38    1.39
 -20   0   8    4.54    1.25
 -19   0   8   13.87    1.93
 -18   0   8   16.75    2.07
 -17   0   8    6.86    1.35
 -16   0   8   27.34    2.22
 -15   0   8   11.94    1.57
 -14   0   8   29.58    2.19
 -13   0   8   97.20    3.51
 -12   0   8   98.07    3.45
 -11   0   8  146.75    4.81
 -10   0   8    5.81    0.57
  -9   0   8   25.20    0.86
  -8   0   8  167.10    4.21
  -7   0   8   11.53    0.52
  -6   0   8   90.34    2.41
  -5   0   8   80.66    2.14
  -4   0   8    2.83    0.31
  -3   0   8    9.72    0.57
  -2   0   8  110.12    2.81
  -1   0   8  323.12    7.79
   0   0   8   65.08    1.87
   1   0   8   55.26    1.36
   2   0   8    6.68    0.34
   3   0   8    5.62    0.33
   4   0   8   63.95    1.65
   5   0   8   77.05    2.00
   6   0   8   45.64    1.34
   7   0   8    1.61    0.27
   8   0   8    0.78    0.24
   9   0   8    1.97    0.31
  10   0   8    5.59    0.52
  11   0   8    2.27    0.50
  12   0   8   42.86    1.80
  13   0   8    4.65    0.69
  14   0   8    1.83    0.57
  15   0   8   32.96    3.53
  16   0   8    0.07    0.82
  17   0   8    0.23    0.77
 -20   1   8   10.23    1.78
 -19   1   8    1.52    0.81
 -18   1   8    6.73    1.42
 -17   1   8   10.97    1.60
 -16   1   8    8.62    1.41
 -15   1   8    1.92    0.67
 -14   1   8    1.77    0.62
 -13   1   8    5.36    0.98
 -12   1   8   25.48    1.24
 -11   1   8   72.73    2.62
 -10   1   8    5.71    0.57
  -9   1   8    0.17    0.18
  -8   1   8   55.61    2.05
  -7   1   8    0.12    0.14
  -6   1   8   16.13    0.56
  -5   1   8   26.55    0.83
  -4   1   8   10.74    0.59
  -3   1   8   24.59    1.02
  -2   1   8   60.06    1.68
  -1   1   8   77.90    2.19
   0   1   8    4.44    0.37
   1   1   8   42.19    1.69
   2   1   8  104.46    2.46
   3   1   8    1.18    0.20
   4   1   8    1.56    0.29
   5   1   8   34.18    1.27
   6   1   8    1.28    0.30
   7   1   8   15.85    1.00
   8   1   8   46.27    1.79
   9   1   8    0.41    0.28
  10   1   8   17.92    1.21
  11   1   8   20.45    1.34
  12   1   8   23.13    1.47
  13   1   8    9.52    0.95
  14   1   8    1.33    0.65
  15   1   8    4.08    1.31
  16   1   8    3.54    1.26
  17   1   8    3.27    1.41
 -19   2   8    1.22    0.86
 -18   2   8    4.96    1.23
 -17   2   8   -0.21    0.37
 -16   2   8   69.00    4.29
 -15   2   8    4.31    1.02
 -14   2   8    0.00    0.42
 -13   2   8   38.85    2.59
 -12   2   8   28.81    2.10
 -11   2   8   19.00    1.88
 -10   2   8    5.18    0.55
  -9   2   8  118.89    3.91
  -8   2   8   33.29    1.37
  -7   2   8    0.40    0.19
  -6   2   8    1.18    0.16
  -5   2   8  110.48    3.47
  -4   2   8   19.62    0.86
  -3   2   8  118.91    3.74
  -2   2   8  100.41    2.60
  -1   2   8   44.04    1.33
   0   2   8    4.02    0.27
   1   2   8   11.31    0.55
   2   2   8   77.46    2.22
   3   2   8    4.72    0.44
   4   2   8    2.25    0.35
   5   2   8    2.05    0.35
   6   2   8   40.53    1.54
   7   2   8   25.92    1.27
   8   2   8   18.57    1.22
   9   2   8   10.12    0.90
  10   2   8   64.38    2.35
  11   2   8    7.88    0.83
  12   2   8   12.60    1.09
  13   2   8    3.15    0.76
  14   2   8    1.86    0.68
  15   2   8    4.13    0.96
  16   2   8    0.58    0.87
 -18   3   8    7.61    1.51
 -17   3   8    0.43    0.61
 -16   3   8    1.97    0.77
 -15   3   8    0.53    0.63
 -14   3   8    0.86    0.54
 -13   3   8    1.48    0.62
 -12   3   8    0.11    0.39
 -11   3   8   56.86    3.26
 -10   3   8   51.23    3.21
  -9   3   8    0.53    0.37
  -8   3   8   19.30    0.95
  -7   3   8   26.15    1.17
  -6   3   8    2.53    0.27
  -5   3   8  104.93    2.78
  -4   3   8   31.67    1.23
  -3   3   8    8.97    0.67
  -2   3   8    4.89    0.39
  -1   3   8  122.27    3.17
   0   3   8   25.42    0.89
   1   3   8    0.72    0.18
   2   3   8   48.73    1.27
   3   3   8    2.08    0.21
   4   3   8   35.03    1.28
   5   3   8   20.68    1.06
   6   3   8   24.35    1.19
   7   3   8    0.01    0.21
   8   3   8   43.96    1.80
   9   3   8   14.51    1.13
  10   3   8   22.94    1.49
  11   3   8    0.55    0.43
  12   3   8    0.08    0.44
  13   3   8    9.62    1.28
  14   3   8    2.78    0.87
  15   3   8    0.10    0.52
  16   3   8   -0.21    0.96
 -18   4   8    0.94    0.68
 -17   4   8    0.58    0.72
 -16   4   8   45.25    3.36
 -15   4   8    3.38    1.00
 -14   4   8    2.06    0.79
 -13   4   8   17.44    2.07
 -12   4   8   17.64    2.04
 -11   4   8    7.36    1.19
 -10   4   8   -0.33    0.29
  -9   4   8   60.82    3.58
  -8   4   8   22.55    1.73
  -7   4   8    0.24    0.32
  -6   4   8    3.68    0.46
  -5   4   8   11.59    0.62
  -4   4   8   11.13    0.66
  -3   4   8   21.88    1.09
  -2   4   8   43.07    1.68
  -1   4   8   16.75    0.88
   0   4   8   42.39    1.37
   1   4   8    3.46    0.30
   2   4   8    2.60    0.26
   3   4   8    1.49    0.30
   4   4   8    0.11    0.19
   5   4   8   17.89    0.99
   6   4   8   48.17    1.79
   7   4   8    0.20    0.24
   8   4   8   11.27    0.96
   9   4   8    2.38    0.53
  10   4   8   33.13    2.36
  11   4   8   -0.19    0.43
  12   4   8   19.25    1.86
  13   4   8    0.15    0.50
  14   4   8    1.31    0.70
  15   4   8    1.13    0.73
  16   4   8    0.83    1.07
 -17   5   8   -0.40    0.61
 -16   5   8    8.37    1.65
 -15   5   8    3.38    1.07
 -14   5   8    3.14    0.97
 -13   5   8   27.40    2.85
 -12   5   8    3.09    0.92
 -11   5   8   12.11    1.67
 -10   5   8    5.91    1.08
  -9   5   8    7.36    1.19
  -8   5   8   46.92    2.92
  -7   5   8    0.26    0.33
  -6   5   8   -0.01    0.29
  -5   5   8   13.09    0.88
  -4   5   8    3.85    0.42
  -3   5   8   14.17    0.99
  -2   5   8   95.05    3.30
  -1   5   8   29.13    1.13
   0   5   8    0.29    0.16
   1   5   8   51.00    1.43
   2   5   8   29.18    1.18
   3   5   8   40.04    1.49
   4   5   8    0.88    0.29
   5   5   8   -0.17    0.19
   6   5   8    1.28    0.36
   7   5   8    1.25    0.38
   8   5   8    1.43    0.50
   9   5   8    0.38    0.39
  10   5   8   21.23    1.88
  11   5   8   11.26    1.42
  12   5   8    1.99    0.66
  13   5   8    0.52    0.57
  14   5   8    0.43    0.59
  15   5   8    1.05    1.14
 -15   6   8    1.40    0.94
 -14   6   8    0.60    0.71
 -13   6   8    6.43    1.35
 -12   6   8    6.13    1.30
 -11   6   8    2.35    0.86
 -10   6   8    0.79    0.62
  -9   6   8   23.28    2.32
  -8   6   8   15.42    1.80
  -7   6   8    3.11    0.80
  -6   6   8    1.24    0.55
  -5   6   8    0.22    0.40
  -4   6   8    4.09    0.84
  -3   6   8    2.13    0.43
  -2   6   8    9.03    0.60
  -1   6   8    5.14    0.52
   0   6   8   66.05    1.85
   1   6   8    0.98    0.25
   2   6   8    7.07    0.66
   3   6   8   -0.19    0.19
   4   6   8    0.07    0.21
   5   6   8   27.63    1.37
   6   6   8   36.39    2.01
   7   6   8    8.03    1.07
   8   6   8    4.68    0.88
   9   6   8    0.55    0.47
  10   6   8   11.87    1.48
  11   6   8    1.68    0.71
  12   6   8   19.59    2.02
  13   6   8   -0.39    0.59
 -14   7   8    0.53    0.71
 -13   7   8    7.57    1.53
 -12   7   8   -0.23    0.65
 -11   7   8    5.72    1.29
 -10   7   8   14.35    1.93
  -9   7   8    3.13    0.88
  -8   7   8    7.03    1.31
  -7   7   8    2.74    0.79
  -6   7   8   -0.04    0.29
  -5   7   8   24.56    1.52
  -4   7   8   -0.03    0.26
  -3   7   8    1.09    0.38
  -2   7   8   28.68    1.18
  -1   7   8   24.13    1.18
   0   7   8    0.36    0.28
   1   7   8    6.12    0.64
   2   7   8   13.15    0.99
   3   7   8   12.11    0.96
   4   7   8    2.69    0.67
   5   7   8    0.21    0.39
   6   7   8    0.77    0.50
   7   7   8    0.63    0.46
   8   7   8    0.55    0.46
   9   7   8    2.39    0.75
  10   7   8   21.54    2.06
  11   7   8    1.02    0.70
 -11   8   8   -0.20    0.73
 -10   8   8   -0.62    0.67
  -9   8   8   24.00    2.95
  -8   8   8    0.77    0.72
  -7   8   8    7.13    1.55
  -6   8   8    9.53    1.64
  -5   8   8   -0.06    0.40
  -4   8   8    6.95    0.94
  -3   8   8   11.18    0.95
  -2   8   8    2.05    0.49
  -1   8   8    1.05    0.37
   0   8   8   13.65    1.07
   1   8   8    0.09    0.30
   2   8   8    0.13    0.39
   3   8   8    0.22    0.44
   4   8   8    2.30    0.65
   5   8   8    1.41    0.58
   6   8   8   10.98    1.38
   7   8   8   -0.28    0.43
   8   8   8    7.40    1.22
  -7   9   8    0.39    0.80
  -6   9   8    0.57    0.55
  -5   9   8    9.84    1.27
  -4   9   8    0.17    0.48
  -3   9   8    0.35    0.77
  -1   9   8    6.42    1.45
   0   9   8   -0.04    0.45
   1   9   8    0.09    0.53
   2   9   8    5.26    0.94
   3   9   8    4.16    0.89
   4   9   8    0.30    0.51
   5   9   8    1.86    1.04
  -7  -9   9    0.03    0.76
  -6  -9   9   16.14    1.72
  -5  -9   9   13.19    1.49
  -4  -9   9    3.21    0.82
  -3  -9   9    0.56    0.53
  -2  -9   9    1.46    0.72
  -1  -9   9    2.47    0.76
   0  -9   9    2.20    0.75
   1  -9   9    1.64    0.66
   2  -9   9    0.45    0.58
   3  -9   9   -0.08    0.55
   4  -9   9   -0.63    0.78
 -11  -8   9    1.55    1.11
 -10  -8   9   -0.69    0.40
  -9  -8   9    1.75    0.68
  -8  -8   9    2.77    0.68
  -7  -8   9    0.33    0.36
  -6  -8   9    0.29    0.37
  -5  -8   9    1.44    0.46
  -4  -8   9    4.75    0.65
  -3  -8   9    2.16    0.63
  -2  -8   9   -0.12    0.38
  -1  -8   9    2.55    0.66
   0  -8   9    0.02    0.39
   1  -8   9    0.14    0.43
   2  -8   9   11.26    1.04
   3  -8   9    6.51    0.79
   4  -8   9    4.92    0.69
   5  -8   9    7.62    0.91
   6  -8   9    3.63    0.82
   7  -8   9    0.40    0.55
   8  -8   9    0.36    0.77
 -14  -7   9   -0.48    0.66
 -13  -7   9    2.43    0.73
 -12  -7   9   -0.07    0.39
 -11  -7   9    2.49    0.69
 -10  -7   9    0.30    0.45
  -9  -7   9    1.11    0.49
  -8  -7   9    6.60    0.76
  -7  -7   9    0.45    0.31
  -6  -7   9   16.54    1.17
  -5  -7   9   14.21    1.09
  -4  -7   9    1.32    0.39
  -3  -7   9    9.85    0.86
  -2  -7   9    0.03    0.24
  -1  -7   9   10.60    1.16
   0  -7   9    2.04    0.54
   1  -7   9   10.25    0.90
   2  -7   9    0.53    0.31
   3  -7   9    0.66    0.33
   4  -7   9    1.83    0.48
   5  -7   9    6.24    0.77
   6  -7   9   -0.19    0.30
   7  -7   9    0.17    0.44
   8  -7   9    0.40    0.45
   9  -7   9    2.11    0.73
  10  -7   9    0.62    0.64
  11  -7   9   -0.40    0.59
 -15  -6   9    0.44    0.68
 -14  -6   9    0.69    0.50
 -13  -6   9    2.46    0.65
 -12  -6   9    1.80    0.54
 -11  -6   9   -0.13    0.31
 -10  -6   9    0.15    0.35
  -9  -6   9    0.00    0.28
  -8  -6   9   14.63    1.08
  -7  -6   9    7.19    0.73
  -6  -6   9    1.00    0.31
  -5  -6   9   -0.10    0.21
  -4  -6   9    0.95    0.30
  -3  -6   9    0.05    0.20
  -2  -6   9    2.14    0.35
  -1  -6   9    0.84    0.28
   0  -6   9    1.80    0.31
   1  -6   9    1.07    0.30
   2  -6   9    8.26    0.77
   3  -6   9   10.10    0.88
   4  -6   9   19.57    1.24
   5  -6   9    6.85    0.74
   6  -6   9    4.27    0.62
   7  -6   9    0.23    0.32
   8  -6   9   -0.11    0.32
   9  -6   9    9.58    1.24
  10  -6   9    1.03    0.55
  11  -6   9    0.29    0.52
  12  -6   9   -1.04    0.50
  13  -6   9    2.61    1.03
 -17  -5   9    0.77    0.77
 -16  -5   9   -0.15    0.50
 -15  -5   9   -0.44    0.46
 -14  -5   9    2.82    0.95
 -13  -5   9   12.03    1.24
 -12  -5   9    0.59    0.36
 -11  -5   9    0.87    0.37
 -10  -5   9    3.87    0.66
  -9  -5   9   15.98    1.28
  -8  -5   9   33.91    1.42
  -7  -5   9   14.19    0.97
  -6  -5   9    8.13    0.66
  -5  -5   9    2.33    0.37
  -4  -5   9    3.46    0.45
  -3  -5   9   42.73    1.55
  -2  -5   9   18.90    0.98
  -1  -5   9   29.91    1.05
   0  -5   9   -0.13    0.13
   1  -5   9   35.09    1.16
   2  -5   9    4.74    0.54
   3  -5   9   24.40    1.15
   4  -5   9   12.38    0.90
   5  -5   9    4.13    0.52
   6  -5   9    2.25    0.42
   7  -5   9    2.05    0.43
   8  -5   9    4.03    0.58
   9  -5   9    2.67    0.65
  10  -5   9    0.68    0.45
  11  -5   9    0.32    0.52
  12  -5   9   14.31    1.63
  13  -5   9    0.85    0.66
  14  -5   9   -0.53    0.58
 -18  -4   9    1.38    0.83
 -17  -4   9    0.40    0.63
 -16  -4   9   21.89    2.42
 -15  -4   9    0.45    0.56
 -14  -4   9   -0.08    0.38
 -13  -4   9    6.92    0.86
 -12  -4   9    1.61    0.43
 -11  -4   9    2.41    0.50
 -10  -4   9    0.20    0.25
  -9  -4   9    8.66    0.88
  -8  -4   9   18.06    1.19
  -7  -4   9    7.58    0.63
  -6  -4   9    0.06    0.15
  -5  -4   9    1.40    0.29
  -4  -4   9   10.47    0.70
  -3  -4   9    0.13    0.15
  -2  -4   9    2.71    0.33
  -1  -4   9    0.02    0.12
   0  -4   9   16.72    0.67
   1  -4   9    0.62    0.18
   2  -4   9   27.93    0.91
   3  -4   9   13.52    0.66
   4  -4   9    6.59    0.60
   5  -4   9    0.10    0.19
   6  -4   9    9.21    0.78
   7  -4   9    6.34    0.68
   8  -4   9    0.13    0.24
   9  -4   9   17.97    1.26
  10  -4   9    3.23    0.60
  11  -4   9    0.81    0.47
  12  -4   9   -0.38    0.43
  13  -4   9    1.79    0.68
  14  -4   9    1.82    0.77
  15  -4   9   -0.01    0.57
 -18  -3   9   -0.12    0.60
 -17  -3   9    0.20    0.55
 -16  -3   9    2.41    0.82
 -15  -3   9    0.44    0.49
 -14  -3   9    8.11    1.26
 -13  -3   9    1.29    0.61
 -12  -3   9    0.68    0.31
 -11  -3   9    6.20    0.69
 -10  -3   9    0.16    0.21
  -9  -3   9   22.91    1.21
  -8  -3   9   14.65    1.05
  -7  -3   9    8.94    0.62
  -6  -3   9    6.03    0.49
  -5  -3   9   10.17    0.64
  -4  -3   9    6.70    0.50
  -3  -3   9   27.00    1.00
  -2  -3   9   10.33    0.63
  -1  -3   9   44.23    1.21
   0  -3   9    4.10    0.33
   1  -3   9   16.69    0.62
   2  -3   9    2.23    0.25
   3  -3   9   11.72    0.59
   4  -3   9   27.44    0.90
   5  -3   9   11.16    0.80
   6  -3   9    0.90    0.26
   7  -3   9    3.33    0.49
   8  -3   9    1.83    0.41
   9  -3   9    8.14    0.80
  10  -3   9   -0.18    0.27
  11  -3   9    0.18    0.40
  12  -3   9   14.21    1.45
  13  -3   9   -0.43    0.39
  14  -3   9    0.26    0.50
  15  -3   9    0.59    0.57
  16  -3   9    0.79    1.14
 -16  -2   9   14.81    1.74
 -15  -2   9    0.30    0.41
 -14  -2   9    1.36    0.54
 -13  -2   9    3.22    0.75
 -12  -2   9    0.67    0.28
 -11  -2   9    4.26    0.42
 -10  -2   9   -0.11    0.13
  -9  -2   9    8.72    0.57
  -8  -2   9    9.05    0.53
  -7  -2   9    4.59    0.37
  -6  -2   9    0.29    0.11
  -5  -2   9    2.92    0.23
  -4  -2   9    9.35    0.55
  -3  -2   9    0.05    0.11
  -2  -2   9    2.95    0.30
  -1  -2   9    0.22    0.14
   0  -2   9   18.73    0.62
   1  -2   9    2.02    0.23
   2  -2   9   18.31    0.67
   3  -2   9    7.33    0.46
   4  -2   9    0.43    0.16
   5  -2   9    2.40    0.29
   6  -2   9    6.31    0.50
   7  -2   9    8.28    0.74
   8  -2   9    0.12    0.24
   9  -2   9   10.65    0.92
  10  -2   9    4.09    0.62
  11  -2   9    1.24    0.37
  12  -2   9    0.93    0.50
  13  -2   9    1.13    0.50
  14  -2   9    0.68    0.49
  15  -2   9    0.73    1.03
  16  -2   9    0.61    0.94
 -17  -1   9   -0.10    0.58
 -16  -1   9    0.20    0.49
 -15  -1   9    0.10    0.28
 -14  -1   9    1.18    0.38
 -13  -1   9    0.59    0.29
 -12  -1   9    0.12    0.20
 -11  -1   9    0.11    0.22
 -10  -1   9    0.16    0.14
  -9  -1   9    5.03    0.39
  -8  -1   9    6.08    0.44
  -7  -1   9    2.80    0.29
  -6  -1   9    0.16    0.11
  -5  -1   9    0.46    0.10
  -4  -1   9    3.06    0.27
  -3  -1   9    9.13    0.44
  -2  -1   9    5.53    0.37
  -1  -1   9    9.13    0.49
   0  -1   9    0.03    0.08
   1  -1   9    5.12    0.32
   2  -1   9    1.20    0.18
   3  -1   9    6.17    0.38
   4  -1   9    5.20    0.38
   5  -1   9    1.05    0.19
   6  -1   9    0.08    0.16
   7  -1   9    0.63    0.21
   8  -1   9    0.87    0.24
   9  -1   9    1.25    0.33
  10  -1   9   -0.22    0.23
  11  -1   9    0.15    0.28
  12  -1   9    2.20    0.47
  13  -1   9    0.24    0.36
  14  -1   9    0.75    0.49
  15  -1   9    0.32    0.85
  16  -1   9   -0.17    0.76
 -20   0   9    0.03    0.80
 -19   0   9    0.95    0.72
 -18   0   9   -0.14    0.55
 -17   0   9   -0.09    0.50
 -16   0   9    0.47    0.54
 -15   0   9   -0.54    0.29
 -14   0   9    0.06    0.26
 -13   0   9    0.10    0.22
 -12   0   9   -0.02    0.19
 -11   0   9    0.37    0.21
 -10   0   9   -0.10    0.16
  -9   0   9   -0.06    0.15
  -8   0   9   -0.08    0.09
  -7   0   9   -0.10    0.09
  -6   0   9    0.08    0.09
  -5   0   9   -0.28    0.08
  -4   0   9    0.07    0.13
  -3   0   9   -0.09    0.06
  -2   0   9    0.08    0.08
  -1   0   9   -0.09    0.09
   0   0   9    0.04    0.11
   1   0   9   -0.11    0.06
   2   0   9   -0.16    0.08
   3   0   9   -0.12    0.09
   4   0   9   -0.05    0.09
   5   0   9   -0.14    0.12
   6   0   9    0.13    0.13
   7   0   9    0.04    0.15
   8   0   9    0.15    0.17
   9   0   9   -0.07    0.16
  10   0   9   -0.03    0.19
  11   0   9    0.00    0.26
  12   0   9   -0.29    0.26
  13   0   9   -0.20    0.37
  14   0   9    1.28    0.90
  15   0   9   -0.07    0.63
  16   0   9    1.15    0.96
  17   0   9    1.17    1.15
 -20   1   9    0.10    0.71
 -19   1   9    0.25    0.65
 -18   1   9    0.04    0.58
 -17   1   9   -0.07    0.47
 -16   1   9    0.10    0.46
 -15   1   9   -0.49    0.33
 -14   1   9    1.50    0.63
 -13   1   9   -0.11    0.32
 -12   1   9    0.07    0.20
 -11   1   9    0.16    0.19
 -10   1   9    0.14    0.18
  -9   1   9    4.70    0.51
  -8   1   9    7.27    0.62
  -7   1   9    2.95    0.20
  -6   1   9    0.28    0.10
  -5   1   9    0.36    0.14
  -4   1   9    3.02    0.34
  -3   1   9    7.82    0.60
  -2   1   9    5.34    0.34
  -1   1   9   11.61    0.59
   0   1   9    0.13    0.15
   1   1   9    4.61    0.42
   2   1   9    0.80    0.14
   3   1   9    5.40    0.38
   4   1   9    5.39    0.40
   5   1   9    0.87    0.24
   6   1   9   -0.04    0.18
   7   1   9    0.98    0.28
   8   1   9    1.39    0.35
   9   1   9    0.87    0.34
  10   1   9   -0.14    0.20
  11   1   9    0.24    0.30
  12   1   9    2.94    0.74
  13   1   9    0.39    0.55
  14   1   9    0.06    0.49
  15   1   9    0.47    0.82
  16   1   9   -0.30    0.75
 -19   2   9    0.36    0.68
 -18   2   9    0.04    0.52
 -17   2   9    0.46    0.66
 -16   2   9   12.46    1.76
 -15   2   9    0.87    0.55
 -14   2   9    1.62    0.63
 -13   2   9    2.23    0.70
 -12   2   9    0.24    0.35
 -11   2   9    3.24    0.75
 -10   2   9   -0.17    0.16
  -9   2   9    8.88    0.74
  -8   2   9    8.61    0.70
  -7   2   9    4.01    0.46
  -6   2   9    0.40    0.13
  -5   2   9    2.89    0.35
  -4   2   9    9.53    0.61
  -3   2   9    0.05    0.09
  -2   2   9    2.87    0.28
  -1   2   9    0.13    0.13
   0   2   9   17.45    0.58
   1   2   9    1.60    0.20
   2   2   9   19.73    0.77
   3   2   9    7.02    0.56
   4   2   9    0.55    0.24
   5   2   9    1.97    0.34
   6   2   9    6.71    0.61
   7   2   9    8.12    0.74
   8   2   9    0.37    0.28
   9   2   9   10.17    0.89
  10   2   9    3.88    0.63
  11   2   9    1.62    0.58
  12   2   9    1.04    0.52
  13   2   9    0.60    0.54
  14   2   9    1.62    0.70
  15   2   9    0.02    0.61
  16   2   9    0.25    0.89
 -18   3   9   -0.26    0.63
 -17   3   9    0.99    0.75
 -16   3   9    1.83    0.79
 -15   3   9   -0.76    0.41
 -14   3   9    7.63    1.37
 -13   3   9    2.01    0.70
 -12   3   9    0.53    0.41
 -11   3   9    3.17    0.77
 -10   3   9    0.41    0.41
  -9   3   9   25.65    1.82
  -8   3   9   15.61    0.90
  -7   3   9    8.71    0.72
  -6   3   9    6.33    0.46
  -5   3   9    9.79    0.55
  -4   3   9    7.61    0.61
  -3   3   9   27.36    1.18
  -2   3   9    9.63    0.54
  -1   3   9   42.07    1.36
   0   3   9    4.62    0.33
   1   3   9   17.38    0.73
   2   3   9    1.46    0.26
   3   3   9   12.41    0.69
   4   3   9   27.51    1.11
   5   3   9   11.31    0.81
   6   3   9    0.28    0.25
   7   3   9    4.70    0.57
   8   3   9    2.28    0.47
   9   3   9    7.00    1.03
  10   3   9    0.46    0.44
  11   3   9    1.20    0.53
  12   3   9   11.49    1.42
  13   3   9    0.39    0.48
  14   3   9   -0.10    0.52
  15   3   9    0.11    0.55
  16   3   9   -0.49    0.72
 -18   4   9    0.23    0.72
 -17   4   9    0.60    0.76
 -16   4   9   20.48    2.51
 -15   4   9   -0.36    0.37
 -14   4   9    0.83    0.54
 -13   4   9    4.82    1.15
 -12   4   9    0.60    0.46
 -11   4   9    1.42    0.60
 -10   4   9   -0.09    0.29
  -9   4   9    8.14    1.23
  -8   4   9   20.85    2.01
  -7   4   9    8.84    0.74
  -6   4   9   -0.02    0.16
  -5   4   9    1.16    0.23
  -4   4   9   10.28    0.66
  -3   4   9   -0.08    0.16
  -2   4   9    2.88    0.34
  -1   4   9    0.05    0.15
   0   4   9   17.22    0.82
   1   4   9    0.54    0.20
   2   4   9   25.96    1.03
   3   4   9   14.72    0.81
   4   4   9    6.05    0.58
   5   4   9    0.01    0.20
   6   4   9    9.54    0.80
   7   4   9    5.62    0.83
   8   4   9    0.17    0.29
   9   4   9   18.97    1.70
  10   4   9    4.03    0.80
  11   4   9    1.10    0.59
  12   4   9    0.70    0.53
  13   4   9    1.23    0.66
  14   4   9    1.61    0.75
  15   4   9   -0.08    0.65
 -16   5   9   -0.96    0.49
 -15   5   9   -0.16    0.57
 -14   5   9    2.73    0.94
 -13   5   9   10.77    1.68
 -12   5   9    1.24    0.66
 -11   5   9    1.43    0.65
 -10   5   9    5.35    1.08
  -9   5   9   14.49    1.74
  -8   5   9   36.76    2.46
  -7   5   9   13.53    1.61
  -6   5   9    8.56    1.18
  -5   5   9    2.95    0.46
  -4   5   9    3.95    0.42
  -3   5   9   43.09    1.49
  -2   5   9   18.40    0.85
  -1   5   9   30.65    1.16
   0   5   9   -0.12    0.12
   1   5   9   37.10    1.14
   2   5   9    5.16    0.53
   3   5   9   22.85    1.15
   4   5   9   11.98    0.87
   5   5   9    4.01    0.56
   6   5   9    1.36    0.46
   7   5   9    2.39    0.63
   8   5   9    3.70    0.77
   9   5   9    2.55    0.67
  10   5   9    1.00    0.53
  11   5   9    0.25    0.48
  12   5   9   16.58    1.68
  13   5   9    0.21    0.55
  14   5   9    0.71    0.64
 -15   6   9    0.47    0.77
 -14   6   9    0.75    0.67
 -13   6   9    3.45    1.01
 -12   6   9    2.42    0.83
 -11   6   9    1.11    0.63
 -10   6   9    0.50    0.53
  -9   6   9    0.79    0.56
  -8   6   9   14.57    1.76
  -7   6   9    7.47    1.21
  -6   6   9    0.65    0.48
  -5   6   9   -0.32    0.27
  -4   6   9    1.33    0.40
  -3   6   9   -0.04    0.17
  -2   6   9    1.41    0.21
  -1   6   9    0.71    0.21
   0   6   9    1.23    0.26
   1   6   9    0.49    0.25
   2   6   9    9.23    0.77
   3   6   9   12.80    0.94
   4   6   9   20.81    1.60
   5   6   9    6.57    0.91
   6   6   9    4.22    0.77
   7   6   9    0.25    0.39
   8   6   9   -0.12    0.36
   9   6   9    8.61    1.24
  10   6   9    0.46    0.53
  11   6   9    0.30    0.60
  12   6   9    0.91    0.67
 -14   7   9    0.26    0.84
 -13   7   9    1.58    0.92
 -12   7   9    1.61    0.80
 -11   7   9    1.08    0.68
 -10   7   9    0.01    0.53
  -9   7   9    1.02    0.70
  -8   7   9    4.88    1.14
  -7   7   9    0.85    0.60
  -6   7   9   12.36    1.65
  -5   7   9   14.72    1.27
  -4   7   9    1.30    0.42
  -3   7   9   10.66    0.73
  -2   7   9   -0.03    0.17
  -1   7   9   11.31    0.77
   0   7   9    2.33    0.44
   1   7   9    7.43    0.73
   2   7   9    0.52    0.37
   3   7   9    0.27    0.36
   4   7   9    2.47    0.64
   5   7   9    6.29    0.97
   6   7   9    0.09    0.40
   7   7   9    0.85    0.52
   8   7   9    0.42    0.47
   9   7   9    4.72    1.04
  10   7   9    1.37    0.69
 -11   8   9    1.80    0.96
 -10   8   9   -0.16    0.55
  -9   8   9   -0.19    0.70
  -8   8   9    4.49    1.24
  -7   8   9    0.02    0.65
  -6   8   9    0.00    0.57
  -5   8   9    1.58    0.77
  -4   8   9    6.32    0.90
  -3   8   9    1.15    0.48
  -2   8   9    0.37    0.38
  -1   8   9    2.06    0.60
   0   8   9    0.37    0.40
   1   8   9   -0.11    0.35
   2   8   9   10.90    1.26
   3   8   9    4.06    0.79
   4   8   9    5.32    0.88
   5   8   9    5.59    0.96
   6   8   9    2.54    0.71
   7   8   9    0.45    0.53
   8   8   9    1.01    1.02
  -7   9   9   -0.23    0.73
  -6   9   9   12.41    1.49
  -5   9   9   14.57    2.15
   0   9   9    0.16    0.73
   1   9   9    3.57    0.86
   2   9   9   -0.41    0.45
   3   9   9   -0.09    0.52
   4   9   9   -0.49    0.57
  -7  -9  10    1.76    0.96
  -5  -9  10    0.40    0.85
  -4  -9  10    0.41    0.54
  -3  -9  10   -0.10    0.49
  -2  -9  10    4.19    0.90
  -1  -9  10    1.76    0.67
   0  -9  10    6.85    1.12
   1  -9  10    2.19    0.75
   2  -9  10    5.53    1.49
   3  -9  10    0.69    0.86
 -10  -8  10    1.00    0.58
  -9  -8  10    1.79    0.67
  -8  -8  10    0.88    0.44
  -7  -8  10   26.87    1.67
  -6  -8  10   19.63    1.42
  -5  -8  10    3.86    0.66
  -4  -8  10    8.75    0.91
  -3  -8  10    3.12    0.74
  -2  -8  10    0.05    0.40
  -1  -8  10   18.24    1.66
   0  -8  10    4.21    0.81
   1  -8  10   29.02    2.16
   2  -8  10    7.49    0.88
   3  -8  10    2.77    0.57
   4  -8  10    3.93    0.65
   5  -8  10    1.15    0.49
   6  -8  10    2.63    0.80
   7  -8  10    0.31    0.52
 -14  -7  10    6.28    1.58
 -13  -7  10    0.15    0.47
 -12  -7  10   -0.19    0.42
 -11  -7  10    4.62    0.82
 -10  -7  10   -0.01    0.41
  -9  -7  10    0.07    0.40
  -8  -7  10    0.74    0.37
  -7  -7  10    9.82    0.93
  -6  -7  10   21.51    1.39
  -5  -7  10    3.71    0.57
  -4  -7  10    1.56    0.41
  -3  -7  10    0.16    0.27
  -2  -7  10    6.01    0.69
  -1  -7  10    1.88    0.55
   0  -7  10   17.49    1.50
   1  -7  10    6.16    0.72
   2  -7  10   10.11    0.92
   3  -7  10    0.38    0.29
   4  -7  10    0.05    0.29
   5  -7  10   10.96    1.00
   6  -7  10   27.14    1.63
   7  -7  10    1.12    0.57
   8  -7  10    1.08    0.59
   9  -7  10    0.31    0.53
  10  -7  10    2.83    0.84
 -15  -6  10   -0.48    0.57
 -14  -6  10   17.17    1.60
 -13  -6  10    2.69    0.68
 -12  -6  10    4.23    0.80
 -11  -6  10   34.82    1.98
 -10  -6  10    1.26    0.45
  -9  -6  10   14.78    1.35
  -8  -6  10    2.22    0.45
  -7  -6  10  100.19    3.22
  -6  -6  10   11.97    0.91
  -5  -6  10    4.40    0.54
  -4  -6  10   -0.16    0.20
  -3  -6  10   22.62    1.26
  -2  -6  10    6.93    0.68
  -1  -6  10    9.24    0.78
   0  -6  10    6.85    0.58
   1  -6  10   15.96    1.08
   2  -6  10    5.88    0.66
   3  -6  10   25.68    1.37
   4  -6  10   45.88    1.79
   5  -6  10    0.24    0.28
   6  -6  10    0.08    0.28
   7  -6  10    7.77    0.82
   8  -6  10    0.10    0.33
   9  -6  10   -0.07    0.47
  10  -6  10    7.20    1.07
  11  -6  10    0.80    0.58
  12  -6  10    0.29    0.63
 -17  -5  10   -0.01    0.71
 -16  -5  10    0.18    0.59
 -15  -5  10   13.73    1.98
 -14  -5  10    2.31    0.85
 -13  -5  10    9.94    1.11
 -12  -5  10    5.55    0.79
 -11  -5  10   20.41    1.53
 -10  -5  10    7.01    0.89
  -9  -5  10    2.75    0.54
  -8  -5  10   32.92    1.37
  -7  -5  10   27.74    1.23
  -6  -5  10   29.44    1.25
  -5  -5  10    1.71    0.32
  -4  -5  10    2.48    0.40
  -3  -5  10   18.39    0.99
  -2  -5  10    0.45    0.22
  -1  -5  10    0.29    0.20
   0  -5  10   10.27    0.65
   1  -5  10   31.45    1.10
   2  -5  10   75.23    2.45
   3  -5  10    3.73    0.51
   4  -5  10    1.87    0.38
   5  -5  10    4.62    0.58
   6  -5  10   60.98    2.22
   7  -5  10    0.31    0.28
   8  -5  10   13.53    1.10
   9  -5  10    1.11    0.40
  10  -5  10    0.55    0.44
  11  -5  10    2.83    0.74
  12  -5  10   11.56    1.44
  13  -5  10    2.55    0.81
  14  -5  10    6.40    1.57
 -18  -4  10   -0.51    0.53
 -17  -4  10   11.09    1.74
 -16  -4  10    1.66    0.89
 -15  -4  10    1.51    0.78
 -14  -4  10   14.12    1.85
 -13  -4  10    0.13    0.30
 -12  -4  10    3.14    0.58
 -11  -4  10   56.58    2.47
 -10  -4  10    1.68    0.43
  -9  -4  10   13.63    1.11
  -8  -4  10    7.31    0.77
  -7  -4  10   95.98    2.84
  -6  -4  10   21.83    0.95
  -5  -4  10   48.63    1.69
  -4  -4  10    0.07    0.16
  -3  -4  10   44.06    1.50
  -2  -4  10    0.15    0.16
  -1  -4  10   33.38    1.07
   0  -4  10    0.35    0.16
   1  -4  10   25.48    0.90
   2  -4  10   30.43    1.01
   3  -4  10   57.09    1.61
   4  -4  10   43.91    1.61
   5  -4  10    3.05    0.45
   6  -4  10    2.05    0.41
   7  -4  10    7.86    0.77
   8  -4  10    4.61    0.64
   9  -4  10    6.00    0.72
  10  -4  10   14.79    1.19
  11  -4  10    8.72    1.18
  12  -4  10   -0.29    0.41
  13  -4  10   11.63    1.45
  14  -4  10    5.99    1.10
 -18  -3  10    0.06    0.64
 -17  -3  10    1.48    0.79
 -16  -3  10   13.19    1.81
 -15  -3  10   32.12    2.48
 -14  -3  10   11.83    1.63
 -13  -3  10    1.04    0.53
 -12  -3  10   30.68    1.54
 -11  -3  10    0.66    0.30
 -10  -3  10   -0.18    0.20
  -9  -3  10    1.89    0.41
  -8  -3  10   12.17    0.94
  -7  -3  10   10.61    0.70
  -6  -3  10  176.49    4.73
  -5  -3  10   81.47    2.39
  -4  -3  10    0.18    0.10
  -3  -3  10    9.88    0.65
  -2  -3  10   37.75    1.27
  -1  -3  10   -0.01    0.13
   0  -3  10  136.27    3.16
   1  -3  10   33.67    1.04
   2  -3  10   91.70    2.29
   3  -3  10   14.13    0.67
   4  -3  10   27.92    0.95
   5  -3  10   82.41    2.54
   6  -3  10   24.38    1.21
   7  -3  10    0.75    0.30
   8  -3  10    1.02    0.36
   9  -3  10   27.83    1.46
  10  -3  10   14.46    1.16
  11  -3  10    5.81    0.77
  12  -3  10   21.06    1.84
  13  -3  10    2.72    0.75
  14  -3  10   40.19    2.91
  15  -3  10    1.17    0.92
 -17  -2  10   38.28    2.84
 -16  -2  10    3.35    0.87
 -15  -2  10   10.40    1.42
 -14  -2  10   10.86    1.44
 -13  -2  10    1.23    0.55
 -12  -2  10   49.05    2.13
 -11  -2  10   81.98    2.36
 -10  -2  10   33.69    1.17
  -9  -2  10    6.89    0.51
  -8  -2  10   18.69    0.75
  -7  -2  10   44.96    1.40
  -6  -2  10   30.97    0.90
  -5  -2  10  211.78    4.66
  -4  -2  10   -0.02    0.12
  -3  -2  10   71.58    2.06
  -2  -2  10   11.39    0.60
  -1  -2  10   91.25    2.60
   0  -2  10   13.81    0.55
   1  -2  10   33.25    1.00
   2  -2  10   76.57    1.93
   3  -2  10   95.91    2.41
   4  -2  10   20.24    0.79
   5  -2  10   23.07    0.91
   6  -2  10    6.20    0.50
   7  -2  10    3.69    0.50
   8  -2  10   20.84    1.19
   9  -2  10   50.44    2.01
  10  -2  10   22.19    1.32
  11  -2  10   23.47    1.52
  12  -2  10   -0.21    0.29
  13  -2  10   40.23    2.41
  15  -2  10    2.18    1.17
  16  -2  10   -0.04    0.86
 -16  -1  10    7.99    1.31
 -15  -1  10   33.15    1.64
 -14  -1  10    1.59    0.38
 -13  -1  10   21.71    1.18
 -12  -1  10   78.87    2.92
 -11  -1  10    1.97    0.38
 -10  -1  10   13.27    0.65
  -9  -1  10    0.18    0.13
  -8  -1  10  128.21    3.39
  -7  -1  10   18.17    0.71
  -6  -1  10  152.53    3.88
  -5  -1  10   27.84    0.91
  -4  -1  10   -0.15    0.08
  -3  -1  10  181.14    4.56
  -2  -1  10   13.14    0.55
  -1  -1  10   27.30    0.93
   0  -1  10   55.18    1.38
   1  -1  10   93.37    2.21
   2  -1  10  351.00    7.61
   3  -1  10   -0.02    0.11
   4  -1  10   83.57    2.12
   5  -1  10   32.42    1.04
   6  -1  10   62.96    1.75
   7  -1  10   16.38    0.77
   8  -1  10    5.47    0.49
   9  -1  10   40.18    1.68
  10  -1  10    4.93    0.64
  11  -1  10    0.56    0.34
  12  -1  10   18.14    1.29
  13  -1  10    0.45    0.52
  14  -1  10   49.53    3.97
  15  -1  10    1.17    0.89
  16  -1  10    2.83    1.32
 -19   0  10   10.12    1.69
 -18   0  10    3.47    0.98
 -17   0  10   21.17    2.26
 -16   0  10    3.72    0.96
 -15   0  10   -0.33    0.37
 -14   0  10   38.89    1.77
 -13   0  10   -0.08    0.22
 -12   0  10   11.76    0.94
 -11   0  10   48.43    1.94
 -10   0  10    6.57    0.64
  -9   0  10   83.63    2.97
  -8   0  10   22.30    0.78
  -7   0  10  176.74    4.49
  -6   0  10    0.05    0.10
  -5   0  10  212.90    6.47
  -4   0  10   95.78    3.22
  -3   0  10  162.78    4.10
  -2   0  10    3.35    0.27
  -1   0  10    5.79    0.40
   0   0  10   33.87    1.13
   1   0  10    9.02    0.37
   2   0  10   15.38    0.55
   3   0  10  217.73    4.84
   4   0  10  140.94    3.28
   5   0  10   82.20    2.08
   6   0  10    8.65    0.57
   7   0  10   65.95    1.85
   8   0  10   34.34    1.23
   9   0  10   16.91    0.92
  10   0  10   74.79    2.18
  11   0  10   11.75    1.05
  12   0  10   19.37    1.83
  13   0  10   35.22    2.19
  14   0  10   28.18    3.22
  15   0  10   -0.39    0.74
  16   0  10    5.77    1.63
 -20   1  10    4.78    1.30
 -19   1  10    4.09    1.23
 -18   1  10    4.77    1.20
 -17   1  10   11.65    1.70
 -16   1  10    7.21    1.25
 -15   1  10   29.84    2.36
 -14   1  10    1.34    0.66
 -13   1  10   19.35    1.93
 -12   1  10   82.33    2.93
 -11   1  10    1.00    0.29
 -10   1  10   13.16    0.85
  -9   1  10    0.01    0.16
  -8   1  10  126.82    4.21
  -7   1  10   19.37    0.67
  -6   1  10  153.57    3.86
  -5   1  10   27.89    1.11
  -4   1  10   -0.23    0.12
  -3   1  10  181.14    5.64
  -2   1  10   12.67    0.56
  -1   1  10   26.69    0.94
   0   1  10   52.87    1.66
   1   1  10   93.38    2.65
   2   1  10  353.01    7.60
   3   1  10    0.21    0.12
   4   1  10   83.56    2.12
   5   1  10   31.83    1.04
   6   1  10   61.81    1.75
   7   1  10   16.91    0.84
   8   1  10    5.87    0.52
   9   1  10   43.54    1.76
  10   1  10    7.33    0.75
  11   1  10    0.63    0.36
  12   1  10   16.01    1.62
  13   1  10   -0.34    0.47
  14   1  10   49.77    2.86
  15   1  10    2.95    1.14
  16   1  10    0.96    0.95
 -19   2  10    6.09    1.39
 -18   2  10    0.26    0.56
 -17   2  10   36.87    2.95
 -16   2  10    1.08    0.63
 -15   2  10   10.41    1.52
 -14   2  10    8.30    1.37
 -13   2  10    1.46    0.56
 -12   2  10   47.97    3.04
 -11   2  10   81.55    4.33
 -10   2  10   30.33    1.40
  -9   2  10    6.75    0.66
  -8   2  10   16.55    0.98
  -7   2  10   46.05    1.79
  -6   2  10   32.43    1.04
  -5   2  10  213.01    6.60
  -4   2  10    0.24    0.10
  -3   2  10   72.94    2.00
  -2   2  10   11.79    0.58
  -1   2  10   99.20    3.21
   0   2  10   13.30    0.51
   1   2  10   34.94    1.13
   2   2  10   76.58    1.93
   3   2  10  101.86    2.45
   4   2  10   20.11    1.00
   5   2  10   19.46    1.06
   6   2  10    6.96    0.67
   7   2  10    4.21    0.56
   8   2  10   19.86    1.65
   9   2  10   53.32    2.64
  10   2  10   22.98    1.89
  11   2  10   21.23    1.86
  12   2  10   -0.06    0.46
  13   2  10   42.22    2.59
  14   2  10   40.07    2.85
  15   2  10    2.37    0.87
  16   2  10    1.69    1.14
 -18   3  10    1.31    0.75
 -17   3  10    1.36    0.80
 -16   3  10   18.03    2.15
 -15   3  10   25.33    2.70
 -14   3  10   14.29    1.87
 -13   3  10    0.66    0.57
 -12   3  10   28.14    2.26
 -11   3  10    0.35    0.46
 -10   3  10    0.36    0.40
  -9   3  10    1.62    0.34
  -8   3  10   11.67    0.85
  -7   3  10   10.74    0.83
  -6   3  10  183.53    5.75
  -5   3  10   84.28    2.85
  -4   3  10   -0.01    0.14
  -3   3  10    8.96    0.51
  -2   3  10   39.22    1.24
  -1   3  10    0.35    0.16
   0   3  10  133.84    3.12
   1   3  10   34.59    1.03
   2   3  10   90.84    2.64
   3   3  10   12.74    0.74
   4   3  10   26.15    1.13
   5   3  10   81.69    2.57
   6   3  10   22.97    1.69
   7   3  10    0.09    0.31
   8   3  10    0.10    0.31
   9   3  10   25.35    1.98
  10   3  10   13.77    1.48
  11   3  10    4.40    0.97
  12   3  10   18.86    1.84
  13   3  10    2.28    0.76
  14   3  10   37.95    2.76
  15   3  10    0.96    0.71
 -18   4  10    0.52    0.89
 -17   4  10    9.61    1.70
 -16   4  10    1.27    0.77
 -15   4  10    1.23    0.71
 -14   4  10   13.94    1.84
 -13   4  10   -0.36    0.31
 -12   4  10    1.79    0.69
 -11   4  10   59.41    3.61
 -10   4  10    0.57    0.43
  -9   4  10   12.97    1.57
  -8   4  10    7.87    1.17
  -7   4  10   93.96    3.36
  -6   4  10   21.06    1.08
  -5   4  10   51.02    1.62
  -4   4  10   -0.02    0.18
  -3   4  10   44.10    1.43
  -2   4  10    0.21    0.17
  -1   4  10   33.24    1.03
   0   4  10    0.04    0.13
   1   4  10   26.37    1.03
   2   4  10   30.73    1.17
   3   4  10   58.40    1.91
   4   4  10   43.83    1.72
   5   4  10    4.25    0.66
   6   4  10    1.50    0.51
   7   4  10    4.39    0.73
   8   4  10    4.27    0.79
   9   4  10    6.53    1.03
  10   4  10   13.06    1.42
  11   4  10    7.00    1.15
  12   4  10    0.34    0.47
  13   4  10   16.20    1.79
  14   4  10    8.68    1.33
  15   4  10    1.06    1.00
 -16   5  10   -0.06    0.65
 -15   5  10   12.34    1.92
 -14   5  10    0.43    0.63
 -13   5  10   13.31    1.89
 -12   5  10    4.96    1.13
 -11   5  10   19.33    2.16
 -10   5  10    7.38    1.32
  -9   5  10    2.16    0.73
  -8   5  10   35.16    2.38
  -7   5  10   31.64    2.18
  -6   5  10   30.67    2.16
  -5   5  10    1.73    0.39
  -4   5  10    1.86    0.32
  -3   5  10   18.41    0.88
  -2   5  10    0.58    0.23
  -1   5  10    0.43    0.18
   0   5  10   10.68    0.62
   1   5  10   35.12    1.30
   2   5  10   74.94    2.39
   3   5  10    4.91    0.69
   4   5  10    2.74    0.56
   5   5  10    4.07    0.69
   6   5  10   60.38    2.81
   7   5  10    0.55    0.40
   8   5  10   12.12    1.35
   9   5  10    0.86    0.50
  10   5  10    0.22    0.54
  11   5  10    3.28    0.84
  12   5  10   11.42    1.54
  13   5  10    3.52    0.99
  14   5  10    7.87    2.00
 -15   6  10   -0.46    0.60
 -14   6  10   18.09    2.31
 -13   6  10    2.26    0.88
 -12   6  10    3.47    0.92
 -11   6  10   32.67    3.09
 -10   6  10    1.29    0.69
  -9   6  10   16.38    1.97
  -8   6  10    0.95    0.55
  -7   6  10  105.13    5.48
  -6   6  10   14.23    1.69
  -5   6  10    3.04    0.78
  -4   6  10    0.06    0.23
  -3   6  10   20.06    0.98
  -2   6  10    7.00    0.54
  -1   6  10    9.67    0.57
   0   6  10    7.39    0.65
   1   6  10   17.25    1.35
   2   6  10    6.56    0.87
   3   6  10   24.42    1.73
   4   6  10   40.25    2.14
   5   6  10   -0.37    0.29
   6   6  10    0.77    0.46
   7   6  10    4.49    0.78
   8   6  10    0.01    0.36
   9   6  10   -0.13    0.49
  10   6  10    8.32    1.27
  11   6  10    1.22    0.70
  12   6  10    0.18    0.64
 -13   7  10    1.21    0.88
 -12   7  10    0.14    0.70
 -11   7  10    4.05    1.13
 -10   7  10    1.11    0.78
  -9   7  10    3.93    1.03
  -8   7  10    0.36    0.50
  -7   7  10    9.55    1.51
  -6   7  10   27.19    2.51
  -5   7  10    3.92    0.94
  -4   7  10    0.99    0.40
  -3   7  10    0.27    0.23
  -2   7  10    6.52    0.46
  -1   7  10    2.43    0.45
   0   7  10   20.65    1.58
   1   7  10    5.82    0.87
   2   7  10   12.34    1.27
   3   7  10    0.51    0.40
   4   7  10    0.33    0.39
   5   7  10    9.97    1.21
   6   7  10   22.22    1.93
   7   7  10    0.70    0.50
   8   7  10    0.21    0.54
   9   7  10    0.59    0.57
  10   7  10    2.59    0.85
 -11   8  10   22.12    2.66
 -10   8  10    0.23    0.48
  -9   8  10    1.16    0.70
  -8   8  10    0.06    0.76
  -7   8  10   21.39    2.67
  -6   8  10   19.64    2.44
  -5   8  10    1.55    0.57
  -4   8  10    8.30    1.53
  -1   8  10   16.19    1.68
   0   8  10    5.54    0.66
   1   8  10   28.69    2.09
   2   8  10    6.54    1.01
   3   8  10    2.24    0.69
   4   8  10    2.31    0.71
   5   8  10    0.73    0.54
   6   8  10    3.13    0.84
   7   8  10    0.47    0.53
   8   8  10   -0.24    1.08
  -7   9  10    1.28    0.97
  -6   9  10    9.34    1.80
   1   9  10    1.48    0.93
   2   9  10    5.81    0.91
   3   9  10    0.78    0.56
  -4  -9  11    0.55    0.96
  -3  -9  11    3.03    0.85
  -2  -9  11    1.40    0.61
  -1  -9  11    3.98    0.89
   0  -9  11    9.23    1.44
   1  -9  11   -0.29    0.78
   2  -9  11    3.17    1.23
 -10  -8  11    0.81    0.57
  -9  -8  11    0.35    0.50
  -8  -8  11    0.24    0.35
  -7  -8  11    0.38    0.38
  -6  -8  11    4.81    0.71
  -5  -8  11    8.62    0.92
  -4  -8  11    4.97    0.93
  -3  -8  11    2.65    0.67
  -2  -8  11    1.65    0.60
  -1  -8  11    5.72    0.96
   0  -8  11    7.42    1.00
   1  -8  11    8.90    1.17
   2  -8  11    0.12    0.37
   3  -8  11    0.79    0.41
   4  -8  11    1.13    0.49
   5  -8  11   -0.07    0.44
   6  -8  11    6.61    1.15
   7  -8  11    1.34    0.90
 -13  -7  11   -0.06    0.44
 -12  -7  11    6.17    1.00
 -11  -7  11    0.26    0.49
 -10  -7  11    2.42    0.68
  -9  -7  11    0.33    0.38
  -8  -7  11    0.37    0.34
  -7  -7  11    2.52    0.49
  -6  -7  11    2.49    0.50
  -5  -7  11    4.10    0.55
  -4  -7  11   -0.19    0.23
  -3  -7  11    0.19    0.27
  -2  -7  11    5.80    0.87
  -1  -7  11    7.19    0.95
   0  -7  11    7.65    1.00
   1  -7  11    0.11    0.27
   2  -7  11    2.49    0.50
   3  -7  11    1.78    0.44
   4  -7  11    0.16    0.31
   5  -7  11    0.18    0.35
   6  -7  11    0.19    0.36
   7  -7  11    3.19    0.68
   8  -7  11   -0.13    0.50
   9  -7  11   -0.02    0.54
  10  -7  11    0.16    0.69
 -15  -6  11    6.06    1.44
 -14  -6  11    0.89    0.58
 -13  -6  11    0.02    0.39
 -12  -6  11    8.51    1.07
 -11  -6  11    2.72    0.63
 -10  -6  11    2.24    0.55
  -9  -6  11    1.33    0.46
  -8  -6  11    4.08    0.58
  -7  -6  11    3.31    0.50
  -6  -6  11    0.05    0.23
  -5  -6  11    2.19    0.43
  -4  -6  11   31.03    1.33
  -3  -6  11    1.61    0.37
  -2  -6  11    0.03    0.22
  -1  -6  11   -0.03    0.19
   0  -6  11    4.27    0.55
   1  -6  11    1.25    0.33
   2  -6  11   -0.02    0.22
   3  -6  11   17.19    1.19
   4  -6  11    3.03    0.54
   5  -6  11    0.25    0.30
   6  -6  11    0.35    0.34
   7  -6  11    0.43    0.33
   8  -6  11   21.38    1.49
   9  -6  11    3.21    0.80
  10  -6  11    4.25    0.90
  11  -6  11    1.24    0.62
  12  -6  11   -0.20    0.63
 -17  -5  11    1.22    0.84
 -16  -5  11    0.39    0.60
 -15  -5  11    2.95    1.02
 -14  -5  11    4.03    1.06
 -13  -5  11    0.85    0.44
 -12  -5  11    9.16    1.06
 -11  -5  11   -0.13    0.28
 -10  -5  11    3.71    0.65
  -9  -5  11   -0.07    0.23
  -8  -5  11    0.13    0.20
  -7  -5  11    8.63    0.74
  -6  -5  11    0.65    0.29
  -5  -5  11    4.90    0.55
  -4  -5  11    0.04    0.20
  -3  -5  11    0.19    0.19
  -2  -5  11   26.68    1.14
  -1  -5  11    6.08    0.59
   0  -5  11    0.54    0.21
   1  -5  11   -0.02    0.15
   2  -5  11    0.54    0.23
   3  -5  11   -0.07    0.19
   4  -5  11    0.06    0.23
   5  -5  11    9.31    0.81
   6  -5  11   -0.14    0.21
   7  -5  11    3.30    0.53
   8  -5  11    0.28    0.31
   9  -5  11    1.91    0.48
  10  -5  11    0.95    0.55
  11  -5  11   -0.35    0.43
  12  -5  11    0.26    0.54
  13  -5  11    3.18    0.88
 -18  -4  11    0.29    0.67
 -17  -4  11    0.47    0.61
 -16  -4  11    0.47    0.68
 -15  -4  11    9.80    1.63
 -14  -4  11    0.68    0.57
 -13  -4  11    0.85    0.53
 -12  -4  11   10.35    1.01
 -11  -4  11    0.51    0.29
 -10  -4  11    3.51    0.58
  -9  -4  11   -0.04    0.22
  -8  -4  11    3.07    0.44
  -7  -4  11    0.55    0.23
  -6  -4  11    1.30    0.28
  -5  -4  11    3.28    0.41
  -4  -4  11   27.59    1.13
  -3  -4  11    1.27    0.29
  -2  -4  11    2.32    0.33
  -1  -4  11    2.34    0.35
   0  -4  11    5.34    0.44
   1  -4  11    8.06    0.54
   2  -4  11    0.14    0.16
   3  -4  11   11.71    0.81
   4  -4  11    4.97    0.57
   5  -4  11    0.33    0.24
   6  -4  11    3.71    0.52
   7  -4  11    0.32    0.26
   8  -4  11   26.88    1.46
   9  -4  11    1.21    0.38
  10  -4  11    0.51    0.40
  11  -4  11    1.49    0.57
  12  -4  11    0.04    0.45
  13  -4  11    1.70    0.71
  14  -4  11    0.54    1.15
 -18  -3  11   -0.03    0.68
 -17  -3  11    0.39    0.62
 -16  -3  11    1.87    0.75
 -15  -3  11    2.87    0.85
 -14  -3  11    6.23    1.17
 -13  -3  11    5.79    1.12
 -12  -3  11    2.91    0.55
 -11  -3  11    2.34    0.46
 -10  -3  11   10.71    0.93
  -9  -3  11    3.35    0.51
  -8  -3  11   12.35    0.98
  -7  -3  11   10.49    0.71
  -6  -3  11   13.00    0.78
  -5  -3  11   14.09    0.75
  -4  -3  11    0.75    0.21
  -3  -3  11   18.89    0.82
  -2  -3  11   22.96    0.94
  -1  -3  11   21.23    0.88
   0  -3  11    3.56    0.33
   1  -3  11    0.08    0.13
   2  -3  11    7.10    0.49
   3  -3  11    0.09    0.14
   4  -3  11    3.82    0.37
   5  -3  11    3.14    0.44
   6  -3  11    2.48    0.43
   7  -3  11    0.20    0.25
   8  -3  11    0.89    0.35
   9  -3  11    5.12    0.68
  10  -3  11   -0.22    0.27
  11  -3  11    0.62    0.36
  12  -3  11    0.82    0.50
  13  -3  11    8.87    1.97
  14  -3  11    0.04    0.75
  15  -3  11    1.07    1.10
 -17  -2  11    0.23    0.50
 -16  -2  11    0.21    0.42
 -15  -2  11    6.27    1.12
 -14  -2  11    1.16    0.53
 -13  -2  11   -0.11    0.31
 -12  -2  11    5.45    1.00
 -11  -2  11   -0.08    0.17
 -10  -2  11    1.56    0.27
  -9  -2  11    0.14    0.15
  -8  -2  11    1.48    0.24
  -7  -2  11    1.80    0.25
  -6  -2  11    1.99    0.22
  -5  -2  11    0.67    0.18
  -4  -2  11   10.69    0.58
  -3  -2  11    0.20    0.14
  -2  -2  11    3.28    0.33
  -1  -2  11    2.49    0.31
   0  -2  11    2.87    0.28
   1  -2  11    5.30    0.39
   2  -2  11    0.83    0.18
   3  -2  11    3.96    0.36
   4  -2  11    2.61    0.31
   5  -2  11    0.22    0.16
   6  -2  11    2.91    0.37
   7  -2  11    0.34    0.24
   8  -2  11   11.91    0.95
   9  -2  11    0.78    0.30
  10  -2  11    0.14    0.28
  11  -2  11    1.20    0.37
  12  -2  11    0.67    0.49
  13  -2  11    0.77    0.86
  14  -2  11    0.99    1.06
  15  -2  11    0.22    0.79
 -16  -1  11   -0.42    0.46
 -15  -1  11    1.14    0.39
 -14  -1  11    0.50    0.31
 -13  -1  11    0.59    0.31
 -12  -1  11    0.58    0.27
 -11  -1  11    0.16    0.21
 -10  -1  11    1.48    0.33
  -9  -1  11    0.12    0.14
  -8  -1  11    2.64    0.30
  -7  -1  11    1.44    0.22
  -6  -1  11    0.54    0.16
  -5  -1  11    1.95    0.23
  -4  -1  11    0.03    0.10
  -3  -1  11    2.80    0.28
  -2  -1  11    5.06    0.39
  -1  -1  11    2.09    0.27
   0  -1  11   -0.08    0.11
   1  -1  11    0.08    0.10
   2  -1  11    0.62    0.15
   3  -1  11    0.06    0.11
   4  -1  11    0.38    0.15
   5  -1  11    1.69    0.26
   6  -1  11    0.29    0.17
   7  -1  11    0.02    0.15
   8  -1  11    0.18    0.20
   9  -1  11    0.64    0.33
  10  -1  11    0.64    0.33
  11  -1  11    0.34    0.45
  12  -1  11   -0.06    0.41
  13  -1  11    1.28    0.64
  14  -1  11   -0.08    0.72
  15  -1  11   -0.41    0.71
  16  -1  11    0.30    0.75
 -19   0  11    0.07    0.63
 -18   0  11    0.22    0.55
 -17   0  11   -0.10    0.48
 -16   0  11   -0.35    0.37
 -15   0  11    0.25    0.43
 -14   0  11    0.28    0.28
 -13   0  11   -0.01    0.25
 -12   0  11    0.06    0.23
 -11   0  11   -0.11    0.17
 -10   0  11    0.17    0.19
  -9   0  11    0.07    0.17
  -8   0  11   -0.20    0.10
  -7   0  11    0.07    0.11
  -6   0  11   -0.04    0.10
  -5   0  11   -0.07    0.13
  -4   0  11   -0.16    0.12
  -3   0  11    0.03    0.07
  -2   0  11    0.01    0.08
  -1   0  11   -0.13    0.10
   0   0  11    0.05    0.12
   1   0  11   -0.06    0.12
   2   0  11   -0.02    0.08
   3   0  11   -0.01    0.10
   4   0  11   -0.05    0.11
   5   0  11    0.12    0.14
   6   0  11    0.08    0.15
   7   0  11   -0.01    0.16
   8   0  11    0.15    0.18
   9   0  11   -0.22    0.21
  10   0  11    0.59    0.46
  11   0  11    0.19    0.40
  12   0  11   -0.20    0.41
  13   0  11    0.05    0.48
  14   0  11    0.81    0.71
  15   0  11    0.13    0.69
  16   0  11   -0.16    0.89
 -20   1  11    0.11    0.75
 -19   1  11   -0.49    0.63
 -18   1  11   -0.29    0.52
 -17   1  11    0.31    0.60
 -16   1  11    0.18    0.46
 -15   1  11    1.25    0.66
 -14   1  11    0.05    0.38
 -13   1  11    0.42    0.43
 -12   1  11    0.89    0.28
 -11   1  11    0.17    0.22
 -10   1  11    1.61    0.34
  -9   1  11   -0.03    0.18
  -8   1  11    2.27    0.38
  -7   1  11    1.36    0.20
  -6   1  11    1.10    0.22
  -5   1  11    1.86    0.30
  -4   1  11    0.10    0.16
  -3   1  11    3.84    0.46
  -2   1  11    5.56    0.38
  -1   1  11    1.55    0.25
   0   1  11    0.08    0.14
   1   1  11   -0.02    0.15
   2   1  11    0.59    0.23
   3   1  11    0.09    0.10
   4   1  11    0.27    0.14
   5   1  11    1.73    0.26
   6   1  11    0.22    0.18
   7   1  11    0.19    0.23
   8   1  11    0.13    0.24
   9   1  11    0.54    0.30
  10   1  11    0.20    0.27
  11   1  11    0.56    0.31
  12   1  11   -0.27    0.34
  13   1  11    1.39    0.67
  14   1  11   -0.38    0.49
  15   1  11   -0.50    0.68
  16   1  11    0.41    0.93
 -19   2  11    0.48    0.74
 -18   2  11    0.52    0.65
 -17   2  11   -0.33    0.46
 -16   2  11    0.27    0.52
 -15   2  11    5.82    1.15
 -14   2  11    0.09    0.44
 -13   2  11   -0.04    0.35
 -12   2  11    5.41    1.01
 -11   2  11   -0.08    0.21
 -10   2  11    1.92    0.37
  -9   2  11    0.07    0.19
  -8   2  11    1.08    0.31
  -7   2  11    1.50    0.32
  -6   2  11    2.23    0.27
  -5   2  11    1.23    0.16
  -4   2  11   11.91    0.50
  -3   2  11    0.12    0.13
  -2   2  11    3.50    0.33
  -1   2  11    3.28    0.24
   0   2  11    3.01    0.23
   1   2  11    5.87    0.35
   2   2  11    1.07    0.20
   3   2  11    4.93    0.41
   4   2  11    2.38    0.39
   5   2  11    0.16    0.21
   6   2  11    2.77    0.61
   7   2  11   -0.01    0.31
   8   2  11   11.91    1.30
   9   2  11    0.67    0.42
  10   2  11    0.25    0.41
  11   2  11    1.00    0.51
  12   2  11   -0.13    0.42
  13   2  11    1.07    0.62
  14   2  11    0.54    0.58
  15   2  11    0.20    0.60
 -18   3  11   -0.46    0.49
 -17   3  11   -0.28    0.55
 -16   3  11    1.22    0.69
 -15   3  11    5.77    1.21
 -14   3  11    4.13    0.99
 -13   3  11    3.36    0.88
 -12   3  11    3.15    0.82
 -11   3  11    1.63    0.62
 -10   3  11   12.57    1.45
  -9   3  11    3.20    0.48
  -8   3  11   14.36    0.91
  -7   3  11   12.18    0.91
  -6   3  11   11.32    0.89
  -5   3  11   12.72    0.80
  -4   3  11    1.08    0.20
  -3   3  11   19.92    0.77
  -2   3  11   22.80    0.89
  -1   3  11   20.75    0.70
   0   3  11    3.73    0.30
   1   3  11    0.09    0.12
   2   3  11    6.62    0.46
   3   3  11    0.13    0.25
   4   3  11    2.10    0.50
   5   3  11    1.81    0.48
   6   3  11    2.23    0.56
   7   3  11    0.03    0.31
   8   3  11    0.74    0.48
   9   3  11    3.98    0.81
  10   3  11   -0.20    0.40
  11   3  11    1.87    0.70
  12   3  11    1.10    0.58
  13   3  11    8.71    1.30
  14   3  11    0.57    0.63
  15   3  11    0.49    0.66
 -17   4  11    0.56    0.56
 -16   4  11    0.27    0.61
 -15   4  11    9.66    1.63
 -14   4  11    0.08    0.41
 -13   4  11    1.32    0.72
 -12   4  11   10.42    1.50
 -11   4  11    1.04    0.51
 -10   4  11    2.25    0.69
  -9   4  11   -0.03    0.34
  -8   4  11    1.88    0.62
  -7   4  11    0.35    0.24
  -6   4  11    1.19    0.33
  -5   4  11    3.28    0.39
  -4   4  11   30.39    1.07
  -3   4  11    1.11    0.25
  -2   4  11    2.13    0.31
  -1   4  11    2.86    0.31
   0   4  11    7.69    0.50
   1   4  11    8.22    0.53
   2   4  11    0.87    0.35
   3   4  11   11.88    1.09
   4   4  11    4.40    0.71
   5   4  11   -0.04    0.28
   6   4  11    4.04    0.70
   7   4  11    0.09    0.36
   8   4  11   24.00    1.93
   9   4  11    1.20    0.55
  10   4  11   -0.04    0.41
  11   4  11    1.34    0.59
  12   4  11   -0.73    0.44
  13   4  11    1.01    0.72
  14   4  11    1.39    0.73
 -16   5  11    0.33    0.65
 -15   5  11    4.11    1.15
 -14   5  11    1.69    0.88
 -13   5  11    0.25    0.60
 -12   5  11   13.14    1.80
 -11   5  11   -0.22    0.37
 -10   5  11    6.98    1.23
  -9   5  11    0.14    0.38
  -8   5  11   -0.47    0.29
  -7   5  11    7.68    1.24
  -6   5  11    1.45    0.36
  -5   5  11    4.48    0.57
  -4   5  11    0.09    0.16
  -3   5  11    0.01    0.18
  -2   5  11   26.36    1.09
  -1   5  11    6.44    0.50
   0   5  11    0.49    0.19
   1   5  11    0.21    0.26
   2   5  11    1.17    0.39
   3   5  11   -0.10    0.23
   4   5  11   -0.18    0.26
   5   5  11    9.95    1.08
   6   5  11    0.39    0.35
   7   5  11    1.75    0.52
   8   5  11    0.25    0.40
   9   5  11    1.00    0.52
  10   5  11    0.79    0.56
  11   5  11    0.39    0.53
  12   5  11    0.65    0.67
  13   5  11    4.05    1.04
 -15   6  11    5.82    1.41
 -14   6  11    2.09    1.01
 -13   6  11    0.50    0.66
 -12   6  11    8.82    1.56
 -11   6  11    4.40    1.06
 -10   6  11    1.28    0.74
  -9   6  11    0.58    0.44
  -8   6  11    3.38    0.87
  -7   6  11    3.39    0.87
  -6   6  11    0.32    0.41
  -5   6  11    0.54    0.50
  -4   6  11   28.80    1.51
  -3   6  11    2.06    0.37
  -2   6  11    0.36    0.19
  -1   6  11    0.09    0.22
   0   6  11    3.63    0.51
   1   6  11    1.13    0.40
   2   6  11   -0.07    0.27
   3   6  11   14.69    1.33
   4   6  11    3.41    0.70
   5   6  11   -0.14    0.34
   6   6  11    0.19    0.39
   7   6  11   -0.13    0.31
   8   6  11   22.08    1.97
   9   6  11    2.86    0.78
  10   6  11    2.85    0.84
  11   6  11    0.22    0.66
  12   6  11    0.98    1.65
 -13   7  11    0.71    0.77
 -12   7  11    7.81    1.58
 -11   7  11    0.47    0.56
 -10   7  11    1.46    0.84
  -9   7  11   -0.48    0.51
  -8   7  11    0.39    0.53
  -7   7  11    3.73    0.98
  -6   7  11    1.19    0.64
  -5   7  11    3.35    0.86
  -4   7  11    0.00    0.29
  -3   7  11    0.46    0.33
  -2   7  11    6.19    0.67
  -1   7  11    6.22    0.68
   0   7  11    8.73    0.82
   1   7  11    0.06    0.28
   2   7  11    0.12    0.35
   3   7  11    2.08    0.56
   4   7  11    0.11    0.39
   5   7  11    0.43    0.43
   6   7  11    0.51    0.46
   7   7  11    1.54    0.60
   8   7  11    0.36    0.46
   9   7  11    0.47    0.63
  10   7  11    1.36    1.24
 -11   8  11    6.92    1.56
 -10   8  11    0.82    0.87
  -9   8  11   -0.10    0.51
  -8   8  11    0.15    0.71
  -7   8  11    0.18    0.64
  -6   8  11    4.05    1.11
  -5   8  11    7.84    1.53
   0   8  11    6.32    0.91
   1   8  11    7.61    0.87
   2   8  11    0.44    0.48
   3   8  11    1.53    0.62
   4   8  11    0.52    0.50
   5   8  11    0.01    0.46
   6   8  11    4.09    0.93
   7   8  11   -0.89    0.72
   1   9  11   -0.55    0.70
   2   9  11    3.63    0.87
   0  -9  12    1.42    1.82
 -10  -8  12   -0.04    0.46
  -9  -8  12   -0.21    0.44
  -8  -8  12    1.01    0.47
  -7  -8  12    4.29    0.70
  -6  -8  12   -0.10    0.36
  -5  -8  12    0.54    0.39
  -4  -8  12   14.71    1.54
  -3  -8  12    0.86    0.48
  -2  -8  12    0.13    0.40
  -1  -8  12    1.42    0.62
   0  -8  12    2.29    0.70
   1  -8  12    0.71    0.52
   2  -8  12    0.42    0.50
   3  -8  12    1.59    0.51
   4  -8  12    1.86    0.56
   5  -8  12    0.90    0.45
   6  -8  12    6.42    1.52
 -13  -7  12    0.37    0.71
 -12  -7  12    2.05    0.65
 -11  -7  12    9.31    1.19
 -10  -7  12    0.49    0.47
  -9  -7  12   -0.19    0.37
  -8  -7  12    0.09    0.30
  -7  -7  12    1.31    0.41
  -6  -7  12    3.11    0.54
  -5  -7  12   -0.09    0.29
  -4  -7  12    5.43    0.67
  -3  -7  12    4.82    0.63
  -2  -7  12    7.18    0.96
  -1  -7  12    9.66    1.10
   0  -7  12    2.47    0.61
   1  -7  12    3.42    0.57
   2  -7  12    0.15    0.28
   3  -7  12   29.54    1.57
   4  -7  12    9.64    0.96
   5  -7  12    0.81    0.40
   6  -7  12    5.78    0.80
   7  -7  12    5.38    0.79
   8  -7  12    7.40    1.17
   9  -7  12    3.06    0.94
 -15  -6  12    8.96    1.95
 -14  -6  12    0.94    0.68
 -13  -6  12   14.06    1.44
 -12  -6  12    1.64    0.53
 -11  -6  12    1.47    0.55
 -10  -6  12    4.77    0.81
  -9  -6  12    3.56    0.67
  -8  -6  12    2.06    0.43
  -7  -6  12    1.45    0.38
  -6  -6  12    0.59    0.29
  -5  -6  12    4.83    0.58
  -4  -6  12   64.66    2.27
  -3  -6  12   16.36    1.07
  -2  -6  12    3.21    0.49
  -1  -6  12    2.70    0.45
   0  -6  12    0.64    0.37
   1  -6  12   14.30    1.04
   2  -6  12    0.58    0.31
   3  -6  12    0.51    0.31
   4  -6  12    0.29    0.29
   5  -6  12    0.28    0.32
   6  -6  12    3.35    0.57
   7  -6  12    7.01    0.81
   8  -6  12   28.38    1.77
   9  -6  12    4.50    0.94
  10  -6  12    3.18    0.85
  11  -6  12    8.34    1.31
 -16  -5  12   -0.35    0.52
 -15  -5  12    4.90    1.27
 -14  -5  12    2.59    0.94
 -13  -5  12    0.48    0.39
 -12  -5  12   15.44    1.35
 -11  -5  12    2.34    0.58
 -10  -5  12    1.76    0.51
  -9  -5  12    3.76    0.65
  -8  -5  12   -0.03    0.23
  -7  -5  12    4.94    0.57
  -6  -5  12   35.12    1.43
  -5  -5  12    1.34    0.32
  -4  -5  12   30.47    1.26
  -3  -5  12   31.71    1.32
  -2  -5  12   36.41    1.39
  -1  -5  12    5.20    0.54
   0  -5  12    1.79    0.29
   1  -5  12   10.08    0.66
   2  -5  12    2.59    0.42
   3  -5  12   32.52    1.39
   4  -5  12    5.69    0.67
   5  -5  12    5.96    0.67
   6  -5  12   10.73    0.92
   7  -5  12   39.72    1.76
   8  -5  12    1.85    0.45
   9  -5  12    3.18    0.62
  10  -5  12    0.85    0.53
  11  -5  12    9.11    1.22
  12  -5  12    4.39    1.62
 -18  -4  12   -0.04    0.60
 -17  -4  12    1.46    0.87
 -16  -4  12    0.10    0.53
 -15  -4  12   10.18    1.61
 -14  -4  12    1.19    0.65
 -13  -4  12   25.00    2.59
 -12  -4  12   13.05    1.16
 -11  -4  12    0.95    0.38
 -10  -4  12    1.60    0.42
  -9  -4  12    1.21    0.38
  -8  -4  12    1.65    0.33
  -7  -4  12   14.04    0.91
  -6  -4  12   18.30    1.05
  -5  -4  12    1.42    0.30
  -4  -4  12   71.53    2.21
  -3  -4  12   12.63    0.82
  -2  -4  12    0.12    0.16
  -1  -4  12    0.35    0.20
   0  -4  12   16.24    0.79
   1  -4  12    3.91    0.39
   2  -4  12   15.75    0.82
   3  -4  12    0.04    0.19
   4  -4  12    8.98    0.77
   5  -4  12    3.42    0.50
   6  -4  12   39.31    1.63
   7  -4  12    8.73    0.85
   8  -4  12   49.01    1.97
   9  -4  12    5.56    0.73
  10  -4  12    2.82    0.60
  11  -4  12    2.52    0.70
  12  -4  12    0.33    0.88
  13  -4  12    1.28    1.30
 -18  -3  12    3.09    1.01
 -17  -3  12    3.19    0.98
 -16  -3  12   -0.34    0.45
 -15  -3  12   17.90    2.07
 -14  -3  12   36.47    2.75
 -13  -3  12    4.57    0.98
 -12  -3  12    3.04    0.85
 -11  -3  12   24.65    1.33
 -10  -3  12    7.03    0.76
  -9  -3  12   21.55    1.19
  -8  -3  12    6.81    0.70
  -7  -3  12    2.67    0.36
  -6  -3  12    9.39    0.65
  -5  -3  12   22.19    0.92
  -4  -3  12    0.21    0.16
  -3  -3  12    1.38    0.26
  -2  -3  12  181.32    4.84
  -1  -3  12   94.53    2.81
   0  -3  12   22.82    0.83
   1  -3  12    0.61    0.18
   2  -3  12   17.81    0.75
   3  -3  12   21.92    0.86
   4  -3  12   63.05    1.75
   5  -3  12    1.77    0.36
   6  -3  12    6.40    0.67
   7  -3  12   13.50    1.02
   8  -3  12    2.00    0.43
   9  -3  12   21.73    1.32
  10  -3  12    0.85    0.41
  11  -3  12   13.66    1.65
  12  -3  12    0.18    0.79
  13  -3  12    2.88    1.20
  14  -3  12    5.80    1.71
 -17  -2  12    4.10    1.02
 -16  -2  12   -0.27    0.42
 -15  -2  12    8.99    1.39
 -14  -2  12    1.27    0.62
 -13  -2  12   35.00    2.49
 -12  -2  12   31.40    2.19
 -11  -2  12    9.95    1.33
 -10  -2  12    2.03    0.31
  -9  -2  12   -0.02    0.13
  -8  -2  12    0.33    0.17
  -7  -2  12   53.67    1.62
  -6  -2  12   82.20    2.02
  -5  -2  12   42.40    1.38
  -4  -2  12   39.85    1.34
  -3  -2  12    4.43    0.40
  -2  -2  12    5.43    0.46
  -1  -2  12   21.04    0.88
   0  -2  12   74.95    1.92
   1  -2  12    3.66    0.33
   2  -2  12   68.86    1.82
   3  -2  12    0.57    0.18
   4  -2  12   32.25    1.07
   5  -2  12    9.73    0.64
   6  -2  12  150.76    3.70
   7  -2  12    6.94    0.70
   8  -2  12   76.91    2.60
   9  -2  12    3.13    0.53
  10  -2  12    0.14    0.46
  11  -2  12   -0.16    0.44
  12  -2  12   -0.41    0.48
  13  -2  12    2.94    1.16
  14  -2  12   -0.07    0.77
  15  -2  12    1.20    1.10
 -16  -1  12    3.34    0.87
 -15  -1  12    6.75    0.81
 -14  -1  12   24.37    1.39
 -13  -1  12   23.12    1.24
 -12  -1  12   30.14    1.43
 -11  -1  12    0.59    0.26
 -10  -1  12   29.54    1.39
  -9  -1  12    6.32    0.46
  -8  -1  12    0.23    0.14
  -7  -1  12   -0.01    0.12
  -6  -1  12  101.46    3.51
  -5  -1  12   34.56    1.13
  -4  -1  12    4.90    0.36
  -3  -1  12   38.69    1.22
  -2  -1  12  330.11    8.11
  -1  -1  12   32.01    1.09
   0  -1  12    4.99    0.45
   1  -1  12    0.19    0.12
   2  -1  12    0.22    0.11
   3  -1  12    1.91    0.24
   4  -1  12   19.73    0.78
   5  -1  12   54.77    1.56
   6  -1  12   10.55    0.66
   7  -1  12   83.65    2.24
   8  -1  12    5.07    0.85
   9  -1  12    8.01    1.06
  10  -1  12    8.75    1.11
  11  -1  12   17.95    1.72
  12  -1  12    8.84    1.23
  13  -1  12    0.00    0.56
  14  -1  12   12.78    2.28
  15  -1  12    1.00    0.87
 -19   0  12    1.87    1.01
 -18   0  12   17.56    2.09
 -17   0  12    4.32    1.05
 -16   0  12   15.11    1.82
 -15   0  12   46.17    3.01
 -14   0  12   -0.10    0.24
 -13   0  12    0.71    0.31
 -12   0  12    9.64    0.85
 -11   0  12   63.78    2.48
 -10   0  12   15.97    1.00
  -9   0  12   -0.24    0.12
  -8   0  12   49.33    1.52
  -7   0  12    4.89    0.40
  -6   0  12  182.00    5.69
  -5   0  12    0.21    0.18
  -4   0  12   99.29    3.39
  -3   0  12   40.26    1.21
  -2   0  12   30.33    1.02
  -1   0  12   27.36    0.97
   0   0  12   11.12    0.62
   1   0  12    8.62    0.62
   2   0  12   75.07    1.86
   3   0  12   42.68    1.21
   4   0  12    7.27    0.44
   5   0  12    0.07    0.14
   6   0  12   69.65    2.28
   7   0  12    0.26    0.26
   8   0  12  201.39    5.55
   9   0  12   38.07    1.60
  10   0  12    1.30    0.53
  11   0  12    6.72    1.07
  12   0  12    1.45    0.60
  13   0  12    0.04    0.47
  14   0  12    5.99    1.14
  15   0  12    1.65    1.08
 -20   1  12    0.21    0.75
 -19   1  12   -0.34    0.64
 -18   1  12   13.71    1.91
 -17   1  12   32.74    2.94
 -16   1  12    3.01    0.82
 -15   1  12    7.15    1.20
 -14   1  12   30.56    2.22
 -13   1  12   20.32    1.43
 -12   1  12   26.64    1.37
 -11   1  12    0.68    0.28
 -10   1  12   31.34    1.43
  -9   1  12    6.26    0.64
  -8   1  12    0.06    0.18
  -7   1  12    0.16    0.13
  -6   1  12  106.36    3.44
  -5   1  12   35.83    1.44
  -4   1  12    5.83    0.55
  -3   1  12   37.15    1.57
  -2   1  12  327.19    8.07
  -1   1  12   31.02    1.09
   0   1  12    5.88    0.50
   1   1  12    0.12    0.18
   2   1  12    0.20    0.18
   3   1  12    1.76    0.32
   4   1  12   17.99    1.01
   5   1  12   51.39    1.89
   6   1  12   10.81    0.85
   7   1  12   81.99    2.67
   8   1  12    5.18    0.62
   9   1  12    9.06    0.82
  10   1  12   10.66    0.94
  11   1  12   16.33    1.21
  12   1  12    6.87    1.07
  13   1  12    0.07    0.47
  14   1  12    9.40    1.32
  15   1  12    0.50    0.86
 -19   2  12    0.67    0.69
 -18   2  12    0.47    0.67
 -17   2  12    3.86    1.11
 -16   2  12    0.74    0.52
 -15   2  12    8.25    1.43
 -14   2  12    0.96    0.56
 -13   2  12   35.47    2.53
 -12   2  12   26.27    2.14
 -11   2  12    7.67    0.74
 -10   2  12    2.24    0.42
  -9   2  12    0.06    0.21
  -8   2  12    0.36    0.23
  -7   2  12   50.77    2.04
  -6   2  12   79.90    2.82
  -5   2  12   45.20    1.71
  -4   2  12   41.89    1.68
  -3   2  12    4.65    0.39
  -2   2  12    4.69    0.41
  -1   2  12   24.13    0.72
   0   2  12   77.83    2.31
   1   2  12    3.67    0.43
   2   2  12   70.69    2.22
   3   2  12    0.39    0.22
   4   2  12   30.08    1.30
   5   2  12    9.26    0.80
   6   2  12  147.38    4.35
   7   2  12    5.51    0.65
   8   2  12   73.70    2.57
   9   2  12    2.04    0.43
  10   2  12    0.17    0.30
  11   2  12   -0.14    0.30
  12   2  12    0.11    0.34
  13   2  12    3.70    0.87
  14   2  12   -0.54    0.51
  15   2  12    1.04    0.67
 -18   3  12    3.52    1.10
 -17   3  12    0.71    0.60
 -16   3  12    1.24    0.65
 -15   3  12   12.46    1.85
 -14   3  12   40.18    2.90
 -13   3  12    2.59    0.85
 -12   3  12    1.97    0.66
 -11   3  12   21.95    2.15
 -10   3  12    6.46    1.08
  -9   3  12   22.26    1.16
  -8   3  12    7.06    0.72
  -7   3  12    2.77    0.45
  -6   3  12    9.46    0.83
  -5   3  12   23.03    1.09
  -4   3  12    0.53    0.27
  -3   3  12    2.96    0.32
  -2   3  12  186.12    4.81
  -1   3  12   98.61    2.36
   0   3  12   22.36    0.98
   1   3  12    0.81    0.24
   2   3  12   16.89    1.01
   3   3  12   22.21    1.15
   4   3  12   60.72    2.10
   5   3  12    1.11    0.44
   6   3  12    5.27    0.81
   7   3  12   15.91    1.45
   8   3  12    2.33    0.68
   9   3  12   17.53    1.75
  10   3  12    1.11    0.54
  11   3  12    8.59    1.23
  12   3  12    0.18    0.49
  13   3  12    2.89    0.89
  14   3  12    6.88    1.26
  15   3  12    7.93    1.86
 -17   4  12    1.02    0.82
 -16   4  12    0.10    0.53
 -15   4  12    7.69    1.43
 -14   4  12    0.90    0.61
 -13   4  12   24.69    2.51
 -12   4  12   11.01    1.59
 -11   4  12    0.65    0.56
 -10   4  12    0.09    0.39
  -9   4  12    1.32    0.56
  -8   4  12    1.80    0.44
  -7   4  12   16.16    1.14
  -6   4  12   16.99    1.09
  -5   4  12    1.82    0.54
  -4   4  12   67.36    2.61
  -3   4  12   13.25    0.72
  -2   4  12    0.21    0.19
  -1   4  12    0.83    0.25
   0   4  12   17.74    0.94
   1   4  12    4.03    0.48
   2   4  12   15.44    0.99
   3   4  12   -0.19    0.25
   4   4  12    7.23    0.92
   5   4  12    2.68    0.62
   6   4  12   37.35    2.09
   7   4  12    7.02    1.02
   8   4  12   43.63    2.44
   9   4  12    4.42    0.92
  10   4  12    1.79    0.60
  11   4  12    2.79    0.81
  12   4  12   -0.38    0.48
  13   4  12    1.43    0.71
  14   4  12    0.03    0.61
 -16   5  12    0.41    0.66
 -15   5  12    5.53    1.33
 -14   5  12    1.01    0.74
 -13   5  12    0.78    0.63
 -12   5  12   15.22    1.99
 -11   5  12    1.61    0.69
 -10   5  12    0.84    0.54
  -9   5  12    2.88    0.83
  -8   5  12   -0.16    0.40
  -7   5  12    7.62    1.17
  -6   5  12   34.92    1.67
  -5   5  12    1.96    0.41
  -4   5  12   29.20    1.46
  -3   5  12   34.53    1.59
  -2   5  12   34.51    1.33
  -1   5  12    4.51    0.51
   0   5  12    0.90    0.28
   1   5  12   10.98    0.82
   2   5  12    3.32    0.61
   3   5  12   27.34    1.77
   4   5  12    5.36    0.84
   5   5  12    4.58    0.80
   6   5  12    9.68    1.19
   7   5  12   40.31    2.26
   8   5  12    1.94    0.64
   9   5  12    1.59    0.67
  10   5  12    0.04    0.50
  11   5  12    5.23    1.08
  12   5  12    1.02    0.68
  13   5  12    0.17    0.81
 -15   6  12    8.16    1.64
 -14   6  12   -0.14    0.60
 -13   6  12   10.93    1.86
 -12   6  12    0.42    0.57
 -11   6  12    1.32    0.68
 -10   6  12    5.05    1.18
  -9   6  12    4.01    0.98
  -8   6  12    1.63    0.70
  -7   6  12    0.15    0.46
  -6   6  12    0.52    0.45
  -5   6  12    4.44    0.97
  -4   6  12   67.56    2.70
  -3   6  12   14.05    0.96
  -2   6  12    3.43    0.58
  -1   6  12    2.18    0.40
   0   6  12    0.48    0.26
   1   6  12   13.12    0.98
   2   6  12    0.16    0.32
   3   6  12    0.80    0.41
   4   6  12    0.38    0.37
   5   6  12    0.25    0.38
   6   6  12    4.00    0.87
   7   6  12    5.06    0.93
   8   6  12   20.14    1.94
   9   6  12    5.34    1.05
  10   6  12    4.88    1.03
  11   6  12    8.68    1.37
 -13   7  12   -0.19    0.65
 -12   7  12    0.37    0.62
 -11   7  12    9.81    1.67
 -10   7  12    0.33    0.58
  -9   7  12    0.25    0.56
  -8   7  12    0.36    0.58
  -7   7  12    0.49    0.57
  -6   7  12    2.49    0.81
  -5   7  12    0.67    0.51
  -4   7  12    3.01    0.61
  -3   7  12    6.46    1.22
  -2   7  12    7.14    0.87
  -1   7  12    9.99    1.05
   0   7  12    5.00    0.79
   1   7  12    3.66    0.55
   2   7  12    0.02    0.29
   3   7  12   24.36    1.90
   4   7  12    9.23    1.21
   5   7  12    0.47    0.44
   6   7  12    3.18    0.79
   7   7  12    6.93    1.16
   8   7  12    5.01    1.02
   9   7  12    3.02    0.92
 -10   8  12    0.05    0.78
  -9   8  12    0.16    0.78
  -8   8  12    0.70    0.53
  -7   8  12    5.80    1.45
  -6   8  12   -0.25    0.60
  -5   8  12    0.73    0.68
   0   8  12    3.99    0.77
   1   8  12    0.97    0.53
   2   8  12   -0.09    0.42
   3   8  12    1.77    0.49
   4   8  12    1.84    0.70
   5   8  12    2.04    0.72
   6   8  12    6.62    1.14
   7   8  12    3.55    1.39
  -9  -8  13    2.75    0.77
  -8  -8  13    6.69    0.87
  -7  -8  13    1.81    0.54
  -6  -8  13    1.45    0.47
  -5  -8  13    1.88    0.51
  -4  -8  13   -0.15    0.43
  -3  -8  13    0.14    0.47
  -2  -8  13    0.63    0.49
  -1  -8  13    0.81    0.49
   0  -8  13    0.34    0.44
   1  -8  13    2.31    0.71
   2  -8  13    8.36    1.18
   3  -8  13    0.30    0.41
   4  -8  13    1.01    0.48
   5  -8  13    8.80    1.07
   6  -8  13   10.29    1.87
 -13  -7  13    0.95    0.90
 -12  -7  13   -0.38    0.41
 -11  -7  13    0.56    0.50
 -10  -7  13    1.31    0.54
  -9  -7  13    2.92    0.69
  -8  -7  13    4.71    0.70
  -7  -7  13    4.40    0.62
  -6  -7  13    0.05    0.31
  -5  -7  13    4.81    0.70
  -4  -7  13    2.33    0.50
  -3  -7  13    9.12    0.83
  -2  -7  13    1.69    0.55
  -1  -7  13    2.46    0.65
   0  -7  13    2.44    0.64
   1  -7  13   -0.32    0.38
   2  -7  13   -0.14    0.29
   3  -7  13    0.38    0.35
   4  -7  13    8.22    0.90
   5  -7  13   -0.34    0.33
   6  -7  13    0.46    0.44
   7  -7  13    0.17    0.41
   8  -7  13    0.09    0.51
   9  -7  13   -0.03    0.71
 -14  -6  13    0.99    0.83
 -13  -6  13    0.20    0.40
 -12  -6  13   -0.07    0.42
 -11  -6  13    8.96    1.06
 -10  -6  13   -0.03    0.38
  -9  -6  13    5.76    0.86
  -8  -6  13   -0.08    0.25
  -7  -6  13    1.49    0.38
  -6  -6  13   12.39    0.97
  -5  -6  13    1.92    0.42
  -4  -6  13   -0.10    0.24
  -3  -6  13    2.90    0.48
  -2  -6  13   -0.17    0.22
  -1  -6  13    6.32    0.67
   0  -6  13    0.70    0.38
   1  -6  13    5.11    0.65
   2  -6  13   13.51    1.03
   3  -6  13    0.24    0.28
   4  -6  13    0.14    0.27
   5  -6  13    8.78    0.91
   6  -6  13    5.20    0.72
   7  -6  13   -0.05    0.37
   8  -6  13    7.35    0.92
   9  -6  13    0.31    0.55
  10  -6  13   -0.21    0.52
 -16  -5  13    1.66    0.91
 -15  -5  13   -0.13    0.48
 -14  -5  13    6.89    1.43
 -13  -5  13    1.24    0.51
 -12  -5  13    4.74    0.78
 -11  -5  13    0.34    0.39
 -10  -5  13   -0.28    0.27
  -9  -5  13    1.69    0.46
  -8  -5  13    6.42    0.67
  -7  -5  13   27.76    1.25
  -6  -5  13    2.54    0.42
  -5  -5  13    8.34    0.74
  -4  -5  13   21.13    1.11
  -3  -5  13   11.66    0.86
  -2  -5  13    1.02    0.29
  -1  -5  13    3.87    0.50
   0  -5  13    0.99    0.24
   1  -5  13    1.21    0.28
   2  -5  13    4.73    0.58
   3  -5  13    4.29    0.57
   4  -5  13    5.33    0.64
   5  -5  13   -0.07    0.26
   6  -5  13    0.72    0.32
   7  -5  13   10.95    0.99
   8  -5  13    0.41    0.37
   9  -5  13   -0.09    0.35
  10  -5  13   -0.29    0.39
  11  -5  13    1.06    1.09
  12  -5  13   12.70    2.60
 -18  -4  13    2.21    1.02
 -17  -4  13    0.46    0.63
 -16  -4  13    0.95    0.70
 -15  -4  13    0.32    0.50
 -14  -4  13    8.94    1.55
 -13  -4  13    0.89    0.60
 -12  -4  13   -0.08    0.27
 -11  -4  13    4.32    0.67
 -10  -4  13    0.55    0.31
  -9  -4  13   15.50    1.24
  -8  -4  13    0.30    0.22
  -7  -4  13    4.71    0.50
  -6  -4  13   13.22    0.87
  -5  -4  13   20.93    1.02
  -4  -4  13    0.43    0.22
  -3  -4  13    0.19    0.18
  -2  -4  13    2.02    0.35
  -1  -4  13    8.11    0.66
   0  -4  13    8.33    0.58
   1  -4  13    2.60    0.34
   2  -4  13   31.32    1.10
   3  -4  13    0.46    0.25
   4  -4  13    0.31    0.23
   5  -4  13   29.01    1.41
   6  -4  13    6.15    0.68
   7  -4  13    4.41    0.62
   8  -4  13    3.10    0.56
   9  -4  13    0.38    0.37
  10  -4  13    1.31    0.62
  11  -4  13    0.48    0.88
  12  -4  13    0.84    1.14
  13  -4  13   -0.16    0.99
 -18  -3  13    0.24    0.69
 -17  -3  13    1.37    0.69
 -16  -3  13    2.49    0.86
 -15  -3  13    1.83    0.77
 -14  -3  13    3.94    0.97
 -13  -3  13    1.47    0.65
 -12  -3  13    2.03    0.69
 -11  -3  13    0.60    0.30
 -10  -3  13    1.72    0.40
  -9  -3  13    1.67    0.40
  -8  -3  13    5.18    0.64
  -7  -3  13   17.94    0.86
  -6  -3  13    0.21    0.18
  -5  -3  13    4.08    0.43
  -4  -3  13    8.17    0.62
  -3  -3  13    2.38    0.34
  -2  -3  13    2.20    0.34
  -1  -3  13   19.25    0.93
   0  -3  13    1.85    0.27
   1  -3  13    0.08    0.16
   2  -3  13    0.48    0.19
   3  -3  13    5.98    0.48
   4  -3  13   16.53    0.84
   5  -3  13    0.00    0.21
   6  -3  13    0.71    0.30
   7  -3  13    4.54    0.59
   8  -3  13    1.50    0.44
   9  -3  13    0.80    0.56
  10  -3  13    0.17    0.53
  11  -3  13    1.13    0.73
  12  -3  13    7.79    1.89
  13  -3  13    0.67    0.94
  14  -3  13    0.70    1.10
 -17  -2  13    0.71    0.59
 -16  -2  13    1.03    0.62
 -15  -2  13   -0.30    0.35
 -14  -2  13    5.29    1.09
 -13  -2  13    0.10    0.43
 -12  -2  13    0.40    0.36
 -11  -2  13    0.53    0.42
 -10  -2  13    1.72    0.38
  -9  -2  13   10.04    0.65
  -8  -2  13    0.04    0.14
  -7  -2  13    4.95    0.44
  -6  -2  13    5.79    0.39
  -5  -2  13   19.70    0.82
  -4  -2  13    0.37    0.16
  -3  -2  13   -0.14    0.12
  -2  -2  13    2.84    0.34
  -1  -2  13    6.40    0.53
   0  -2  13   13.15    0.80
   1  -2  13    0.70    0.18
   2  -2  13   20.51    0.80
   3  -2  13    0.74    0.20
   4  -2  13    0.22    0.16
   5  -2  13   22.73    0.98
   6  -2  13    3.28    0.46
   7  -2  13    4.77    0.57
   8  -2  13    1.32    0.55
   9  -2  13   -0.17    0.44
  10  -2  13    2.06    0.72
  11  -2  13    0.46    0.53
  12  -2  13    1.85    0.71
  13  -2  13    0.73    0.86
  14  -2  13    0.57    0.99
 -16  -1  13    0.08    0.47
 -15  -1  13   -0.15    0.28
 -14  -1  13    1.25    0.39
 -13  -1  13   -0.10    0.23
 -12  -1  13    0.90    0.31
 -11  -1  13    0.19    0.24
 -10  -1  13    0.03    0.18
  -9  -1  13    1.38    0.24
  -8  -1  13    1.64    0.24
  -7  -1  13    6.68    0.50
  -6  -1  13   -0.24    0.13
  -5  -1  13    1.01    0.18
  -4  -1  13    3.87    0.31
  -3  -1  13    0.35    0.14
  -2  -1  13    1.86    0.26
  -1  -1  13    2.27    0.30
   0  -1  13    0.48    0.18
   1  -1  13    0.23    0.12
   2  -1  13    0.53    0.15
   3  -1  13    2.49    0.27
   4  -1  13    1.75    0.26
   5  -1  13    0.09    0.20
   6  -1  13   -0.28    0.20
   7  -1  13    1.82    0.41
   8  -1  13   -0.40    0.30
   9  -1  13    0.05    0.34
  10  -1  13    0.39    0.47
  11  -1  13   -0.36    0.40
  12  -1  13    3.23    0.83
  13  -1  13   -0.14    0.49
  14  -1  13   -0.15    0.76
  15  -1  13    0.67    0.95
 -18   0  13    0.42    0.68
 -17   0  13    0.05    0.57
 -16   0  13    0.36    0.48
 -15   0  13    0.16    0.48
 -14   0  13    0.00    0.22
 -13   0  13   -0.14    0.21
 -12   0  13   -0.03    0.21
 -11   0  13    0.06    0.21
 -10   0  13   -0.08    0.19
  -9   0  13   -0.22    0.16
  -8   0  13    0.11    0.13
  -7   0  13    0.00    0.12
  -6   0  13    0.10    0.16
  -5   0  13    0.16    0.19
  -4   0  13   -0.02    0.16
  -3   0  13   -0.01    0.09
  -2   0  13   -0.06    0.10
  -1   0  13    0.13    0.12
   0   0  13    0.16    0.14
   1   0  13    0.03    0.14
   2   0  13    0.09    0.18
   3   0  13   -0.06    0.17
   4   0  13    0.13    0.19
   5   0  13    0.11    0.20
   6   0  13    0.04    0.20
   7   0  13    0.15    0.22
   8   0  13    0.05    0.24
   9   0  13    0.15    0.27
  10   0  13   -0.49    0.37
  11   0  13    0.13    0.41
  12   0  13    0.01    0.45
  13   0  13   -0.41    0.48
  14   0  13   -0.41    0.57
  15   0  13   -0.14    0.68
 -19   1  13    0.55    0.77
 -18   1  13   -0.25    0.57
 -17   1  13    0.47    0.61
 -16   1  13    0.11    0.46
 -15   1  13   -0.23    0.37
 -14   1  13    1.12    0.58
 -13   1  13    0.13    0.25
 -12   1  13    0.65    0.31
 -11   1  13    0.27    0.25
 -10   1  13    0.21    0.23
  -9   1  13    1.61    0.36
  -8   1  13    1.52    0.33
  -7   1  13    8.04    0.51
  -6   1  13   -0.07    0.14
  -5   1  13    1.43    0.30
  -4   1  13    3.54    0.47
  -3   1  13    0.45    0.23
  -2   1  13    2.13    0.25
  -1   1  13    2.21    0.30
   0   1  13    0.34    0.20
   1   1  13    0.17    0.17
   2   1  13    0.24    0.17
   3   1  13    1.93    0.36
   4   1  13    1.59    0.35
   5   1  13   -0.44    0.17
   6   1  13    0.15    0.22
   7   1  13    2.08    0.40
   8   1  13    0.54    0.32
   9   1  13   -0.13    0.27
  10   1  13   -0.19    0.24
  11   1  13    0.38    0.47
  12   1  13    3.52    0.90
  13   1  13   -0.41    0.46
  14   1  13   -0.25    0.58
  15   1  13   -0.08    0.75
 -19   2  13    1.51    0.87
 -18   2  13    0.38    0.67
 -17   2  13    0.10    0.48
 -16   2  13    1.04    0.70
 -15   2  13    0.10    0.51
 -14   2  13    4.91    1.03
 -13   2  13    0.32    0.48
 -12   2  13    0.70    0.52
 -11   2  13    0.73    0.30
 -10   2  13    2.30    0.45
  -9   2  13    7.75    0.76
  -8   2  13    0.07    0.19
  -7   2  13    5.11    0.60
  -6   2  13    7.77    0.64
  -5   2  13   18.65    1.00
  -4   2  13    0.45    0.24
  -3   2  13   -0.06    0.18
  -2   2  13    3.49    0.38
  -1   2  13    5.93    0.51
   0   2  13   11.77    0.78
   1   2  13    0.48    0.21
   2   2  13   20.05    1.07
   3   2  13    0.42    0.22
   4   2  13    0.73    0.29
   5   2  13   20.43    1.15
   6   2  13    2.82    0.48
   7   2  13    4.59    0.62
   8   2  13    0.73    0.35
   9   2  13   -0.05    0.25
  10   2  13    1.97    0.47
  11   2  13    0.02    0.31
  12   2  13    0.54    0.39
  13   2  13    0.33    0.53
  14   2  13   -0.12    0.58
  15   2  13    0.70    0.70
 -18   3  13   -0.17    0.63
 -17   3  13    2.79    0.94
 -16   3  13    3.87    1.07
 -15   3  13    1.39    0.65
 -14   3  13    2.80    0.86
 -13   3  13    0.70    0.59
 -12   3  13    1.41    0.66
 -11   3  13    0.04    0.38
 -10   3  13    0.61    0.45
  -9   3  13    2.02    0.43
  -8   3  13    5.03    0.58
  -7   3  13   15.99    1.15
  -6   3  13    0.04    0.30
  -5   3  13    4.99    0.57
  -4   3  13    7.99    0.75
  -3   3  13    2.41    0.41
  -2   3  13    1.92    0.30
  -1   3  13   20.21    0.95
   0   3  13    1.21    0.27
   1   3  13    0.54    0.23
   2   3  13    1.17    0.31
   3   3  13    5.02    0.57
   4   3  13   18.79    1.17
   5   3  13    0.03    0.23
   6   3  13    0.19    0.27
   7   3  13    3.83    0.57
   8   3  13    1.48    0.40
   9   3  13    0.64    0.34
  10   3  13    0.65    0.40
  11   3  13    0.73    0.39
  12   3  13    7.70    0.92
  13   3  13    0.55    0.46
  14   3  13    0.23    0.61
 -17   4  13    0.84    0.75
 -16   4  13    1.40    0.79
 -15   4  13    0.29    0.58
 -14   4  13    6.87    1.36
 -13   4  13    0.26    0.52
 -12   4  13   -0.25    0.29
 -11   4  13    4.48    1.04
 -10   4  13    1.08    0.56
  -9   4  13   14.57    1.72
  -8   4  13    0.30    0.27
  -7   4  13    4.39    0.59
  -6   4  13   14.31    1.08
  -5   4  13   22.83    1.70
  -4   4  13    0.70    0.29
  -3   4  13    0.36    0.28
  -2   4  13    1.25    0.28
  -1   4  13    8.41    0.66
   0   4  13    8.87    0.69
   1   4  13    2.32    0.41
   2   4  13   33.17    1.36
   3   4  13    0.14    0.21
   4   4  13    0.34    0.27
   5   4  13   31.06    2.12
   6   4  13    6.98    0.94
   7   4  13    2.80    0.70
   8   4  13    1.88    0.61
   9   4  13    0.23    0.46
  10   4  13    1.92    0.67
  11   4  13    0.74    0.58
  12   4  13    1.43    0.70
  13   4  13    0.73    0.48
  14   4  13    2.73    1.07
 -16   5  13    5.10    1.38
 -15   5  13   -0.31    0.50
 -14   5  13    6.18    1.37
 -13   5  13    0.50    0.57
 -12   5  13    4.97    1.14
 -11   5  13    0.35    0.42
 -10   5  13    0.24    0.45
  -9   5  13    1.54    0.72
  -8   5  13    8.03    1.32
  -7   5  13   25.03    2.10
  -6   5  13    2.23    0.47
  -5   5  13    9.44    0.91
  -4   5  13   19.62    1.87
  -3   5  13   11.93    1.02
  -2   5  13    1.22    0.38
  -1   5  13    3.28    0.46
   0   5  13    0.76    0.28
   1   5  13    0.74    0.28
   2   5  13    3.98    0.54
   3   5  13    4.54    0.59
   4   5  13    7.01    0.96
   5   5  13   -0.10    0.30
   6   5  13    0.98    0.50
   7   5  13    9.50    1.24
   8   5  13    0.57    0.49
   9   5  13    0.18    0.49
  10   5  13    0.78    0.59
  11   5  13    1.10    0.72
  12   5  13   10.55    1.52
 -14   6  13    2.10    1.05
 -13   6  13    0.19    0.69
 -12   6  13    0.58    0.63
 -11   6  13    7.14    1.42
 -10   6  13    0.47    0.59
  -9   6  13    4.65    1.11
  -8   6  13    0.49    0.54
  -7   6  13    1.08    0.62
  -6   6  13   15.59    1.86
  -5   6  13    2.16    0.73
  -4   6  13    0.28    0.32
  -3   6  13    2.62    0.72
  -2   6  13   -0.19    0.25
  -1   6  13    4.63    0.69
   0   6  13    0.45    0.29
   1   6  13    4.52    0.59
   2   6  13   10.70    0.92
   3   6  13    0.49    0.32
   4   6  13    0.06    0.35
   5   6  13    8.35    1.12
   6   6  13    3.21    0.78
   7   6  13   -0.24    0.40
   8   6  13    5.50    1.05
   9   6  13   -0.39    0.53
  10   6  13   -0.09    0.59
  11   6  13   -0.30    0.76
 -13   7  13    2.79    1.19
 -12   7  13   -0.05    0.64
 -11   7  13   -0.08    0.59
 -10   7  13    1.94    0.88
  -9   7  13    1.17    0.75
  -8   7  13    5.87    1.22
  -7   7  13    4.26    1.02
  -6   7  13   -0.07    0.37
  -5   7  13    6.88    1.27
  -4   7  13    0.82    0.62
  -3   7  13    7.52    1.39
  -2   7  13    2.65    0.59
  -1   7  13    3.18    0.67
   0   7  13    1.86    0.57
   1   7  13    0.20    0.35
   2   7  13    0.32    0.35
   3   7  13    0.09    0.32
   4   7  13    6.64    0.82
   5   7  13    0.18    0.46
   6   7  13    1.71    0.62
   7   7  13    0.28    0.54
   8   7  13   -0.04    0.50
   9   7  13    1.78    1.27
 -10   8  13    0.26    0.82
  -9   8  13    2.36    1.03
  -8   8  13   10.69    1.76
  -7   8  13    2.80    0.74
  -6   8  13    0.75    0.75
   0   8  13    0.76    0.49
   1   8  13    1.82    0.65
   2   8  13    6.68    1.03
   3   8  13    0.25    0.48
   4   8  13    0.20    0.50
   5   8  13    5.77    0.85
   6   8  13   10.91    2.20
  -9  -8  14    8.03    1.25
  -8  -8  14   12.87    1.20
  -7  -8  14    0.82    0.46
  -6  -8  14    0.27    0.40
  -5  -8  14    9.05    1.22
  -4  -8  14    0.24    0.47
  -3  -8  14    3.04    0.76
  -2  -8  14    5.24    0.93
  -1  -8  14   -0.27    0.40
   0  -8  14    0.40    0.46
   1  -8  14    6.22    1.07
   2  -8  14    1.33    0.67
   3  -8  14    1.23    0.51
   4  -8  14    0.86    0.53
   5  -8  14   17.78    1.81
 -13  -7  14    0.81    0.82
 -12  -7  14    7.15    1.11
 -11  -7  14    0.60    0.56
 -10  -7  14   25.15    1.98
  -9  -7  14    8.89    1.19
  -8  -7  14    2.68    0.57
  -7  -7  14    5.33    0.72
  -6  -7  14    7.21    0.83
  -5  -7  14    2.40    0.42
  -4  -7  14   19.05    1.29
  -3  -7  14   40.11    1.76
  -2  -7  14    5.11    0.81
  -1  -7  14    5.39    0.92
   0  -7  14    6.26    0.98
   1  -7  14    8.27    1.12
   2  -7  14   41.38    1.95
   3  -7  14   15.47    1.22
   4  -7  14    1.04    0.47
   5  -7  14    3.25    0.66
   6  -7  14    0.08    0.40
   7  -7  14    0.36    0.45
   8  -7  14    0.97    0.86
 -14  -6  14   -1.32    0.52
 -13  -6  14    0.98    0.55
 -12  -6  14    0.15    0.42
 -11  -6  14   37.68    2.16
 -10  -6  14    4.34    0.80
  -9  -6  14    9.84    0.92
  -8  -6  14    9.06    0.85
  -7  -6  14    0.86    0.34
  -6  -6  14    8.19    0.80
  -5  -6  14    6.79    0.74
  -4  -6  14    0.32    0.29
  -3  -6  14    0.58    0.30
  -2  -6  14    5.61    0.65
  -1  -6  14   13.98    1.07
   0  -6  14    6.99    0.94
   1  -6  14   11.78    0.97
   2  -6  14   -0.37    0.23
   3  -6  14   10.58    0.94
   4  -6  14    7.13    0.79
   5  -6  14   10.48    1.01
   6  -6  14    2.02    0.53
   7  -6  14    1.52    0.49
   8  -6  14   17.45    1.40
   9  -6  14   18.72    2.78
  10  -6  14    1.73    1.24
 -16  -5  14    3.02    1.09
 -15  -5  14    0.90    0.79
 -14  -5  14    6.67    1.39
 -13  -5  14   -0.36    0.48
 -12  -5  14   23.34    1.74
 -11  -5  14    0.58    0.39
 -10  -5  14   29.73    1.81
  -9  -5  14    5.80    0.83
  -8  -5  14    0.01    0.20
  -7  -5  14   38.09    1.54
  -6  -5  14    7.32    0.69
  -5  -5  14   19.00    1.15
  -4  -5  14    6.25    0.65
  -3  -5  14   67.37    2.28
  -2  -5  14   51.76    1.87
  -1  -5  14    8.85    0.75
   0  -5  14   29.34    1.27
   1  -5  14    0.44    0.27
   2  -5  14   90.58    2.94
   3  -5  14    4.44    0.59
   4  -5  14    3.15    0.51
   5  -5  14    8.56    0.83
   6  -5  14    0.69    0.38
   7  -5  14    0.43    0.33
   8  -5  14    0.53    0.40
   9  -5  14   12.13    1.56
  10  -5  14    2.05    1.16
  11  -5  14    4.73    1.67
 -18  -4  14   10.73    2.15
 -17  -4  14    0.29    0.67
 -16  -4  14    1.81    0.86
 -15  -4  14   20.29    2.36
 -14  -4  14    3.87    1.03
 -13  -4  14    0.10    0.48
 -12  -4  14    7.50    0.93
 -11  -4  14   61.06    2.55
 -10  -4  14    2.62    0.55
  -9  -4  14   41.28    1.98
  -8  -4  14   22.95    1.10
  -7  -4  14    0.48    0.23
  -6  -4  14    8.65    0.72
  -5  -4  14    8.25    0.69
  -4  -4  14    0.09    0.19
  -3  -4  14    0.11    0.19
  -2  -4  14   13.15    0.89
  -1  -4  14   16.84    1.04
   0  -4  14   15.91    1.01
   1  -4  14   14.38    0.80
   2  -4  14    2.98    0.38
   3  -4  14    5.76    0.63
   4  -4  14    4.54    0.56
   5  -4  14   25.67    1.35
   6  -4  14    0.74    0.32
   7  -4  14    4.39    0.63
   8  -4  14    4.56    0.95
   9  -4  14   11.68    1.50
  10  -4  14   16.02    1.80
  11  -4  14    7.68    1.83
  12  -4  14    2.43    1.26
  13  -4  14   10.16    2.66
 -18  -3  14   -0.11    0.62
 -17  -3  14    3.74    1.07
 -16  -3  14    0.52    0.58
 -15  -3  14    4.30    1.04
 -14  -3  14    5.75    1.15
 -13  -3  14    2.78    0.89
 -12  -3  14    0.40    0.45
 -11  -3  14    0.01    0.24
 -10  -3  14  138.17    4.63
  -9  -3  14   27.07    1.40
  -8  -3  14    0.36    0.25
  -7  -3  14    4.82    0.49
  -6  -3  14   41.33    1.48
  -5  -3  14    3.40    0.41
  -4  -3  14   44.84    1.56
  -3  -3  14   54.75    1.82
  -2  -3  14   23.18    1.05
  -1  -3  14   14.39    0.90
   0  -3  14   28.17    1.17
   1  -3  14   36.69    1.18
   2  -3  14   56.23    1.62
   3  -3  14   27.77    1.02
   4  -3  14   34.99    1.26
   5  -3  14   16.82    0.98
   6  -3  14   15.20    1.06
   7  -3  14   17.84    1.71
   8  -3  14    5.34    1.00
   9  -3  14    3.23    0.86
  10  -3  14   18.52    1.86
  11  -3  14    0.71    0.59
  12  -3  14    0.74    0.95
  13  -3  14    0.10    0.97
 -17  -2  14    0.76    0.63
 -16  -2  14    0.58    0.56
 -15  -2  14   13.38    1.75
 -14  -2  14   24.51    2.39
 -13  -2  14    0.52    0.49
 -12  -2  14   41.12    2.76
 -11  -2  14   56.27    3.48
 -10  -2  14   -0.02    0.20
  -9  -2  14  109.39    3.09
  -8  -2  14   54.27    1.70
  -7  -2  14    9.04    0.51
  -6  -2  14    2.89    0.35
  -5  -2  14    3.68    0.37
  -4  -2  14    0.61    0.19
  -3  -2  14    2.94    0.36
  -2  -2  14   23.51    0.95
  -1  -2  14    8.74    0.64
   0  -2  14   37.39    1.37
   1  -2  14   13.54    0.65
   2  -2  14   17.11    0.78
   3  -2  14    0.19    0.16
   4  -2  14    0.02    0.16
   5  -2  14   49.40    1.86
   6  -2  14   -0.06    0.29
   7  -2  14    8.54    1.11
   8  -2  14    0.49    0.47
   9  -2  14    4.08    0.82
  10  -2  14   30.28    2.39
  11  -2  14    8.03    1.26
  12  -2  14    2.80    0.85
  13  -2  14    8.86    1.98
  14  -2  14    2.15    1.23
 -16  -1  14    0.13    0.48
 -15  -1  14    0.80    0.50
 -14  -1  14   17.38    1.26
 -13  -1  14    0.88    0.36
 -12  -1  14    5.34    0.66
 -11  -1  14    1.49    0.38
 -10  -1  14   88.75    3.21
  -9  -1  14    2.53    0.33
  -8  -1  14   23.19    0.91
  -7  -1  14   53.85    1.66
  -6  -1  14   32.97    1.44
  -5  -1  14   36.65    1.20
  -4  -1  14    1.28    0.22
  -3  -1  14   37.34    1.23
  -2  -1  14  124.77    3.37
  -1  -1  14    8.88    0.61
   0  -1  14   68.50    2.11
   1  -1  14    1.10    0.26
   2  -1  14   74.39    2.33
   3  -1  14    3.49    0.46
   4  -1  14   34.15    1.38
   5  -1  14   23.02    1.19
   6  -1  14    2.05    0.41
   7  -1  14   10.25    0.87
   8  -1  14    1.15    0.52
   9  -1  14    0.44    0.45
  10  -1  14   15.19    1.57
  11  -1  14    3.75    0.83
  12  -1  14   11.99    1.47
  13  -1  14    1.73    0.77
  14  -1  14    0.71    0.97
 -18   0  14   23.25    2.47
 -17   0  14    0.31    0.58
 -16   0  14    4.24    1.00
 -15   0  14   12.59    1.28
 -14   0  14    1.95    0.46
 -13   0  14   12.86    1.06
 -12   0  14   37.27    1.70
 -11   0  14  183.47    5.89
 -10   0  14   11.52    0.96
  -9   0  14   54.69    2.16
  -8   0  14    2.70    0.32
  -7   0  14   17.69    0.80
  -6   0  14   67.11    2.49
  -5   0  14   19.79    1.02
  -4   0  14   14.47    1.01
  -3   0  14   34.12    1.08
  -2   0  14    5.04    0.39
  -1   0  14   64.40    1.95
   0   0  14  208.70    5.50
   1   0  14   11.54    0.73
   2   0  14    3.12    0.40
   3   0  14   16.56    1.00
   4   0  14    2.20    0.40
   5   0  14    1.19    0.31
   6   0  14    7.78    0.74
   7   0  14    0.25    0.26
   8   0  14   17.92    1.21
   9   0  14    1.69    0.41
  10   0  14    6.18    1.00
  11   0  14    0.01    0.44
  12   0  14   10.06    1.33
  13   0  14   31.96    2.51
  14   0  14   12.32    1.56
  15   0  14    3.59    1.62
 -19   1  14   36.31    3.43
 -18   1  14    8.70    1.50
 -17   1  14    5.17    1.18
 -16   1  14    0.11    0.45
 -15   1  14    0.00    0.45
 -14   1  14   14.27    1.69
 -13   1  14    0.96    0.33
 -12   1  14    5.55    0.67
 -11   1  14    1.84    0.40
 -10   1  14   93.92    3.28
  -9   1  14    2.29    0.42
  -8   1  14   22.26    1.17
  -7   1  14   53.64    1.97
  -6   1  14   31.16    1.36
  -5   1  14   38.74    1.58
  -4   1  14    1.17    0.30
  -3   1  14   36.45    1.60
  -2   1  14  123.27    3.31
  -1   1  14    9.23    0.55
   0   1  14   67.67    2.11
   1   1  14    1.09    0.27
   2   1  14   75.81    2.35
   3   1  14    3.16    0.45
   4   1  14   31.74    1.35
   5   1  14   21.44    1.18
   6   1  14    1.84    0.42
   7   1  14   13.19    1.01
   8   1  14    0.77    0.33
   9   1  14    0.62    0.35
  10   1  14   13.15    1.10
  11   1  14    2.80    0.77
  12   1  14   14.73    1.62
  13   1  14    1.36    0.66
  14   1  14    0.33    0.60
 -19   2  14   12.16    1.89
 -18   2  14    9.05    1.61
 -17   2  14   -0.21    0.54
 -16   2  14   -0.17    0.38
 -15   2  14   19.27    2.12
 -14   2  14   24.43    2.46
 -13   2  14   -0.14    0.36
 -12   2  14   41.51    2.75
 -11   2  14   60.74    2.41
 -10   2  14   -0.11    0.20
  -9   2  14  107.10    3.80
  -8   2  14   52.50    2.15
  -7   2  14    8.80    0.82
  -6   2  14    2.99    0.42
  -5   2  14    3.90    0.50
  -4   2  14    0.42    0.23
  -3   2  14    3.13    0.49
  -2   2  14   22.50    0.95
  -1   2  14    9.34    0.67
   0   2  14   37.64    1.72
   1   2  14   11.72    0.83
   2   2  14   15.46    1.02
   3   2  14    0.04    0.22
   4   2  14   -0.07    0.20
   5   2  14   48.97    1.86
   6   2  14    0.12    0.24
   7   2  14    8.86    0.86
   8   2  14    0.47    0.30
   9   2  14    5.94    0.74
  10   2  14   34.20    1.77
  11   2  14    7.28    0.87
  12   2  14    1.99    0.57
  13   2  14    9.85    1.45
  14   2  14    3.62    0.98
  15   2  14   -0.17    0.97
 -18   3  14   -0.07    0.62
 -17   3  14    3.45    1.09
 -16   3  14    0.47    0.68
 -15   3  14    5.12    1.16
 -14   3  14    4.74    1.12
 -13   3  14    2.97    0.89
 -12   3  14    0.07    0.44
 -11   3  14    0.14    0.38
 -10   3  14  129.62    4.52
  -9   3  14   27.03    1.38
  -8   3  14    0.03    0.20
  -7   3  14    4.96    0.63
  -6   3  14   41.95    2.59
  -5   3  14    4.56    0.57
  -4   3  14   46.54    1.94
  -3   3  14   54.97    2.25
  -2   3  14   25.27    1.30
  -1   3  14   14.14    0.89
   0   3  14   26.55    1.15
   1   3  14   37.62    1.45
   2   3  14   54.75    2.45
   3   3  14   27.51    1.38
   4   3  14   36.12    1.51
   5   3  14   16.12    1.16
   6   3  14   14.85    1.12
   7   3  14   18.19    1.26
   8   3  14    3.59    0.60
   9   3  14    2.79    0.54
  10   3  14   16.35    1.32
  11   3  14    0.62    0.41
  12   3  14    1.48    0.52
  13   3  14    2.24    0.60
  14   3  14    0.92    0.74
 -17   4  14    0.43    0.66
 -16   4  14    0.25    0.66
 -15   4  14   20.69    2.42
 -14   4  14    6.79    1.30
 -13   4  14    0.17    0.47
 -12   4  14    8.82    1.46
 -11   4  14   60.53    3.69
 -10   4  14    1.87    0.69
  -9   4  14   41.23    2.83
  -8   4  14   24.34    1.31
  -7   4  14    0.04    0.23
  -6   4  14   10.21    0.92
  -5   4  14    8.81    1.23
  -4   4  14   -0.08    0.20
  -3   4  14    0.07    0.25
  -2   4  14   11.17    1.00
  -1   4  14   18.65    1.33
   0   4  14   20.04    1.14
   1   4  14   15.16    1.01
   2   4  14    2.40    0.42
   3   4  14    5.83    0.64
   4   4  14    4.47    0.58
   5   4  14   25.87    1.43
   6   4  14    0.74    0.35
   7   4  14    2.35    0.51
   8   4  14    5.96    0.79
   9   4  14   14.32    1.24
  10   4  14   13.44    1.24
  11   4  14    7.91    0.93
  12   4  14    1.46    0.51
  13   4  14   14.90    1.34
 -16   5  14    2.22    1.03
 -15   5  14    0.28    0.61
 -14   5  14    8.93    1.57
 -13   5  14    0.05    0.44
 -12   5  14   26.06    2.73
 -11   5  14    0.44    0.57
 -10   5  14   30.07    2.81
  -9   5  14    4.18    0.96
  -8   5  14    0.06    0.42
  -7   5  14   36.29    2.63
  -6   5  14    6.82    0.81
  -5   5  14   22.93    1.32
  -4   5  14    6.04    1.04
  -3   5  14   67.87    2.75
  -2   5  14   52.02    2.27
  -1   5  14    9.30    0.97
   0   5  14   27.13    1.54
   1   5  14    0.79    0.31
   2   5  14   92.73    2.97
   3   5  14    3.95    0.57
   4   5  14    2.09    0.46
   5   5  14    7.15    0.81
   6   5  14    0.30    0.32
   7   5  14   -0.08    0.40
   8   5  14    0.68    0.53
   9   5  14   10.11    1.42
  10   5  14    2.76    0.58
  11   5  14   11.68    1.19
  12   5  14    9.29    1.35
 -14   6  14   -0.30    0.67
 -13   6  14    0.84    0.77
 -12   6  14    0.24    0.60
 -11   6  14   38.13    3.08
 -10   6  14    3.11    0.98
  -9   6  14   12.02    1.71
  -8   6  14    6.68    1.30
  -7   6  14    0.22    0.48
  -6   6  14   10.81    1.54
  -5   6  14    6.04    0.85
  -4   6  14   -0.10    0.25
  -3   6  14   -0.15    0.36
  -2   6  14    5.02    0.71
  -1   6  14   14.12    1.29
   0   6  14    9.23    1.05
   1   6  14   11.30    1.02
   2   6  14    0.08    0.25
   3   6  14   12.70    1.05
   4   6  14    6.89    0.79
   5   6  14    8.91    0.95
   6   6  14    0.77    0.39
   7   6  14    1.20    0.62
   8   6  14   11.15    1.50
   9   6  14   15.47    1.78
  10   6  14    2.19    0.85
 -12   7  14    9.47    1.73
 -11   7  14    0.82    0.77
 -10   7  14   21.01    2.52
  -9   7  14    8.97    1.55
  -8   7  14    1.90    0.79
  -7   7  14    5.18    1.19
  -6   7  14    6.04    1.26
  -5   7  14    3.35    0.95
  -4   7  14   22.33    2.30
  -3   7  14   41.52    2.09
  -2   7  14    5.59    0.84
  -1   7  14    4.13    0.75
   0   7  14    6.05    0.92
   1   7  14    6.41    0.93
   2   7  14   44.60    2.32
   3   7  14   11.31    1.28
   4   7  14    1.57    0.47
   5   7  14    3.65    0.69
   6   7  14   -0.26    0.35
   7   7  14    0.01    0.39
   8   7  14    0.53    1.06
  -9   8  14    6.67    1.53
  -8   8  14   11.75    1.90
  -7   8  14    1.28    0.61
   0   8  14   -0.17    0.63
   1   8  14    7.66    1.09
   2   8  14    0.41    0.55
   3   8  14    0.26    0.53
   4   8  14    0.97    0.58
  -9  -8  15   13.87    2.58
  -8  -8  15    0.12    0.45
  -7  -8  15   -0.34    0.38
  -6  -8  15    0.40    0.45
  -5  -8  15   -0.15    0.44
  -4  -8  15    3.06    0.76
  -3  -8  15    2.77    0.74
  -2  -8  15    1.99    0.65
  -1  -8  15    0.19    0.52
   0  -8  15   -0.10    0.50
   1  -8  15    0.41    0.55
   2  -8  15    0.36    0.58
   3  -8  15    0.16    0.58
   4  -8  15    0.57    0.60
 -12  -7  15    1.54    0.99
 -11  -7  15    1.43    0.60
 -10  -7  15    8.32    1.15
  -9  -7  15   -0.03    0.34
  -8  -7  15    0.56    0.38
  -7  -7  15    0.22    0.31
  -6  -7  15   -0.08    0.33
  -5  -7  15    6.94    0.82
  -4  -7  15    6.11    0.76
  -3  -7  15    1.30    0.51
  -2  -7  15    9.08    1.13
  -1  -7  15    7.53    1.07
   0  -7  15    2.17    0.62
   1  -7  15    0.73    0.49
   2  -7  15   18.65    1.77
   3  -7  15    0.21    0.38
   4  -7  15    0.62    0.44
   5  -7  15    0.27    0.38
   6  -7  15    3.05    0.70
   7  -7  15    0.48    0.49
 -14  -6  15   -0.07    0.58
 -13  -6  15    0.06    0.43
 -12  -6  15   -0.43    0.33
 -11  -6  15    9.85    1.20
 -10  -6  15    0.64    0.45
  -9  -6  15    2.71    0.53
  -8  -6  15   -0.18    0.23
  -7  -6  15    0.15    0.28
  -6  -6  15    9.92    0.88
  -5  -6  15    1.06    0.38
  -4  -6  15    0.24    0.29
  -3  -6  15   -0.43    0.23
  -2  -6  15    0.80    0.34
  -1  -6  15    9.33    1.04
   0  -6  15    6.86    0.94
   1  -6  15    3.53    0.74
   2  -6  15    0.43    0.32
   3  -6  15    1.20    0.41
   4  -6  15   11.32    1.03
   5  -6  15    2.66    0.49
   6  -6  15    2.22    0.56
   7  -6  15    0.93    0.51
   8  -6  15   -0.09    0.56
   9  -6  15    0.22    0.93
 -16  -5  15    0.59    0.82
 -15  -5  15    1.86    0.85
 -14  -5  15    0.23    0.56
 -13  -5  15    0.60    0.61
 -12  -5  15    2.07    0.55
 -11  -5  15    0.55    0.40
 -10  -5  15    6.88    0.92
  -9  -5  15    1.24    0.36
  -8  -5  15    3.11    0.48
  -7  -5  15    4.01    0.55
  -6  -5  15    0.78    0.29
  -5  -5  15    3.74    0.51
  -4  -5  15    2.54    0.43
  -3  -5  15    5.46    0.62
  -2  -5  15   25.50    1.29
  -1  -5  15    0.78    0.29
   0  -5  15    9.69    0.84
   1  -5  15    2.15    0.42
   2  -5  15   27.48    1.41
   3  -5  15    0.88    0.36
   4  -5  15   -0.12    0.25
   5  -5  15    3.69    0.59
   6  -5  15    3.31    0.59
   7  -5  15    0.18    0.49
   8  -5  15    1.05    0.63
   9  -5  15    1.27    0.76
  10  -5  15    6.18    1.61
  11  -5  15   -0.07    0.83
 -17  -4  15   -0.37    0.53
 -16  -4  15    0.77    0.70
 -15  -4  15   12.52    1.88
 -14  -4  15    0.18    0.57
 -13  -4  15   -0.04    0.42
 -12  -4  15    2.90    0.86
 -11  -4  15   14.06    1.24
 -10  -4  15    0.15    0.29
  -9  -4  15    4.54    0.61
  -8  -4  15    0.79    0.28
  -7  -4  15    4.93    0.55
  -6  -4  15   10.88    0.81
  -5  -4  15    2.68    0.41
  -4  -4  15    3.26    0.44
  -3  -4  15    0.71    0.27
  -2  -4  15   -0.08    0.20
  -1  -4  15    9.71    0.78
   0  -4  15    8.20    0.72
   1  -4  15   15.31    0.86
   2  -4  15   -0.03    0.15
   3  -4  15    2.51    0.43
   4  -4  15    9.57    0.82
   5  -4  15    1.48    0.39
   6  -4  15    0.61    0.42
   7  -4  15    0.06    0.41
   8  -4  15    0.24    0.47
   9  -4  15   -0.42    0.49
  10  -4  15    5.79    1.17
  11  -4  15    0.04    0.77
  12  -4  15    0.56    1.12
 -18  -3  15    1.13    0.75
 -17  -3  15    0.27    0.66
 -16  -3  15   -0.32    0.47
 -15  -3  15    5.97    1.25
 -14  -3  15   -0.15    0.48
 -13  -3  15    2.02    0.78
 -12  -3  15    0.04    0.37
 -11  -3  15    3.49    0.57
 -10  -3  15   18.46    1.20
  -9  -3  15   -0.16    0.19
  -8  -3  15   17.85    1.14
  -7  -3  15    0.17    0.20
  -6  -3  15    4.27    0.46
  -5  -3  15   12.32    0.74
  -4  -3  15    7.95    0.62
  -3  -3  15   14.94    0.85
  -2  -3  15    4.86    0.51
  -1  -3  15    0.04    0.21
   0  -3  15    2.75    0.41
   1  -3  15    0.30    0.19
   2  -3  15   21.83    0.92
   3  -3  15    0.43    0.23
   4  -3  15   -0.10    0.19
   5  -3  15    2.22    0.61
   6  -3  15   12.79    1.37
   7  -3  15   -0.18    0.34
   8  -3  15    7.35    1.22
   9  -3  15    0.11    0.53
  10  -3  15    6.47    1.17
  11  -3  15    0.29    0.61
  12  -3  15   -0.97    0.74
  13  -3  15    5.28    1.61
 -17  -2  15    0.33    0.61
 -16  -2  15   -0.42    0.42
 -15  -2  15    5.41    1.10
 -14  -2  15    0.63    0.51
 -13  -2  15   -0.05    0.37
 -12  -2  15    2.67    0.81
 -11  -2  15    5.93    1.08
 -10  -2  15    0.68    0.28
  -9  -2  15    3.84    0.51
  -8  -2  15    1.39    0.26
  -7  -2  15    3.64    0.39
  -6  -2  15    7.86    0.78
  -5  -2  15    0.42    0.19
  -4  -2  15    2.40    0.31
  -3  -2  15    1.30    0.26
  -2  -2  15    0.09    0.16
  -1  -2  15    5.65    0.52
   0  -2  15    3.79    0.45
   1  -2  15   12.51    0.64
   2  -2  15    0.11    0.21
   3  -2  15    2.13    0.39
   4  -2  15    3.30    0.52
   5  -2  15    0.53    0.30
   6  -2  15    1.96    0.55
   7  -2  15    0.14    0.36
   8  -2  15    2.32    0.66
   9  -2  15   -0.05    0.44
  10  -2  15    1.52    0.69
  11  -2  15    2.83    0.80
  12  -2  15    0.52    0.61
  13  -2  15    0.16    0.83
  14  -2  15   -0.91    1.01
 -16  -1  15    0.02    0.48
 -15  -1  15    0.52    0.48
 -14  -1  15    0.51    0.53
 -13  -1  15    0.53    0.33
 -12  -1  15    0.09    0.23
 -11  -1  15    0.04    0.23
 -10  -1  15    1.68    0.38
  -9  -1  15    0.04    0.16
  -8  -1  15    2.04    0.31
  -7  -1  15    0.26    0.17
  -6  -1  15    0.94    0.30
  -5  -1  15    1.22    0.33
  -4  -1  15    0.60    0.18
  -3  -1  15    1.91    0.27
  -2  -1  15    1.39    0.25
  -1  -1  15   -0.21    0.12
   0  -1  15    1.37    0.28
   1  -1  15   -0.03    0.16
   2  -1  15    2.74    0.41
   3  -1  15   -0.04    0.19
   4  -1  15    0.45    0.26
   5  -1  15    0.71    0.31
   6  -1  15    0.91    0.32
   7  -1  15   -0.04    0.25
   8  -1  15    0.66    0.42
   9  -1  15    0.23    0.38
  10  -1  15    0.61    0.54
  11  -1  15   -0.13    0.46
  12  -1  15    0.33    0.53
  13  -1  15    1.55    0.70
  14  -1  15    0.04    0.88
 -17   0  15    0.48    0.58
 -16   0  15   -0.04    0.45
 -15   0  15    0.28    0.30
 -14   0  15    0.06    0.30
 -13   0  15    0.07    0.25
 -12   0  15   -0.01    0.23
 -11   0  15    0.14    0.25
 -10   0  15    0.08    0.20
  -9   0  15   -0.02    0.20
  -8   0  15    0.13    0.15
  -7   0  15   -0.04    0.17
  -6   0  15   -0.08    0.15
  -5   0  15    0.02    0.20
  -4   0  15   -0.04    0.18
  -3   0  15    0.15    0.22
  -2   0  15   -0.02    0.12
  -1   0  15    0.26    0.15
   0   0  15    1.04    0.24
   1   0  15    0.14    0.16
   2   0  15    0.12    0.18
   3   0  15   -0.21    0.17
   4   0  15   -0.21    0.19
   5   0  15   -0.02    0.21
   6   0  15    0.17    0.21
   7   0  15   -0.10    0.23
   8   0  15   -0.32    0.24
   9   0  15    0.05    0.42
  10   0  15   -0.04    0.41
  11   0  15   -0.13    0.40
  12   0  15   -0.75    0.41
  13   0  15    0.79    0.66
  14   0  15   -0.23    0.56
 -19   1  15   -0.80    0.62
 -18   1  15    0.17    0.64
 -17   1  15    0.61    0.64
 -16   1  15   -0.06    0.50
 -15   1  15    0.58    0.54
 -14   1  15    0.42    0.43
 -13   1  15    0.23    0.27
 -12   1  15   -0.20    0.24
 -11   1  15   -0.05    0.22
 -10   1  15    1.82    0.40
  -9   1  15    0.06    0.23
  -8   1  15    1.91    0.39
  -7   1  15    0.01    0.21
  -6   1  15    0.96    0.27
  -5   1  15    0.59    0.27
  -4   1  15    1.17    0.32
  -3   1  15    1.88    0.40
  -2   1  15    1.39    0.34
  -1   1  15   -0.10    0.13
   0   1  15    1.43    0.29
   1   1  15    0.00    0.18
   2   1  15    2.77    0.42
   3   1  15    0.09    0.20
   4   1  15    0.21    0.24
   5   1  15    0.72    0.28
   6   1  15    1.04    0.34
   7   1  15   -0.17    0.24
   8   1  15    1.12    0.38
   9   1  15   -0.21    0.28
  10   1  15    0.87    0.39
  11   1  15   -0.27    0.41
  12   1  15    0.06    0.52
  13   1  15    0.17    0.53
  14   1  15    0.50    0.67
 -19   2  15    1.36    0.89
 -18   2  15   -0.66    0.49
 -17   2  15    0.53    0.66
 -16   2  15   -0.33    0.49
 -15   2  15    6.42    1.22
 -14   2  15    0.81    0.52
 -13   2  15   -0.15    0.44
 -12   2  15    2.17    0.53
 -11   2  15    5.46    0.71
 -10   2  15    0.83    0.31
  -9   2  15    1.93    0.41
  -8   2  15    1.59    0.37
  -7   2  15    3.62    0.75
  -6   2  15    7.87    0.71
  -5   2  15    1.00    0.30
  -4   2  15    3.00    0.49
  -3   2  15    0.73    0.29
  -2   2  15   -0.02    0.19
  -1   2  15    5.88    0.54
   0   2  15    4.17    0.50
   1   2  15   11.70    0.85
   2   2  15    0.18    0.22
   3   2  15    1.46    0.36
   4   2  15    4.81    0.60
   5   2  15    0.74    0.32
   6   2  15    2.52    0.46
   7   2  15   -0.17    0.24
   8   2  15    1.90    0.45
   9   2  15   -0.16    0.26
  10   2  15    2.19    0.52
  11   2  15    2.51    0.55
  12   2  15    0.26    0.56
  13   2  15   -0.55    0.53
  14   2  15    0.05    0.61
 -18   3  15    0.89    0.77
 -17   3  15    0.41    0.69
 -16   3  15    0.01    0.51
 -15   3  15    7.33    1.40
 -14   3  15   -0.05    0.38
 -13   3  15    3.71    0.95
 -12   3  15    0.20    0.42
 -11   3  15    2.70    0.77
 -10   3  15   18.92    1.33
  -9   3  15    0.00    0.23
  -8   3  15   14.56    1.13
  -7   3  15    0.25    0.23
  -6   3  15    4.24    0.85
  -5   3  15   13.77    1.03
  -4   3  15    6.62    0.74
  -3   3  15   14.71    1.15
  -2   3  15    6.05    0.73
  -1   3  15    0.26    0.25
   0   3  15    3.53    0.46
   1   3  15    0.62    0.27
   2   3  15   21.43    1.18
   3   3  15    0.25    0.25
   4   3  15    0.25    0.24
   5   3  15    2.79    0.51
   6   3  15    9.98    0.92
   7   3  15   -0.10    0.26
   8   3  15    6.66    0.80
   9   3  15   -0.13    0.30
  10   3  15    5.17    0.76
  11   3  15    0.30    0.43
  12   3  15   -0.17    0.36
  13   3  15    4.85    1.12
 -17   4  15    0.36    0.65
 -16   4  15    0.03    0.54
 -15   4  15   10.23    1.72
 -14   4  15    0.16    0.48
 -13   4  15   -0.44    0.39
 -12   4  15    1.42    0.70
 -11   4  15   12.47    1.69
 -10   4  15    0.00    0.50
  -9   4  15    5.51    1.04
  -8   4  15    0.59    0.31
  -7   4  15    4.34    0.57
  -6   4  15    9.71    1.31
  -5   4  15    2.71    0.73
  -4   4  15    1.53    0.43
  -3   4  15    0.57    0.31
  -2   4  15   -0.02    0.23
  -1   4  15   10.18    1.01
   0   4  15    7.50    0.87
   1   4  15   14.16    0.99
   2   4  15   -0.15    0.19
   3   4  15    2.46    0.47
   4   4  15   10.87    0.97
   5   4  15    2.10    0.48
   6   4  15    0.36    0.30
   7   4  15    0.13    0.33
   8   4  15    0.65    0.37
   9   4  15    0.03    0.34
  10   4  15    4.33    0.74
  11   4  15    3.76    0.67
  12   4  15    1.18    0.55
  13   4  15    0.11    0.76
 -15   5  15    1.62    0.82
 -14   5  15   -0.55    0.53
 -13   5  15   -0.37    0.48
 -12   5  15    3.28    1.04
 -11   5  15    1.18    0.67
 -10   5  15    7.44    1.31
  -9   5  15    0.72    0.57
  -8   5  15    2.60    0.82
  -7   5  15    5.73    0.87
  -6   5  15    1.63    0.42
  -5   5  15    3.43    0.84
  -4   5  15    1.59    0.66
  -3   5  15    5.03    0.71
  -2   5  15   21.43    1.56
  -1   5  15    1.09    0.43
   0   5  15    9.80    1.05
   1   5  15    1.98    0.51
   2   5  15   25.59    1.38
   3   5  15    1.02    0.35
   4   5  15    0.16    0.28
   5   5  15    2.28    0.49
   6   5  15    2.59    0.56
   7   5  15    0.77    0.40
   8   5  15    1.60    0.51
   9   5  15   -0.25    0.33
  10   5  15    7.25    0.93
  11   5  15   -0.59    0.40
 -14   6  15   -0.24    0.59
 -13   6  15   -0.05    0.62
 -12   6  15    0.56    0.61
 -11   6  15   12.49    1.83
 -10   6  15   -0.25    0.43
  -9   6  15    3.79    1.00
  -8   6  15    0.04    0.47
  -7   6  15    0.51    0.53
  -6   6  15    6.54    1.28
  -5   6  15    1.10    0.45
  -4   6  15    0.20    0.34
  -3   6  15    0.33    0.46
  -2   6  15    0.70    0.41
  -1   6  15    4.95    0.78
   0   6  15    6.52    0.92
   1   6  15    3.66    0.71
   2   6  15    0.57    0.36
   3   6  15    1.08    0.49
   4   6  15    9.49    0.98
   5   6  15    1.46    0.50
   6   6  15    1.29    0.47
   7   6  15    1.28    0.50
   8   6  15    0.61    0.39
   9   6  15   -0.12    0.36
  10   6  15    5.09    1.73
 -12   7  15    2.23    0.94
 -11   7  15    0.70    0.72
 -10   7  15    9.63    1.64
  -9   7  15    0.78    0.66
  -8   7  15    0.03    0.52
  -7   7  15    0.44    0.66
  -6   7  15    0.63    0.59
  -5   7  15    9.62    1.53
  -4   7  15    7.30    1.32
  -3   7  15    0.83    0.45
  -2   7  15    9.26    1.51
  -1   7  15    6.79    0.96
   0   7  15    3.14    0.70
   1   7  15    1.36    0.54
   2   7  15   16.27    1.52
   3   7  15    0.26    0.42
   4   7  15    0.66    0.53
   5   7  15    0.06    0.50
   6   7  15    3.09    0.70
   7   7  15   -0.30    0.46
   8   7  15    0.25    1.18
  -9   8  15   12.29    1.97
  -8   8  15    0.52    0.73
  -7   8  15   -0.22    0.65
  -6   8  15   -0.24    0.67
  -1   8  15   -0.10    0.70
   0   8  15   -0.40    0.64
   1   8  15    1.20    0.62
   2   8  15    1.40    0.63
   3   8  15    0.40    0.55
   4   8  15   -0.81    0.68
  -8  -8  16    9.02    1.25
  -7  -8  16    0.38    0.50
  -6  -8  16    2.10    0.59
  -5  -8  16    0.10    0.52
  -4  -8  16    5.07    0.93
  -3  -8  16    1.52    0.62
  -2  -8  16    0.41    0.55
  -1  -8  16   -0.03    0.53
   0  -8  16    0.89    0.62
   1  -8  16    0.35    0.52
   2  -8  16    6.73    1.15
   3  -8  16   -1.28    1.06
 -12  -7  16   -0.96    0.60
 -11  -7  16    2.22    0.71
 -10  -7  16    5.15    0.94
  -9  -7  16   -0.55    0.41
  -8  -7  16    3.58    0.65
  -7  -7  16    1.57    0.48
  -6  -7  16   10.60    0.99
  -5  -7  16   18.25    1.30
  -4  -7  16    5.12    0.73
  -3  -7  16    6.87    1.00
  -2  -7  16    2.63    0.68
  -1  -7  16   33.30    2.17
   0  -7  16    6.58    1.00
   1  -7  16    2.13    0.69
   2  -7  16    0.15    0.47
   3  -7  16    1.02    0.44
   4  -7  16    4.70    0.76
   5  -7  16    6.36    0.88
   6  -7  16    0.70    0.60
   7  -7  16   12.23    2.39
 -13  -6  16    6.54    1.53
 -12  -6  16    7.14    1.04
 -11  -6  16    1.94    0.63
 -10  -6  16    2.40    0.65
  -9  -6  16    0.25    0.40
  -8  -6  16   19.94    1.34
  -7  -6  16   12.36    1.01
  -6  -6  16   16.29    1.16
  -5  -6  16    0.07    0.27
  -4  -6  16    1.11    0.37
  -3  -6  16    0.52    0.32
  -2  -6  16    0.21    0.30
  -1  -6  16    5.38    0.85
   0  -6  16   -0.09    0.32
   1  -6  16    5.11    0.90
   2  -6  16    2.10    0.45
   3  -6  16    1.89    0.46
   4  -6  16   16.61    1.26
   5  -6  16   13.16    1.20
   6  -6  16    4.08    0.96
   7  -6  16    7.36    1.24
   8  -6  16   -0.06    0.65
 -15  -5  16    1.56    0.82
 -14  -5  16   13.32    2.08
 -13  -5  16   11.06    1.78
 -12  -5  16    0.87    0.46
 -11  -5  16   -0.22    0.31
 -10  -5  16   19.12    1.58
  -9  -5  16    0.63    0.40
  -8  -5  16   13.27    1.00
  -7  -5  16    1.88    0.40
  -6  -5  16   13.89    1.02
  -5  -5  16   22.53    1.32
  -4  -5  16    6.05    0.66
  -3  -5  16   20.15    1.26
  -2  -5  16    3.99    0.55
  -1  -5  16   69.37    2.34
   0  -5  16    0.16    0.26
   1  -5  16   22.11    1.71
   2  -5  16    0.34    0.30
   3  -5  16   24.47    1.36
   4  -5  16    5.21    0.68
   5  -5  16    0.84    0.52
   6  -5  16    0.46    0.50
   7  -5  16   12.83    1.57
   8  -5  16    1.11    0.71
   9  -5  16    0.87    0.71
  10  -5  16    8.82    2.02
 -17  -4  16    0.78    0.70
 -16  -4  16   14.05    2.02
 -15  -4  16   -0.01    0.62
 -14  -4  16    1.67    0.82
 -13  -4  16   10.43    1.64
 -12  -4  16    3.30    0.96
 -11  -4  16    1.03    0.42
 -10  -4  16    2.84    0.57
  -9  -4  16   21.01    1.53
  -8  -4  16   20.40    1.53
  -7  -4  16   13.71    0.93
  -6  -4  16    4.79    0.53
  -5  -4  16    0.84    0.29
  -4  -4  16   29.05    1.27
  -3  -4  16    1.88    0.35
  -2  -4  16   -0.07    0.18
  -1  -4  16    0.10    0.22
   0  -4  16    0.39    0.26
   1  -4  16    0.35    0.21
   2  -4  16    8.77    0.70
   3  -4  16    9.66    0.83
   4  -4  16   24.46    1.85
   5  -4  16    8.46    1.12
   6  -4  16   22.79    1.92
   7  -4  16    5.55    1.02
   8  -4  16   -0.08    0.52
   9  -4  16    5.03    1.12
  10  -4  16   13.92    1.79
  11  -4  16    5.37    1.60
  12  -4  16   -0.39    1.59
 -18  -3  16    4.71    1.26
 -17  -3  16    4.30    1.15
 -16  -3  16   -0.14    0.48
 -15  -3  16   26.56    2.74
 -14  -3  16    4.23    1.06
 -13  -3  16    0.91    0.63
 -12  -3  16    0.50    0.50
 -11  -3  16    2.95    0.87
 -10  -3  16    0.96    0.33
  -9  -3  16    9.22    0.93
  -8  -3  16    2.74    0.52
  -7  -3  16    2.03    0.48
  -6  -3  16   56.69    1.90
  -5  -3  16  167.57    4.49
  -4  -3  16   13.53    0.87
  -3  -3  16    1.65    0.33
  -2  -3  16    2.99    0.42
  -1  -3  16   82.54    2.68
   0  -3  16   14.44    0.97
   1  -3  16   16.04    0.81
   2  -3  16   22.20    1.24
   3  -3  16   20.21    1.27
   4  -3  16   11.78    1.22
   5  -3  16    6.15    0.92
   6  -3  16    2.21    0.61
   7  -3  16   29.85    2.37
   8  -3  16    3.78    0.82
   9  -3  16    6.26    1.15
  10  -3  16   11.91    1.55
  11  -3  16   11.69    1.58
  12  -3  16    1.02    1.05
 -17  -2  16    5.04    1.14
 -16  -2  16   33.79    2.75
 -15  -2  16    1.53    0.72
 -14  -2  16    0.56    0.50
 -13  -2  16    2.29    0.75
 -12  -2  16    1.12    0.58
 -11  -2  16   17.17    1.91
 -10  -2  16    4.06    0.94
  -9  -2  16   89.93    3.25
  -8  -2  16   14.53    1.11
  -7  -2  16   12.93    0.79
  -6  -2  16    0.58    0.30
  -5  -2  16    2.34    0.44
  -4  -2  16  130.96    3.63
  -3  -2  16    4.46    0.44
  -2  -2  16    0.65    0.22
  -1  -2  16    9.88    0.73
   0  -2  16    3.26    0.42
   1  -2  16   10.11    0.80
   2  -2  16   17.41    1.10
   3  -2  16   20.63    1.23
   4  -2  16   29.39    1.40
   5  -2  16    0.62    0.34
   6  -2  16   55.98    2.73
   7  -2  16    5.60    0.93
   8  -2  16    1.23    0.57
   9  -2  16    6.87    1.11
  10  -2  16   52.09    2.88
  11  -2  16    8.78    1.26
  12  -2  16    0.13    0.60
  13  -2  16    2.86    1.21
 -16  -1  16   11.88    1.67
 -15  -1  16   29.13    2.41
 -14  -1  16    8.95    1.35
 -13  -1  16   26.94    1.46
 -12  -1  16    4.89    0.66
 -11  -1  16    4.62    0.62
 -10  -1  16    0.85    0.32
  -9  -1  16   18.63    1.13
  -8  -1  16    1.40    0.28
  -7  -1  16   46.97    1.93
  -6  -1  16   35.97    1.62
  -5  -1  16  128.89    4.44
  -4  -1  16    5.63    0.67
  -3  -1  16    0.00    0.14
  -2  -1  16   90.56    2.67
  -1  -1  16  128.77    3.53
   0  -1  16    0.81    0.25
   1  -1  16   67.83    2.18
   2  -1  16   31.62    1.28
   3  -1  16  148.60    4.18
   4  -1  16    3.52    0.49
   5  -1  16    4.53    0.59
   6  -1  16    1.02    0.35
   7  -1  16   43.89    1.94
   8  -1  16    2.34    0.64
   9  -1  16    0.79    0.48
  10  -1  16   43.14    2.88
  11  -1  16    2.19    0.77
  12  -1  16    3.19    0.87
  13  -1  16    1.44    0.76
 -17   0  16    0.70    0.66
 -16   0  16   39.04    2.78
 -15   0  16   25.36    1.54
 -14   0  16    3.91    0.64
 -13   0  16    1.62    0.44
 -12   0  16   32.92    1.63
 -11   0  16    5.97    0.72
 -10   0  16   26.87    1.37
  -9   0  16   31.29    1.50
  -8   0  16   27.85    1.40
  -7   0  16   76.03    2.76
  -6   0  16    6.17    0.66
  -5   0  16    0.53    0.25
  -4   0  16   51.54    2.11
  -3   0  16    2.92    0.51
  -2   0  16    6.66    0.76
  -1   0  16    4.56    0.44
   0   0  16    1.35    0.27
   1   0  16   -0.10    0.16
   2   0  16    0.85    0.26
   3   0  16   40.66    1.57
   4   0  16  127.80    3.73
   5   0  16    9.41    0.83
   6   0  16   41.14    1.68
   7   0  16   50.47    1.96
   8   0  16    1.65    0.44
   9   0  16    0.55    0.45
  10   0  16   36.10    2.61
  11   0  16    9.34    1.25
  12   0  16    9.99    1.36
  13   0  16    0.36    0.63
  14   0  16   14.57    1.71
 -19   1  16    4.02    1.20
 -18   1  16   -0.40    0.53
 -17   1  16    4.14    1.13
 -16   1  16   13.38    1.81
 -15   1  16   30.10    2.45
 -14   1  16    9.68    1.43
 -13   1  16   25.43    1.43
 -12   1  16    5.18    0.69
 -11   1  16    3.98    0.61
 -10   1  16    1.91    0.44
  -9   1  16   18.24    1.27
  -8   1  16    0.68    0.32
  -7   1  16   43.47    2.75
  -6   1  16   37.78    1.59
  -5   1  16  130.99    4.40
  -4   1  16    5.18    0.64
  -3   1  16   -0.06    0.19
  -2   1  16   92.85    3.39
  -1   1  16  126.58    4.41
   0   1  16    0.46    0.22
   1   1  16   67.53    2.18
   2   1  16   29.40    1.30
   3   1  16  139.13    4.14
   4   1  16    4.14    0.54
   5   1  16    3.78    0.55
   6   1  16    1.68    0.40
   7   1  16   38.80    1.68
   8   1  16    1.28    0.39
   9   1  16    0.56    0.36
  10   1  16   41.55    1.91
  11   1  16    2.08    0.68
  12   1  16    5.81    1.10
  13   1  16    0.06    0.58
  14   1  16    0.86    0.75
 -19   2  16    1.30    0.89
 -18   2  16   -0.34    0.57
 -17   2  16    3.81    1.13
 -16   2  16   47.87    3.18
 -15   2  16    2.09    0.83
 -14   2  16    0.18    0.46
 -13   2  16    4.47    1.04
 -12   2  16    0.77    0.34
 -11   2  16   17.49    1.28
 -10   2  16    4.05    0.60
  -9   2  16   86.91    3.25
  -8   2  16   15.48    1.15
  -7   2  16   10.18    1.33
  -6   2  16    1.85    0.58
  -5   2  16    3.72    0.53
  -4   2  16  130.94    4.51
  -3   2  16    4.52    0.61
  -2   2  16    0.44    0.30
  -1   2  16    7.11    0.83
   0   2  16    4.32    0.51
   1   2  16   10.12    0.78
   2   2  16   16.47    1.07
   3   2  16   20.98    1.17
   4   2  16   30.30    1.38
   5   2  16    0.83    0.35
   6   2  16   55.03    2.14
   7   2  16    4.00    0.56
   8   2  16    1.35    0.42
   9   2  16    8.53    0.91
  10   2  16   55.83    2.25
  11   2  16    9.65    1.02
  12   2  16    1.23    0.68
  13   2  16    3.93    0.97
  14   2  16    3.53    1.51
 -18   3  16    5.40    1.38
 -17   3  16    2.87    0.99
 -16   3  16    0.13    0.58
 -15   3  16   32.58    3.07
 -14   3  16    4.30    1.05
 -13   3  16    2.11    0.77
 -12   3  16    0.50    0.49
 -11   3  16    1.63    0.65
 -10   3  16    0.24    0.26
  -9   3  16    9.92    0.95
  -8   3  16    1.89    0.44
  -7   3  16    2.65    0.74
  -6   3  16   55.35    3.29
  -5   3  16  159.06    5.47
  -4   3  16   16.57    1.20
  -3   3  16    0.53    0.31
  -2   3  16    2.07    0.47
  -1   3  16   87.95    3.38
   0   3  16   13.59    1.17
   1   3  16   17.35    1.10
   2   3  16   27.72    1.41
   3   3  16   18.98    1.25
   4   3  16    8.61    0.85
   5   3  16    7.46    0.80
   6   3  16    2.28    0.49
   7   3  16   36.71    1.85
   8   3  16    3.67    0.58
   9   3  16    5.80    0.78
  10   3  16    7.89    0.96
  11   3  16    9.36    1.05
  12   3  16    1.43    0.53
  13   3  16    1.06    0.77
 -17   4  16    0.52    0.93
 -16   4  16   11.66    1.93
 -15   4  16    0.15    0.55
 -14   4  16    1.14    0.67
 -13   4  16    7.43    1.40
 -12   4  16    5.86    1.23
 -11   4  16    1.02    0.62
 -10   4  16    3.54    0.89
  -9   4  16   21.36    2.22
  -8   4  16   21.11    1.48
  -7   4  16   11.60    1.08
  -6   4  16    4.11    0.87
  -5   4  16    1.12    0.52
  -4   4  16   33.46    1.63
  -3   4  16    1.61    0.46
  -2   4  16   -0.11    0.24
  -1   4  16    0.40    0.31
   0   4  16    0.69    0.35
   1   4  16   -0.09    0.29
   2   4  16    8.74    0.83
   3   4  16    9.01    0.87
   4   4  16   23.32    1.46
   5   4  16    8.62    0.88
   6   4  16   21.27    1.46
   7   4  16    5.24    0.74
   8   4  16   -0.06    0.33
   9   4  16    2.50    0.55
  10   4  16   11.93    1.16
  11   4  16    3.88    0.73
  12   4  16    2.73    0.68
 -15   5  16    1.20    0.81
 -14   5  16   13.24    2.04
 -13   5  16   13.08    1.91
 -12   5  16    0.65    0.56
 -11   5  16    0.22    0.51
 -10   5  16   15.80    2.02
  -9   5  16   -0.04    0.36
  -8   5  16   15.76    1.92
  -7   5  16    1.63    0.48
  -6   5  16   14.63    1.24
  -5   5  16   23.54    2.25
  -4   5  16    6.02    1.10
  -3   5  16   18.86    1.48
  -2   5  16    1.79    0.52
  -1   5  16   65.67    2.85
   0   5  16    0.08    0.29
   1   5  16   18.46    1.53
   2   5  16   -0.15    0.28
   3   5  16   23.81    1.82
   4   5  16    4.62    0.66
   5   5  16    0.46    0.36
   6   5  16    0.61    0.41
   7   5  16   14.35    1.24
   8   5  16    0.45    0.41
   9   5  16    1.75    0.56
  10   5  16    4.50    0.77
  11   5  16   -0.55    0.89
 -14   6  16    4.79    1.52
 -13   6  16    8.37    1.61
 -12   6  16    6.14    1.40
 -11   6  16    3.26    1.07
 -10   6  16    2.60    0.95
  -9   6  16    0.17    0.50
  -8   6  16   21.80    2.43
  -7   6  16   13.01    1.77
  -6   6  16   13.72    1.81
  -5   6  16    0.05    0.34
  -4   6  16    1.49    0.68
  -3   6  16    0.07    0.44
  -2   6  16    0.63    0.39
  -1   6  16    6.55    0.92
   0   6  16   -0.02    0.32
   1   6  16    5.82    0.89
   2   6  16    1.61    0.56
   3   6  16    2.57    0.66
   4   6  16   12.52    1.33
   5   6  16   11.52    1.31
   6   6  16    3.24    0.64
   7   6  16    5.60    0.81
   8   6  16    0.03    0.45
   9   6  16    1.31    1.22
 -11   7  16    2.00    0.98
 -10   7  16    5.85    1.34
  -9   7  16    0.04    0.66
  -8   7  16    3.26    1.03
  -7   7  16    1.56    0.82
  -6   7  16   12.61    1.84
  -5   7  16   15.11    1.98
  -4   7  16    1.02    0.74
  -3   7  16    7.19    0.97
  -2   7  16    2.84    0.90
  -1   7  16   36.36    2.81
   0   7  16    7.20    1.00
   1   7  16    1.40    0.59
   2   7  16   -0.37    0.38
   3   7  16    0.67    0.51
   4   7  16    8.08    1.16
   5   7  16    6.18    1.06
   6   7  16    0.16    0.53
  -8   8  16   12.29    2.06
  -7   8  16   -0.05    0.69
  -6   8  16    3.52    1.23
  -1   8  16    0.20    0.78
   0   8  16    0.81    0.87
   1   8  16    0.06    0.58
   2   8  16    6.50    1.12
   3   8  16    0.35    0.92
  -7  -8  17    2.05    0.79
  -6  -8  17    0.30    0.76
  -5  -8  17    1.93    0.87
  -4  -8  17    6.41    1.06
  -3  -8  17    1.17    0.62
  -2  -8  17    0.88    0.63
  -1  -8  17    0.38    0.54
   0  -8  17    0.22    0.65
   1  -8  17    6.19    1.65
 -11  -7  17    2.11    0.74
 -10  -7  17   -0.29    0.51
  -9  -7  17    4.78    0.96
  -8  -7  17   -0.17    0.45
  -7  -7  17    6.73    0.83
  -6  -7  17    6.09    0.78
  -5  -7  17    3.36    0.59
  -4  -7  17    3.36    0.61
  -3  -7  17    0.58    0.47
  -2  -7  17   -0.18    0.42
  -1  -7  17   -0.20    0.43
   0  -7  17    4.00    0.80
   1  -7  17    0.36    0.53
   2  -7  17   -0.69    0.43
   3  -7  17   -0.35    0.50
   4  -7  17    0.21    0.52
   5  -7  17   -0.34    0.56
   6  -7  17    0.61    1.25
 -13  -6  17    1.24    0.87
 -12  -6  17   -0.39    0.39
 -11  -6  17    6.57    1.01
 -10  -6  17    0.19    0.40
  -9  -6  17   -0.48    0.32
  -8  -6  17    0.00    0.35
  -7  -6  17   10.69    0.96
  -6  -6  17    0.28    0.32
  -5  -6  17    3.37    0.54
  -4  -6  17    2.06    0.47
  -3  -6  17    2.11    0.49
  -2  -6  17   -0.01    0.30
  -1  -6  17    0.44    0.42
   0  -6  17    0.05    0.36
   1  -6  17    4.09    0.77
   2  -6  17    0.50    0.44
   3  -6  17    1.07    0.45
   4  -6  17   12.13    1.46
   5  -6  17    0.99    0.60
   6  -6  17    3.68    0.94
   7  -6  17    2.89    0.92
   8  -6  17    0.02    0.71
 -15  -5  17    1.86    1.02
 -14  -5  17    4.21    1.17
 -13  -5  17    2.07    0.87
 -12  -5  17    0.70    0.45
 -11  -5  17   13.59    1.35
 -10  -5  17    0.62    0.47
  -9  -5  17   11.93    1.18
  -8  -5  17    2.07    0.53
  -7  -5  17    2.28    0.57
  -6  -5  17    0.98    0.33
  -5  -5  17    1.36    0.38
  -4  -5  17    9.14    0.79
  -3  -5  17    0.58    0.31
  -2  -5  17    0.14    0.26
  -1  -5  17    0.16    0.24
   0  -5  17   -0.05    0.26
   1  -5  17    0.63    0.40
   2  -5  17    4.88    0.65
   3  -5  17    0.02    0.40
   4  -5  17    1.00    0.51
   5  -5  17    2.24    0.68
   6  -5  17    6.10    1.09
   7  -5  17    0.13    0.58
   8  -5  17    0.41    0.68
   9  -5  17    0.53    0.63
  10  -5  17    0.05    0.93
 -17  -4  17    1.62    1.02
 -16  -4  17    0.35    0.66
 -15  -4  17   -0.04    0.58
 -14  -4  17    6.06    1.32
 -13  -4  17   -0.03    0.47
 -12  -4  17   -0.35    0.49
 -11  -4  17    8.71    1.00
 -10  -4  17    1.44    0.48
  -9  -4  17    0.08    0.30
  -8  -4  17    0.09    0.33
  -7  -4  17    2.95    0.63
  -6  -4  17    4.21    0.72
  -5  -4  17   19.79    1.09
  -4  -4  17    6.35    0.65
  -3  -4  17    4.49    0.55
  -2  -4  17    0.74    0.30
  -1  -4  17    4.49    0.55
   0  -4  17    7.38    0.73
   1  -4  17   15.50    1.07
   2  -4  17    2.36    0.59
   3  -4  17   -0.08    0.35
   4  -4  17    3.86    0.80
   5  -4  17    4.45    0.84
   6  -4  17    9.18    1.22
   7  -4  17    7.34    1.12
   8  -4  17   -0.55    0.41
   9  -4  17    0.52    0.56
  10  -4  17    0.52    0.66
  11  -4  17    0.45    1.03
 -18  -3  17    1.20    0.83
 -17  -3  17    0.27    0.61
 -16  -3  17    0.28    0.56
 -15  -3  17    3.04    0.98
 -14  -3  17    2.59    0.89
 -13  -3  17    0.24    0.54
 -12  -3  17    2.21    0.80
 -11  -3  17    4.29    1.02
 -10  -3  17    0.07    0.29
  -9  -3  17    8.40    0.86
  -8  -3  17   -0.08    0.22
  -7  -3  17   -0.07    0.26
  -6  -3  17    3.93    0.63
  -5  -3  17    4.91    0.69
  -4  -3  17    6.08    0.59
  -3  -3  17    0.40    0.23
  -2  -3  17    3.28    0.46
  -1  -3  17    0.83    0.30
   0  -3  17    3.96    0.52
   1  -3  17    0.23    0.24
   2  -3  17    2.07    0.44
   3  -3  17    1.90    0.45
   4  -3  17   -0.05    0.33
   5  -3  17    0.14    0.39
   6  -3  17    4.29    0.86
   7  -3  17    0.25    0.42
   8  -3  17    0.23    0.51
   9  -3  17    0.52    0.60
  10  -3  17   -0.09    0.55
  11  -3  17   -0.25    0.54
  12  -3  17    0.72    0.95
 -18  -2  17   -0.13    0.67
 -17  -2  17    0.80    0.68
 -16  -2  17    0.31    0.58
 -15  -2  17   -0.09    0.40
 -14  -2  17    1.02    0.60
 -13  -2  17    0.43    0.49
 -12  -2  17    1.23    0.63
 -11  -2  17    5.84    1.13
 -10  -2  17    2.53    0.78
  -9  -2  17    0.02    0.23
  -8  -2  17   -0.27    0.20
  -7  -2  17    0.19    0.19
  -6  -2  17    6.83    0.79
  -5  -2  17   10.62    1.01
  -4  -2  17    4.14    0.63
  -3  -2  17    1.21    0.27
  -2  -2  17    0.74    0.23
  -1  -2  17    6.35    0.59
   0  -2  17    6.21    0.62
   1  -2  17    7.46    0.69
   2  -2  17    1.76    0.38
   3  -2  17    0.10    0.24
   4  -2  17    0.37    0.30
   5  -2  17    2.55    0.49
   6  -2  17    5.87    0.91
   7  -2  17    2.60    0.70
   8  -2  17    0.23    0.44
   9  -2  17    0.24    0.47
  10  -2  17    0.10    0.53
  11  -2  17    0.10    0.57
  12  -2  17    0.64    0.69
  13  -2  17    0.41    1.06
 -16  -1  17   -0.02    0.52
 -15  -1  17   -0.53    0.32
 -14  -1  17    0.79    0.50
 -13  -1  17   -0.22    0.29
 -12  -1  17    0.78    0.35
 -11  -1  17    1.74    0.41
 -10  -1  17    0.13    0.26
  -9  -1  17    2.14    0.44
  -8  -1  17    0.11    0.17
  -7  -1  17    0.31    0.25
  -6  -1  17   -0.06    0.22
  -5  -1  17    0.62    0.30
  -4  -1  17    1.65    0.41
  -3  -1  17   -0.10    0.19
  -2  -1  17    0.88    0.26
  -1  -1  17   -0.36    0.14
   0  -1  17    0.09    0.18
   1  -1  17   -0.10    0.17
   2  -1  17    0.90    0.29
   3  -1  17    0.04    0.21
   4  -1  17   -0.12    0.21
   5  -1  17    0.04    0.26
   6  -1  17    1.07    0.38
   7  -1  17    0.67    0.41
   8  -1  17   -0.31    0.40
   9  -1  17   -0.36    0.38
  10  -1  17    0.01    0.43
  11  -1  17    0.23    0.52
  12  -1  17   -0.34    0.53
  13  -1  17    0.44    0.66
 -16   0  17    0.26    0.57
 -15   0  17   -0.03    0.32
 -14   0  17   -0.44    0.24
 -13   0  17    0.23    0.30
 -12   0  17    0.15    0.29
 -11   0  17    0.00    0.25
 -10   0  17   -0.02    0.25
  -9   0  17    0.29    0.27
  -8   0  17   -0.22    0.16
  -7   0  17   -0.01    0.19
  -6   0  17    0.05    0.21
  -5   0  17   -0.05    0.19
  -4   0  17    0.01    0.23
  -3   0  17   -0.05    0.22
  -2   0  17    0.04    0.20
  -1   0  17    0.09    0.26
   0   0  17    0.26    0.18
   1   0  17    0.00    0.18
   2   0  17    0.06    0.19
   3   0  17   -0.01    0.18
   4   0  17    0.47    0.25
   5   0  17   -0.07    0.24
   6   0  17   -0.30    0.22
   7   0  17    0.02    0.29
   8   0  17   -0.28    0.24
   9   0  17    0.01    0.34
  10   0  17    0.32    0.51
  11   0  17    0.62    0.56
  12   0  17   -0.01    0.52
  13   0  17    0.05    0.59
 -19   1  17   -0.05    0.63
 -18   1  17    0.60    0.73
 -17   1  17    0.39    0.60
 -16   1  17    0.68    0.62
 -15   1  17    0.20    0.53
 -14   1  17    0.83    0.43
 -13   1  17    0.58    0.32
 -12   1  17    1.26    0.39
 -11   1  17    1.25    0.40
 -10   1  17    0.04    0.22
  -9   1  17    2.12    0.47
  -8   1  17    0.70    0.32
  -7   1  17    0.25    0.35
  -6   1  17    0.13    0.22
  -5   1  17    0.79    0.28
  -4   1  17    0.88    0.32
  -3   1  17    0.03    0.21
  -2   1  17    0.01    0.24
  -1   1  17   -0.11    0.19
   0   1  17    0.41    0.30
   1   1  17   -0.04    0.17
   2   1  17    1.09    0.30
   3   1  17   -0.23    0.18
   4   1  17   -0.16    0.22
   5   1  17    0.21    0.25
   6   1  17    0.77    0.32
   7   1  17    0.11    0.29
   8   1  17   -0.50    0.24
   9   1  17    0.27    0.34
  10   1  17   -0.40    0.40
  11   1  17   -0.06    0.48
  12   1  17   -0.08    0.55
  13   1  17    0.62    0.67
 -18   2  17    0.60    0.62
 -17   2  17    0.16    0.60
 -16   2  17   -0.17    0.54
 -15   2  17   -0.20    0.39
 -14   2  17    1.15    0.63
 -13   2  17    0.09    0.39
 -12   2  17    0.78    0.38
 -11   2  17    5.36    0.72
 -10   2  17    1.94    0.44
  -9   2  17   -0.04    0.21
  -8   2  17   -0.18    0.20
  -7   2  17    0.10    0.35
  -6   2  17    6.83    1.15
  -5   2  17   15.03    1.13
  -4   2  17    4.30    0.56
  -3   2  17    1.47    0.39
  -2   2  17    0.70    0.35
  -1   2  17    6.73    0.81
   0   2  17    4.41    0.65
   1   2  17    8.30    0.75
   2   2  17    1.19    0.35
   3   2  17    0.45    0.26
   4   2  17   -0.06    0.20
   5   2  17    2.47    0.49
   6   2  17    4.55    0.65
   7   2  17    4.44    0.66
   8   2  17    0.20    0.31
   9   2  17   -0.34    0.29
  10   2  17    0.06    0.36
  11   2  17    0.85    0.50
  12   2  17    0.82    0.64
  13   2  17   -0.04    0.60
 -17   3  17    0.02    0.68
 -16   3  17    1.51    0.75
 -15   3  17    2.63    0.92
 -14   3  17    1.64    0.80
 -13   3  17    0.21    0.52
 -12   3  17    1.45    0.67
 -11   3  17    2.65    0.87
 -10   3  17   -0.03    0.27
  -9   3  17    7.80    0.85
  -8   3  17    0.19    0.25
  -7   3  17   -0.04    0.33
  -6   3  17    3.47    0.85
  -5   3  17    6.74    1.12
  -4   3  17    6.31    0.77
  -3   3  17   -0.11    0.22
  -2   3  17    4.54    0.68
  -1   3  17    0.55    0.34
   0   3  17    3.89    0.66
   1   3  17   -0.18    0.26
   2   3  17    0.88    0.32
   3   3  17    1.26    0.38
   4   3  17    0.16    0.28
   5   3  17   -0.19    0.25
   6   3  17    4.22    0.60
   7   3  17    0.22    0.32
   8   3  17    0.03    0.34
   9   3  17    1.79    0.51
  10   3  17    0.02    0.41
  11   3  17    0.07    0.38
  12   3  17    0.33    0.51
 -16   4  17    0.34    0.58
 -15   4  17   -0.28    0.54
 -14   4  17    5.87    1.36
 -13   4  17   -0.16    0.49
 -12   4  17    0.99    0.65
 -11   4  17   10.63    1.63
 -10   4  17    0.58    0.52
  -9   4  17   -0.01    0.30
  -8   4  17   -0.06    0.24
  -7   4  17    4.22    0.64
  -6   4  17    6.60    1.10
  -5   4  17   18.28    1.94
  -4   4  17    3.55    0.88
  -3   4  17    4.40    0.70
  -2   4  17    0.72    0.34
  -1   4  17    5.52    0.78
   0   4  17    9.01    1.02
   1   4  17   15.91    1.38
   2   4  17    2.24    0.56
   3   4  17    0.40    0.33
   4   4  17    2.66    0.52
   5   4  17    3.87    0.64
   6   4  17    7.11    0.83
   7   4  17    7.63    0.86
   8   4  17    0.25    0.35
   9   4  17    0.51    0.43
  10   4  17   -0.04    0.42
  11   4  17    1.18    0.54
 -15   5  17    3.52    1.16
 -14   5  17    4.75    1.28
 -13   5  17    1.50    0.79
 -12   5  17    1.26    0.67
 -11   5  17    9.57    1.55
 -10   5  17    1.26    0.68
  -9   5  17   11.31    1.64
  -8   5  17    2.32    0.79
  -7   5  17    1.62    0.48
  -6   5  17    0.99    0.44
  -5   5  17    1.10    0.60
  -4   5  17    8.07    1.34
  -3   5  17    0.03    0.41
  -2   5  17    0.16    0.34
  -1   5  17    0.12    0.33
   0   5  17    0.85    0.39
   1   5  17    0.46    0.38
   2   5  17    4.31    0.80
   3   5  17    0.07    0.36
   4   5  17    0.14    0.39
   5   5  17    2.66    0.59
   6   5  17    7.40    0.90
   7   5  17    0.16    0.38
   8   5  17    0.66    0.47
   9   5  17    0.69    0.49
  10   5  17    0.28    0.51
 -13   6  17    0.07    0.68
 -12   6  17   -0.39    0.57
 -11   6  17    3.62    1.14
 -10   6  17    0.67    0.66
  -9   6  17   -0.46    0.48
  -8   6  17    0.13    0.45
  -7   6  17   11.27    1.69
  -6   6  17   -0.58    0.35
  -5   6  17    2.56    0.58
  -4   6  17    3.19    0.91
  -3   6  17    2.16    0.80
  -2   6  17    0.33    0.56
  -1   6  17    0.26    0.36
   0   6  17   -0.17    0.36
   1   6  17    3.89    0.79
   2   6  17   -0.18    0.36
   3   6  17    2.13    0.61
   4   6  17    9.46    1.21
   5   6  17    1.43    0.57
   6   6  17    3.70    0.86
   7   6  17    3.33    0.82
   8   6  17   -0.24    0.43
 -11   7  17    3.11    1.10
 -10   7  17    0.99    0.83
  -9   7  17    2.90    1.04
  -8   7  17   -0.44    0.43
  -7   7  17    7.00    1.45
  -6   7  17    4.78    1.22
  -5   7  17    1.29    0.79
  -4   7  17    3.94    1.09
  -3   7  17   -0.28    0.37
  -2   7  17   -0.60    0.47
  -1   7  17   -0.50    0.54
   0   7  17    2.80    0.71
   1   7  17   -0.28    0.43
   2   7  17    0.84    0.55
   3   7  17    0.58    0.49
   4   7  17    1.08    0.57
   5   7  17    0.33    0.52
  -7   8  17    3.56    1.21
  -6   8  17    0.36    0.71
  -5   8  17    2.53    1.07
  -1   8  17    0.37    0.74
   0   8  17   -0.03    0.74
   1   8  17    8.81    1.78
   2   8  17    2.02    1.13
  -6  -8  18    1.56    1.00
  -5  -8  18    5.86    1.56
  -4  -8  18    0.46    0.82
  -3  -8  18    3.75    1.12
  -2  -8  18    1.13    0.91
  -1  -8  18    0.18    0.69
 -11  -7  18    1.02    0.92
 -10  -7  18    4.19    0.87
  -9  -7  18    1.93    0.72
  -8  -7  18   -0.14    0.51
  -7  -7  18   22.04    1.93
  -6  -7  18    1.43    0.50
  -5  -7  18    2.28    0.56
  -4  -7  18   -0.22    0.42
  -3  -7  18   -0.08    0.41
  -2  -7  18   14.33    1.48
  -1  -7  18    2.72    0.72
   0  -7  18    3.29    0.79
   1  -7  18    0.24    0.53
   2  -7  18    4.99    1.00
   3  -7  18    1.60    0.72
   4  -7  18    5.96    1.11
   5  -7  18    1.35    1.25
 -13  -6  18    0.42    1.20
 -12  -6  18    8.31    1.17
 -11  -6  18    5.38    0.95
 -10  -6  18    1.87    0.63
  -9  -6  18   -0.29    0.36
  -8  -6  18    0.02    0.41
  -7  -6  18    8.05    1.08
  -6  -6  18    1.37    0.50
  -5  -6  18    0.61    0.39
  -4  -6  18   -0.01    0.31
  -3  -6  18    3.67    0.61
  -2  -6  18    2.39    0.65
  -1  -6  18    2.15    0.63
   0  -6  18    1.05    0.50
   1  -6  18    7.57    1.09
   2  -6  18    0.31    0.43
   3  -6  18    0.06    0.51
   4  -6  18    6.22    1.10
   5  -6  18    5.51    1.08
   6  -6  18    1.13    0.69
   7  -6  18    1.14    0.75
   8  -6  18    3.14    1.78
 -15  -5  18    2.03    1.13
 -14  -5  18    4.61    1.26
 -13  -5  18   -0.06    0.62
 -12  -5  18    0.17    0.69
 -11  -5  18    9.40    1.08
 -10  -5  18    5.46    0.86
  -9  -5  18   24.41    1.80
  -8  -5  18    3.66    0.69
  -7  -5  18   26.70    1.90
  -6  -5  18    9.83    1.11
  -5  -5  18    7.12    0.73
  -4  -5  18    7.18    0.75
  -3  -5  18    1.24    0.36
  -2  -5  18   22.17    1.38
  -1  -5  18    3.13    0.53
   0  -5  18    3.22    0.68
   1  -5  18    4.17    0.77
   2  -5  18   15.25    1.51
   3  -5  18    3.44    0.77
   4  -5  18   18.41    1.74
   5  -5  18    9.58    1.29
   6  -5  18    2.33    0.84
   7  -5  18    3.77    0.95
   8  -5  18    8.01    1.38
   9  -5  18    0.00    0.60
 -16  -4  18   -0.29    0.56
 -15  -4  18    6.51    1.38
 -14  -4  18    0.01    0.63
 -13  -4  18    7.36    1.48
 -12  -4  18    9.76    1.62
 -11  -4  18    9.95    1.09
 -10  -4  18    4.23    0.71
  -9  -4  18    0.10    0.31
  -8  -4  18    1.32    0.45
  -7  -4  18   14.58    1.31
  -6  -4  18    1.72    0.51
  -5  -4  18    1.35    0.48
  -4  -4  18    0.97    0.32
  -3  -4  18    6.83    0.69
  -2  -4  18    0.30    0.25
  -1  -4  18    4.21    0.57
   0  -4  18    1.99    0.44
   1  -4  18   33.73    1.57
   2  -4  18    1.15    0.46
   3  -4  18    0.86    0.47
   4  -4  18   12.93    1.37
   5  -4  18    5.93    1.00
   6  -4  18    5.37    0.95
   7  -4  18    5.77    1.07
   8  -4  18    1.91    0.76
   9  -4  18   10.51    1.52
  10  -4  18    5.94    1.24
 -17  -3  18   12.74    1.89
 -16  -3  18    0.01    0.54
 -15  -3  18    4.74    1.22
 -14  -3  18   23.93    2.59
 -13  -3  18    8.25    1.48
 -12  -3  18    3.90    1.02
 -11  -3  18   -0.04    0.44
 -10  -3  18    8.48    0.94
  -9  -3  18   30.53    1.65
  -8  -3  18   16.31    1.29
  -7  -3  18   52.72    2.28
  -6  -3  18    0.82    0.37
  -5  -3  18    0.56    0.35
  -4  -3  18    8.99    0.98
  -3  -3  18   18.86    1.03
  -2  -3  18   17.66    1.01
  -1  -3  18   92.81    2.89
   0  -3  18   55.85    2.01
   1  -3  18    2.30    0.43
   2  -3  18    0.52    0.30
   3  -3  18   48.41    1.92
   4  -3  18    0.86    0.45
   5  -3  18    0.05    0.39
   6  -3  18    7.59    1.10
   7  -3  18   -0.07    0.42
   8  -3  18    1.03    0.59
   9  -3  18    1.31    0.74
  10  -3  18    5.71    1.16
  11  -3  18   -0.49    0.57
 -18  -2  18    8.08    1.55
 -17  -2  18    0.65    0.62
 -16  -2  18   15.17    1.98
 -15  -2  18   13.51    1.83
 -14  -2  18    1.43    0.71
 -13  -2  18   30.96    2.83
 -12  -2  18   14.14    1.83
 -11  -2  18    2.33    0.77
 -10  -2  18    7.02    1.30
  -9  -2  18    0.34    0.27
  -8  -2  18    4.41    0.64
  -7  -2  18   19.00    1.24
  -6  -2  18    2.26    0.48
  -5  -2  18    1.38    0.42
  -4  -2  18    8.11    0.92
  -3  -2  18   10.16    1.01
  -2  -2  18    1.41    0.30
  -1  -2  18    7.48    0.66
   0  -2  18    3.21    0.45
   1  -2  18   78.71    2.58
   2  -2  18    2.10    0.41
   3  -2  18   10.87    0.93
   4  -2  18   29.35    1.43
   5  -2  18    5.65    0.91
   6  -2  18   22.80    1.88
   7  -2  18   13.07    1.46
   8  -2  18    0.48    0.52
   9  -2  18   15.49    1.66
  10  -2  18   12.99    1.58
  11  -2  18    0.42    0.60
  12  -2  18    0.18    0.63
 -16  -1  18    5.98    1.22
 -15  -1  18   19.05    2.12
 -14  -1  18    5.00    1.11
 -13  -1  18    9.80    1.49
 -12  -1  18    1.05    0.58
 -11  -1  18   18.52    1.32
 -10  -1  18    9.56    0.92
  -9  -1  18  124.92    4.39
  -8  -1  18   11.41    0.77
  -7  -1  18   35.75    1.71
  -6  -1  18    2.06    0.46
  -5  -1  18    9.14    0.92
  -4  -1  18   71.43    2.86
  -3  -1  18    6.30    0.75
  -2  -1  18   13.79    1.19
  -1  -1  18   89.74    3.42
   0  -1  18   33.36    1.33
   1  -1  18   13.91    0.94
   2  -1  18    2.79    0.43
   3  -1  18   59.67    2.11
   4  -1  18    0.10    0.24
   5  -1  18    6.34    0.69
   6  -1  18   14.14    1.11
   7  -1  18    1.26    0.55
   8  -1  18    3.01    0.74
   9  -1  18    5.32    0.98
  10  -1  18   -0.50    0.39
  11  -1  18    2.91    0.83
  12  -1  18   16.63    1.79
  13  -1  18   -0.11    0.95
 -16   0  18    4.22    1.23
 -15   0  18   50.84    2.34
 -14   0  18    5.83    0.79
 -13   0  18    3.49    0.61
 -12   0  18    0.22    0.30
 -11   0  18   13.52    1.14
 -10   0  18   71.71    2.88
  -9   0  18    7.01    0.79
  -8   0  18    1.07    0.36
  -7   0  18  114.00    4.01
  -6   0  18    1.36    0.36
  -5   0  18   18.51    1.32
  -4   0  18    0.96    0.35
  -3   0  18    0.49    0.30
  -2   0  18   16.38    1.23
  -1   0  18   35.05    1.76
   0   0  18   35.03    1.76
   1   0  18   18.77    1.03
   2   0  18    2.31    0.40
   3   0  18   -0.16    0.20
   4   0  18   93.58    2.96
   5   0  18   13.40    0.98
   6   0  18    0.26    0.30
   7   0  18    5.30    0.69
   8   0  18    5.57    0.72
   9   0  18   66.24    3.17
  10   0  18   18.88    1.86
  11   0  18   17.82    1.81
  12   0  18    0.50    0.58
  13   0  18    1.50    0.67
 -19   1  18    7.25    1.50
 -18   1  18    2.97    0.96
 -17   1  18   11.29    1.77
 -16   1  18    5.48    1.23
 -15   1  18   14.52    1.83
 -14   1  18    3.05    0.57
 -13   1  18    8.77    0.95
 -12   1  18    1.77    0.47
 -11   1  18   17.44    1.33
 -10   1  18   10.12    0.97
  -9   1  18  123.04    4.43
  -8   1  18   10.67    1.47
  -7   1  18   37.06    2.55
  -6   1  18    2.38    0.45
  -5   1  18   10.15    0.93
  -4   1  18   71.31    2.81
  -3   1  18    8.78    0.88
  -2   1  18   14.62    1.19
  -1   1  18   85.96    3.36
   0   1  18   35.53    1.76
   1   1  18   15.60    1.28
   2   1  18    2.69    0.45
   3   1  18   60.51    2.12
   4   1  18    0.11    0.26
   5   1  18    7.21    0.75
   6   1  18   16.36    1.18
   7   1  18    0.79    0.36
   8   1  18    3.40    0.56
   9   1  18    2.86    0.55
  10   1  18    0.56    0.50
  11   1  18    3.88    0.90
  12   1  18   19.77    1.97
  13   1  18   -0.04    0.58
 -18   2  18    7.72    1.52
 -17   2  18    0.19    0.66
 -16   2  18   12.17    1.80
 -15   2  18   11.11    1.69
 -14   2  18    1.65    0.78
 -13   2  18   27.20    2.60
 -12   2  18   14.36    1.24
 -11   2  18    5.20    0.71
 -10   2  18    7.64    0.87
  -9   2  18    0.37    0.29
  -8   2  18    4.33    0.63
  -7   2  18   21.75    2.06
  -6   2  18    3.10    0.78
  -5   2  18    2.26    0.47
  -4   2  18    8.91    0.88
  -3   2  18    7.80    0.87
  -2   2  18    0.78    0.34
  -1   2  18    5.83    0.80
   0   2  18    3.08    0.57
   1   2  18   81.52    3.24
   2   2  18    2.31    0.56
   3   2  18   13.61    1.01
   4   2  18   26.41    1.45
   5   2  18    4.84    0.65
   6   2  18   17.23    1.25
   7   2  18   11.44    1.06
   8   2  18    0.37    0.36
   9   2  18   13.28    1.16
  10   2  18   12.38    1.14
  11   2  18    0.42    0.50
  12   2  18    0.49    0.62
 -17   3  18   16.07    2.19
 -16   3  18   -0.64    0.48
 -15   3  18    7.63    1.46
 -14   3  18   17.83    2.22
 -13   3  18    7.02    1.30
 -12   3  18    6.38    1.22
 -11   3  18    0.76    0.64
 -10   3  18   10.50    1.05
  -9   3  18   25.02    1.51
  -8   3  18   12.56    1.15
  -7   3  18   47.44    3.05
  -6   3  18    1.48    0.63
  -5   3  18    1.31    0.58
  -4   3  18   10.01    1.00
  -3   3  18   16.15    1.32
  -2   3  18   18.61    1.43
  -1   3  18   92.47    3.57
   0   3  18   51.85    2.43
   1   3  18    3.40    0.65
   2   3  18    0.13    0.31
   3   3  18   41.05    2.21
   4   3  18   -0.41    0.25
   5   3  18   -0.29    0.26
   6   3  18    6.09    0.76
   7   3  18    0.61    0.38
   8   3  18    0.64    0.43
   9   3  18    1.45    0.51
  10   3  18    5.42    0.82
  11   3  18   -0.37    0.44
  12   3  18   21.42    2.17
 -16   4  18    2.45    0.98
 -15   4  18    7.04    1.49
 -14   4  18    0.44    0.66
 -13   4  18    4.44    1.13
 -12   4  18   10.60    1.66
 -11   4  18    5.01    1.20
 -10   4  18    2.98    0.88
  -9   4  18    0.05    0.30
  -8   4  18    1.29    0.44
  -7   4  18   13.32    1.20
  -6   4  18    1.33    0.59
  -5   4  18    2.60    0.75
  -4   4  18    0.82    0.54
  -3   4  18    6.17    0.84
  -2   4  18    0.48    0.35
  -1   4  18    5.14    0.79
   0   4  18    2.46    0.62
   1   4  18   28.88    2.03
   2   4  18    0.87    0.40
   3   4  18    0.17    0.30
   4   4  18   13.34    1.34
   5   4  18    6.35    0.84
   6   4  18    6.09    0.80
   7   4  18    6.49    0.85
   8   4  18    1.53    0.49
   9   4  18    7.83    0.99
  10   4  18    6.46    0.93
  11   4  18   -0.23    0.49
 -14   5  18    5.12    1.34
 -13   5  18    0.27    0.60
 -12   5  18    0.39    0.59
 -11   5  18    7.98    1.46
 -10   5  18    6.33    1.32
  -9   5  18   22.18    2.46
  -8   5  18    1.64    0.67
  -7   5  18   25.33    1.78
  -6   5  18   10.83    1.12
  -5   5  18    5.76    1.12
  -4   5  18    5.84    1.19
  -3   5  18    0.97    0.57
  -2   5  18   21.09    1.65
  -1   5  18    4.27    0.73
   0   5  18    5.78    0.88
   1   5  18    2.78    0.61
   2   5  18   17.85    1.57
   3   5  18    2.65    0.67
   4   5  18   16.45    1.58
   5   5  18    7.59    1.07
   6   5  18    3.27    0.75
   7   5  18    4.97    0.94
   8   5  18    9.28    1.08
   9   5  18    1.40    0.56
  10   5  18    0.44    1.09
 -13   6  18    0.47    0.89
 -12   6  18    5.45    1.42
 -11   6  18    6.00    1.39
 -10   6  18    0.27    0.59
  -9   6  18    0.16    0.57
  -8   6  18    0.27    0.62
  -7   6  18    6.79    1.34
  -6   6  18    1.92    0.81
  -5   6  18    0.98    0.47
  -4   6  18    0.33    0.56
  -3   6  18    5.39    1.15
  -2   6  18    1.93    0.81
  -1   6  18    1.84    0.58
   0   6  18    0.76    0.44
   1   6  18    7.14    1.02
   2   6  18    1.24    0.52
   3   6  18    1.13    0.58
   4   6  18    6.58    0.98
   5   6  18    4.79    0.91
   6   6  18    0.80    0.56
   7   6  18    0.60    0.62
 -10   7  18    3.24    1.01
  -9   7  18    0.68    0.69
  -8   7  18    0.53    0.68
  -7   7  18   19.38    2.43
  -6   7  18    1.66    0.79
  -5   7  18    2.25    0.98
  -4   7  18    0.15    0.63
  -3   7  18    0.15    0.61
  -2   7  18   18.01    2.20
  -1   7  18    0.98    0.79
   0   7  18    3.85    0.84
   1   7  18    0.20    0.45
   2   7  18    3.00    0.79
   3   7  18    0.94    0.56
   4   7  18    8.13    1.24
  -6   8  18    1.04    0.97
  -5   8  18    6.56    1.49
  -1   8  18    0.26    0.76
   0   8  18    1.02    0.87
 -10  -7  19    0.80    0.83
  -9  -7  19   -0.07    0.53
  -8  -7  19    0.45    0.59
  -7  -7  19    0.03    0.51
  -6  -7  19    4.06    0.90
  -5  -7  19    0.66    0.57
  -4  -7  19    1.75    0.64
  -3  -7  19    3.64    0.85
  -2  -7  19   13.01    1.46
  -1  -7  19    4.25    0.91
   0  -7  19    5.75    1.03
   1  -7  19   -0.09    0.48
   2  -7  19   -0.51    0.50
   3  -7  19    0.68    0.63
   4  -7  19   -0.33    0.89
 -12  -6  19    0.12    0.51
 -11  -6  19    7.43    1.04
 -10  -6  19    6.75    1.00
  -9  -6  19   -0.26    0.38
  -8  -6  19    0.70    0.52
  -7  -6  19    3.25    0.78
  -6  -6  19    3.29    0.78
  -5  -6  19    4.20    0.80
  -4  -6  19    0.88    0.42
  -3  -6  19    1.29    0.45
  -2  -6  19    3.20    0.72
  -1  -6  19    0.04    0.41
   0  -6  19    7.39    1.06
   1  -6  19    2.80    0.71
   2  -6  19    0.29    0.48
   3  -6  19    0.05    0.50
   4  -6  19    0.21    0.52
   5  -6  19    1.97    0.73
   6  -6  19    9.98    1.49
   7  -6  19    0.85    1.41
 -14  -5  19    2.04    0.98
 -13  -5  19    1.93    0.86
 -12  -5  19    1.58    0.84
 -11  -5  19    0.13    0.42
 -10  -5  19    0.25    0.42
  -9  -5  19    0.15    0.39
  -8  -5  19    0.96    0.47
  -7  -5  19    0.30    0.36
  -6  -5  19   15.63    1.45
  -5  -5  19    0.09    0.38
  -4  -5  19    2.81    0.54
  -3  -5  19   15.72    1.17
  -2  -5  19   12.13    1.00
  -1  -5  19    0.19    0.33
   0  -5  19    5.84    0.91
   1  -5  19   -0.06    0.32
   2  -5  19    0.25    0.36
   3  -5  19   -0.35    0.36
   4  -5  19    1.66    0.64
   5  -5  19   -0.02    0.46
   6  -5  19    0.30    0.59
   7  -5  19   -0.29    0.62
   8  -5  19    4.00    1.13
   9  -5  19    0.52    1.40
 -16  -4  19    0.88    0.76
 -15  -4  19   -0.14    0.58
 -14  -4  19   -0.65    0.55
 -13  -4  19    6.47    1.44
 -12  -4  19    1.19    0.71
 -11  -4  19    5.33    1.27
 -10  -4  19    4.44    0.74
  -9  -4  19    0.47    0.39
  -8  -4  19    3.39    0.68
  -7  -4  19    7.67    0.96
  -6  -4  19    6.12    0.90
  -5  -4  19    6.81    0.92
  -4  -4  19    6.63    0.90
  -3  -4  19    0.74    0.32
  -2  -4  19    2.91    0.50
  -1  -4  19   -0.36    0.24
   0  -4  19   10.84    0.96
   1  -4  19   14.35    1.12
   2  -4  19   -0.32    0.32
   3  -4  19    1.54    0.56
   4  -4  19   -0.21    0.40
   5  -4  19    2.90    0.75
   6  -4  19   17.06    1.71
   7  -4  19    3.06    0.89
   8  -4  19   -0.40    0.51
   9  -4  19    1.63    0.84
  10  -4  19    0.34    0.65
 -17  -3  19    0.12    0.62
 -16  -3  19   -0.30    0.49
 -15  -3  19    3.53    1.09
 -14  -3  19    4.88    1.26
 -13  -3  19    4.50    1.14
 -12  -3  19    7.79    1.41
 -11  -3  19   -0.48    0.34
 -10  -3  19    1.40    0.45
  -9  -3  19    0.66    0.35
  -8  -3  19    0.79    0.36
  -7  -3  19    1.38    0.47
  -6  -3  19    6.82    0.87
  -5  -3  19    0.12    0.27
  -4  -3  19    0.22    0.33
  -3  -3  19    4.12    0.71
  -2  -3  19   11.04    0.89
  -1  -3  19    0.76    0.32
   0  -3  19    9.36    0.82
   1  -3  19    1.45    0.38
   2  -3  19    0.88    0.35
   3  -3  19    0.01    0.34
   4  -3  19    0.19    0.32
   5  -3  19    1.83    0.62
   6  -3  19    0.77    0.54
   7  -3  19    2.75    0.80
   8  -3  19    2.86    0.82
   9  -3  19   -0.21    0.51
  10  -3  19   -0.36    0.53
  11  -3  19    1.30    0.81
 -18  -2  19    0.67    0.75
 -17  -2  19    0.06    0.52
 -16  -2  19    0.48    0.67
 -15  -2  19    0.23    0.45
 -14  -2  19   -0.08    0.46
 -13  -2  19    5.28    1.15
 -12  -2  19    2.17    0.77
 -11  -2  19    2.02    0.83
 -10  -2  19    0.33    0.49
  -9  -2  19    0.77    0.35
  -8  -2  19    2.42    0.50
  -7  -2  19    3.14    0.57
  -6  -2  19    3.34    0.58
  -5  -2  19    2.97    0.58
  -4  -2  19    6.93    0.85
  -3  -2  19    0.04    0.27
  -2  -2  19    0.93    0.42
  -1  -2  19    0.75    0.36
   0  -2  19    7.34    0.70
   1  -2  19   13.20    0.95
   2  -2  19    0.21    0.24
   3  -2  19    1.47    0.35
   4  -2  19    0.54    0.32
   5  -2  19    1.09    0.49
   6  -2  19   12.83    1.39
   7  -2  19    3.06    0.70
   8  -2  19    0.15    0.44
   9  -2  19    0.34    0.50
  10  -2  19   -0.14    0.49
  11  -2  19    0.33    0.59
  12  -2  19    0.47    0.82
 -17  -1  19    0.59    0.71
 -16  -1  19   -0.16    0.55
 -15  -1  19    0.28    0.57
 -14  -1  19    0.89    0.60
 -13  -1  19    0.10    0.46
 -12  -1  19    0.74    0.61
 -11  -1  19   -0.24    0.25
 -10  -1  19    0.14    0.27
  -9  -1  19   -0.19    0.27
  -8  -1  19    0.20    0.20
  -7  -1  19    0.00    0.25
  -6  -1  19    1.61    0.40
  -5  -1  19    0.08    0.25
  -4  -1  19   -0.13    0.24
  -3  -1  19    1.13    0.41
  -2  -1  19    0.84    0.36
  -1  -1  19    0.06    0.27
   0  -1  19    0.99    0.37
   1  -1  19   -0.16    0.17
   2  -1  19   -0.05    0.20
   3  -1  19    0.19    0.23
   4  -1  19    0.12    0.25
   5  -1  19    0.39    0.29
   6  -1  19    0.01    0.28
   7  -1  19    0.25    0.43
   8  -1  19    0.88    0.49
   9  -1  19   -0.19    0.42
  10  -1  19    0.15    0.50
  11  -1  19    0.34    0.59
  12  -1  19    0.37    0.60
 -15   0  19    0.05    0.36
 -14   0  19   -0.17    0.32
 -13   0  19    0.25    0.33
 -12   0  19   -0.19    0.29
 -11   0  19   -0.21    0.27
 -10   0  19   -0.10    0.25
  -9   0  19    0.23    0.24
  -8   0  19   -0.05    0.32
  -7   0  19   -0.18    0.18
  -6   0  19   -0.05    0.23
  -5   0  19   -0.06    0.21
  -4   0  19   -0.21    0.18
  -3   0  19   -0.26    0.19
  -2   0  19   -0.25    0.21
  -1   0  19   -0.23    0.22
   0   0  19    0.45    0.33
   1   0  19    0.27    0.30
   2   0  19   -0.16    0.20
   3   0  19    0.12    0.23
   4   0  19   -0.01    0.23
   5   0  19    0.13    0.25
   6   0  19   -0.12    0.25
   7   0  19    0.16    0.32
   8   0  19    0.33    0.46
   9   0  19    0.06    0.47
  10   0  19    0.10    0.44
  11   0  19   -0.05    0.46
  12   0  19    0.02    0.56
 -18   1  19   -0.42    0.60
 -17   1  19   -0.05    0.59
 -16   1  19    0.07    0.58
 -15   1  19    0.41    0.58
 -14   1  19    0.19    0.34
 -13   1  19    0.67    0.35
 -12   1  19    0.54    0.34
 -11   1  19   -0.05    0.28
 -10   1  19   -0.16    0.23
  -9   1  19   -0.30    0.24
  -8   1  19   -0.39    0.27
  -7   1  19    0.66    0.52
  -6   1  19    2.28    0.47
  -5   1  19   -0.10    0.22
  -4   1  19    0.31    0.25
  -3   1  19    1.19    0.41
  -2   1  19    0.96    0.33
  -1   1  19    0.11    0.27
   0   1  19    1.06    0.38
   1   1  19   -0.08    0.27
   2   1  19    0.08    0.28
   3   1  19    0.04    0.23
   4   1  19    0.21    0.25
   5   1  19   -0.13    0.24
   6   1  19   -0.01    0.28
   7   1  19    0.26    0.32
   8   1  19    0.94    0.43
   9   1  19   -0.01    0.34
  10   1  19    0.02    0.48
  11   1  19   -0.03    0.52
  12   1  19   -0.12    0.57
 -18   2  19    0.96    0.80
 -17   2  19    0.19    0.66
 -16   2  19    0.68    0.69
 -15   2  19   -0.16    0.52
 -14   2  19    0.21    0.48
 -13   2  19    4.03    1.08
 -12   2  19    1.11    0.46
 -11   2  19    3.64    0.64
 -10   2  19    1.98    0.51
  -9   2  19    0.99    0.40
  -8   2  19    3.62    0.90
  -7   2  19    3.66    0.88
  -6   2  19    4.09    0.96
  -5   2  19    3.94    0.57
  -4   2  19    8.27    0.90
  -3   2  19   -0.07    0.26
  -2   2  19    0.80    0.37
  -1   2  19    0.52    0.32
   0   2  19    7.86    0.91
   1   2  19   12.24    1.19
   2   2  19    0.24    0.33
   3   2  19    1.42    0.46
   4   2  19   -0.04    0.25
   5   2  19    0.67    0.33
   6   2  19   10.41    0.97
   7   2  19    2.72    0.54
   8   2  19    0.17    0.35
   9   2  19    0.73    0.41
  10   2  19   -0.40    0.36
  11   2  19    0.05    0.59
  12   2  19   -0.46    0.75
 -17   3  19    0.76    0.77
 -16   3  19   -0.32    0.55
 -15   3  19    2.13    0.89
 -14   3  19    5.57    1.26
 -13   3  19    5.45    1.22
 -12   3  19    4.50    1.09
 -11   3  19   -0.26    0.29
 -10   3  19    0.16    0.31
  -9   3  19    1.71    0.45
  -8   3  19    0.58    0.35
  -7   3  19    0.47    0.43
  -6   3  19    5.81    1.12
  -5   3  19    0.01    0.38
  -4   3  19   -0.05    0.29
  -3   3  19    4.01    0.65
  -2   3  19   12.80    1.17
  -1   3  19    0.76    0.39
   0   3  19    7.44    0.93
   1   3  19    1.38    0.48
   2   3  19    0.78    0.39
   3   3  19    0.41    0.38
   4   3  19   -0.05    0.28
   5   3  19    0.82    0.47
   6   3  19   -0.12    0.30
   7   3  19    1.26    0.46
   8   3  19    4.39    0.69
   9   3  19   -0.38    0.37
  10   3  19   -0.16    0.40
  11   3  19    1.20    0.52
 -16   4  19    0.38    0.78
 -15   4  19    0.48    0.67
 -14   4  19    0.35    0.57
 -13   4  19    8.41    1.56
 -12   4  19    0.88    0.68
 -11   4  19    4.46    1.09
 -10   4  19    5.40    1.15
  -9   4  19   -0.13    0.30
  -8   4  19    2.46    0.54
  -7   4  19   11.29    1.55
  -6   4  19    4.83    1.04
  -5   4  19    4.90    1.11
  -4   4  19    8.28    1.32
  -3   4  19    0.36    0.34
  -2   4  19    2.29    0.57
  -1   4  19   -0.17    0.27
   0   4  19   11.39    1.19
   1   4  19   12.22    1.29
   2   4  19   -0.13    0.31
   3   4  19    1.46    0.49
   4   4  19   -0.12    0.38
   5   4  19    1.63    0.59
   6   4  19   16.47    1.58
   7   4  19    3.29    0.71
   8   4  19    0.87    0.47
   9   4  19    0.94    0.51
  10   4  19    0.19    0.52
 -14   5  19    1.20    0.81
 -13   5  19    3.14    1.04
 -12   5  19    2.73    0.98
 -11   5  19    0.02    0.50
 -10   5  19    0.02    0.43
  -9   5  19    0.36    0.53
  -8   5  19    0.41    0.53
  -7   5  19    0.41    0.36
  -6   5  19   15.01    1.89
  -5   5  19    0.34    0.47
  -4   5  19    3.40    0.93
  -3   5  19   11.51    1.73
  -2   5  19   11.58    1.21
  -1   5  19   -0.17    0.30
   0   5  19    6.24    0.92
   1   5  19    0.25    0.37
   2   5  19   -0.58    0.28
   3   5  19   -0.26    0.33
   4   5  19    2.10    0.62
   5   5  19    0.61    0.46
   6   5  19   -0.05    0.43
   7   5  19    0.21    0.45
   8   5  19    3.84    0.88
 -12   6  19   -0.16    0.69
 -11   6  19    5.92    1.39
 -10   6  19    3.43    1.09
  -9   6  19    0.23    0.64
  -8   6  19    0.92    0.71
  -7   6  19    3.44    1.06
  -6   6  19    3.40    1.02
  -5   6  19    5.08    0.84
  -4   6  19    0.88    0.64
  -3   6  19    2.29    0.85
  -2   6  19    2.73    0.90
  -1   6  19    0.39    0.42
   0   6  19    7.60    1.07
   1   6  19    4.27    0.82
   2   6  19    0.87    0.48
   3   6  19   -0.35    0.42
   4   6  19    0.48    0.52
   5   6  19    2.51    0.75
   6   6  19    9.19    1.31
  -9   7  19    0.24    0.60
  -8   7  19    1.40    0.84
  -7   7  19    0.41    0.68
  -6   7  19    2.96    1.02
  -5   7  19    1.02    0.79
  -4   7  19    2.01    0.94
  -3   7  19    6.21    1.38
  -2   7  19   10.56    1.76
  -1   7  19    3.77    1.20
   0   7  19    4.16    1.15
   1   7  19   -0.14    0.50
   2   7  19    0.52    0.55
   3   7  19    2.11    0.74
   4   7  19    0.26    1.00
  -9  -7  20   17.65    2.04
  -8  -7  20    4.26    0.97
  -7  -7  20    0.59    0.60
  -6  -7  20    2.71    0.82
  -5  -7  20   33.42    2.51
  -4  -7  20   -0.34    0.68
  -3  -7  20   -0.13    0.44
  -2  -7  20   32.55    2.34
  -1  -7  20    2.75    0.81
   0  -7  20    0.10    0.52
   1  -7  20    0.39    0.58
   2  -7  20    4.29    1.10
   3  -7  20   15.24    2.71
 -11  -6  20   12.02    1.41
 -10  -6  20    8.07    1.16
  -9  -6  20    2.07    0.66
  -8  -6  20    2.20    0.69
  -7  -6  20   -0.11    0.45
  -6  -6  20    8.87    1.24
  -5  -6  20    1.65    0.53
  -4  -6  20    0.36    0.48
  -3  -6  20    3.77    0.89
  -2  -6  20    1.65    0.60
  -1  -6  20    1.20    0.52
   0  -6  20    2.42    0.69
   1  -6  20   -0.23    0.42
   2  -6  20    8.19    1.18
   3  -6  20   12.78    1.52
   4  -6  20   -0.09    0.48
   5  -6  20    1.57    0.73
   6  -6  20   10.78    1.56
 -14  -5  20   -0.14    0.81
 -13  -5  20   10.80    1.94
 -12  -5  20    1.06    0.86
 -11  -5  20    0.16    0.47
 -10  -5  20    3.76    0.74
  -9  -5  20   17.71    1.58
  -8  -5  20    3.06    0.67
  -7  -5  20    0.98    0.45
  -6  -5  20   15.61    1.47
  -5  -5  20   79.87    3.44
  -4  -5  20    1.59    0.58
  -3  -5  20    9.68    1.19
  -2  -5  20   28.95    1.56
  -1  -5  20   18.51    1.30
   0  -5  20    4.12    0.77
   1  -5  20   -0.67    0.30
   2  -5  20    0.60    0.50
   3  -5  20   16.35    1.66
   4  -5  20    0.52    0.53
   5  -5  20    0.98    0.62
   6  -5  20   13.43    1.68
   7  -5  20    1.15    0.77
   8  -5  20   -0.15    0.66
 -15  -4  20    0.03    0.71
 -14  -4  20    0.67    0.66
 -13  -4  20   27.21    2.97
 -12  -4  20    5.16    1.28
 -11  -4  20    6.78    1.41
 -10  -4  20    8.35    1.06
  -9  -4  20   -0.01    0.32
  -8  -4  20   20.52    1.64
  -7  -4  20    1.04    0.47
  -6  -4  20    3.37    0.70
  -5  -4  20    0.82    0.44
  -4  -4  20    0.05    0.29
  -3  -4  20    1.24    0.48
  -2  -4  20    0.93    0.48
  -1  -4  20   -0.26    0.26
   0  -4  20    1.32    0.41
   1  -4  20    0.03    0.35
   2  -4  20   22.44    1.79
   3  -4  20    5.55    0.92
   4  -4  20   -0.46    0.38
   5  -4  20   -0.07    0.40
   6  -4  20   32.10    2.51
   7  -4  20    1.89    0.69
   8  -4  20   10.05    1.47
   9  -4  20    1.04    0.70
 -17  -3  20    8.43    1.62
 -16  -3  20    2.14    0.93
 -15  -3  20    7.00    1.46
 -14  -3  20    0.98    0.70
 -13  -3  20   38.89    2.99
 -12  -3  20    1.91    0.84
 -11  -3  20    5.04    1.20
 -10  -3  20    2.22    0.84
  -9  -3  20   72.53    3.05
  -8  -3  20   -0.20    0.27
  -7  -3  20    0.04    0.27
  -6  -3  20   11.30    1.13
  -5  -3  20   72.39    3.14
  -4  -3  20    3.42    0.67
  -3  -3  20   37.99    2.01
  -2  -3  20   62.98    2.84
  -1  -3  20    9.03    1.11
   0  -3  20   17.67    1.20
   1  -3  20    7.16    0.76
   2  -3  20    0.69    0.35
   3  -3  20   23.46    1.81
   4  -3  20   10.67    1.21
   5  -3  20   10.33    1.30
   6  -3  20    3.12    0.76
   7  -3  20   12.08    1.48
   8  -3  20    0.48    0.60
   9  -3  20    3.33    0.93
  10  -3  20    0.30    0.68
 -17  -2  20   10.25    1.78
 -16  -2  20    1.20    0.76
 -15  -2  20   -0.50    0.44
 -14  -2  20    0.28    0.54
 -13  -2  20   84.38    4.94
 -12  -2  20    3.88    1.05
 -11  -2  20    1.84    0.76
 -10  -2  20    1.98    0.77
  -9  -2  20    6.12    0.86
  -8  -2  20   62.85    2.74
  -7  -2  20    6.13    0.81
  -6  -2  20   -0.09    0.28
  -5  -2  20    2.19    0.50
  -4  -2  20    0.93    0.39
  -3  -2  20    0.14    0.32
  -2  -2  20    0.07    0.27
  -1  -2  20   -0.14    0.32
   0  -2  20    0.26    0.35
   1  -2  20    0.24    0.28
   2  -2  20   38.98    1.65
   3  -2  20    2.58    0.50
   4  -2  20    2.86    0.56
   5  -2  20   12.84    1.35
   6  -2  20   68.62    3.14
   7  -2  20    3.18    0.76
   8  -2  20    7.95    1.21
   9  -2  20   -0.14    0.51
  10  -2  20    0.82    0.66
  11  -2  20   16.90    1.87
 -17  -1  20   33.34    3.10
 -16  -1  20    0.40    0.61
 -15  -1  20    6.17    1.27
 -14  -1  20    0.53    0.59
 -13  -1  20   40.77    2.93
 -12  -1  20    3.63    0.94
 -11  -1  20   10.44    1.55
 -10  -1  20    0.64    0.36
  -9  -1  20   33.94    1.71
  -8  -1  20    1.99    0.47
  -7  -1  20   23.92    1.44
  -6  -1  20   45.47    2.10
  -5  -1  20  118.91    4.38
  -4  -1  20    4.71    0.72
  -3  -1  20  114.74    4.37
  -2  -1  20   16.06    1.35
  -1  -1  20   55.62    2.54
   0  -1  20   36.56    1.95
   1  -1  20    0.01    0.28
   2  -1  20    6.65    0.67
   3  -1  20    7.45    0.74
   4  -1  20    0.12    0.28
   5  -1  20   21.64    1.37
   6  -1  20   16.13    1.53
   7  -1  20    2.23    0.65
   8  -1  20    0.25    0.47
   9  -1  20   24.65    2.05
  10  -1  20    1.34    0.68
  11  -1  20    0.40    0.60
  12  -1  20    0.51    1.11
 -15   0  20    0.41    0.59
 -14   0  20    4.79    0.77
 -13   0  20   45.39    2.14
 -12   0  20    2.53    0.57
 -11   0  20   23.16    1.59
 -10   0  20   11.54    1.08
  -9   0  20    0.75    0.35
  -8   0  20   21.45    2.17
  -7   0  20    2.28    0.48
  -6   0  20   11.29    1.05
  -5   0  20    4.38    0.65
  -4   0  20    0.66    0.34
  -3   0  20   23.98    1.50
  -2   0  20   13.98    1.25
  -1   0  20    3.08    0.60
   0   0  20   15.15    1.31
   1   0  20    1.17    0.45
   2   0  20    8.34    1.02
   3   0  20   25.78    1.27
   4   0  20    4.15    0.59
   5   0  20    0.06    0.26
   6   0  20   39.65    1.79
   7   0  20    0.17    0.32
   8   0  20   29.58    2.24
   9   0  20    0.16    0.46
  10   0  20    0.84    0.57
  11   0  20    4.79    1.02
  12   0  20   -0.59    0.54
 -18   1  20   12.52    1.98
 -17   1  20   33.63    3.13
 -16   1  20    0.18    0.67
 -15   1  20    4.69    1.10
 -14   1  20    0.49    0.40
 -13   1  20   35.88    1.90
 -12   1  20    4.37    0.70
 -11   1  20    5.14    0.73
 -10   1  20    0.47    0.33
  -9   1  20   37.23    1.81
  -8   1  20    1.96    0.72
  -7   1  20   22.72    2.25
  -6   1  20   46.19    2.06
  -5   1  20  118.74    4.32
  -4   1  20    3.28    0.57
  -3   1  20  122.46    4.38
  -2   1  20   16.05    1.34
  -1   1  20   55.90    2.52
   0   1  20   39.97    1.99
   1   1  20    0.17    0.28
   2   1  20    5.61    0.83
   3   1  20    4.84    0.78
   4   1  20    0.35    0.27
   5   1  20   21.63    1.37
   6   1  20   21.74    1.43
   7   1  20    1.87    0.49
   8   1  20    0.76    0.42
   9   1  20   22.17    1.93
  10   1  20    0.47    0.57
  11   1  20   -0.18    0.51
  12   1  20   -0.59    0.87
 -18   2  20    3.70    1.67
 -17   2  20   11.91    1.89
 -16   2  20    0.81    0.71
 -15   2  20    0.52    0.63
 -14   2  20   -0.31    0.36
 -13   2  20   84.96    4.88
 -12   2  20    3.50    0.65
 -11   2  20    1.05    0.42
 -10   2  20    0.75    0.39
  -9   2  20    5.40    0.76
  -8   2  20   66.95    3.96
  -7   2  20    5.74    1.11
  -6   2  20    0.33    0.42
  -5   2  20    2.01    0.47
  -4   2  20    1.24    0.41
  -3   2  20    0.18    0.26
  -2   2  20    0.52    0.32
  -1   2  20   -0.13    0.28
   0   2  20   -0.40    0.24
   1   2  20    0.20    0.34
   2   2  20   39.71    2.08
   3   2  20    2.31    0.61
   4   2  20    1.36    0.52
   5   2  20   10.27    1.19
   6   2  20   61.39    2.40
   7   2  20    2.76    0.60
   8   2  20    6.19    0.84
   9   2  20    0.35    0.42
  10   2  20    0.64    0.47
  11   2  20   10.85    1.46
 -16   3  20    0.36    0.64
 -15   3  20    8.04    1.51
 -14   3  20    1.20    0.76
 -13   3  20   28.26    2.95
 -12   3  20    2.82    0.93
 -11   3  20    6.04    0.83
 -10   3  20    1.49    0.48
  -9   3  20   69.98    2.98
  -8   3  20   -0.35    0.23
  -7   3  20    0.11    0.35
  -6   3  20   11.11    1.56
  -5   3  20   75.18    4.39
  -4   3  20    3.75    0.64
  -3   3  20   36.95    1.91
  -2   3  20   63.24    2.75
  -1   3  20    9.35    1.07
   0   3  20   19.04    1.57
   1   3  20    6.56    0.90
   2   3  20    0.51    0.43
   3   3  20   22.48    1.80
   4   3  20    6.79    0.97
   5   3  20   12.05    1.32
   6   3  20    2.25    0.64
   7   3  20   10.94    1.30
   8   3  20   -0.11    0.38
   9   3  20    2.44    0.61
  10   3  20    0.47    0.51
 -15   4  20    1.75    0.87
 -14   4  20    0.19    0.63
 -13   4  20   27.47    2.91
 -12   4  20    0.79    0.67
 -11   4  20    4.80    1.14
 -10   4  20    4.72    1.15
  -9   4  20   -0.27    0.29
  -8   4  20   21.32    1.62
  -7   4  20    0.80    0.58
  -6   4  20    5.06    1.11
  -5   4  20    0.30    0.51
  -4   4  20   -0.30    0.35
  -3   4  20    0.89    0.42
  -2   4  20    1.43    0.50
  -1   4  20   -0.11    0.29
   0   4  20    2.29    0.58
   1   4  20   -0.18    0.28
   2   4  20   20.03    1.69
   3   4  20    6.36    1.01
   4   4  20   -0.01    0.43
   5   4  20    0.20    0.39
   6   4  20   32.01    2.37
   7   4  20    2.46    0.73
   8   4  20   13.03    1.52
   9   4  20    0.12    0.52
 -14   5  20   -0.23    0.79
 -13   5  20    7.24    1.53
 -12   5  20    1.20    0.72
 -11   5  20    1.06    0.78
 -10   5  20    4.08    1.07
  -9   5  20   15.95    2.11
  -8   5  20    1.53    0.78
  -7   5  20    1.59    0.53
  -6   5  20   18.96    2.16
  -5   5  20   73.89    4.52
  -4   5  20    1.54    0.68
  -3   5  20    7.18    1.39
  -2   5  20   26.96    1.95
  -1   5  20   13.85    1.43
   0   5  20    4.87    0.83
   1   5  20   -0.08    0.39
   2   5  20   -0.13    0.38
   3   5  20   14.84    1.54
   4   5  20    1.40    0.55
   5   5  20   -0.09    0.39
   6   5  20   12.28    1.46
   7   5  20    0.88    0.54
 -11   6  20    7.70    1.62
 -10   6  20    8.12    1.63
  -9   6  20    1.88    0.87
  -8   6  20    1.37    0.77
  -7   6  20    0.48    0.60
  -6   6  20   10.14    1.70
  -5   6  20    1.44    0.70
  -4   6  20    0.04    0.55
  -3   6  20    4.64    1.20
  -2   6  20    4.98    1.23
  -1   6  20    0.92    0.62
   0   6  20    5.27    0.94
   1   6  20   -0.30    0.40
   2   6  20    7.24    1.09
   3   6  20    9.46    1.30
   4   6  20    0.36    0.45
   5   6  20    1.21    0.67
  -8   7  20    5.34    1.36
  -7   7  20    0.53    0.67
  -6   7  20    1.91    0.85
  -5   7  20   37.27    3.43
  -4   7  20    0.26    0.73
  -3   7  20    0.22    0.72
  -2   7  20   34.03    3.30
  -1   7  20    2.10    1.00
   0   7  20    0.33    0.63
   1   7  20    0.11    0.59
   2   7  20    2.43    0.78
   3   7  20   12.89    2.28
  -8  -7  21    0.09    1.06
  -7  -7  21   -0.29    0.97
  -6  -7  21   -0.24    0.46
  -5  -7  21    3.34    1.24
  -4  -7  21    4.33    1.28
  -3  -7  21    2.06    1.00
  -2  -7  21    0.46    0.72
  -1  -7  21    0.55    0.64
   0  -7  21    3.63    1.18
   1  -7  21    0.54    0.85
 -11  -6  21    1.12    0.67
 -10  -6  21    2.56    0.81
  -9  -6  21    1.41    0.64
  -8  -6  21    4.92    0.98
  -7  -6  21    0.46    0.50
  -6  -6  21    0.28    0.48
  -5  -6  21    2.67    0.79
  -4  -6  21    0.15    0.49
  -3  -6  21    3.07    1.16
  -2  -6  21   -0.20    0.63
  -1  -6  21    0.29    0.45
   0  -6  21    2.34    0.70
   1  -6  21    2.16    0.74
   2  -6  21   -0.54    0.48
   3  -6  21    1.43    0.67
   4  -6  21    1.05    0.70
   5  -6  21    0.58    0.78
 -13  -5  21    0.42    0.81
 -12  -5  21    0.38    0.75
 -11  -5  21    0.41    0.55
 -10  -5  21    0.37    0.44
  -9  -5  21    3.78    0.81
  -8  -5  21   -0.36    0.36
  -7  -5  21   -0.30    0.34
  -6  -5  21   -0.37    0.35
  -5  -5  21    5.32    0.91
  -4  -5  21    1.55    0.59
  -3  -5  21    0.40    0.50
  -2  -5  21   -0.34    0.43
  -1  -5  21    2.89    1.09
   0  -5  21    6.82    0.99
   1  -5  21    5.06    0.88
   2  -5  21    1.65    0.63
   3  -5  21    3.71    0.89
   4  -5  21   -0.15    0.50
   5  -5  21    0.24    0.57
   6  -5  21    2.87    0.98
   7  -5  21    3.92    1.02
 -15  -4  21    0.58    0.79
 -14  -4  21    0.88    0.71
 -13  -4  21    1.80    0.98
 -12  -4  21    1.08    0.73
 -11  -4  21    0.70    0.70
 -10  -4  21    4.23    0.76
  -9  -4  21    4.99    0.80
  -8  -4  21    7.50    1.05
  -7  -4  21    0.86    0.43
  -6  -4  21    5.32    0.87
  -5  -4  21    4.81    0.78
  -4  -4  21    3.02    0.64
  -3  -4  21    1.14    0.54
  -2  -4  21    0.26    0.45
  -1  -4  21    5.15    0.94
   0  -4  21    6.89    0.89
   1  -4  21    9.23    1.12
   2  -4  21    1.35    0.55
   3  -4  21    0.81    0.53
   4  -4  21   -0.23    0.44
   5  -4  21   -0.16    0.50
   6  -4  21    1.74    0.67
   7  -4  21    0.63    0.60
   8  -4  21    2.55    0.73
   9  -4  21    0.61    0.93
 -16  -3  21    0.63    0.76
 -15  -3  21   -0.10    0.49
 -14  -3  21   -0.23    0.61
 -13  -3  21    1.50    0.84
 -12  -3  21    0.01    0.50
 -11  -3  21    0.42    0.59
 -10  -3  21    0.79    0.57
  -9  -3  21    6.28    0.89
  -8  -3  21    0.12    0.36
  -7  -3  21    3.52    0.68
  -6  -3  21    0.28    0.34
  -5  -3  21    0.21    0.36
  -4  -3  21    2.75    0.64
  -3  -3  21   -0.17    0.30
  -2  -3  21    0.28    0.43
  -1  -3  21    0.29    0.40
   0  -3  21    0.84    0.50
   1  -3  21    1.44    0.43
   2  -3  21   -0.26    0.30
   3  -3  21    2.72    0.65
   4  -3  21    0.04    0.41
   5  -3  21   -0.09    0.35
   6  -3  21    0.71    0.57
   7  -3  21    6.30    1.05
   8  -3  21   -0.14    0.50
   9  -3  21    0.64    0.64
  10  -3  21    0.06    0.68
 -17  -2  21   -0.22    0.71
 -16  -2  21    0.50    0.63
 -15  -2  21   -0.93    0.43
 -14  -2  21    0.63    0.59
 -13  -2  21    1.90    0.87
 -12  -2  21    0.13    0.54
 -11  -2  21    1.07    0.66
 -10  -2  21    2.54    0.85
  -9  -2  21    3.34    0.96
  -8  -2  21    3.84    0.64
  -7  -2  21    0.13    0.31
  -6  -2  21    5.85    0.76
  -5  -2  21    2.79    0.58
  -4  -2  21    3.51    0.62
  -3  -2  21    0.44    0.34
  -2  -2  21   -0.18    0.26
  -1  -2  21    3.84    0.73
   0  -2  21    2.32    0.59
   1  -2  21    4.43    0.78
   2  -2  21    1.11    0.38
   3  -2  21    0.25    0.29
   4  -2  21    0.09    0.31
   5  -2  21    0.26    0.39
   6  -2  21    1.18    0.56
   7  -2  21    0.88    0.53
   8  -2  21    0.50    0.58
   9  -2  21   -0.13    0.51
  10  -2  21    0.30    0.60
 -17  -1  21    0.51    0.73
 -16  -1  21    0.14    0.60
 -15  -1  21    0.25    0.58
 -14  -1  21    0.55    0.57
 -13  -1  21    0.41    0.58
 -12  -1  21    0.16    0.49
 -11  -1  21    0.37    0.48
 -10  -1  21   -0.27    0.46
  -9  -1  21    0.71    0.37
  -8  -1  21    0.22    0.50
  -7  -1  21   -0.12    0.22
  -6  -1  21    0.13    0.27
  -5  -1  21    0.89    0.37
  -4  -1  21    0.24    0.25
  -3  -1  21   -0.05    0.30
  -2  -1  21   -0.19    0.30
  -1  -1  21    0.02    0.28
   0  -1  21    0.62    0.37
   1  -1  21    0.71    0.38
   2  -1  21   -0.11    0.31
   3  -1  21    0.64    0.41
   4  -1  21   -0.16    0.23
   5  -1  21    0.38    0.33
   6  -1  21    0.24    0.41
   7  -1  21   -0.10    0.41
   8  -1  21    0.84    0.52
   9  -1  21    0.24    0.49
  10  -1  21    0.69    0.57
  11  -1  21   -0.46    0.58
 -15   0  21   -0.07    0.41
 -14   0  21   -0.14    0.36
 -13   0  21   -0.11    0.34
 -12   0  21    0.10    0.31
 -11   0  21    0.43    0.36
 -10   0  21    0.00    0.29
  -9   0  21    0.12    0.28
  -8   0  21    0.17    0.42
  -7   0  21    0.51    0.55
  -6   0  21    0.07    0.26
  -5   0  21   -0.25    0.24
  -4   0  21   -0.03    0.26
  -3   0  21   -0.18    0.25
  -2   0  21   -0.10    0.25
  -1   0  21    0.34    0.29
   0   0  21    0.09    0.33
   1   0  21   -0.13    0.30
   2   0  21   -0.17    0.28
   3   0  21    0.14    0.35
   4   0  21    0.58    0.39
   5   0  21   -0.07    0.28
   6   0  21   -0.02    0.29
   7   0  21   -0.41    0.31
   8   0  21    0.27    0.48
   9   0  21    0.08    0.48
  10   0  21   -0.30    0.49
  11   0  21    0.20    0.63
 -17   1  21   -0.08    0.66
 -16   1  21   -0.04    0.62
 -15   1  21   -0.07    0.57
 -14   1  21   -0.21    0.34
 -13   1  21    0.17    0.34
 -12   1  21    0.01    0.34
 -11   1  21    0.10    0.33
 -10   1  21   -0.30    0.25
  -9   1  21    0.62    0.37
  -8   1  21    0.10    0.47
  -7   1  21    0.36    0.42
  -6   1  21    0.11    0.45
  -5   1  21   -0.18    0.20
  -4   1  21    0.30    0.26
  -3   1  21   -0.30    0.21
  -2   1  21   -0.11    0.26
  -1   1  21    0.08    0.28
   0   1  21   -0.20    0.28
   1   1  21    0.63    0.36
   2   1  21    0.12    0.31
   3   1  21    0.36    0.35
   4   1  21   -0.12    0.25
   5   1  21   -0.13    0.35
   6   1  21    0.76    0.38
   7   1  21    0.83    0.38
   8   1  21    0.22    0.37
   9   1  21    0.06    0.46
  10   1  21   -0.04    0.55
  11   1  21   -0.08    0.79
 -17   2  21    0.25    0.69
 -16   2  21    0.46    0.67
 -15   2  21   -0.12    0.60
 -14   2  21    0.56    0.68
 -13   2  21    2.90    0.67
 -12   2  21   -0.10    0.35
 -11   2  21    1.64    0.48
 -10   2  21    2.46    0.58
  -9   2  21    2.55    0.56
  -8   2  21    5.52    1.13
  -7   2  21    0.20    0.45
  -6   2  21    4.20    1.01
  -5   2  21    2.99    0.69
  -4   2  21    2.65    0.56
  -3   2  21    0.21    0.32
  -2   2  21   -0.12    0.25
  -1   2  21    4.49    0.73
   0   2  21    1.93    0.54
   1   2  21    3.75    0.71
   2   2  21    0.94    0.43
   3   2  21    0.31    0.36
   4   2  21   -0.27    0.29
   5   2  21    0.01    0.39
   6   2  21    1.51    0.54
   7   2  21    0.75    0.50
   8   2  21   -0.24    0.35
   9   2  21   -0.06    0.39
  10   2  21    0.07    0.53
 -16   3  21    0.19    0.71
 -15   3  21    0.42    0.69
 -14   3  21    0.72    0.60
 -13   3  21    0.83    0.68
 -12   3  21    1.21    0.73
 -11   3  21    0.43    0.40
 -10   3  21    0.99    0.41
  -9   3  21    4.43    0.75
  -8   3  21   -0.08    0.29
  -7   3  21    3.80    0.95
  -6   3  21   -0.32    0.33
  -5   3  21    0.29    0.44
  -4   3  21    3.86    0.76
  -3   3  21    0.30    0.30
  -2   3  21    1.85    0.50
  -1   3  21   -0.12    0.32
   0   3  21    1.69    0.54
   1   3  21    1.92    0.56
   2   3  21    0.23    0.35
   3   3  21    3.08    0.68
   4   3  21    0.60    0.41
   5   3  21   -0.25    0.37
   6   3  21    0.03    0.39
   7   3  21    5.41    0.99
   8   3  21    0.34    0.46
   9   3  21    0.59    0.57
  10   3  21   -0.48    0.61
 -15   4  21   -0.56    0.53
 -14   4  21    1.31    0.84
 -13   4  21    3.26    1.07
 -12   4  21    0.62    0.70
 -11   4  21    0.05    0.48
 -10   4  21    5.30    1.22
  -9   4  21    3.86    0.68
  -8   4  21    7.39    0.98
  -7   4  21   -0.07    0.52
  -6   4  21    7.25    1.34
  -5   4  21    5.68    1.20
  -4   4  21    4.85    1.09
  -3   4  21   -0.27    0.38
  -2   4  21    0.04    0.38
  -1   4  21    3.95    0.75
   0   4  21    4.16    0.78
   1   4  21    8.72    1.08
   2   4  21    1.43    0.54
   3   4  21    1.59    0.54
   4   4  21   -0.02    0.43
   5   4  21    0.21    0.44
   6   4  21    0.92    0.56
   7   4  21    0.14    0.45
   8   4  21    2.62    0.80
 -13   5  21    1.25    0.83
 -12   5  21    0.23    0.68
 -11   5  21   -0.39    0.47
 -10   5  21   -0.95    0.44
  -9   5  21    3.17    1.02
  -8   5  21   -0.12    0.56
  -7   5  21    0.20    0.42
  -6   5  21    0.17    0.57
  -5   5  21    3.72    1.07
  -4   5  21    0.43    0.54
  -3   5  21    0.61    0.67
  -2   5  21   -0.45    0.42
  -1   5  21    1.36    0.54
   0   5  21    4.84    0.85
   1   5  21    4.33    0.84
   2   5  21    1.12    0.53
   3   5  21    3.51    0.78
   4   5  21   -0.29    0.43
   5   5  21    1.69    0.62
   6   5  21    2.57    0.78
 -11   6  21    1.04    1.02
 -10   6  21    1.56    0.84
  -9   6  21    2.46    1.03
  -8   6  21    2.79    1.04
  -7   6  21    1.32    0.74
  -6   6  21    0.51    0.50
  -5   6  21    1.25    0.71
  -4   6  21    0.60    0.57
  -3   6  21    1.85    0.79
  -2   6  21   -0.39    0.48
  -1   6  21   -0.40    0.54
   0   6  21    3.02    0.75
   1   6  21    1.84    0.64
   2   6  21    0.74    0.57
   3   6  21    2.83    0.76
   4   6  21    0.84    0.60
  -7   7  21   -0.17    0.81
  -6   7  21   -0.46    0.58
  -5   7  21    2.66    1.09
  -4   7  21    3.45    1.12
  -3   7  21    1.08    0.82
  -2   7  21   -0.20    0.64
  -1   7  21    0.59    0.78
   0   7  21    4.23    1.24
  -6  -7  22    0.63    1.15
 -11  -6  22    7.86    1.67
 -10  -6  22    0.08    0.55
  -9  -6  22    3.86    0.88
  -8  -6  22    1.06    0.65
  -7  -6  22    0.19    0.51
  -6  -6  22    3.37    0.84
  -5  -6  22    3.47    0.87
  -4  -6  22    0.74    0.63
  -3  -6  22    0.41    0.79
  -2  -6  22    3.30    1.21
  -1  -6  22    0.48    0.75
   0  -6  22    4.98    1.49
   1  -6  22    0.80    0.57
   2  -6  22    0.71    0.67
   3  -6  22    0.20    0.61
   4  -6  22    0.98    0.87
 -12  -5  22    1.59    1.05
 -11  -5  22    2.28    0.99
 -10  -5  22   -0.09    0.42
  -9  -5  22   13.58    1.44
  -8  -5  22    0.95    0.54
  -7  -5  22    0.24    0.41
  -6  -5  22    0.48    0.47
  -5  -5  22    0.18    0.47
  -4  -5  22    5.03    0.89
  -3  -5  22    0.99    0.56
  -2  -5  22   33.90    2.50
  -1  -5  22    8.06    1.66
   0  -5  22   32.28    3.64
   1  -5  22    8.45    1.93
   2  -5  22   18.67    1.80
   3  -5  22   -0.32    0.48
   4  -5  22    0.28    0.55
   5  -5  22    0.98    0.71
   6  -5  22    0.30    0.66
 -14  -4  22   -0.29    0.53
 -13  -4  22    0.12    0.61
 -12  -4  22    1.67    0.87
 -11  -4  22   13.33    2.05
 -10  -4  22   -0.15    0.35
  -9  -4  22    8.82    1.03
  -8  -4  22   11.17    1.27
  -7  -4  22    1.08    0.50
  -6  -4  22    2.30    0.65
  -5  -4  22    2.63    0.65
  -4  -4  22    0.35    0.41
  -3  -4  22    5.70    0.95
  -2  -4  22    3.36    0.74
  -1  -4  22    0.54    0.47
   0  -4  22    2.33    0.74
   1  -4  22    0.46    0.60
   2  -4  22   -0.05    0.38
   3  -4  22   -0.65    0.39
   4  -4  22    3.30    0.81
   5  -4  22   -0.57    0.53
   6  -4  22    8.58    1.30
   7  -4  22    0.24    0.57
   8  -4  22    1.22    0.78
 -16  -3  22    2.06    1.15
 -15  -3  22    0.63    0.69
 -14  -3  22    1.43    0.88
 -13  -3  22    8.34    1.63
 -12  -3  22   -0.08    0.53
 -11  -3  22   14.14    2.08
 -10  -3  22    6.03    1.38
  -9  -3  22    1.67    0.55
  -8  -3  22    6.93    0.92
  -7  -3  22   13.66    1.29
  -6  -3  22    1.29    0.45
  -5  -3  22   22.30    1.71
  -4  -3  22   54.09    2.63
  -3  -3  22    1.75    0.57
  -2  -3  22    1.15    0.54
  -1  -3  22   12.16    1.35
   0  -3  22    9.79    1.23
   1  -3  22    1.69    0.62
   2  -3  22   51.15    2.64
   3  -3  22   19.48    1.66
   4  -3  22    0.67    0.48
   5  -3  22    0.64    0.50
   6  -3  22    5.92    1.00
   7  -3  22    0.21    0.55
   8  -3  22   18.41    1.91
   9  -3  22    0.74    0.70
 -17  -2  22   -0.06    0.67
 -16  -2  22    0.66    0.75
 -15  -2  22    3.67    1.10
 -14  -2  22    1.38    0.80
 -13  -2  22    0.15    0.51
 -12  -2  22    5.88    1.29
 -11  -2  22   15.47    2.09
 -10  -2  22    1.25    0.75
  -9  -2  22   22.05    2.52
  -8  -2  22   29.06    1.77
  -7  -2  22    0.43    0.34
  -6  -2  22    1.39    0.48
  -5  -2  22    2.68    0.64
  -4  -2  22    0.32    0.36
  -3  -2  22   22.90    1.75
  -2  -2  22    2.53    0.58
  -1  -2  22    2.14    0.57
   0  -2  22    6.12    0.91
   1  -2  22   -0.14    0.30
   2  -2  22    2.38    0.68
   3  -2  22    0.54    0.43
   4  -2  22    2.29    0.62
   5  -2  22   -0.01    0.43
   6  -2  22    7.99    1.16
   7  -2  22    0.13    0.50
   8  -2  22    3.39    0.82
   9  -2  22    0.67    0.61
  10  -2  22   18.37    2.70
 -17  -1  22    0.43    0.80
 -16  -1  22    0.24    0.62
 -15  -1  22    0.00    0.61
 -14  -1  22   13.53    1.91
 -13  -1  22   14.71    2.07
 -12  -1  22    1.71    0.76
 -11  -1  22    8.39    1.45
 -10  -1  22    0.25    0.60
  -9  -1  22    0.17    0.35
  -8  -1  22    0.97    0.70
  -7  -1  22   12.40    1.18
  -6  -1  22    1.14    0.41
  -5  -1  22    2.12    0.54
  -4  -1  22   69.17    3.08
  -3  -1  22    0.39    0.32
  -2  -1  22    2.52    0.58
  -1  -1  22    2.34    0.59
   0  -1  22   39.65    2.05
   1  -1  22   11.16    1.19
   2  -1  22   54.04    2.56
   3  -1  22   17.24    1.59
   4  -1  22   10.05    1.19
   5  -1  22    0.02    0.33
   6  -1  22   -0.13    0.38
   7  -1  22    0.73    0.56
   8  -1  22   20.59    1.90
   9  -1  22   -0.22    0.54
  10  -1  22    6.08    1.12
 -16   0  22    6.49    1.38
 -15   0  22   14.65    1.99
 -14   0  22   17.50    2.17
 -13   0  22    0.69    0.42
 -12   0  22    0.18    0.34
 -11   0  22   60.32    2.65
 -10   0  22    3.84    0.70
  -9   0  22    0.51    0.33
  -8   0  22   14.07    1.88
  -7   0  22   10.70    1.62
  -6   0  22   32.47    1.71
  -5   0  22    5.70    0.77
  -4   0  22    7.66    0.92
  -3   0  22    2.83    0.60
  -2   0  22    4.18    0.70
  -1   0  22    3.73    0.65
   0   0  22   22.66    1.68
   1   0  22    8.24    1.01
   2   0  22    2.07    0.53
   3   0  22    0.85    0.45
   4   0  22   26.93    1.95
   5   0  22    6.60    0.96
   6   0  22    5.56    0.97
   7   0  22    1.83    0.65
   8   0  22   12.03    1.43
   9   0  22    3.19    0.84
  10   0  22    2.98    0.88
 -17   1  22    1.51    1.02
 -16   1  22    0.23    0.61
 -15   1  22    1.70    0.75
 -14   1  22   16.76    1.46
 -13   1  22   21.20    1.60
 -12   1  22    2.16    0.55
 -11   1  22    6.50    0.87
 -10   1  22    0.27    0.32
  -9   1  22    0.20    0.32
  -8   1  22    1.93    0.74
  -7   1  22   11.45    1.70
  -6   1  22    1.33    0.61
  -5   1  22    3.54    0.62
  -4   1  22   76.58    3.10
  -3   1  22    0.20    0.31
  -2   1  22    3.13    0.61
  -1   1  22    1.61    0.51
   0   1  22   39.62    2.06
   1   1  22   10.67    1.18
   2   1  22   51.12    2.52
   3   1  22   17.13    1.49
   4   1  22    6.85    0.95
   5   1  22    0.59    0.40
   6   1  22    0.04    0.34
   7   1  22    0.85    0.50
   8   1  22   20.19    1.77
   9   1  22    0.23    0.60
  10   1  22    5.45    1.15
 -17   2  22    0.56    0.77
 -16   2  22   -0.06    0.67
 -15   2  22    5.88    1.40
 -14   2  22    0.81    0.79
 -13   2  22   -0.06    0.34
 -12   2  22    6.20    0.84
 -11   2  22   15.19    1.35
 -10   2  22   -0.11    0.26
  -9   2  22   19.36    1.52
  -8   2  22   31.31    2.43
  -7   2  22    0.80    0.50
  -6   2  22    1.72    0.72
  -5   2  22    3.48    0.96
  -4   2  22    0.83    0.39
  -3   2  22   23.94    1.75
  -2   2  22    2.33    0.51
  -1   2  22    3.77    0.71
   0   2  22    3.84    0.71
   1   2  22    0.41    0.38
   2   2  22    2.39    0.60
   3   2  22    0.79    0.46
   4   2  22    1.51    0.55
   5   2  22    0.99    0.48
   6   2  22    7.51    1.07
   7   2  22    1.49    0.62
   8   2  22    3.93    0.88
   9   2  22    0.11    0.53
 -16   3  22    3.70    1.31
 -15   3  22   -0.10    0.66
 -14   3  22    3.01    0.97
 -13   3  22    7.02    1.49
 -12   3  22    0.16    0.59
 -11   3  22   17.53    1.48
 -10   3  22    3.98    0.65
  -9   3  22    1.11    0.46
  -8   3  22    6.74    1.30
  -7   3  22   14.35    1.84
  -6   3  22    0.41    0.50
  -5   3  22   22.15    2.37
  -4   3  22   54.56    3.62
  -3   3  22    0.73    0.46
  -2   3  22    0.46    0.38
  -1   3  22    7.89    1.01
   0   3  22   11.00    1.21
   1   3  22    1.86    0.60
   2   3  22   45.27    2.41
   3   3  22   19.12    1.68
   4   3  22    0.27    0.38
   5   3  22    0.76    0.51
   6   3  22    4.22    0.83
   7   3  22    0.16    0.43
   8   3  22   25.47    2.11
   9   3  22    1.42    0.97
 -14   4  22    0.62    0.65
 -13   4  22    1.40    0.86
 -12   4  22    2.96    1.02
 -11   4  22   11.80    1.85
 -10   4  22    0.77    0.67
  -9   4  22    9.97    1.12
  -8   4  22   14.35    1.30
  -7   4  22   -0.10    0.43
  -6   4  22    2.14    0.86
  -5   4  22    1.30    0.71
  -4   4  22   -0.39    0.46
  -3   4  22    6.20    1.29
  -2   4  22    2.53    0.59
  -1   4  22    0.08    0.40
   0   4  22    4.61    0.81
   1   4  22   -0.16    0.39
   2   4  22    0.21    0.42
   3   4  22    0.24    0.42
   4   4  22    1.91    0.61
   5   4  22    0.09    0.42
   6   4  22    6.11    1.05
   7   4  22   -0.52    0.37
 -12   5  22    1.25    0.83
 -11   5  22    2.22    0.92
 -10   5  22    0.16    0.56
  -9   5  22    8.97    1.64
  -8   5  22    0.79    0.52
  -7   5  22    0.62    0.45
  -6   5  22    0.57    0.64
  -5   5  22    0.10    0.60
  -4   5  22    2.49    0.87
  -3   5  22    2.66    0.97
  -2   5  22   32.84    3.21
  -1   5  22    9.69    1.23
   0   5  22   25.44    2.03
   1   5  22    8.52    1.17
   2   5  22   20.74    1.89
   3   5  22    0.75    0.59
   4   5  22    0.40    0.51
   5   5  22    0.77    0.56
 -10   6  22    0.33    0.81
  -9   6  22    1.98    0.90
  -8   6  22    2.36    1.07
  -7   6  22    0.07    0.71
  -6   6  22    3.61    0.76
  -5   6  22    1.59    0.84
  -4   6  22    1.70    0.82
  -3   6  22    1.35    0.84
  -2   6  22    3.87    1.21
  -1   6  22    0.53    0.71
   0   6  22    4.01    0.94
   1   6  22    0.85    0.59
   2   6  22    0.38    0.53
   3   6  22    0.66    0.72
  -5   7  22    2.26    1.11
  -4   7  22    0.60    0.70
  -3   7  22    0.26    0.81
  -2   7  22   15.97    2.31
 -10  -6  23    3.03    1.08
  -9  -6  23    0.94    0.65
  -8  -6  23    0.85    0.57
  -7  -6  23    3.88    0.92
  -6  -6  23    5.12    0.96
  -5  -6  23    0.14    0.57
  -4  -6  23   -0.28    0.57
  -3  -6  23    4.25    1.22
  -2  -6  23    0.53    0.84
  -1  -6  23    0.23    0.85
   0  -6  23    0.98    1.00
   1  -6  23    0.13    0.83
 -11  -5  23   -0.26    0.71
 -10  -5  23    8.50    1.21
  -9  -5  23   -0.08    0.46
  -8  -5  23    0.87    0.53
  -7  -5  23    0.40    0.52
  -6  -5  23    1.69    0.64
  -5  -5  23    0.31    0.49
  -4  -5  23    2.64    0.80
  -3  -5  23    0.60    0.57
  -2  -5  23    0.13    0.56
  -1  -5  23    0.84    0.92
   0  -5  23    0.51    0.80
   1  -5  23    2.53    1.26
   2  -5  23    1.56    1.11
   3  -5  23    1.10    1.05
   4  -5  23    0.04    0.54
   5  -5  23   -0.27    0.68
 -13  -4  23    1.15    0.87
 -12  -4  23    1.77    0.98
 -11  -4  23    0.58    0.62
 -10  -4  23    7.18    1.55
  -9  -4  23    3.31    0.72
  -8  -4  23    0.47    0.45
  -7  -4  23    6.24    0.96
  -6  -4  23    1.89    0.63
  -5  -4  23    3.82    0.77
  -4  -4  23    4.15    0.83
  -3  -4  23    6.38    1.04
  -2  -4  23    0.18    0.50
  -1  -4  23   -0.35    0.46
   0  -4  23    6.31    1.17
   1  -4  23   -0.32    0.61
   2  -4  23    5.39    1.56
   3  -4  23    1.36    0.95
   4  -4  23    0.29    0.59
   5  -4  23    0.60    0.60
   6  -4  23    0.54    0.66
   7  -4  23    1.49    1.00
 -15  -3  23   -0.08    0.59
 -14  -3  23   -0.15    0.60
 -13  -3  23    0.48    0.64
 -12  -3  23    2.48    0.92
 -11  -3  23    0.81    0.66
 -10  -3  23    4.15    1.15
  -9  -3  23    0.69    0.45
  -8  -3  23    0.24    0.38
  -7  -3  23    0.43    0.42
  -6  -3  23    1.89    0.59
  -5  -3  23    0.78    0.42
  -4  -3  23    1.02    0.50
  -3  -3  23    0.29    0.43
  -2  -3  23   -0.08    0.40
  -1  -3  23    0.33    0.40
   0  -3  23    0.59    0.48
   1  -3  23    0.82    0.54
   2  -3  23    1.60    0.88
   3  -3  23    0.76    0.82
   4  -3  23    0.17    0.79
   5  -3  23   -0.37    0.44
   6  -3  23    0.24    0.54
   7  -3  23    3.10    0.83
   8  -3  23    0.11    0.58
 -16  -2  23    0.95    0.84
 -15  -2  23   -0.26    0.63
 -14  -2  23   -0.02    0.57
 -13  -2  23    0.24    0.64
 -12  -2  23    0.64    0.60
 -11  -2  23   -0.05    0.61
 -10  -2  23    1.65    0.84
  -9  -2  23    0.66    0.60
  -8  -2  23    0.15    0.34
  -7  -2  23    2.16    0.57
  -6  -2  23    0.15    0.33
  -5  -2  23    4.82    0.79
  -4  -2  23    4.12    0.75
  -3  -2  23    2.55    0.64
  -2  -2  23   -0.28    0.29
  -1  -2  23    0.22    0.39
   0  -2  23    6.51    0.95
   1  -2  23    0.36    0.43
   2  -2  23    5.95    0.94
   3  -2  23   -0.09    0.43
   4  -2  23   -0.13    0.57
   5  -2  23   -0.26    0.63
   6  -2  23    0.77    0.53
   7  -2  23    1.38    0.63
   8  -2  23    0.42    0.55
   9  -2  23   -0.55    0.54
 -17  -1  23    1.12    0.85
 -16  -1  23   -0.19    0.65
 -15  -1  23    0.46    0.67
 -14  -1  23   -0.59    0.51
 -13  -1  23   -0.69    0.47
 -12  -1  23    0.29    0.53
 -11  -1  23    0.89    0.66
 -10  -1  23    0.11    0.61
  -9  -1  23    0.16    0.55
  -8  -1  23   -0.39    0.42
  -7  -1  23    0.45    0.37
  -6  -1  23   -0.28    0.29
  -5  -1  23    0.09    0.32
  -4  -1  23   -0.03    0.30
  -3  -1  23   -0.39    0.30
  -2  -1  23    0.06    0.31
  -1  -1  23    0.26    0.34
   0  -1  23   -0.26    0.28
   1  -1  23    0.16    0.33
   2  -1  23    0.01    0.29
   3  -1  23    0.32    0.41
   4  -1  23   -0.34    0.38
   5  -1  23   -0.28    0.45
   6  -1  23    0.92    0.86
   7  -1  23    0.21    0.79
   8  -1  23   -0.48    0.48
   9  -1  23    0.04    0.54
 -16   0  23   -0.03    0.60
 -15   0  23   -0.49    0.58
 -14   0  23    0.24    0.61
 -13   0  23   -0.18    0.48
 -12   0  23   -0.21    0.34
 -11   0  23   -0.07    0.32
 -10   0  23   -0.13    0.32
  -9   0  23    0.36    0.35
  -8   0  23    0.31    0.53
  -7   0  23    0.03    0.44
  -6   0  23   -0.23    0.30
  -5   0  23    0.14    0.31
  -4   0  23   -0.04    0.29
  -3   0  23    0.28    0.33
  -2   0  23   -0.24    0.25
  -1   0  23    0.06    0.28
   0   0  23    0.13    0.30
   1   0  23   -0.09    0.31
   2   0  23    0.25    0.36
   3   0  23   -0.22    0.37
   4   0  23   -0.05    0.40
   5   0  23   -0.50    0.38
   6   0  23   -0.44    0.43
   7   0  23    0.38    0.77
   8   0  23    0.17    0.72
   9   0  23   -0.20    0.82
  10   0  23    0.61    0.94
 -16   1  23    0.09    0.68
 -15   1  23   -0.10    0.61
 -14   1  23   -0.10    0.40
 -13   1  23   -0.25    0.36
 -12   1  23    0.67    0.44
 -11   1  23   -0.29    0.31
 -10   1  23    1.00    0.45
  -9   1  23    0.27    0.32
  -8   1  23    0.04    0.50
  -7   1  23    0.02    0.49
  -6   1  23    0.74    0.52
  -5   1  23   -0.07    0.28
  -4   1  23    0.03    0.28
  -3   1  23    0.13    0.34
  -2   1  23   -0.06    0.31
  -1   1  23    0.21    0.35
   0   1  23    0.10    0.33
   1   1  23    0.19    0.38
   2   1  23    0.00    0.36
   3   1  23   -0.28    0.34
   4   1  23   -0.11    0.35
   5   1  23   -0.80    0.37
   6   1  23   -0.03    0.46
   7   1  23    0.54    0.53
   8   1  23   -0.73    0.65
   9   1  23   -0.34    0.74
 -16   2  23    0.68    0.77
 -15   2  23    0.09    0.73
 -14   2  23   -0.41    0.53
 -13   2  23    0.11    0.41
 -12   2  23    0.60    0.42
 -11   2  23    0.60    0.38
 -10   2  23    3.20    0.65
  -9   2  23    1.44    0.45
  -8   2  23   -0.48    0.36
  -7   2  23    2.49    0.84
  -6   2  23    0.01    0.43
  -5   2  23    3.84    1.03
  -4   2  23    4.61    0.72
  -3   2  23    3.57    0.69
  -2   2  23   -0.03    0.33
  -1   2  23   -0.34    0.32
   0   2  23    3.14    0.70
   1   2  23    0.70    0.46
   2   2  23    3.59    0.71
   3   2  23    0.53    0.42
   4   2  23    0.37    0.46
   5   2  23    0.44    0.44
   6   2  23    0.98    0.52
   7   2  23    1.38    0.62
   8   2  23    1.11    0.60
   9   2  23   -0.29    0.76
 -15   3  23   -0.56    0.64
 -14   3  23   -0.11    0.63
 -13   3  23    0.10    0.53
 -12   3  23    3.33    1.02
 -11   3  23    0.49    0.43
 -10   3  23    2.16    0.61
  -9   3  23   -0.47    0.30
  -8   3  23   -0.40    0.40
  -7   3  23    0.83    0.66
  -6   3  23    1.28    0.69
  -5   3  23    2.32    0.77
  -4   3  23    1.52    0.79
  -3   3  23   -0.01    0.32
  -2   3  23    0.37    0.37
  -1   3  23    0.34    0.39
   0   3  23    0.51    0.41
   1   3  23    0.17    0.42
   2   3  23    2.42    0.70
   3   3  23   -0.23    0.40
   4   3  23    0.12    0.44
   5   3  23    0.47    0.49
   6   3  23    0.56    0.54
   7   3  23    4.25    0.89
   8   3  23    0.36    0.79
 -13   4  23    1.28    0.79
 -12   4  23    1.72    0.89
 -11   4  23    0.49    0.65
 -10   4  23    5.62    1.32
  -9   4  23    1.92    0.59
  -8   4  23    0.27    0.35
  -7   4  23    4.51    1.11
  -6   4  23    1.11    0.73
  -5   4  23    4.68    1.18
  -4   4  23    5.60    1.24
  -3   4  23    5.40    1.30
  -2   4  23   -0.16    0.37
  -1   4  23    0.01    0.38
   0   4  23    6.68    0.98
   1   4  23    0.43    0.45
   2   4  23    5.73    0.98
   3   4  23    0.78    0.53
   4   4  23    0.65    0.51
   5   4  23    0.36    0.53
   6   4  23    0.72    0.53
 -11   5  23    0.52    0.75
 -10   5  23    7.14    1.41
  -9   5  23   -0.41    0.48
  -8   5  23    1.66    0.56
  -7   5  23    0.91    0.48
  -6   5  23    2.99    0.95
  -5   5  23    0.38    0.55
  -4   5  23    2.18    0.94
  -3   5  23    0.46    0.59
  -2   5  23    0.50    0.58
  -1   5  23    2.46    0.74
   0   5  23    0.74    0.53
   1   5  23    2.43    0.70
   2   5  23    0.95    0.61
   3   5  23    0.12    0.50
   4   5  23    0.09    0.51
   5   5  23    0.51    1.27
  -8   6  23   -0.46    0.53
  -7   6  23    3.84    1.19
  -6   6  23    3.46    0.85
  -5   6  23    0.91    0.82
  -4   6  23    0.47    0.73
  -3   6  23    1.60    0.98
  -2   6  23   -0.16    0.56
  -1   6  23   -0.05    0.66
   0   6  23    0.75    0.79
   1   6  23    0.51    0.61
   2   6  23    2.72    1.26
  -8  -6  24   -0.22    0.60
  -7  -6  24    1.75    0.76
  -6  -6  24    5.40    1.06
  -5  -6  24   -0.33    0.62
  -4  -6  24    1.34    1.10
  -3  -6  24    6.74    1.69
  -2  -6  24    2.71    1.23
 -10  -5  24    9.76    1.34
  -9  -5  24   33.39    2.43
  -8  -5  24    0.78    0.54
  -7  -5  24    4.72    0.98
  -6  -5  24   19.51    1.85
  -5  -5  24    6.90    1.08
  -4  -5  24    3.17    0.83
  -3  -5  24    1.39    0.71
  -2  -5  24    1.95    0.94
  -1  -5  24    0.31    0.86
   0  -5  24    0.19    0.83
   1  -5  24    2.08    1.17
   2  -5  24    1.38    1.06
   3  -5  24    0.67    1.15
 -13  -4  24    0.12    0.74
 -12  -4  24    1.46    1.01
 -11  -4  24   -0.64    0.45
 -10  -4  24    4.33    1.23
  -9  -4  24    1.43    0.60
  -8  -4  24    1.01    0.52
  -7  -4  24    0.27    0.46
  -6  -4  24   13.05    1.43
  -5  -4  24    0.86    0.52
  -4  -4  24    6.43    1.07
  -3  -4  24   17.95    1.75
  -2  -4  24    9.81    1.31
  -1  -4  24   11.12    1.43
   0  -4  24   -0.59    0.49
   1  -4  24    1.43    0.99
   2  -4  24   31.18    3.62
   3  -4  24    0.95    0.96
   4  -4  24    9.06    2.17
   5  -4  24    0.42    1.23
 -14  -3  24    9.77    1.86
 -13  -3  24    6.89    1.46
 -12  -3  24   -0.06    0.65
 -11  -3  24    5.34    1.29
 -10  -3  24   12.99    2.06
  -9  -3  24   19.57    2.53
  -8  -3  24    0.59    0.47
  -7  -3  24    6.38    0.94
  -6  -3  24   54.10    2.62
  -5  -3  24    0.69    0.45
  -4  -3  24    0.63    0.49
  -3  -3  24    3.22    0.72
  -2  -3  24    3.63    0.78
  -1  -3  24    0.34    0.47
   0  -3  24   15.06    1.59
   1  -3  24    1.68    0.69
   2  -3  24    0.30    0.75
   3  -3  24    2.59    1.11
   4  -3  24    1.47    1.12
   5  -3  24    4.10    1.51
   6  -3  24    4.15    1.63
   7  -3  24   11.15    2.56
 -15  -2  24    0.01    0.62
 -14  -2  24    0.93    0.63
 -13  -2  24    2.98    1.09
 -12  -2  24    5.69    1.34
 -11  -2  24    0.38    0.61
 -10  -2  24    2.13    0.88
  -9  -2  24    2.77    0.97
  -8  -2  24    4.01    1.16
  -7  -2  24   -0.17    0.36
  -6  -2  24   15.09    1.43
  -5  -2  24    4.14    0.77
  -4  -2  24   13.16    1.35
  -3  -2  24   25.16    1.87
  -2  -2  24   23.85    1.85
  -1  -2  24    5.82    0.92
   0  -2  24   -0.37    0.30
   1  -2  24   -0.15    0.36
   2  -2  24   50.12    2.65
   3  -2  24    7.44    1.10
   4  -2  24    2.92    1.26
   5  -2  24    3.29    1.28
   6  -2  24    0.00    0.69
   7  -2  24    9.66    2.07
 -16  -1  24    2.13    1.00
 -15  -1  24    1.49    0.85
 -14  -1  24   27.06    2.90
 -13  -1  24    0.35    0.58
 -12  -1  24    1.08    0.75
 -11  -1  24   -0.03    0.56
 -10  -1  24   41.78    3.30
  -9  -1  24   50.39    3.49
  -8  -1  24   24.98    2.77
  -7  -1  24    2.62    0.62
  -6  -1  24   22.29    1.67
  -5  -1  24    9.41    1.08
  -4  -1  24    3.64    0.73
  -3  -1  24    5.77    0.82
  -2  -1  24    4.59    0.81
  -1  -1  24    3.17    0.68
   0  -1  24    5.80    0.90
   1  -1  24    1.73    0.56
   2  -1  24   19.04    1.68
   3  -1  24    0.33    0.48
   4  -1  24   20.55    1.79
   5  -1  24   19.09    2.57
   6  -1  24    4.95    1.42
   7  -1  24    8.20    1.80
   8  -1  24   -0.41    0.70
 -16   0  24    0.12    0.71
 -15   0  24    1.84    0.93
 -14   0  24    4.17    1.15
 -13   0  24   -0.38    0.57
 -12   0  24    0.56    0.42
 -11   0  24    0.58    0.39
 -10   0  24   13.29    1.28
  -9   0  24    0.58    0.36
  -8   0  24    1.59    0.77
  -7   0  24   13.51    1.85
  -6   0  24   33.31    1.80
  -5   0  24    0.00    0.32
  -4   0  24    0.46    0.39
  -3   0  24   24.30    1.82
  -2   0  24    1.63    0.50
  -1   0  24   19.43    1.65
   0   0  24    0.96    0.46
   1   0  24   11.43    1.28
   2   0  24   39.64    2.20
   3   0  24    0.58    0.45
   4   0  24   10.42    1.24
   5   0  24    6.59    1.03
   6   0  24    1.07    0.61
   7   0  24    0.62    0.74
   8   0  24    0.26    0.85
 -15   1  24    1.96    0.89
 -14   1  24   27.68    1.98
 -13   1  24   -0.09    0.39
 -12   1  24    0.52    0.45
 -11   1  24   -0.15    0.32
 -10   1  24   44.39    2.27
  -9   1  24   47.88    2.32
  -8   1  24   30.48    2.93
  -7   1  24    3.40    1.06
  -6   1  24   20.75    2.40
  -5   1  24   12.42    1.19
  -4   1  24    3.62    0.66
  -3   1  24    6.63    0.89
  -2   1  24    3.33    0.68
  -1   1  24    3.68    0.74
   0   1  24    6.89    0.95
   1   1  24    1.81    0.60
   2   1  24   17.99    1.61
   3   1  24    0.31    0.45
   4   1  24   20.77    1.77
   5   1  24   15.02    1.60
   6   1  24    4.96    0.94
   7   1  24    4.70    0.94
   8   1  24    0.35    0.74
 -16   2  24    0.59    0.84
 -15   2  24   -0.43    0.57
 -14   2  24    0.27    0.55
 -13   2  24    3.50    0.75
 -12   2  24    8.75    1.08
 -11   2  24    0.72    0.47
 -10   2  24    0.57    0.44
  -9   2  24    2.55    0.59
  -8   2  24    4.35    1.12
  -7   2  24   -0.10    0.45
  -6   2  24   16.70    2.11
  -5   2  24    5.82    1.31
  -4   2  24   13.60    1.30
  -3   2  24   23.63    1.78
  -2   2  24   20.61    1.68
  -1   2  24    6.18    0.95
   0   2  24   -0.05    0.35
   1   2  24   -0.06    0.34
   2   2  24   52.60    2.64
   3   2  24    6.76    1.00
   4   2  24    0.76    0.49
   5   2  24    7.57    1.09
   6   2  24   -0.08    0.48
   7   2  24    4.12    0.91
   8   2  24    0.55    0.89
 -14   3  24    9.08    1.61
 -13   3  24    8.14    1.60
 -12   3  24    0.50    0.65
 -11   3  24    5.97    0.93
 -10   3  24   16.04    1.45
  -9   3  24   20.46    1.67
  -8   3  24   -0.08    0.54
  -7   3  24    2.96    0.98
  -6   3  24   47.32    3.46
  -5   3  24   -0.16    0.59
  -4   3  24    0.26    0.64
  -3   3  24    1.84    0.56
  -2   3  24    5.63    0.88
  -1   3  24    1.67    0.56
   0   3  24   13.84    1.44
   1   3  24    0.98    0.46
   2   3  24    0.71    0.51
   3   3  24    2.13    0.64
   4   3  24    3.37    0.79
   5   3  24    4.47    0.94
   6   3  24    3.54    0.83
   7   3  24   11.40    1.93
 -13   4  24   -0.30    0.60
 -12   4  24    0.70    0.70
 -11   4  24    0.58    0.70
 -10   4  24    6.32    1.00
  -9   4  24    0.93    0.52
  -8   4  24    0.34    0.44
  -7   4  24    0.32    0.60
  -6   4  24   17.72    2.24
  -5   4  24   -0.25    0.54
  -4   4  24    3.89    1.12
  -3   4  24   12.52    1.99
  -2   4  24    7.96    1.49
  -1   4  24    9.94    1.24
   0   4  24   -0.14    0.44
   1   4  24    1.87    0.65
   2   4  24   25.56    2.14
   3   4  24    2.26    0.75
   4   4  24    6.47    1.09
   5   4  24    3.89    0.95
 -10   5  24   11.38    1.89
  -9   5  24   26.48    3.02
  -8   5  24    0.52    0.52
  -7   5  24    5.44    0.90
  -6   5  24   17.61    2.29
  -5   5  24    2.57    1.03
  -4   5  24    4.17    1.19
  -3   5  24    1.80    0.92
  -2   5  24    0.39    0.62
  -1   5  24    0.34    0.68
   0   5  24   -0.48    0.39
   1   5  24    0.20    0.51
   2   5  24    2.67    0.80
   3   5  24    0.41    0.58
   4   5  24    0.34    1.43
  -6   6  24   10.19    1.29
  -5   6  24    0.29    0.72
  -4   6  24    0.01    0.73
  -3   6  24    6.58    1.48
  -2   6  24    2.58    1.10
  -1   6  24    9.89    1.83
   1   6  24    4.05    1.47
  -6  -6  25    3.19    1.52
  -5  -6  25   -0.46    0.99
  -9  -5  25    3.57    0.88
  -8  -5  25    0.35    0.51
  -7  -5  25    0.26    0.56
  -6  -5  25    0.63    0.59
  -5  -5  25    0.86    0.64
  -4  -5  25    1.68    0.78
  -3  -5  25    0.42    0.63
  -2  -5  25    1.51    0.98
  -1  -5  25    1.23    0.99
   0  -5  25    0.49    0.96
   1  -5  25    1.91    1.16
 -12  -4  25    3.18    1.45
 -11  -4  25    4.92    1.43
 -10  -4  25    2.24    1.09
  -9  -4  25    2.19    0.69
  -8  -4  25   -0.27    0.40
  -7  -4  25    0.36    0.48
  -6  -4  25   15.84    1.59
  -5  -4  25    0.02    0.46
  -4  -4  25    1.27    0.68
  -3  -4  25    3.36    0.84
  -2  -4  25    0.14    0.51
  -1  -4  25    7.07    1.17
   0  -4  25   -0.15    0.67
   1  -4  25    3.64    1.40
   2  -4  25    2.94    1.27
   3  -4  25   -0.23    0.86
   4  -4  25    0.26    1.00
 -13  -3  25    2.00    0.90
 -12  -3  25    0.94    0.75
 -11  -3  25    7.93    1.68
 -10  -3  25    1.08    0.76
  -9  -3  25    0.21    0.73
  -8  -3  25    1.03    0.50
  -7  -3  25    0.37    0.42
  -6  -3  25    1.01    0.52
  -5  -3  25    0.65    0.55
  -4  -3  25    0.67    0.46
  -3  -3  25    0.26    0.48
  -2  -3  25    0.79    0.54
  -1  -3  25    1.32    0.61
   0  -3  25    1.16    0.66
   1  -3  25    2.71    0.78
   2  -3  25   -0.13    0.53
   3  -3  25    2.90    1.13
   4  -3  25    0.38    0.78
   5  -3  25    0.55    0.85
 -15  -2  25    1.25    0.99
 -14  -2  25    0.29    0.63
 -13  -2  25    2.11    0.93
 -12  -2  25    2.15    0.93
 -11  -2  25    2.22    1.01
 -10  -2  25    0.41    0.69
  -9  -2  25    1.98    0.91
  -8  -2  25   -0.16    0.59
  -7  -2  25    0.47    0.39
  -6  -2  25    6.45    0.97
  -5  -2  25   -0.48    0.34
  -4  -2  25    1.29    0.49
  -3  -2  25    0.72    0.46
  -2  -2  25   -0.17    0.37
  -1  -2  25    5.53    0.87
   0  -2  25   -0.05    0.37
   1  -2  25    2.40    0.71
   2  -2  25    2.50    0.70
   3  -2  25    0.70    0.83
   4  -2  25   -0.54    0.63
   5  -2  25   -0.21    0.61
   6  -2  25    0.42    0.92
 -15  -1  25    0.51    0.71
 -14  -1  25   -0.39    0.62
 -13  -1  25    1.12    0.76
 -12  -1  25   -0.16    0.62
 -11  -1  25    1.05    0.73
 -10  -1  25   -0.09    0.48
  -9  -1  25    0.43    0.70
  -8  -1  25    1.24    0.73
  -7  -1  25    0.19    0.48
  -6  -1  25   -0.02    0.36
  -5  -1  25   -0.27    0.31
  -4  -1  25    0.04    0.32
  -3  -1  25   -0.03    0.37
  -2  -1  25   -0.07    0.32
  -1  -1  25    0.40    0.41
   0  -1  25    0.30    0.41
   1  -1  25    0.73    0.51
   2  -1  25   -0.37    0.37
   3  -1  25    0.94    0.53
   4  -1  25   -0.07    0.44
   5  -1  25    0.09    0.66
   6  -1  25   -0.49    0.55
   7  -1  25   -0.60    0.69
 -16   0  25   -0.61    0.62
 -15   0  25   -0.75    0.57
 -14   0  25   -0.29    0.56
 -13   0  25    0.95    0.70
 -12   0  25    0.48    0.63
 -11   0  25    0.18    0.42
 -10   0  25    0.11    0.37
  -9   0  25    0.11    0.38
  -8   0  25    0.03    0.52
  -7   0  25   -0.18    0.46
  -6   0  25   -0.35    0.47
  -5   0  25   -0.01    0.31
  -4   0  25    0.37    0.39
  -3   0  25    0.02    0.34
  -2   0  25    0.10    0.37
  -1   0  25    0.02    0.35
   0   0  25   -0.16    0.35
   1   0  25   -0.20    0.30
   2   0  25    0.15    0.37
   3   0  25    0.30    0.40
   4   0  25   -0.22    0.45
   5   0  25   -0.35    0.44
   6   0  25   -0.95    0.61
   7   0  25   -0.89    0.67
 -15   1  25   -0.02    0.72
 -14   1  25    0.23    0.45
 -13   1  25    0.33    0.40
 -12   1  25   -0.27    0.41
 -11   1  25    0.99    0.49
 -10   1  25   -0.47    0.34
  -9   1  25   -0.11    0.32
  -8   1  25    0.39    0.53
  -7   1  25   -0.36    0.41
  -6   1  25   -0.12    0.37
  -5   1  25   -0.77    0.31
  -4   1  25    0.59    0.38
  -3   1  25   -0.19    0.33
  -2   1  25   -0.22    0.33
  -1   1  25    0.05    0.36
   0   1  25    0.05    0.40
   1   1  25    0.20    0.45
   2   1  25    0.30    0.42
   3   1  25    0.81    0.54
   4   1  25   -0.31    0.38
   5   1  25    0.15    0.48
   6   1  25    0.24    0.50
   7   1  25    0.56    0.57
 -15   2  25    0.26    0.72
 -14   2  25   -0.01    0.64
 -13   2  25    1.40    0.57
 -12   2  25    2.05    0.59
 -11   2  25    3.35    0.71
 -10   2  25    0.99    0.49
  -9   2  25    0.86    0.46
  -8   2  25    0.54    0.60
  -7   2  25   -0.13    0.56
  -6   2  25    8.20    1.53
  -5   2  25    0.04    0.45
  -4   2  25    1.21    0.81
  -3   2  25    1.17    0.51
  -2   2  25    0.09    0.42
  -1   2  25    2.02    0.61
   0   2  25   -0.27    0.41
   1   2  25    1.93    0.63
   2   2  25    0.69    0.51
   3   2  25   -0.14    0.38
   4   2  25    0.34    0.46
   5   2  25    0.71    0.49
   6   2  25    0.55    0.52
   7   2  25    0.70    0.87
 -14   3  25   -0.22    0.55
 -13   3  25    2.01    0.95
 -12   3  25    1.73    0.89
 -11   3  25    4.77    0.85
 -10   3  25    0.64    0.45
  -9   3  25    0.28    0.41
  -8   3  25    0.53    0.69
  -7   3  25    0.89    0.64
  -6   3  25    0.50    0.62
  -5   3  25    1.24    0.74
  -4   3  25    0.07    0.60
  -3   3  25   -0.11    0.47
  -2   3  25    0.44    0.41
  -1   3  25    1.39    0.55
   0   3  25    1.39    0.58
   1   3  25    2.44    0.66
   2   3  25    0.35    0.53
   3   3  25    3.38    0.85
   4   3  25   -0.11    0.46
   5   3  25    0.10    0.52
   6   3  25    1.68    0.98
 -12   4  25    3.98    1.23
 -11   4  25    2.31    0.93
 -10   4  25    2.12    0.67
  -9   4  25    1.18    0.55
  -8   4  25    0.03    0.39
  -7   4  25   -0.46    0.54
  -6   4  25   15.78    2.14
  -5   4  25   -0.20    0.61
  -4   4  25    2.98    1.06
  -3   4  25    2.13    0.86
  -2   4  25    0.18    0.53
  -1   4  25    9.08    1.20
   0   4  25   -0.11    0.47
   1   4  25    2.97    0.77
   2   4  25    4.39    0.94
   3   4  25   -0.34    0.49
   4   4  25    1.08    0.65
  -9   5  25    2.08    1.09
  -8   5  25    0.13    0.43
  -7   5  25    0.00    0.50
  -6   5  25    0.32    0.72
  -5   5  25    0.49    0.82
  -4   5  25    2.05    0.94
  -3   5  25    0.56    0.75
  -2   5  25    1.65    0.96
  -1   5  25    1.75    0.99
   0   5  25    1.20    0.66
   1   5  25    2.97    0.79
   2   5  25    1.60    0.99
  -6   6  25    3.42    1.30
  -5   6  25   -0.47    0.74
  -4   6  25   -0.09    0.73
  -3   6  25    0.55    1.22
  -9  -5  26    9.10    1.73
  -8  -5  26    7.44    1.17
  -7  -5  26   -0.17    0.50
  -6  -5  26   12.28    1.55
  -5  -5  26    0.11    0.63
  -4  -5  26   25.81    2.26
  -3  -5  26    0.49    0.64
  -2  -5  26    9.35    1.93
  -1  -5  26    2.03    1.42
 -11  -4  26    1.67    1.46
 -10  -4  26    2.52    1.14
  -9  -4  26    1.29    0.90
  -8  -4  26    0.12    0.48
  -7  -4  26    0.32    0.52
  -6  -4  26    0.91    0.55
  -5  -4  26    1.07    0.58
  -4  -4  26    0.51    0.56
  -3  -4  26   -0.42    0.45
  -2  -4  26    0.90    0.74
  -1  -4  26    3.48    1.21
   0  -4  26    0.94    0.88
   1  -4  26    9.73    1.99
   2  -4  26    0.30    0.84
 -12  -3  26   18.98    2.55
 -11  -3  26    5.82    1.50
 -10  -3  26    9.50    1.80
  -9  -3  26    1.18    0.88
  -8  -3  26   16.05    1.57
  -7  -3  26   18.33    1.68
  -6  -3  26    9.41    1.22
  -5  -3  26    0.26    0.43
  -4  -3  26    4.44    0.88
  -3  -3  26   -0.33    0.43
  -2  -3  26   73.47    3.41
  -1  -3  26   13.13    1.54
   0  -3  26    0.17    0.56
   1  -3  26    0.22    0.83
   2  -3  26    6.52    1.62
   3  -3  26   -0.06    0.74
   4  -3  26    4.14    1.36
 -14  -2  26    2.51    1.06
 -13  -2  26   10.16    1.84
 -12  -2  26   19.22    2.55
 -11  -2  26    0.83    0.80
 -10  -2  26    2.44    0.99
  -9  -2  26    1.16    0.77
  -8  -2  26    0.72    0.81
  -7  -2  26    0.43    0.45
  -6  -2  26   -0.06    0.38
  -5  -2  26    2.80    0.72
  -4  -2  26    0.04    0.43
  -3  -2  26    0.80    0.46
  -2  -2  26    0.23    0.42
  -1  -2  26    5.07    0.93
   0  -2  26    0.31    0.50
   1  -2  26   16.58    1.61
   2  -2  26    1.73    0.72
   3  -2  26   -0.39    0.62
   4  -2  26    4.98    1.58
   5  -2  26    6.18    1.60
 -15  -1  26    0.58    0.83
 -14  -1  26    9.84    1.75
 -13  -1  26    6.24    1.42
 -12  -1  26   13.50    2.06
 -11  -1  26    2.30    0.99
 -10  -1  26   26.08    2.85
  -9  -1  26    0.31    0.70
  -8  -1  26   18.58    2.36
  -7  -1  26   19.29    2.39
  -6  -1  26   33.63    2.09
  -5  -1  26   -0.14    0.35
  -4  -1  26   16.37    1.50
  -3  -1  26    0.64    0.49
  -2  -1  26   96.36    4.04
  -1  -1  26    1.93    0.62
   0  -1  26    0.45    0.44
   1  -1  26    1.27    0.55
   2  -1  26    1.59    0.62
   3  -1  26    0.38    0.47
   4  -1  26    0.25    0.76
   5  -1  26    4.20    1.41
   6  -1  26   12.04    2.16
 -15   0  26   13.87    2.09
 -14   0  26   10.60    1.82
 -13   0  26   -0.19    0.56
 -12   0  26   19.17    2.42
 -11   0  26   12.90    1.93
 -10   0  26   18.88    1.58
  -9   0  26   -0.28    0.35
  -8   0  26    1.04    0.78
  -7   0  26    0.36    0.61
  -6   0  26    1.35    0.73
  -5   0  26    0.31    0.37
  -4   0  26    0.26    0.38
  -3   0  26    3.35    0.71
  -2   0  26   13.10    1.39
  -1   0  26    4.46    0.82
   0   0  26   10.14    1.18
   1   0  26    8.28    1.12
   2   0  26    0.32    0.43
   3   0  26    3.17    0.79
   4   0  26    8.96    1.23
   5   0  26   21.93    1.92
   6   0  26    7.67    1.76
 -14   1  26    7.73    1.08
 -13   1  26    3.11    0.75
 -12   1  26   17.43    1.52
 -11   1  26    1.33    0.55
 -10   1  26   21.80    1.74
  -9   1  26   -0.44    0.31
  -8   1  26   16.74    2.20
  -7   1  26   17.20    2.18
  -6   1  26   35.84    2.89
  -5   1  26   -0.13    0.46
  -4   1  26   18.76    1.52
  -3   1  26    1.11    0.47
  -2   1  26   99.11    4.04
  -1   1  26    1.58    0.57
   0   1  26    0.12    0.42
   1   1  26    2.13    0.63
   2   1  26    4.10    0.84
   3   1  26    0.06    0.39
   4   1  26    0.14    0.53
   5   1  26    2.64    0.78
   6   1  26    7.39    1.15
 -14   2  26    1.87    0.84
 -13   2  26   10.50    1.23
 -12   2  26   18.94    1.62
 -11   2  26    0.19    0.45
 -10   2  26    1.26    0.52
  -9   2  26    0.04    0.37
  -8   2  26    0.71    0.71
  -7   2  26   -0.17    0.56
  -6   2  26    0.34    0.60
  -5   2  26    5.09    1.21
  -4   2  26   -0.15    0.44
  -3   2  26    0.23    0.35
  -2   2  26    0.80    0.47
  -1   2  26    8.27    1.09
   0   2  26   -0.54    0.39
   1   2  26   12.40    1.44
   2   2  26    0.76    0.50
   3   2  26   -0.12    0.49
   4   2  26    4.93    0.97
   5   2  26    5.40    1.02
   6   2  26   12.92    2.06
 -13   3  26    3.47    1.17
 -12   3  26   22.39    2.62
 -11   3  26    4.83    0.88
 -10   3  26    9.17    1.19
  -9   3  26    0.19    0.45
  -8   3  26   19.23    2.46
  -7   3  26   14.61    2.10
  -6   3  26    6.19    1.49
  -5   3  26    0.38    0.62
  -4   3  26    5.52    1.33
  -3   3  26   -0.09    0.55
  -2   3  26   71.99    3.28
  -1   3  26   15.58    1.51
   0   3  26   -0.25    0.38
   1   3  26    0.06    0.51
   2   3  26   11.08    1.37
   3   3  26    0.47    0.54
   4   3  26    4.31    0.94
 -11   4  26    1.61    0.96
 -10   4  26    2.51    0.73
  -9   4  26    1.11    0.57
  -8   4  26   -0.36    0.41
  -7   4  26    0.19    0.64
  -6   4  26    1.60    0.88
  -5   4  26    2.62    1.00
  -4   4  26   -0.10    0.67
  -3   4  26   -0.25    0.53
  -2   4  26    0.43    0.80
  -1   4  26    2.11    0.67
   0   4  26    0.10    0.47
   1   4  26    8.00    1.17
   2   4  26    0.41    0.57
   3   4  26   -0.77    0.73
  -8   5  26    8.44    1.63
  -7   5  26    0.29    0.51
  -6   5  26   13.10    2.07
  -5   5  26    1.10    0.85
  -4   5  26   26.39    3.08
  -3   5  26    0.23    0.81
  -2   5  26   11.25    1.98
  -1   5  26    0.67    0.82
   1   5  26    1.98    1.17
  -7  -5  27    0.58    1.04
  -6  -5  27    0.37    0.69
  -5  -5  27    0.82    0.76
  -4  -5  27    4.00    1.59
  -9  -4  27    0.15    0.85
  -8  -4  27    0.12    0.56
  -7  -4  27    5.32    1.00
  -6  -4  27    1.98    0.72
  -5  -4  27    4.25    0.90
  -4  -4  27    0.92    0.68
  -3  -4  27    0.23    0.59
  -2  -4  27   -0.45    0.56
  -1  -4  27    0.14    0.87
   0  -4  27    2.72    1.15
 -11  -3  27   -0.16    0.77
 -10  -3  27    0.61    0.94
  -9  -3  27    0.98    0.88
  -8  -3  27   -0.17    0.76
  -7  -3  27    0.35    0.46
  -6  -3  27   -0.16    0.41
  -5  -3  27    0.46    0.51
  -4  -3  27   -0.28    0.44
  -3  -3  27    1.33    0.64
  -2  -3  27    1.58    0.67
  -1  -3  27   -0.04    0.48
   0  -3  27    0.26    0.56
   1  -3  27    0.17    0.81
   2  -3  27    1.71    1.08
   3  -3  27    0.69    1.18
 -13  -2  27   -0.64    0.70
 -12  -2  27    3.96    1.31
 -11  -2  27   -0.32    0.64
 -10  -2  27    0.90    0.83
  -9  -2  27    0.83    0.75
  -8  -2  27    0.32    0.82
  -7  -2  27    2.98    1.15
  -6  -2  27    0.32    0.49
  -5  -2  27    4.95    0.90
  -4  -2  27   -0.22    0.39
  -3  -2  27    0.45    0.46
  -2  -2  27    0.05    0.43
  -1  -2  27   -0.28    0.37
   0  -2  27    2.50    0.72
   1  -2  27   -0.46    0.47
   2  -2  27    0.67    0.67
   3  -2  27   -0.26    0.74
   4  -2  27    0.25    0.87
 -14  -1  27   -0.35    0.81
 -13  -1  27   -0.30    0.64
 -12  -1  27   -0.17    0.71
 -11  -1  27   -0.93    0.58
 -10  -1  27    0.30    0.76
  -9  -1  27   -0.13    0.51
  -8  -1  27   -0.46    0.54
  -7  -1  27    0.87    0.72
  -6  -1  27   -0.14    0.36
  -5  -1  27    0.07    0.41
  -4  -1  27    0.03    0.37
  -3  -1  27    0.00    0.45
  -2  -1  27   -0.03    0.41
  -1  -1  27    0.08    0.39
   0  -1  27    0.19    0.46
   1  -1  27    0.26    0.48
   2  -1  27   -0.06    0.47
   3  -1  27    0.18    0.50
   4  -1  27    0.74    0.76
   5  -1  27    0.84    1.31
 -14   0  27   -0.13    0.68
 -13   0  27   -0.38    0.73
 -12   0  27   -0.12    0.68
 -11   0  27   -0.32    0.57
 -10   0  27    0.40    0.77
  -9   0  27   -0.14    0.43
  -8   0  27    0.25    0.61
  -7   0  27    0.29    0.54
  -6   0  27   -0.21    0.51
  -5   0  27    0.42    0.46
  -4   0  27   -0.18    0.40
  -3   0  27   -0.04    0.38
  -2   0  27   -0.06    0.35
  -1   0  27   -0.39    0.35
   0   0  27    0.16    0.43
   1   0  27   -0.09    0.42
   2   0  27    0.16    0.42
   3   0  27   -0.19    0.43
   4   0  27    0.16    0.52
   5   0  27    0.22    0.55
 -14   1  27    0.60    0.80
 -13   1  27   -0.43    0.41
 -12   1  27    0.04    0.46
 -11   1  27   -0.05    0.39
 -10   1  27    0.46    0.46
  -9   1  27    0.01    0.60
  -8   1  27    0.17    0.55
  -7   1  27   -0.21    0.51
  -6   1  27    0.99    0.70
  -5   1  27   -0.17    0.47
  -4   1  27    0.51    0.43
  -3   1  27   -0.26    0.39
  -2   1  27    0.53    0.45
  -1   1  27    0.00    0.40
   0   1  27   -0.24    0.40
   1   1  27    0.61    0.50
   2   1  27    0.35    0.49
   3   1  27   -0.05    0.49
   4   1  27   -0.27    0.49
   5   1  27   -0.15    0.52
 -13   2  27   -0.21    0.50
 -12   2  27    2.38    0.68
 -11   2  27    0.47    0.50
 -10   2  27    0.86    0.56
  -9   2  27    0.07    0.46
  -8   2  27    0.06    0.66
  -7   2  27    4.98    1.21
  -6   2  27    0.17    0.67
  -5   2  27    3.78    1.19
  -4   2  27   -0.52    0.44
  -3   2  27    0.80    0.49
  -2   2  27    0.12    0.42
  -1   2  27    0.24    0.46
   0   2  27    2.17    0.68
   1   2  27    0.29    0.48
   2   2  27    1.63    0.63
   3   2  27   -0.30    0.51
   4   2  27    0.36    0.52
   5   2  27    0.10    0.73
 -12   3  27   -0.31    0.59
 -11   3  27   -0.54    0.40
 -10   3  27    0.03    0.41
  -9   3  27    0.62    0.50
  -8   3  27    0.57    0.73
  -7   3  27    0.62    0.71
  -6   3  27    0.10    0.56
  -5   3  27    0.53    0.68
  -4   3  27    0.84    0.71
  -3   3  27   -0.30    0.55
  -2   3  27    2.19    0.77
  -1   3  27   -0.07    0.47
   0   3  27    0.24    0.52
   1   3  27   -0.16    0.48
   2   3  27    1.44    0.66
   3   3  27    1.81    0.67
 -10   4  27   -0.49    0.70
  -9   4  27    0.57    0.56
  -8   4  27    0.52    0.48
  -7   4  27    3.99    1.18
  -6   4  27    0.87    0.74
  -5   4  27    4.68    1.34
  -4   4  27    0.48    0.79
  -3   4  27    0.13    0.80
  -2   4  27    0.20    0.73
  -1   4  27    0.59    0.88
   0   4  27    4.44    0.97
   1   4  27   -0.64    0.69
   2   4  27    3.54    1.27
  -7   5  27   -0.39    0.75
  -6   5  27    0.88    0.88
  -5   5  27    3.43    1.23
  -4   5  27    0.94    1.03
  -8  -4  28    6.41    2.10
  -7  -4  28   19.79    1.92
  -6  -4  28    0.35    0.60
  -5  -4  28    4.65    0.99
  -4  -4  28    0.55    0.66
  -3  -4  28    5.66    1.14
  -2  -4  28    3.48    0.94
 -10  -3  28   10.93    2.23
  -9  -3  28    0.38    0.77
  -8  -3  28   -1.48    0.65
  -7  -3  28   12.33    1.46
  -6  -3  28    4.45    0.97
  -5  -3  28    0.92    0.61
  -4  -3  28    1.03    0.66
  -3  -3  28    0.03    0.55
  -2  -3  28   -0.18    0.55
  -1  -3  28   -0.29    0.54
   0  -3  28    0.47    0.79
   1  -3  28    4.41    1.41
 -11  -2  28    2.16    1.00
 -10  -2  28   10.35    1.90
  -9  -2  28    3.00    1.16
  -8  -2  28    9.81    1.87
  -7  -2  28   18.95    2.61
  -6  -2  28    1.65    0.64
  -5  -2  28    4.69    0.94
  -4  -2  28    0.57    0.52
  -3  -2  28    2.65    0.73
  -2  -2  28    4.73    0.89
  -1  -2  28   12.02    1.47
   0  -2  28   -0.25    0.44
   1  -2  28    1.61    0.70
   2  -2  28    0.21    0.80
 -12  -1  28    0.50    0.91
 -11  -1  28    0.55    0.82
 -10  -1  28    0.82    0.83
  -9  -1  28    5.43    1.41
  -8  -1  28    9.42    1.79
  -7  -1  28    5.20    1.30
  -6  -1  28   10.86    1.84
  -5  -1  28    9.45    1.19
  -4  -1  28    0.11    0.44
  -3  -1  28    6.08    0.99
  -2  -1  28    0.97    0.52
  -1  -1  28    1.56    0.64
   0  -1  28    0.71    0.51
   1  -1  28   21.49    1.94
   2  -1  28    4.15    0.91
   3  -1  28    9.80    1.28
 -13   0  28    0.30    0.75
 -12   0  28   -0.80    0.66
 -11   0  28    0.55    0.81
 -10   0  28   13.24    2.03
  -9   0  28    0.35    0.65
  -8   0  28    0.61    0.72
  -7   0  28   46.15    3.46
  -6   0  28    0.00    0.58
  -5   0  28    8.85    1.67
  -4   0  28   -0.30    0.41
  -3   0  28   21.78    1.81
  -2   0  28    4.80    0.93
  -1   0  28    4.99    0.90
   0   0  28    0.27    0.49
   1   0  28    0.44    0.52
   2   0  28    1.49    0.68
   3   0  28    1.81    0.66
   4   0  28    0.43    0.82
 -13   1  28   18.71    2.51
 -12   1  28    0.05    0.55
 -11   1  28    0.11    0.44
 -10   1  28    1.17    0.51
  -9   1  28    5.93    1.43
  -8   1  28    6.20    1.43
  -7   1  28    3.54    1.20
  -6   1  28   10.39    1.80
  -5   1  28   10.54    1.84
  -4   1  28    1.11    0.79
  -3   1  28    8.20    1.10
  -2   1  28    1.70    0.62
  -1   1  28    0.42    0.47
   0   1  28    1.24    0.50
   1   1  28   22.09    1.93
   2   1  28    3.60    0.87
   3   1  28    9.20    1.27
   4   1  28   15.58    2.32
 -12   2  28    3.23    0.80
 -11   2  28    1.48    0.62
 -10   2  28    6.95    1.02
  -9   2  28    2.84    0.73
  -8   2  28   14.61    2.11
  -7   2  28   22.19    2.67
  -6   2  28    1.96    1.00
  -5   2  28    1.76    0.82
  -4   2  28    2.79    1.10
  -3   2  28    2.48    0.98
  -2   2  28    3.54    0.78
  -1   2  28   13.08    1.47
   0   2  28    0.54    0.56
   1   2  28    2.29    0.75
   2   2  28    0.71    0.56
   3   2  28    0.54    0.50
 -11   3  28    0.35    0.74
 -10   3  28   11.34    1.35
  -9   3  28    0.80    0.51
  -8   3  28    0.22    0.62
  -7   3  28    8.35    1.74
  -6   3  28    3.24    1.17
  -5   3  28    2.31    1.07
  -4   3  28    1.42    0.79
  -3   3  28    0.45    0.76
  -2   3  28   -0.41    0.75
  -1   3  28   -0.11    0.49
   0   3  28   -0.41    0.48
   1   3  28    4.06    1.00
   2   3  28    5.33    1.58
  -9   4  28    0.69    0.90
  -8   4  28    5.05    1.36
  -7   4  28   17.30    2.45
  -6   4  28    0.22    0.76
  -5   4  28    4.00    1.27
  -4   4  28    0.48    0.70
  -3   4  28    4.20    1.33
  -2   4  28    1.65    1.25
   0   4  28    0.07    0.82
  -4  -4  29    3.03    1.37
  -8  -3  29    0.95    0.98
  -7  -3  29    1.05    0.83
  -6  -3  29   -0.08    0.55
  -5  -3  29    0.37    0.56
  -4  -3  29    0.05    0.54
  -3  -3  29    0.06    0.58
  -2  -3  29    0.10    0.54
  -1  -3  29   -0.06    0.63
 -10  -2  29    0.10    0.79
  -9  -2  29    0.35    0.81
  -8  -2  29    1.23    1.00
  -7  -2  29    0.17    0.70
  -6  -2  29    0.86    0.57
  -5  -2  29    0.85    0.60
  -4  -2  29    2.57    0.73
  -3  -2  29   -0.10    0.49
  -2  -2  29    0.25    0.52
  -1  -2  29   -0.55    0.42
   0  -2  29    0.27    0.62
   1  -2  29    2.35    0.78
 -11  -1  29    0.41    0.71
 -10  -1  29   -0.62    0.73
  -9  -1  29    0.64    0.79
  -8  -1  29   -0.77    0.51
  -7  -1  29    0.15    0.74
  -6  -1  29   -0.85    0.56
  -5  -1  29    0.59    0.51
  -4  -1  29    0.86    0.55
  -3  -1  29    0.26    0.48
  -2  -1  29    0.38    0.47
  -1  -1  29   -0.04    0.50
   0  -1  29    0.32    0.49
   1  -1  29   -0.59    0.52
   2  -1  29   -0.40    0.48
 -12   0  29   -0.36    1.17
 -11   0  29   -1.15    0.64
 -10   0  29   -0.14    0.86
  -9   0  29    0.16    0.71
  -8   0  29    1.54    0.91
  -7   0  29    0.14    0.74
  -6   0  29    0.18    0.66
  -5   0  29    0.43    0.77
  -4   0  29   -0.35    0.39
  -3   0  29    0.07    0.47
  -2   0  29   -0.31    0.42
  -1   0  29    0.25    0.49
   0   0  29    0.25    0.46
   1   0  29    0.19    0.53
   2   0  29    0.30    0.55
   3   0  29    0.88    0.93
 -12   1  29    0.37    0.62
 -11   1  29    0.29    0.49
 -10   1  29   -0.42    0.47
  -9   1  29    0.03    0.47
  -8   1  29    0.14    0.62
  -7   1  29    0.25    0.71
  -6   1  29    0.06    0.61
  -5   1  29   -0.04    0.55
  -4   1  29   -0.05    0.58
  -3   1  29   -0.03    0.45
  -2   1  29   -0.03    0.48
  -1   1  29    1.14    0.58
   0   1  29    0.09    0.48
   1   1  29    0.12    0.47
   2   1  29    0.11    0.50
   3   1  29    1.52    1.35
 -11   2  29    1.76    0.62
 -10   2  29    0.31    0.51
  -9   2  29   -0.02    0.46
  -8   2  29   -0.33    0.74
  -7   2  29   -0.45    0.66
  -6   2  29    2.21    1.05
  -5   2  29    1.13    0.82
  -4   2  29    2.25    1.05
  -3   2  29    0.38    0.66
  -2   2  29    0.07    0.50
  -1   2  29    0.50    0.55
   0   2  29    0.79    0.57
   1   2  29    2.40    0.78
 -10   3  29    0.30    0.93
  -9   3  29    1.37    0.87
  -8   3  29    0.76    0.80
  -7   3  29    0.53    0.75
  -6   3  29    0.44    0.79
  -5   3  29    0.04    0.81
  -4   3  29    0.11    0.69
  -3   3  29    0.31    0.70
  -2   3  29    0.66    0.76
  -1   3  29    0.01    0.80
   0   3  29    1.53    0.91
  -6  -3  30   11.97    2.07
  -5  -3  30    4.14    1.23
  -4  -3  30   -0.29    0.54
  -3  -3  30    2.09    1.07
  -7  -2  30    2.51    1.20
  -6  -2  30    0.63    0.89
  -5  -2  30   12.66    1.48
  -4  -2  30    0.30    0.56
  -3  -2  30   25.14    2.12
  -2  -2  30    0.94    0.64
  -1  -2  30    0.59    0.67
   0  -2  30    8.14    1.75
  -9  -1  30    8.47    2.05
  -8  -1  30    2.31    1.08
  -7  -1  30    0.57    0.80
  -6  -1  30   15.02    2.26
  -5  -1  30    2.12    1.07
  -4  -1  30   -0.53    0.43
  -3  -1  30   -0.23    0.49
  -2  -1  30    0.67    0.54
  -1  -1  30    6.76    1.10
   0  -1  30    6.89    1.08
   1  -1  30   -0.69    0.81
  -9   0  30   -0.19    0.64
  -8   0  30    4.20    1.28
  -7   0  30    0.15    0.63
  -6   0  30    6.20    1.50
  -5   0  30    6.62    1.54
  -4   0  30    9.09    1.34
  -3   0  30   27.80    2.18
  -2   0  30    7.91    1.08
  -1   0  30   -0.37    0.43
   0   0  30    4.49    0.96
   1   0  30   30.28    2.66
 -11   1  30    5.34    1.33
 -10   1  30    3.79    1.20
  -9   1  30    9.51    1.28
  -8   1  30    0.60    0.75
  -7   1  30    0.73    0.78
  -6   1  30    9.01    1.73
  -5   1  30    1.01    0.88
  -4   1  30   -0.09    0.70
  -3   1  30    0.50    0.64
  -2   1  30   -0.17    0.49
  -1   1  30    5.55    0.95
   0   1  30    6.53    1.11
  -9   2  30    3.70    1.23
  -8   2  30    3.75    1.30
  -7   2  30    1.10    0.91
  -6   2  30    0.53    0.74
  -5   2  30   13.05    2.12
  -4   2  30    0.11    0.80
  -3   2  30   22.60    2.84
  -2   2  30    0.89    0.93
  -1   2  30    1.56    1.01
   0   2  30    7.77    1.72
  -5  -2  31    1.68    1.00
  -4  -2  31    0.29    0.81
  -4  -1  31    0.59    0.60
  -3  -1  31    0.43    0.61
  -2  -1  31   -0.03    0.72
  -5   0  31   -0.43    0.71
  -4   0  31    0.17    0.86
  -3   0  31   -0.85    0.45
  -2   0  31   -0.55    0.71
  -1   0  31   -0.49    0.81
  -2   1  31    0.38    0.69
  -1   1  31   -0.52    0.72
   0   0   0    0.00    0.00
;
_shelx_hkl_checksum              80061
loop_
_space_group_symop_operation_xyz
'x, y, z'
'-x, y+1/2, -z+1/2'
'-x, -y, -z'
'x, -y-1/2, z-1/2'
loop_
_atom_site_label
_atom_site_type_symbol
_atom_site_fract_x
_atom_site_fract_y
_atom_site_fract_z
_atom_site_U_iso_or_equiv
_atom_site_adp_type
_atom_site_occupancy
_atom_site_site_symmetry_order
_atom_site_calc_flag
_atom_site_refinement_flags_posn
_atom_site_refinement_flags_adp
_atom_site_refinement_flags_occupancy
_atom_site_disorder_assembly
_atom_site_disorder_group
Ba1 Ba 0.10703(3) 0.23543(6) 0.21588(2) 0.01792(9) Uani 1 1 d . . . . .
Ba2 Ba 0.14642(3) 0.74287(5) 0.04884(2) 0.01620(8) Uani 1 1 d . . . . .
Ba3 Ba 0.38150(3) 0.23679(5) 0.03748(2) 0.01630(8) Uani 1 1 d . . . . .
Ba4 Ba 0.47370(3) 0.23184(5) 0.31263(2) 0.01592(8) Uani 1 1 d . . . . .
Ga1 Ga 0.11465(6) 0.32190(11) 0.40173(4) 0.01611(15) Uani 1 1 d . . . . .
Ga2 Ga 0.69640(6) 0.31602(11) 0.10019(4) 0.01523(14) Uani 1 1 d . . . . .
Se1 Se 0.04226(5) 0.73538(9) 0.17843(3) 0.01609(13) Uani 1 1 d . . . . .
Se2 Se 0.11592(5) 0.24527(9) 0.01461(3) 0.01631(13) Uani 1 1 d . . . . .
Se3 Se 0.12759(5) 0.69471(10) 0.38379(4) 0.01900(14) Uani 1 1 d . . . . .
Se4 Se 0.27135(5) 0.18871(10) 0.37405(3) 0.01670(13) Uani 1 1 d . . . . .
Se5 Se 0.31194(5) 0.42055(10) 0.17469(4) 0.01835(14) Uani 1 1 d . . . . .
Se6 Se 0.31287(5) 0.04928(10) 0.17398(3) 0.01811(14) Uani 1 1 d . . . . .
Se7 Se 0.57993(5) 0.22635(9) 0.16481(3) 0.01722(13) Uani 1 1 d . . . . .
Se8 Se 0.60976(5) 0.23526(9) 0.48230(3) 0.01657(13) Uani 1 1 d . . . . .
loop_
_atom_site_aniso_label
_atom_site_aniso_U_11
_atom_site_aniso_U_22
_atom_site_aniso_U_33
_atom_site_aniso_U_23
_atom_site_aniso_U_13
_atom_site_aniso_U_12
Ba1 0.01453(18) 0.01961(18) 0.0206(2) 0.00030(14) 0.00622(15) -0.00015(14)
Ba2 0.01672(18) 0.01476(16) 0.01810(19) -0.00016(13) 0.00619(14) -0.00010(13)
Ba3 0.01765(19) 0.01451(16) 0.01684(19) 0.00061(13) 0.00443(14) 0.00015(13)
Ba4 0.01542(18) 0.01496(16) 0.01726(18) 0.00019(13) 0.00382(14) -0.00004(13)
Ga1 0.0149(3) 0.0170(3) 0.0165(4) 0.0001(3) 0.0041(3) 0.0004(3)
Ga2 0.0148(3) 0.0154(3) 0.0160(3) 0.0002(3) 0.0048(3) 0.0012(2)
Se1 0.0144(3) 0.0171(3) 0.0167(3) 0.0021(2) 0.0038(2) 0.0020(2)
Se2 0.0187(3) 0.0148(3) 0.0157(3) -0.0016(2) 0.0046(2) 0.0000(2)
Se3 0.0143(3) 0.0180(3) 0.0231(3) 0.0035(2) 0.0016(3) -0.0021(2)
Se4 0.0157(3) 0.0158(3) 0.0200(3) 0.0017(2) 0.0071(3) 0.0020(2)
Se5 0.0162(3) 0.0177(3) 0.0215(4) 0.0001(2) 0.0054(3) -0.0007(2)
Se6 0.0161(3) 0.0180(3) 0.0204(4) -0.0002(2) 0.0047(3) 0.0003(2)
Se7 0.0191(3) 0.0158(3) 0.0185(3) 0.0009(2) 0.0080(3) -0.0020(2)
Se8 0.0190(3) 0.0146(3) 0.0157(3) 0.0010(2) 0.0037(2) 0.0004(2)
loop_
_atom_type_symbol
_atom_type_description
_atom_type_scat_dispersion_real
_atom_type_scat_dispersion_imag
_atom_type_scat_source
Ga Ga 0.2307 1.6083 'International Tables Vol C Tables 4.2.6.8 and 6.1.1.4'
Se Se -0.0929 2.2259 'International Tables Vol C Tables 4.2.6.8 and 6.1.1.4'
Ba Ba -0.3244 2.2819 'International Tables Vol C Tables 4.2.6.8 and 6.1.1.4'
loop_
_geom_angle_atom_site_label_1
_geom_angle_atom_site_label_2
_geom_angle_atom_site_label_3
_geom_angle
_geom_angle_site_symmetry_1
_geom_angle_site_symmetry_3
Se5 Ba1 Se6 42.794(18) . .
Se5 Ba1 Se3 125.76(2) . 2_545
Se6 Ba1 Se3 121.60(2) . 2_545
Se5 Ba1 Se1 148.06(2) . 2_545
Se6 Ba1 Se1 148.19(2) . 2_545
Se3 Ba1 Se1 77.58(2) 2_545 2_545
Se5 Ba1 Se1 76.865(18) . .
Se6 Ba1 Se1 117.94(2) . .
Se3 Ba1 Se1 77.562(18) 2_545 .
Se1 Ba1 Se1 89.523(18) 2_545 .
Se5 Ba1 Se1 118.00(2) . 1_545
Se6 Ba1 Se1 76.832(18) . 1_545
Se3 Ba1 Se1 68.439(17) 2_545 1_545
Se1 Ba1 Se1 89.512(18) 2_545 1_545
Se1 Ba1 Se1 145.37(2) . 1_545
Se5 Ba1 Se4 84.737(19) . .
Se6 Ba1 Se4 81.241(19) . .
Se3 Ba1 Se4 149.40(2) 2_545 .
Se1 Ba1 Se4 73.415(18) 2_545 .
Se1 Ba1 Se4 111.377(19) . .
Se1 Ba1 Se4 101.459(18) 1_545 .
Se5 Ba1 Ga1 112.84(2) . .
Se6 Ba1 Ga1 119.73(2) . .
Se3 Ba1 Ga1 115.03(2) 2_545 .
Se1 Ba1 Ga1 37.905(17) 2_545 .
Se1 Ba1 Ga1 91.907(18) . .
Se1 Ba1 Ga1 107.986(19) 1_545 .
Se4 Ba1 Ga1 38.497(16) . .
Se5 Ba1 Ba1 157.637(16) . 2_545
Se6 Ba1 Ba1 115.382(14) . 2_545
Se3 Ba1 Ba1 65.703(16) 2_545 2_545
Se1 Ba1 Ba1 45.451(14) 2_545 2_545
Se1 Ba1 Ba1 125.490(18) . 2_545
Se1 Ba1 Ba1 44.061(12) 1_545 2_545
Se4 Ba1 Ba1 86.739(16) . 2_545
Ga1 Ba1 Ba1 70.813(15) . 2_545
Se5 Ba1 Ba1 115.350(14) . 2
Se6 Ba1 Ba1 157.663(16) . 2
Se3 Ba1 Ba1 72.363(16) 2_545 2
Se1 Ba1 Ba1 45.462(14) 2_545 2
Se1 Ba1 Ba1 44.060(12) . 2
Se1 Ba1 Ba1 125.493(18) 1_545 2
Se4 Ba1 Ba1 93.513(17) . 2
Ga1 Ba1 Ba1 58.329(14) . 2
Ba1 Ba1 Ba1 85.756(13) 2_545 2
Se5 Ba1 Ba4 44.369(14) . .
Se6 Ba1 Ba4 44.223(14) . .
Se3 Ba1 Ba4 165.596(18) 2_545 .
Se1 Ba1 Ba4 116.032(17) 2_545 .
Se1 Ba1 Ba4 106.004(15) . .
Se1 Ba1 Ba4 105.451(15) 1_545 .
Se4 Ba1 Ba4 42.881(13) . .
Ga1 Ba1 Ba4 79.072(14) . .
Ba1 Ba1 Ba4 119.677(12) 2_545 .
Ba1 Ba1 Ba4 120.111(12) 2 .
Se5 Ba1 Ba2 78.969(15) . 1_545
Se6 Ba1 Ba2 47.617(14) . 1_545
Se3 Ba1 Ba2 75.613(15) 2_545 1_545
Se1 Ba1 Ba2 131.778(16) 2_545 1_545
Se1 Ba1 Ba2 122.092(16) . 1_545
Se1 Ba1 Ba2 43.329(13) 1_545 1_545
Se4 Ba1 Ba2 117.746(15) . 1_545
Ga1 Ba1 Ba2 145.993(15) . 1_545
Ba1 Ba1 Ba2 86.842(8) 2_545 1_545
Ba1 Ba1 Ba2 147.358(15) 2 1_545
Ba4 Ba1 Ba2 91.003(10) . 1_545
Se2 Ba2 Se1 96.116(18) . .
Se2 Ba2 Se2 154.69(3) . 1_565
Se1 Ba2 Se2 97.698(18) . 1_565
Se2 Ba2 Se3 85.652(18) . 4_575
Se1 Ba2 Se3 151.42(2) . 4_575
Se2 Ba2 Se3 72.186(17) 1_565 4_575
Se2 Ba2 Se2 83.056(18) . 3_565
Se1 Ba2 Se2 73.766(18) . 3_565
Se2 Ba2 Se2 80.598(18) 1_565 3_565
Se3 Ba2 Se2 78.168(18) 4_575 3_565
Se2 Ba2 Se8 90.979(18) . 2_655
Se1 Ba2 Se8 138.60(2) . 2_655
Se2 Ba2 Se8 92.553(18) 1_565 2_655
Se3 Ba2 Se8 69.653(18) 4_575 2_655
Se2 Ba2 Se8 147.63(2) 3_565 2_655
Se2 Ba2 Se6 136.02(2) . 1_565
Se1 Ba2 Se6 74.136(18) . 1_565
Se2 Ba2 Se6 68.568(17) 1_565 1_565
Se3 Ba2 Se6 123.085(19) 4_575 1_565
Se2 Ba2 Se6 131.294(19) 3_565 1_565
Se8 Ba2 Se6 72.655(17) 2_655 1_565
Se2 Ba2 Se5 67.384(17) . .
Se1 Ba2 Se5 73.090(17) . .
Se2 Ba2 Se5 137.24(2) 1_565 .
Se3 Ba2 Se5 132.403(19) 4_575 .
Se2 Ba2 Se5 132.171(19) 3_565 .
Se8 Ba2 Se5 72.301(17) 2_655 .
Se6 Ba2 Se5 68.762(17) 1_565 .
Se2 Ba2 Ga1 96.570(18) . 2
Se1 Ba2 Ga1 37.709(16) . 2
Se2 Ba2 Ga1 81.861(18) 1_565 2
Se3 Ba2 Ga1 113.711(19) 4_575 2
Se2 Ba2 Ga1 37.272(16) 3_565 2
Se8 Ba2 Ga1 171.911(19) 2_655 2
Se6 Ba2 Ga1 99.751(18) 1_565 2
Se5 Ba2 Ga1 107.959(18) . 2
Se2 Ba2 Ba3 136.742(17) . 1_565
Se1 Ba2 Ba3 119.104(16) . 1_565
Se2 Ba2 Ba3 49.347(14) 1_565 1_565
Se3 Ba2 Ba3 75.092(14) 4_575 1_565
Se2 Ba2 Ba3 128.278(15) 3_565 1_565
Se8 Ba2 Ba3 46.138(12) 2_655 1_565
Se6 Ba2 Ba3 48.101(13) 1_565 1_565
Se5 Ba2 Ba3 97.953(15) . 1_565
Ga1 Ba2 Ba3 126.581(15) 2 1_565
Se2 Ba2 Ba3 48.729(14) . .
Se1 Ba2 Ba3 117.374(15) . .
Se2 Ba2 Ba3 137.400(17) 1_565 .
Se3 Ba2 Ba3 85.057(14) 4_575 .
Se2 Ba2 Ba3 130.062(15) 3_565 .
Se8 Ba2 Ba3 45.207(12) 2_655 .
Se6 Ba2 Ba3 97.189(15) 1_565 .
Se5 Ba2 Ba3 47.549(13) . .
Ga1 Ba2 Ba3 140.735(15) 2 .
Ba3 Ba2 Ba3 90.658(11) 1_565 .
Se2 Ba2 Ba1 140.197(16) . 1_565
Se1 Ba2 Ba1 44.470(12) . 1_565
Se2 Ba2 Ba1 58.712(14) 1_565 1_565
Se3 Ba2 Ba1 130.654(15) 4_575 1_565
Se2 Ba2 Ba1 88.847(14) 3_565 1_565
Se8 Ba2 Ba1 114.607(15) 2_655 1_565
Se6 Ba2 Ba1 43.084(13) 1_565 1_565
Se5 Ba2 Ba1 90.934(14) . 1_565
Ga1 Ba2 Ba1 57.449(13) 2 1_565
Ba3 Ba2 Ba1 76.758(9) 1_565 1_565
Ba3 Ba2 Ba1 134.885(11) . 1_565
Se7 Ba3 Se8 94.363(19) . 2_655
Se7 Ba3 Se8 91.978(19) . 2_645
Se8 Ba3 Se8 164.03(3) 2_655 2_645
Se7 Ba3 Se4 152.20(2) . 4_565
Se8 Ba3 Se4 75.671(18) 2_655 4_565
Se8 Ba3 Se4 92.026(19) 2_645 4_565
Se7 Ba3 Se6 69.313(18) . .
Se8 Ba3 Se6 118.85(2) 2_655 .
Se8 Ba3 Se6 77.118(18) 2_645 .
Se4 Ba3 Se6 138.25(2) 4_565 .
Se7 Ba3 Se5 70.246(19) . .
Se8 Ba3 Se5 77.667(18) 2_655 .
Se8 Ba3 Se5 118.30(2) 2_645 .
Se4 Ba3 Se5 130.31(2) 4_565 .
Se6 Ba3 Se5 41.182(17) . .
Se7 Ba3 Se2 135.49(2) . .
Se8 Ba3 Se2 91.966(18) 2_655 .
Se8 Ba3 Se2 93.757(18) 2_645 .
Se4 Ba3 Se2 71.588(18) 4_565 .
Se6 Ba3 Se2 69.128(18) . .
Se5 Ba3 Se2 68.258(18) . .
Se7 Ba3 Se8 70.748(18) . 4_565
Se8 Ba3 Se8 81.191(19) 2_655 4_565
Se8 Ba3 Se8 87.108(18) 2_645 4_565
Se4 Ba3 Se8 81.999(18) 4_565 4_565
Se6 Ba3 Se8 136.22(2) . 4_565
Se5 Ba3 Se8 133.572(19) . 4_565
Se2 Ba3 Se8 153.59(2) . 4_565
Se7 Ba3 Ba2 112.203(15) . 1_545
Se8 Ba3 Ba2 138.885(18) 2_655 1_545
Se8 Ba3 Ba2 49.689(14) 2_645 1_545
Se4 Ba3 Ba2 91.085(15) 4_565 1_545
Se6 Ba3 Ba2 51.212(13) . 1_545
Se5 Ba3 Ba2 82.439(15) . 1_545
Se2 Ba3 Ba2 47.066(12) . 1_545
Se8 Ba3 Ba2 136.115(15) 4_565 1_545
Se7 Ba3 Ba4 48.308(13) . 2_655
Se8 Ba3 Ba4 50.720(14) 2_655 2_655
Se8 Ba3 Ba4 139.531(17) 2_645 2_655
Se4 Ba3 Ba4 126.268(15) 4_565 2_655
Se6 Ba3 Ba4 80.619(15) . 2_655
Se5 Ba3 Ba4 48.819(13) . 2_655
Se2 Ba3 Ba4 109.249(15) . 2_655
Se8 Ba3 Ba4 86.112(14) 4_565 2_655
Ba2 Ba3 Ba4 130.077(12) 1_545 2_655
Se7 Ba3 Ba2 113.747(16) . .
Se8 Ba3 Ba2 49.030(14) 2_655 .
Se8 Ba3 Ba2 139.551(17) 2_645 .
Se4 Ba3 Ba2 79.471(14) 4_565 .
Se6 Ba3 Ba2 83.350(15) . .
Se5 Ba3 Ba2 51.586(13) . .
Se2 Ba3 Ba2 45.948(12) . .
Se8 Ba3 Ba2 129.721(14) 4_565 .
Ba2 Ba3 Ba2 90.657(11) 1_545 .
Ba4 Ba3 Ba2 68.950(9) 2_655 .
Se7 Ba3 Ba4 46.537(13) . 2_645
Se8 Ba3 Ba4 140.116(17) 2_655 2_645
Se8 Ba3 Ba4 50.124(14) 2_645 2_645
Se4 Ba3 Ba4 141.845(16) 4_565 2_645
Se6 Ba3 Ba4 48.523(13) . 2_645
Se5 Ba3 Ba4 80.645(14) . 2_645
Se2 Ba3 Ba4 110.415(15) . 2_645
Se8 Ba3 Ba4 90.311(14) 4_565 2_645
Ba2 Ba3 Ba4 69.037(9) 1_545 2_645
Ba4 Ba3 Ba4 90.057(10) 2_655 2_645
Ba2 Ba3 Ba4 130.665(12) . 2_645
Se4 Ba4 Se7 78.528(18) . 2_655
Se4 Ba4 Se6 83.773(19) . .
Se7 Ba4 Se6 110.19(2) 2_655 .
Se4 Ba4 Se5 86.958(19) . .
Se7 Ba4 Se5 69.932(18) 2_655 .
Se6 Ba4 Se5 41.952(17) . .
Se4 Ba4 Se7 69.069(17) . 2_645
Se7 Ba4 Se7 147.39(3) 2_655 2_645
Se6 Ba4 Se7 70.629(18) . 2_645
Se5 Ba4 Se7 110.750(19) . 2_645
Se4 Ba4 Se5 131.87(2) . 2_645
Se7 Ba4 Se5 138.66(2) 2_655 2_645
Se6 Ba4 Se5 101.595(19) . 2_645
Se5 Ba4 Se5 128.408(16) . 2_645
Se7 Ba4 Se5 68.076(17) 2_645 2_645
Se4 Ba4 Se6 139.45(2) . 2_655
Se7 Ba4 Se6 67.664(18) 2_655 2_655
Se6 Ba4 Se6 128.020(16) . 2_655
Se5 Ba4 Se6 101.165(19) . 2_655
Se7 Ba4 Se6 139.01(2) 2_645 2_655
Se5 Ba4 Se6 72.092(18) 2_645 2_655
Se4 Ba4 Se8 83.146(19) . .
Se7 Ba4 Se8 85.926(18) 2_655 .
Se6 Ba4 Se8 156.698(19) . .
Se5 Ba4 Se8 155.316(19) . .
Se7 Ba4 Se8 86.688(18) 2_645 .
Se5 Ba4 Se8 73.591(18) 2_645 .
Se6 Ba4 Se8 73.047(18) 2_655 .
Se4 Ba4 Se7 148.05(2) . .
Se7 Ba4 Se7 105.421(19) 2_655 .
Se6 Ba4 Se7 64.923(18) . .
Se5 Ba4 Se7 65.823(18) . .
Se7 Ba4 Se7 104.019(19) 2_645 .
Se5 Ba4 Se7 64.973(17) 2_645 .
Se6 Ba4 Se7 66.154(17) 2_655 .
Se8 Ba4 Se7 128.43(2) . .
Se4 Ba4 Ba4 124.896(17) . 2_655
Se7 Ba4 Ba4 55.818(12) 2_655 2_655
Se6 Ba4 Ba4 84.881(17) . 2_655
Se5 Ba4 Ba4 51.616(14) . 2_655
Se7 Ba4 Ba4 150.909(19) 2_645 2_655
Se5 Ba4 Ba4 103.230(18) 2_645 2_655
Se6 Ba4 Ba4 49.553(13) 2_655 2_655
Se8 Ba4 Ba4 118.403(16) . 2_655
Se7 Ba4 Ba4 49.603(14) . 2_655
Se4 Ba4 Ba4 116.360(16) . 2_645
Se7 Ba4 Ba4 151.134(19) 2_655 2_645
Se6 Ba4 Ba4 51.850(14) . 2_645
Se5 Ba4 Ba4 85.631(18) . 2_645
Se7 Ba4 Ba4 55.513(12) 2_645 2_645
Se5 Ba4 Ba4 49.750(14) 2_645 2_645
Se6 Ba4 Ba4 103.916(18) 2_655 2_645
Se8 Ba4 Ba4 119.014(16) . 2_645
Se7 Ba4 Ba4 48.506(14) . 2_645
Ba4 Ba4 Ba4 97.105(16) 2_655 2_645
Se4 Ba4 Ba3 85.632(15) . 2_645
Se7 Ba4 Ba3 130.409(17) 2_655 2_645
Se6 Ba4 Ba3 114.373(15) . 2_645
Se5 Ba4 Ba3 155.958(16) . 2_645
Se7 Ba4 Ba3 45.371(14) 2_645 2_645
Se5 Ba4 Ba3 48.247(14) 2_645 2_645
Se6 Ba4 Ba3 99.314(15) 2_655 2_645
Se8 Ba4 Ba3 45.378(12) . 2_645
Se7 Ba4 Ba3 112.216(15) . 2_645
Ba4 Ba4 Ba3 146.674(16) 2_655 2_645
Ba4 Ba4 Ba3 77.304(8) 2_645 2_645
Se2 Ga1 Se1 115.76(4) 4_566 2_545
Se2 Ga1 Se3 110.21(4) 4_566 .
Se1 Ga1 Se3 101.90(3) 2_545 .
Se2 Ga1 Se4 111.55(4) 4_566 .
Se1 Ga1 Se4 113.69(4) 2_545 .
Se3 Ga1 Se4 102.35(3) . .
Se2 Ga1 Ba1 161.15(3) 4_566 .
Se1 Ga1 Ba1 58.02(2) 2_545 .
Se3 Ga1 Ba1 88.64(3) . .
Se4 Ga1 Ba1 62.00(2) . .
Se2 Ga1 Ba2 60.39(2) 4_566 2_545
Se1 Ga1 Ba2 57.99(2) 2_545 2_545
Se3 Ga1 Ba2 105.66(3) . 2_545
Se4 Ga1 Ba2 151.89(3) . 2_545
Ba1 Ga1 Ba2 115.99(2) . 2_545
Se7 Ga2 Se3 126.41(4) . 2_645
Se7 Ga2 Se8 108.69(4) . 4_565
Se3 Ga2 Se8 107.09(4) 2_645 4_565
Se7 Ga2 Se4 102.65(3) . 2_655
Se3 Ga2 Se4 100.10(3) 2_645 2_655
Se8 Ga2 Se4 111.05(3) 4_565 2_655
Ga1 Se1 Ba1 84.07(3) 2 2
Ga1 Se1 Ba2 84.30(3) 2 .
Ba1 Se1 Ba2 168.22(3) 2 .
Ga1 Se1 Ba1 120.78(3) 2 .
Ba1 Se1 Ba1 90.488(18) 2 .
Ba2 Se1 Ba1 93.803(18) . .
Ga1 Se1 Ba1 93.75(3) 2 1_565
Ba1 Se1 Ba1 90.477(18) 2 1_565
Ba2 Se1 Ba1 92.202(18) . 1_565
Ba1 Se1 Ba1 145.36(2) . 1_565
Ga1 Se2 Ba2 111.15(3) 4_565 .
Ga1 Se2 Ba2 90.16(3) 4_565 1_545
Ba2 Se2 Ba2 154.69(3) . 1_545
Ga1 Se2 Ba2 82.34(3) 4_565 3_565
Ba2 Se2 Ba2 96.943(18) . 3_565
Ba2 Se2 Ba2 99.403(18) 1_545 3_565
Ga1 Se2 Ba3 83.69(3) 4_565 .
Ba2 Se2 Ba3 85.323(17) . .
Ba2 Se2 Ba3 83.587(17) 1_545 .
Ba2 Se2 Ba3 165.71(2) 3_565 .
Ga2 Se3 Ga1 113.62(4) 2_655 .
Ga2 Se3 Ba1 142.70(3) 2_655 2
Ga1 Se3 Ba1 94.73(3) . 2
Ga2 Se3 Ba2 89.74(3) 2_655 4_576
Ga1 Se3 Ba2 87.37(3) . 4_576
Ba1 Se3 Ba2 116.41(2) 2 4_576
Ga1 Se4 Ga2 113.71(4) . 2_645
Ga1 Se4 Ba4 153.27(3) . .
Ga2 Se4 Ba4 92.96(3) 2_645 .
Ga1 Se4 Ba3 84.14(3) . 4_566
Ga2 Se4 Ba3 85.02(3) 2_645 4_566
Ba4 Se4 Ba3 100.64(2) . 4_566
Ga1 Se4 Ba1 79.51(3) . .
Ga2 Se4 Ba1 108.81(3) 2_645 .
Ba4 Se4 Ba1 90.634(19) . .
Ba3 Se4 Ba1 161.81(2) 4_566 .
Se6 Se5 Ba1 69.05(2) . .
Se6 Se5 Ba4 68.82(2) . .
Ba1 Se5 Ba4 92.55(2) . .
Se6 Se5 Ba3 69.17(2) . .
Ba1 Se5 Ba3 120.29(2) . .
Ba4 Se5 Ba3 109.60(2) . .
Se6 Se5 Ba4 125.36(3) . 2_655
Ba1 Se5 Ba4 156.77(3) . 2_655
Ba4 Se5 Ba4 78.635(16) . 2_655
Ba3 Se5 Ba4 82.933(18) . 2_655
Se6 Se5 Ba2 124.95(3) . .
Ba1 Se5 Ba2 90.065(19) . .
Ba4 Se5 Ba2 165.81(2) . .
Ba3 Se5 Ba2 80.865(18) . .
Ba4 Se5 Ba2 93.636(18) 2_655 .
Se5 Se6 Ba1 68.15(2) . .
Se5 Se6 Ba4 69.23(2) . .
Ba1 Se6 Ba4 92.35(2) . .
Se5 Se6 Ba3 69.64(2) . .
Ba1 Se6 Ba3 120.01(2) . .
Ba4 Se6 Ba3 110.08(2) . .
Se5 Se6 Ba4 126.73(3) . 2_645
Ba1 Se6 Ba4 156.06(2) . 2_645
Ba4 Se6 Ba4 78.596(16) . 2_645
Ba3 Se6 Ba4 83.925(18) . 2_645
Se5 Se6 Ba2 123.81(3) . 1_545
Ba1 Se6 Ba2 89.297(19) . 1_545
Ba4 Se6 Ba2 166.23(2) . 1_545
Ba3 Se6 Ba2 80.687(18) . 1_545
Ba4 Se6 Ba2 94.524(18) 2_645 1_545
Ga2 Se7 Ba3 92.81(3) . .
Ga2 Se7 Ba4 120.60(3) . 2_645
Ba3 Se7 Ba4 88.561(18) . 2_645
Ga2 Se7 Ba4 91.83(3) . 2_655
Ba3 Se7 Ba4 86.321(18) . 2_655
Ba4 Se7 Ba4 147.39(3) 2_645 2_655
Ga2 Se7 Ba4 155.91(3) . .
Ba3 Se7 Ba4 106.00(2) . .
Ba4 Se7 Ba4 75.676(15) 2_645 .
Ba4 Se7 Ba4 74.883(15) 2_655 .
Ga2 Se8 Ba3 88.25(3) 4_566 2_645
Ga2 Se8 Ba3 103.66(3) 4_566 2_655
Ba3 Se8 Ba3 164.02(3) 2_645 2_655
Ga2 Se8 Ba2 87.53(3) 4_566 2_645
Ba3 Se8 Ba2 85.762(18) 2_645 2_645
Ba3 Se8 Ba2 84.172(18) 2_655 2_645
Ga2 Se8 Ba3 85.00(3) 4_566 4_566
Ba3 Se8 Ba3 98.811(19) 2_645 4_566
Ba3 Se8 Ba3 92.893(18) 2_655 4_566
Ba2 Se8 Ba3 171.11(2) 2_645 4_566
Ga2 Se8 Ba4 171.54(3) 4_566 .
Ba3 Se8 Ba4 83.903(17) 2_645 .
Ba3 Se8 Ba4 84.648(17) 2_655 .
Ba2 Se8 Ba4 94.992(19) 2_645 .
Ba3 Se8 Ba4 93.080(19) 4_566 .
loop_
_geom_bond_atom_site_label_1
_geom_bond_atom_site_label_2
_geom_bond_distance
_geom_bond_site_symmetry_2
Ba1 Se5 3.2620(8) .
Ba1 Se6 3.2822(8) .
Ba1 Se3 3.2850(8) 2_545
Ba1 Se1 3.2862(8) 2_545
Ba1 Se1 3.3676(7) .
Ba1 Se1 3.3682(7) 1_545
Ba1 Se4 3.4599(8) .
Ba1 Ga1 3.8532(8) .
Ba1 Ba1 4.7253(6) 2_545
Ba1 Ba1 4.7253(6) 2
Ba1 Ba4 4.7707(6) .
Ba1 Ba2 4.8045(6) 1_545
Ba2 Se2 3.2803(7) .
Ba2 Se1 3.2993(8) .
Ba2 Se2 3.3104(7) 1_565
Ba2 Se3 3.3780(9) 4_575
Ba2 Se2 3.3964(8) 3_565
Ba2 Se8 3.4441(8) 2_655
Ba2 Se6 3.5492(8) 1_565
Ba2 Se5 3.6101(8) .
Ba2 Ga1 3.8718(8) 2
Ba2 Ba3 4.4932(5) 1_565
Ba2 Ba3 4.5489(5) .
Ba2 Ba1 4.8046(6) 1_565
Ba3 Se7 3.2250(8) .
Ba3 Se8 3.2370(7) 2_655
Ba3 Se8 3.2565(7) 2_645
Ba3 Se4 3.3624(8) 4_565
Ba3 Se6 3.3891(8) .
Ba3 Se5 3.3996(8) .
Ba3 Se2 3.4304(8) .
Ba3 Se8 3.4878(8) 4_565
Ba3 Ba2 4.4933(5) 1_545
Ba3 Ba4 4.5222(5) 2_655
Ba3 Ba4 4.5672(5) 2_645
Ba4 Se4 3.2466(8) .
Ba4 Se7 3.3160(7) 2_655
Ba4 Se6 3.3302(8) .
Ba4 Se5 3.3394(8) .
Ba4 Se7 3.3839(7) 2_645
Ba4 Se5 3.4297(8) 2_645
Ba4 Se6 3.4412(8) 2_655
Ba4 Se8 3.5204(8) .
Ba4 Se7 3.6624(8) .
Ba4 Ba4 4.2895(5) 2_655
Ba4 Ba4 4.2895(5) 2_645
Ba4 Ba3 4.5222(5) 2_645
Ga1 Se2 2.3658(10) 4_566
Ga1 Se1 2.3800(10) 2_545
Ga1 Se3 2.4383(10) .
Ga1 Se4 2.4393(10) .
Ga1 Ba2 3.8717(8) 2_545
Ga2 Se7 2.3467(10) .
Ga2 Se3 2.4013(10) 2_645
Ga2 Se8 2.4428(10) 4_565
Ga2 Se4 2.4691(10) 2_655
Se1 Ga1 2.3799(10) 2
Se1 Ba1 3.2862(8) 2
Se1 Ba1 3.3682(7) 1_565
Se2 Ga1 2.3658(10) 4_565
Se2 Ba2 3.3104(7) 1_545
Se2 Ba2 3.3963(8) 3_565
Se3 Ga2 2.4014(10) 2_655
Se3 Ba1 3.2849(8) 2
Se3 Ba2 3.3782(9) 4_576
Se4 Ga2 2.4691(10) 2_645
Se4 Ba3 3.3624(8) 4_566
Se5 Se6 2.3876(9) .
Se5 Ba4 3.4297(8) 2_655
Se6 Ba4 3.4412(8) 2_645
Se6 Ba2 3.5492(8) 1_545
Se7 Ba4 3.3160(7) 2_645
Se7 Ba4 3.3839(7) 2_655
Se8 Ga2 2.4428(10) 4_566
Se8 Ba3 3.2370(7) 2_645
Se8 Ba3 3.2565(7) 2_655
Se8 Ba2 3.4441(8) 2_645
Se8 Ba3 3.4878(8) 4_566
