#------------------------------------------------------------------------------
#$Date: 2021-03-25 12:10:57 +0200 (Thu, 25 Mar 2021) $
#$Revision: 263321 $
#$URL: file:///home/coder/svn-repositories/cod/cif/1/56/12/1561258.cif $
#------------------------------------------------------------------------------
#
# This file is available in the Crystallography Open Database (COD),
# http://www.crystallography.net/
#
# All data on this site have been placed in the public domain by the
# contributors.
#
data_1561258
loop_
_publ_author_name
'Nhalil, Hariharan'
'Whiteside, Vincent R.'
'Sellers, Ian R.'
'Ming, Wenmei'
'Du, Mao-Hua'
'Saparov, Bayrammurad'
_publ_section_title
;
 Synthesis, crystal and electronic structures and optical properties of
 (HIm)2Hg3Cl8 and (HIm)HgI3 (HIm = imidazolium)
;
_journal_name_full               'Journal of Solid State Chemistry'
_journal_page_first              551
_journal_page_last               558
_journal_paper_doi               10.1016/j.jssc.2017.11.028
_journal_volume                  258
_journal_year                    2018
_chemical_formula_sum            'C6 H10 Cl8 Hg3 N4'
_chemical_formula_weight         1023.55
_chemical_name_common            HN063
_space_group_crystal_system      triclinic
_space_group_IT_number           2
_space_group_name_Hall           '-P 1'
_space_group_name_H-M_alt        'P -1'
_atom_sites_solution_hydrogens   geom
_cell_angle_alpha                100.966(2)
_cell_angle_beta                 107.393(2)
_cell_angle_gamma                102.590(2)
_cell_formula_units_Z            1
_cell_length_a                   6.9115(9)
_cell_length_b                   7.9194(11)
_cell_length_c                   9.9721(13)
_cell_measurement_reflns_used    8723
_cell_measurement_temperature    100.(2)
_cell_measurement_theta_max      31.5746
_cell_measurement_theta_min      2.2255
_cell_volume                     488.86(11)
_computing_cell_refinement       'SAINT V8.34A (Bruker AXS Inc., 2013)'
_computing_data_reduction        'SAINT V8.34A (Bruker AXS Inc., 2013)'
_computing_structure_refinement  'SHELXL-2014/7 (Sheldrick, 2014)'
_diffrn_ambient_temperature      100.(2)
_diffrn_detector_area_resol_mean 8.3333
_diffrn_measured_fraction_theta_full 1.000
_diffrn_measured_fraction_theta_max 1.000
_diffrn_measurement_device_type  'Bruker APEX CCD'
_diffrn_radiation_wavelength     0.71073
_diffrn_reflns_av_R_equivalents  0.0394
_diffrn_reflns_av_unetI/netI     0.0267
_diffrn_reflns_limit_h_max       9
_diffrn_reflns_limit_h_min       -9
_diffrn_reflns_limit_k_max       10
_diffrn_reflns_limit_k_min       -10
_diffrn_reflns_limit_l_max       13
_diffrn_reflns_limit_l_min       -13
_diffrn_reflns_number            12101
_diffrn_reflns_theta_full        29.13
_diffrn_reflns_theta_max         29.13
_diffrn_reflns_theta_min         2.23
_exptl_absorpt_coefficient_mu    24.583
_exptl_absorpt_correction_T_max  0.07
_exptl_absorpt_correction_T_min  0.02
_exptl_absorpt_correction_type   multi-scan
_exptl_absorpt_process_details   'SADABS V2014/5 (Bruker AXS Inc.)'
_exptl_crystal_colour            colourless
_exptl_crystal_density_diffrn    3.477
_exptl_crystal_density_method    'not measured'
_exptl_crystal_description       block
_exptl_crystal_F_000             450
_exptl_crystal_size_max          0.267
_exptl_crystal_size_mid          0.234
_exptl_crystal_size_min          0.227
_refine_diff_density_max         2.073
_refine_diff_density_min         -1.108
_refine_ls_extinction_coef       0.0122(4)
_refine_ls_extinction_method     'SHELXL-2014/7 (Sheldrick 2014'
_refine_ls_goodness_of_fit_ref   1.143
_refine_ls_hydrogen_treatment    constr
_refine_ls_matrix_type           full
_refine_ls_number_parameters     98
_refine_ls_number_reflns         2629
_refine_ls_number_restraints     0
_refine_ls_restrained_S_all      1.143
_refine_ls_R_factor_all          0.0196
_refine_ls_R_factor_gt           0.0190
_refine_ls_shift/su_max          0.001
_refine_ls_shift/su_mean         0.000
_refine_ls_structure_factor_coef Fsqd
_refine_ls_weighting_details
'w=1/[\s^2^(Fo^2^)+(0.0190P)^2^+0.1550P] where P=(Fo^2^+2Fc^2^)/3'
_refine_ls_weighting_scheme      calc
_refine_ls_wR_factor_gt          0.0458
_refine_ls_wR_factor_ref         0.0461
_reflns_number_gt                2544
_reflns_number_total             2629
_reflns_threshold_expression     'I > 2\s(I)'
_cod_data_source_file            17175-APEX-final-new.cif
_cod_data_source_block           17175
_cod_database_code               1561258
_shelx_res_file
;


    x2_a.res created by SHELXL-2014/7


TITL x2_a.res in P-1
CELL  0.71073   6.9115   7.9194   9.9721  100.966  107.393  102.590
ZERR    1.000   0.0009   0.0011   0.0013    0.002    0.002    0.002
LATT 1
SFAC C  H  N  Cl Hg
UNIT 6  10  4  8  3
REM Old TITL x2 in P-1
REM SHELXT solution in P-1
REM R1 0.063,  Rweak 0.007,  Alpha 0.022,  Orientation as input
REM Formula found by SHELXT:  C2 N8 Cl8 Hg3
L.S. 10
BOND $H
acta
FMAP 2
PLAN 20
SIZE 0.227 0.234 0.267
TEMP -173.340
WGHT    0.019000    0.155000
EXTI    0.012174
FVAR       0.41590
HG1   5    1.000000    0.500000    0.500000    10.50000    0.01878    0.01815 =
         0.01384    0.00355    0.00367    0.00495
HG2   5    0.519908    0.757886    0.414205    11.00000    0.02090    0.02166 =
         0.01608    0.00562    0.00316    0.00333
CL1   4    0.361496    0.692714    0.158328    11.00000    0.02545    0.01659 =
         0.01521    0.00326    0.00392    0.00644
CL2   4    0.229627    0.884139    0.498944    11.00000    0.01951    0.01313 =
         0.02098    0.00410    0.00783    0.00203
CL3   4    0.726567    0.689302    0.622550    11.00000    0.02015    0.01721 =
         0.01376    0.00291    0.00434    0.00389
CL4   4    0.762388    0.445829    0.266851    11.00000    0.02054    0.01783 =
         0.01511    0.00409    0.00218    0.00366
N1    3    0.738847    0.745849   -0.036811    11.00000    0.02181    0.01419 =
         0.01762   -0.00094    0.00522    0.00139
AFIX  43
H1N   2    0.685112    0.650113   -0.112501    11.00000   -1.20000
AFIX   0
N2    3    0.911916    0.917916    0.178490    11.00000    0.01972    0.03677 =
         0.01509    0.00129    0.00041   -0.00087
AFIX  43
H2N   2    0.993236    0.956977    0.271440    11.00000   -1.20000
AFIX   0
C1    1    0.704440    0.910389   -0.037024    11.00000    0.02051    0.01923 =
         0.02627    0.00745    0.00796    0.00769
AFIX  43
H1C   2    0.619549    0.941342   -0.117358    11.00000   -1.20000
AFIX   0
C2    1    0.865054    0.753792    0.094621    11.00000    0.02144    0.02426 =
         0.02980    0.01554    0.01032    0.00690
AFIX  43
H2C   2    0.913382    0.658255    0.123500    11.00000   -1.20000
AFIX   0
C3    1    0.814202    1.018552    0.098382    11.00000    0.02432    0.01735 =
         0.03583   -0.00076    0.01112    0.00229
AFIX  43
H3C   2    0.822730    1.141397    0.132400    11.00000   -1.20000
AFIX   0
HKLF 4

REM  x2_a.res in P-1
REM R1 =  0.0190 for    2544 Fo > 4sig(Fo)  and  0.0196 for all    2629 data
REM     98 parameters refined using      0 restraints

END

WGHT      0.0189      0.1709

REM Highest difference peak  2.073,  deepest hole -1.108,  1-sigma level  0.191
Q1    1   1.1215  0.5033  0.5191  11.00000  0.05    2.07
Q2    1   0.4017  0.7581  0.4009  11.00000  0.05    2.07
Q3    1   0.6477  0.7656  0.4330  11.00000  0.05    1.96
Q4    1   0.5850  0.6774  0.3821  11.00000  0.05    0.81
Q5    1   0.5196  0.7875  0.3433  11.00000  0.05    0.76
Q6    1   1.0781  0.3373  0.4410  11.00000  0.05    0.72
Q7    1   0.5912  0.5929  0.3427  11.00000  0.05    0.68
Q8    1   0.4386  0.9173  0.4824  11.00000  0.05    0.66
Q9    1   0.5250  0.7381  0.4845  11.00000  0.05    0.64
Q10   1   0.6811  0.5192  0.3096  11.00000  0.05    0.64
Q11   1   0.8544  0.9754  0.1383  11.00000  0.05    0.63
Q12   1   0.8269  0.6734  0.5695  11.00000  0.05    0.60
Q13   1   1.0113  0.4892  0.5757  11.00000  0.05    0.59
Q14   1   1.2439  0.5320  0.5643  11.00000  0.05    0.55
Q15   1   0.8640  0.4412  0.3817  11.00000  0.05    0.55
Q16   1   0.5033  0.9563  0.5146  11.00000  0.05    0.54
Q17   1   0.2700  0.7107  0.3721  11.00000  0.05    0.51
Q18   1   0.7162  0.9710  0.0242  11.00000  0.05    0.51
Q19   1   0.2958  0.7016  0.2947  11.00000  0.05    0.49
Q20   1   0.9683  0.5173  0.3257  11.00000  0.05    0.48
;
_shelx_res_checksum              88715
_shelx_hkl_file
;
   1   0   0  861.71   39.60
   1   0   0  810.02   39.60
   1   0   0  698.23   40.10
   1   0   0  858.61   39.60
   2   0   0 1558.84   74.39
   2   0   0 1293.77   75.19
   2   0   0 1575.84   74.29
   2   0   0 1473.35   73.29
   2   0   0 1588.44   74.39
   2   0   0 1523.05   73.49
   2   0   0 1586.54   74.19
   3   0   0  252.77   13.10
   3   0   0  198.98   15.10
   3   0   0  278.97   14.20
   3   0   0  252.87   12.90
   3   0   0  273.67   14.50
   3   0   0  283.67   14.50
   3   0   0  262.77   14.30
  -4   0   0 4065.59  192.68
   4   0   0 3823.72  190.38
   4   0   0 4260.97  192.58
   4   0   0 3903.21  190.68
   4   0   0 3842.62  192.18
   4   0   0 3941.61  192.68
   4   0   0 3913.41  192.48
  -5   0   0   82.09    6.30
  -5   0   0   85.39    6.90
   5   0   0   91.49    6.90
   5   0   0   83.09    6.80
   5   0   0   93.69    6.60
   5   0   0   84.79    6.80
   5   0   0   75.69    7.70
  -6   0   0  654.73   33.90
  -6   0   0  659.93   33.10
  -6   0   0  577.64   34.70
   6   0   0  665.83   33.20
   6   0   0  622.14   35.40
   6   0   0  629.74   34.00
   6   0   0  614.14   33.70
  -7   0   0   39.90    5.30
  -7   0   0   37.10    6.10
   7   0   0   34.20    5.10
   7   0   0   40.10    5.80
   7   0   0   36.40    6.30
  -8   0   0  600.34   35.30
   8   0   0  675.73   35.20
   8  -1   0  442.46   25.30
  -8   1   0  432.56   25.20
  -8   1   0  470.45   26.20
   7  -1   0   15.40    4.20
   7  -1   0   19.20    3.90
   7  -1   0   21.30    3.60
   7  -1   0   19.60    4.30
   7  -1   0   19.00    3.70
  -7   1   0   13.10    3.30
  -7   1   0   16.80    4.10
  -7   1   0   17.50    3.40
   6  -1   0 1672.23   83.99
   6  -1   0 1660.33   84.09
   6  -1   0 1766.72   85.79
   6  -1   0 1465.75   83.49
   6  -1   0 1729.33   84.99
  -6   1   0 1775.82   84.19
  -6   1   0 1770.82   85.39
   5  -1   0   36.10    4.30
   5  -1   0   33.40    4.20
   5  -1   0   24.90    4.50
   5  -1   0   33.20    4.50
   5  -1   0   39.50    4.50
   4  -1   0 1099.89   54.69
   4  -1   0 1118.09   54.39
   4  -1   0 1082.19   55.89
   4  -1   0 1071.49   54.69
   4  -1   0 1087.19   54.99
   3  -1   0  315.27   18.20
   3  -1   0  331.97   17.10
   3  -1   0  347.47   17.80
   3  -1   0  319.27   17.50
   3  -1   0  303.87   17.30
   3  -1   0  330.17   16.00
   3  -1   0  328.37   16.00
   2  -1   0  770.22   35.60
   2  -1   0  670.03   35.90
   2  -1   0  609.04   35.20
   2  -1   0  830.52   35.60
   2  -1   0  704.83   36.00
   2  -1   0  711.03   35.00
   2  -1   0  661.63   36.10
  -2   1   0  795.82   35.50
   1  -1   0  214.08   13.50
   1  -1   0  274.77   13.40
   1  -1   0  252.47   13.50
   1  -1   0  271.57   13.70
  -1   1   0  279.47   13.10
  -1   1   0  273.67   13.20
   0  -1   0  729.13   32.10
   0  -1   0  669.83   31.90
   0   1   0  689.03   32.00
   0   1   0  600.74   31.90
   0   1   0  576.24   32.00
   0   1   0  572.04   31.50
  -1  -1   0 1109.59   50.29
  -1  -1   0 1079.89   49.70
   1   1   0 1017.90   50.19
   1   1   0  987.50   50.89
   1   1   0  976.40   50.19
   1   1   0  931.31   50.19
  -2  -1   0  200.28   10.10
  -2  -1   0  186.98   10.90
   2   1   0  183.38   10.50
   2   1   0  172.38   11.70
   2   1   0  169.48   10.40
   2   1   0  190.88   10.60
   2   1   0  191.58   10.90
   2   1   0  193.18   10.30
  -3  -1   0 1838.12   87.09
  -3  -1   0 1763.82   85.99
   3   1   0 1707.03   86.29
   3   1   0 1713.93   86.39
   3   1   0 1719.13   88.39
   3   1   0 1744.73   86.09
   3   1   0 1818.72   87.09
   3   1   0 1789.02   86.49
  -4  -1   0   65.79    5.90
  -4  -1   0   67.89    4.90
   4   1   0   66.09    5.30
   4   1   0   56.79    7.30
   4   1   0   63.09    4.40
   4   1   0   48.20    5.70
  -5  -1   0 1558.94   75.49
  -5  -1   0 1519.55   74.09
   5   1   0 1513.65   77.09
   5   1   0 1574.44   73.49
   5   1   0 1469.55   74.79
   5   1   0 1401.76   75.19
   5   1   0 1459.85   73.09
  -6  -1   0  301.07   17.70
  -6  -1   0  295.07   18.80
   6   1   0  289.27   15.00
   6   1   0  287.77   14.90
   6   1   0  286.87   17.70
   6   1   0  293.27   17.40
   6   1   0  310.47   19.30
  -7  -1   0  797.32   44.00
  -7  -1   0  805.72   42.70
   7   1   0  835.22   43.40
   7   1   0  804.22   44.60
  -8  -1   0   15.40    4.50
   8   1   0   23.10    4.80
   8  -2   0   32.90    4.80
   8  -2   0   36.50    6.20
  -8   2   0   28.20    4.60
  -8   2   0   33.80    5.70
  -8   2   0   27.60    4.90
   7  -2   0  631.44   35.30
   7  -2   0  701.23   35.60
   7  -2   0  672.03   36.60
   7  -2   0  692.73   36.30
  -7   2   0  712.13   36.00
  -7   2   0  624.84   34.90
  -7   2   0  653.83   36.20
   6  -2   0   56.69    5.30
   6  -2   0   67.89    6.40
   6  -2   0   65.79    5.80
   6  -2   0   54.59    5.30
   6  -2   0   46.30    6.10
  -6   2   0   58.19    6.40
  -6   2   0   55.49    5.10
   5  -2   0 1930.11   90.39
   5  -2   0 1793.32   90.49
   5  -2   0 1719.83   89.59
   5  -2   0 1825.62   87.59
   5  -2   0 1796.72   89.29
   5  -2   0 1787.72   87.49
   5  -2   0 1818.32   90.09
  -5   2   0 1854.21   89.19
   4  -2   0   50.19    3.40
   4  -2   0   48.80    3.90
   4  -2   0   56.49    5.00
   4  -2   0   54.39    4.90
   4  -2   0   53.19    4.60
   4  -2   0   57.19    5.30
  -4   2   0   52.99    4.30
   3  -2   0 3818.52  191.08
   3  -2   0 3939.81  191.08
   3  -2   0 3851.61  190.98
   3  -2   0 4160.08  192.08
   3  -2   0 4015.30  190.98
   3  -2   0 3572.14  190.98
   3  -2   0 4310.07  192.28
   2  -2   0  819.72   43.70
   2  -2   0  775.72   44.00
   2  -2   0  864.71   44.00
   2  -2   0  964.00   43.30
   2  -2   0  867.51   42.70
   2  -2   0  941.91   44.40
   2  -2   0  789.82   43.70
  -2   2   0  864.11   44.00
  -2   2   0  969.60   43.50
   1  -2   0 6509.85  276.67
   1  -2   0 5494.35  277.17
   1  -2   0 5352.06  277.87
   1  -2   0 5488.05  279.17
   1  -2   0 5957.30  277.77
   1  -2   0 5555.34  277.87
  -1   2   0 5855.61  278.07
   0  -2   0 1126.39   57.79
   0  -2   0 1254.47   58.89
   0  -2   0 1246.18   58.59
   0   2   0 1059.29   58.69
   0   2   0 1180.88   58.99
   0   2   0 1228.78   59.19
   0   2   0 1126.39   57.99
  -1  -2   0 6280.07  318.27
  -1  -2   0 6178.98  319.57
   1   2   0 6991.10  319.37
   1   2   0 6977.90  320.27
   1   2   0 6419.36  320.07
   1   2   0 6676.23  319.97
   1   2   0 6469.45  319.97
   1   2   0 6950.10  320.27
  -2  -2   0  255.47   12.90
  -2  -2   0  224.68   13.90
   2   2   0  278.07   14.70
   2   2   0  248.98   14.40
   2   2   0  229.28   14.20
   2   2   0  235.58   14.00
   2   2   0  236.68   14.80
   2   2   0  218.88   13.00
  -3  -2   0 1620.24   80.69
  -3  -2   0 1647.94   79.39
   3   2   0 1618.34   80.99
   3   2   0 1637.44   81.99
   3   2   0 1546.25   79.49
   3   2   0 1513.65   79.99
   3   2   0 1755.32   80.79
  -4  -2   0  108.39    8.20
  -4  -2   0   99.09    6.80
   4   2   0   91.19    7.90
   4   2   0   89.89    6.90
   4   2   0  110.89    9.10
   4   2   0  103.69    7.20
   4   2   0  115.99    7.80
  -5  -2   0 2071.59  102.19
   5   2   0 2037.60  101.39
   5   2   0 2274.77  104.19
   5   2   0 1902.41  100.39
   5   2   0 2013.80  102.59
  -6  -2   0   57.09    6.70
  -6  -2   0   47.50    6.90
   6   2   0   45.30    6.50
   6   2   0   51.99    7.50
   6   2   0   46.90    4.00
  -7  -2   0  312.77   18.60
  -7  -2   0  304.47   19.30
   7   2   0  288.17   15.60
   7   2   0  298.17   19.10
   7   2   0  304.27   19.80
  -9   3   0  851.81   46.30
   8  -3   0   23.10    5.20
   8  -3   0   16.20    4.00
  -8   3   0   21.10    4.70
   7  -3   0  363.16   20.40
   7  -3   0  336.37   19.80
   7  -3   0  358.26   21.50
  -7   3   0  345.97   21.10
  -7   3   0  334.17   19.40
   6  -3   0   11.60    3.50
   6  -3   0    7.80    2.70
   6  -3   0   11.70    2.90
   6  -3   0   12.60    1.50
   6  -3   0   10.10    1.40
  -6   3   0   14.00    2.80
  -6   3   0   11.10    3.30
   5  -3   0 1933.11   97.69
   5  -3   0 1967.40   99.69
   5  -3   0 1918.71   98.49
   5  -3   0 1904.51   97.29
   5  -3   0 2102.99   98.39
   5  -3   0 1858.61   99.69
  -5   3   0 2095.79   98.29
  -5   3   0 2271.97   98.39
  -5   3   0 1972.80   99.69
   4  -3   0   32.10    4.50
   4  -3   0   39.80    3.80
   4  -3   0   44.20    3.80
   4  -3   0   38.00    3.90
   4  -3   0   55.29    5.10
  -4   3   0   40.20    3.40
  -4   3   0   43.30    3.90
  -4   3   0   41.80    5.10
   3  -3   0   42.50    4.10
   3  -3   0   32.10    3.00
   3  -3   0   23.30    3.50
   3  -3   0   40.30    4.60
   3  -3   0   27.30    3.70
  -3   3   0   31.40    3.50
  -3   3   0   31.50    2.20
   2  -3   0  823.72   42.70
   2  -3   0  783.62   42.50
   2  -3   0  850.91   43.30
   2  -3   0  844.12   42.80
  -2   3   0  852.41   42.00
  -2   3   0  860.71   42.60
  -2   3   0  816.82   42.40
   1  -3   0 2466.65  109.89
   1  -3   0 2119.39  109.49
   1  -3   0 2314.37  110.09
   1  -3   0 2136.49  108.09
  -1   3   0 2154.08  108.09
  -1   3   0 2326.17  109.99
  -1   3   0 2148.39  110.19
  -1   3   0 2251.67  109.89
   0  -3   0  604.34   30.80
   0  -3   0  607.24   30.50
   0  -3   0  588.64   29.60
   0   3   0  560.94   30.80
   0   3   0  572.34   31.00
   0   3   0  582.64   31.20
   0   3   0  548.35   29.70
  -1  -3   0    7.70    2.60
  -1  -3   0    6.60    2.00
  -1  -3   0    7.10    1.60
   1   3   0    5.10    2.40
   1   3   0    4.60    2.00
   1   3   0   11.30    2.70
   1   3   0    7.80    2.40
  -2  -3   0 1018.60   52.49
  -2  -3   0 1033.50   54.69
   2   3   0 1107.29   54.79
   2   3   0 1086.69   55.29
   2   3   0 1216.48   55.49
   2   3   0 1093.99   53.49
   2   3   0  973.70   54.99
  -3  -3   0   64.89    4.60
  -3  -3   0   64.89    6.50
   3   3   0   69.69    6.10
   3   3   0   76.69    6.70
   3   3   0   72.29    7.10
   3   3   0   67.49    6.80
   3   3   0   67.39    5.30
  -4  -3   0 1994.00  102.19
   4   3   0 2035.20  101.29
   4   3   0 2044.40  100.89
   4   3   0 2135.19  103.39
   4   3   0 2050.09  102.99
  -5  -3   0  140.09   10.30
   5   3   0  134.39   10.50
   5   3   0  120.19   10.50
   5   3   0  106.19    8.30
  -6  -3   0  619.14   32.80
  -6  -3   0  609.74   33.30
   6   3   0  507.55   30.40
   6   3   0  637.74   33.90
   6   3   0  596.74   33.50
  -7  -3   0   14.60    4.40
  -7  -3   0   16.80    4.40
   7   3   0   16.50    4.80
   7   3   0   17.80    5.10
   7   3   0   10.80    2.30
   9  -4   0   12.60    4.10
  -9   4   0    9.80    4.10
   8  -4   0  618.14   33.30
  -8   4   0  584.74   33.80
   7  -4   0   37.20    2.90
   7  -4   0   34.10    4.80
   7  -4   0   34.50    5.50
  -7   4   0   44.50    5.20
  -7   4   0   39.50    6.20
   6  -4   0  916.31   51.09
   6  -4   0  974.90   49.60
   6  -4   0  980.30   50.99
   6  -4   0 1007.80   48.60
  -6   4   0  987.90   49.40
  -6   4   0  954.60   50.99
   5  -4   0    6.10    2.80
   5  -4   0    0.00    1.20
   5  -4   0    3.60    1.70
   5  -4   0    3.50    2.30
   5  -4   0    4.80    1.80
  -5   4   0   10.60    2.60
  -5   4   0    2.20    2.10
   4  -4   0 2307.57  120.29
   4  -4   0 2586.24  122.59
   4  -4   0 2275.47  121.19
   4  -4   0 2353.86  120.99
  -4   4   0 2658.23  120.79
  -4   4   0 2622.84  122.09
   3  -4   0  857.31   48.70
   3  -4   0  965.40   49.80
   3  -4   0 1004.60   50.59
   3  -4   0 1021.10   50.69
  -3   4   0 1043.30   49.50
  -3   4   0  964.60   49.99
   2  -4   0 5128.49  238.88
   2  -4   0 4717.73  239.28
   2  -4   0 4467.05  239.28
  -2   4   0 5008.50  239.08
  -2   4   0 5252.07  239.78
  -2   4   0 4977.00  239.48
   1  -4   0  145.59    8.50
   1  -4   0  141.49    9.50
   1  -4   0  149.49   10.10
   1  -4   0  150.98   10.30
  -1   4   0  133.89    8.30
  -1   4   0  138.09   10.40
  -1   4   0  146.99   10.60
  -1   4   0  162.78   10.60
   0  -4   0 4041.50  198.58
   0  -4   0 4077.99  197.28
   0  -4   0 4239.58  198.38
   0   4   0 4049.19  197.58
   0   4   0 4280.97  199.48
   0   4   0 3735.43  198.88
  -1  -4   0  855.31   40.50
  -1  -4   0  802.62   39.00
  -1  -4   0  784.42   41.20
   1   4   0  749.62   40.80
   1   4   0  739.33   40.90
   1   4   0  729.13   41.30
   1   4   0  753.02   40.30
  -2  -4   0 2307.17  113.19
  -2  -4   0 2286.47  115.89
   2   4   0 2492.55  115.69
   2   4   0 2142.69  114.29
   2   4   0 2553.54  116.09
   2   4   0 2212.98  116.39
  -3  -4   0    4.60    3.30
   3   4   0    1.20    2.20
   3   4   0   11.30    3.60
   3   4   0    9.70    2.90
   3   4   0    4.30    1.90
  -4  -4   0  898.81   49.00
   4   4   0  945.81   48.00
   4   4   0  957.90   49.30
   4   4   0  901.21   49.90
  -5  -4   0  224.98   15.40
  -5  -4   0  221.28   15.10
   5   4   0  212.28   15.10
   5   4   0  223.48   16.10
   5   4   0  218.28   13.80
  -6  -4   0  835.22   43.70
  -6  -4   0  825.32   43.40
   6   4   0  787.72   44.60
   6   4   0  823.42   43.90
   6   4   0  745.43   41.40
  -7  -4   0   37.20    6.30
  -7  -4   0   30.90    5.50
   7   4   0   34.10    4.50
   7   4   0   39.80    6.50
   7   4   0   40.70    7.10
   8  -5   0  588.94   32.40
   8  -5   0  558.54   28.30
  -8   5   0  564.04   32.80
   7  -5   0   14.40    4.20
   7  -5   0   12.40    3.30
   7  -5   0   13.00    2.40
  -7   5   0    9.20    3.50
  -7   5   0   10.20    3.10
   6  -5   0  471.25   25.90
   6  -5   0  401.66   23.30
   6  -5   0  418.66   23.50
  -6   5   0  439.26   23.80
  -6   5   0  433.76   25.30
   5  -5   0   54.89    5.40
   5  -5   0   40.10    6.10
   5  -5   0   50.09    4.70
  -5   5   0   41.40    6.00
  -5   5   0   55.99    6.00
   4  -5   0  729.33   38.10
   4  -5   0  604.24   35.60
   4  -5   0  715.43   36.90
  -4   5   0  718.13   37.70
  -4   5   0  740.93   36.70
   3  -5   0  339.87   17.80
   3  -5   0  330.27   18.40
   3  -5   0  270.97   18.30
  -3   5   0  281.57   18.40
  -3   5   0  316.97   18.00
   2  -5   0   93.49    7.30
   2  -5   0   63.59    6.60
   2  -5   0   88.19    4.50
   2  -5   0   74.09    6.80
  -2   5   0  104.09    7.80
  -2   5   0   68.29    7.00
  -2   5   0   77.09    7.20
   1  -5   0  449.76   25.20
   1  -5   0  482.05   24.80
   1  -5   0  451.45   25.70
   1  -5   0  446.26   23.60
  -1   5   0  467.75   26.30
  -1   5   0  452.65   25.90
  -1   5   0  446.36   25.90
   0  -5   0  897.41   45.00
   0  -5   0  855.81   46.40
   0  -5   0  844.12   45.20
   0  -5   0  926.01   46.20
   0   5   0  896.01   46.90
   0   5   0  908.51   47.20
   0   5   0  885.61   45.20
   0   5   0  913.91   47.10
  -1  -5   0  729.33   40.30
  -1  -5   0  786.32   38.30
   1   5   0  749.62   40.60
   1   5   0  808.62   41.60
   1   5   0  745.03   39.60
   1   5   0  739.23   40.50
  -2  -5   0   76.69    8.00
   2   5   0   84.19    7.50
   2   5   0   74.39    6.90
   2   5   0   64.59    8.50
   2   5   0   81.29    6.70
  -3  -5   0 1631.84   86.09
  -3  -5   0 1685.23   85.19
   3   5   0 1734.43   85.59
   3   5   0 1662.13   84.99
   3   5   0 1747.23   87.19
  -4  -5   0    2.30    2.90
  -4  -5   0    0.70    3.00
   4   5   0    9.10    3.00
   4   5   0    3.90    3.50
   4   5   0    3.40    2.70
  -5  -5   0  501.15   29.10
  -5  -5   0  554.74   30.50
   5   5   0  512.15   31.50
   5   5   0  489.25   28.10
   5   5   0  518.45   29.60
  -6  -5   0   66.59    7.80
   6   5   0   71.29   10.10
   6   5   0   73.59    6.90
   6   5   0   78.09    8.80
   8  -6   0   99.29   10.00
   8  -6   0  104.69    7.10
  -8   6   0  108.19   10.40
   7  -6   0  503.45   28.20
   7  -6   0  465.55   25.30
  -7   6   0  429.26   27.30
   6  -6   0   30.20    4.50
   6  -6   0   39.10    6.60
   6  -6   0   33.50    4.50
  -6   6   0   21.70    4.90
  -6   6   0   34.30    5.10
   5  -6   0 1406.76   72.59
   5  -6   0 1274.87   69.89
   5  -6   0 1494.25   71.19
  -5   6   0 1371.26   72.09
  -5   6   0 1468.05   70.79
   4  -6   0  400.26   21.50
   4  -6   0  356.46   20.60
   4  -6   0  343.07   21.80
  -4   6   0  374.06   21.20
  -4   6   0  356.56   22.00
   3  -6   0 2256.97  116.79
   3  -6   0 2411.36  116.39
   3  -6   0 2367.96  116.49
  -3   6   0 2268.07  117.09
  -3   6   0 2432.86  116.79
   2  -6   0  214.08   13.90
   2  -6   0  211.88   13.60
   2  -6   0  218.08   14.30
  -2   6   0  209.38   14.40
  -2   6   0  209.38   14.90
   1  -6   0 2929.71  150.68
   1  -6   0 3197.48  149.79
   1  -6   0 3168.58  150.58
   1  -6   0 2915.31  148.39
  -1   6   0 3086.69  151.18
  -1   6   0 2901.01  150.98
  -1   6   0 3209.98  151.68
   0  -6   0  254.87   15.00
   0  -6   0  254.57   14.70
   0  -6   0  264.47   16.40
   0   6   0  269.67   17.00
   0   6   0  263.87   16.80
   0   6   0  246.38   14.90
   0   6   0  258.57   16.70
  -1  -6   0  979.60   53.99
  -1  -6   0 1016.40   53.29
   1   6   0  982.10   53.19
   1   6   0 1166.68   55.69
   1   6   0 1040.10   54.39
   1   6   0 1096.89   54.69
  -2  -6   0   43.90    5.70
  -2  -6   0   55.29    7.20
   2   6   0   52.59    6.30
   2   6   0   48.20    6.30
   2   6   0   41.40    6.60
  -3  -6   0 1406.76   68.19
  -3  -6   0 1302.47   69.09
   3   6   0 1315.67   67.99
   3   6   0 1281.57   69.99
   3   6   0 1346.67   68.29
  -4  -6   0   11.10    3.70
  -4  -6   0    4.20    3.60
   4   6   0   13.90    4.10
   4   6   0    9.70    3.20
   4   6   0    7.20    4.10
  -5  -6   0  353.76   21.10
  -5  -6   0  359.66   22.40
   5   6   0  327.07   20.30
   5   6   0  339.47   23.70
   5   6   0  348.47   21.40
   8  -7   0   24.40    4.00
   8  -7   0   24.20    5.70
  -8   7   0   32.00    6.70
   7  -7   0  420.46   26.40
   7  -7   0  418.26   24.10
  -7   7   0  449.26   26.70
   6  -7   0   82.49    7.30
   6  -7   0   58.89    8.20
   6  -7   0   69.69    6.40
  -6   7   0   66.69    8.90
  -6   7   0   77.39    7.30
   5  -7   0   90.59    8.90
   5  -7   0   96.99    7.60
   5  -7   0   96.59    8.20
  -5   7   0   87.49    8.10
  -5   7   0   85.69    8.90
   4  -7   0   43.60    5.70
   4  -7   0   37.50    5.30
   4  -7   0   42.10    6.20
  -4   7   0   43.20    6.20
  -4   7   0   43.10    6.90
   3  -7   0  409.16   23.40
   3  -7   0  408.96   23.40
   3  -7   0  402.76   23.60
  -3   7   0  378.66   24.40
  -3   7   0  401.16   23.80
   2  -7   0  582.54   30.80
   2  -7   0  575.54   31.30
   2  -7   0  589.14   32.00
  -2   7   0  531.55   32.20
  -2   7   0  547.15   31.70
   1  -7   0  153.38   11.90
   1  -7   0  138.39   10.70
   1  -7   0  139.79    9.50
  -1   7   0  123.89   11.00
  -1   7   0  145.29   10.90
   0  -7   0  195.08   13.00
   0  -7   0  227.18   14.70
   0   7   0  220.48   14.90
   0   7   0  218.88   15.00
   0   7   0  238.18   15.10
  -1  -7   0   21.50    4.70
   1   7   0    6.10    3.10
   1   7   0   11.90    3.20
   1   7   0    6.90    3.30
  -2  -7   0 1095.89   58.39
  -2  -7   0 1123.49   57.59
   2   7   0 1094.59   57.69
   2   7   0 1162.58   59.69
   2   7   0 1137.49   58.29
  -3  -7   0   57.89    6.80
  -3  -7   0   59.39    7.70
   3   7   0   64.79    9.10
   3   7   0   61.29    7.40
   3   7   0   56.79    7.10
  -4  -7   0  346.57   22.60
  -4  -7   0  364.76   21.70
   4   7   0  364.76   21.60
   4   7   0  384.06   24.40
   4   7   0  368.36   22.10
   7  -8   0   27.00    6.10
   7  -8   0   26.40    4.80
  -7   8   0   38.70    7.00
   6  -8   0  572.44   36.70
   6  -8   0  826.32   38.30
   6  -8   0  725.43   39.50
  -6   8   0  697.43   39.80
   5  -8   0    1.20    2.60
   5  -8   0    2.10    2.90
   5  -8   0    4.70    2.60
  -5   8   0    4.40    3.80
  -5   8   0    4.20    3.30
   4  -8   0 1013.20   50.99
   4  -8   0  920.51   50.59
   4  -8   0 1002.50   50.59
  -4   8   0  949.21   52.19
  -4   8   0  912.81   50.79
   3  -8   0  396.26   23.90
   3  -8   0  442.26   24.00
   3  -8   0  401.56   24.50
  -3   8   0  406.06   24.70
  -3   8   0  408.36   25.60
   2  -8   0 1504.65   78.49
   2  -8   0 1612.34   77.39
   2  -8   0 1591.44   79.19
  -2   8   0 1520.65   78.49
  -2   8   0 1435.76   78.89
   1  -8   0   23.30    4.90
  -1   8   0   24.20    5.20
  -1   8   0   19.00    4.40
   0  -8   0  681.73   37.20
   0   8   0  679.63   37.50
  -1  -8   0   22.50    4.40
  -1  -8   0   23.30    4.80
   1   8   0   29.00    5.70
   1   8   0   25.40    5.00
  -2  -8   0  699.93   37.60
  -2  -8   0  640.64   38.20
   2   8   0  727.13   39.70
   2   8   0  760.92   38.70
  -3  -8   0   23.00    5.10
  -3  -8   0   28.40    5.00
   3   8   0   24.60    4.80
   3   8   0   30.90    6.50
   6  -9   0  172.18   13.30
   6  -9   0  227.18   14.20
   6  -9   0  196.98   14.90
  -6   9   0  199.08   16.00
   5  -9   0   93.39    9.30
   5  -9   0  107.19    9.10
   5  -9   0   97.49    9.00
  -5   9   0  101.49   11.90
  -5   9   0   99.09    9.70
   4  -9   0   37.20    5.90
   4  -9   0   32.60    5.40
   4  -9   0   25.10    5.50
  -4   9   0   28.70    6.40
  -4   9   0   36.90    6.30
   3  -9   0   67.99    8.30
   3  -9   0   63.69    7.30
  -3   9   0   61.99    7.80
  -3   9   0   63.19    9.10
   2  -9   0  375.36   22.20
  -2   9   0  369.86   22.90
  -2   9   0  324.37   21.50
   1  -9   0  311.87   19.60
  -1   9   0  313.87   19.70
   0  -9   0   51.09    7.00
   0   9   0   41.50    6.30
  -1  -9   0  251.47   16.80
   1   9   0  266.57   17.40
  -2  -9   0    8.20    3.80
   2   9   0    5.30    3.50
   5 -10   0  437.96   24.90
   5 -10   0  355.96   24.40
   5 -10   0  406.36   24.30
  -5  10   0  454.95   27.30
   4 -10   0   23.90    5.70
   4 -10   0   33.70    5.50
  -4  10   0   31.00    5.90
  -4  10   0   27.20    6.60
   3 -10   0  785.62   44.80
  -3  10   0  879.51   46.40
  -3  10   0  823.22   44.70
   2 -10   0   46.50    7.20
  -2  10   0   76.89    8.60
   1 -10   0  274.37   17.80
  -1  10   0  269.07   17.80
   0 -10   0    9.30    4.00
   0  10   0    2.50    3.30
   0  10  -1    2.00    3.00
   0 -10   1    4.00    3.20
  -1  10  -1  587.24   33.40
   1 -10   1  619.44   34.10
  -2  10  -1   69.89    8.90
  -2  10  -1   52.29    7.10
   2 -10   1   54.79    7.70
  -3  10  -1  341.77   22.70
  -3  10  -1  365.86   21.10
   3 -10   1  315.07   21.60
  -4  10  -1    0.00    3.60
   4 -10   1   -0.20    3.20
   4 -10   1    2.60    3.00
   4 -10   1    0.60    2.70
  -5  10  -1  423.16   28.00
   5 -10   1  434.06   26.10
   5 -10   1  458.45   26.00
   5 -10   1  437.46   26.40
   2   9  -1    4.80    3.60
  -2  -9   1    0.90    2.80
   1   9  -1  291.27   18.60
  -1  -9   1  276.67   18.20
   0   9  -1   65.89    8.00
   0  -9   1   68.89    8.10
  -1   9  -1  923.71   51.29
  -1   9  -1 1044.80   52.69
   1  -9   1  976.30   51.99
  -2   9  -1    5.10    3.10
  -2   9  -1    4.20    3.70
   2  -9   1    8.50    3.90
  -3   9  -1  365.36   23.60
  -3   9  -1  357.46   21.80
   3  -9   1  307.47   21.90
   3  -9   1  391.06   22.30
   3  -9   1  390.06   21.80
  -4   9  -1   42.70    7.90
  -4   9  -1   49.00    6.80
   4  -9   1   55.49    7.20
   4  -9   1   50.29    7.40
   4  -9   1   58.59    7.40
  -5   9  -1  374.26   25.20
   5  -9   1  406.36   23.20
   5  -9   1  411.36   23.80
   5  -9   1  343.87   22.70
  -6   9  -1  119.09   12.20
   6  -9   1  114.79   10.20
   6  -9   1  154.78   11.10
   6  -9   1  131.89   11.60
   4   8  -1  157.58   13.40
   4   8  -1  136.29   11.10
  -4  -8   1  153.28   12.10
  -4  -8   1  150.78   11.30
   3   8  -1   86.39    8.20
   3   8  -1   90.19   10.40
  -3  -8   1   78.19    7.60
  -3  -8   1   75.49    8.70
   2   8  -1  168.88   12.50
   2   8  -1  177.78   13.50
  -2  -8   1  165.38   12.40
  -2  -8   1  158.98   11.50
   1   8  -1   13.30    3.90
   1   8  -1    5.70    3.30
  -1  -8   1   16.30    4.40
  -1  -8   1   13.10    3.20
   0   8  -1  781.52   43.50
   0   8  -1  868.71   44.50
   0  -8   1  795.82   43.50
  -1   8  -1   15.20    4.50
  -1   8  -1   20.70    4.50
   1  -8   1   11.00    4.10
  -2   8  -1 1164.78   63.59
  -2   8  -1 1199.68   62.29
   2  -8   1 1241.28   61.69
   2  -8   1 1226.08   62.39
   2  -8   1 1201.98   63.09
  -3   8  -1  102.99    9.00
  -3   8  -1   96.29   10.20
   3  -8   1  102.19    9.00
   3  -8   1  105.39    9.00
  -4   8  -1  659.73   39.90
  -4   8  -1  677.43   38.20
   4  -8   1  745.13   38.90
   4  -8   1  772.12   38.60
   4  -8   1  663.73   38.30
  -5   8  -1   12.90    4.50
   5  -8   1   14.50    4.00
   5  -8   1   15.60    3.80
   5  -8   1   16.90    4.90
  -6   8  -1  760.72   42.10
   6  -8   1  683.23   39.00
   6  -8   1  694.73   41.00
   6  -8   1  814.42   40.00
  -7   8  -1  168.58   14.30
   7  -8   1  168.18   13.90
   7  -8   1  158.18   11.80
   5   7  -1   39.90    8.40
   5   7  -1   45.10    6.30
  -5  -7   1   54.69    7.10
  -5  -7   1   60.59    7.80
   4   7  -1 1009.90   52.29
   4   7  -1  987.60   54.59
  -4  -7   1  968.60   52.69
  -4  -7   1 1022.20   52.19
   3   7  -1  178.38   13.20
   3   7  -1  199.88   14.70
  -3  -7   1  186.08   13.40
  -3  -7   1  191.08   13.10
   2   7  -1  845.32   45.70
   2   7  -1  840.02   44.70
  -2  -7   1  860.21   44.00
  -2  -7   1  804.02   44.50
   1   7  -1   24.40    4.80
   1   7  -1   19.90    4.80
   1   7  -1   35.80    5.90
  -1  -7   1   24.90    4.10
  -1  -7   1   27.40    5.00
   0   7  -1 1419.46   71.89
   0   7  -1 1416.46   72.29
   0   7  -1 1410.56   71.99
   0  -7   1 1420.56   71.79
   0  -7   1 1352.16   69.79
  -1   7  -1  223.18   15.30
  -1   7  -1  237.48   16.60
   1  -7   1  233.78   15.90
   1  -7   1  246.18   14.50
   1  -7   1  254.87   15.60
  -2   7  -1 1084.59   60.39
  -2   7  -1 1099.79   59.09
   2  -7   1 1170.98   59.89
   2  -7   1 1224.48   59.49
   2  -7   1 1152.48   58.79
  -3   7  -1    3.40    2.80
  -3   7  -1   -0.20    2.30
   3  -7   1    1.10    2.20
   3  -7   1    3.50    2.50
   3  -7   1    1.70    2.20
  -4   7  -1  461.85   28.50
  -4   7  -1  487.35   27.00
   4  -7   1  503.45   27.30
   4  -7   1  482.55   26.80
   4  -7   1  460.55   27.70
  -5   7  -1   44.70    7.30
  -5   7  -1   60.99    6.70
   5  -7   1   54.99    6.30
   5  -7   1   44.30    7.20
   5  -7   1   53.49    6.60
  -6   7  -1  129.49   11.60
   6  -7   1  142.29    9.90
   6  -7   1  127.29   10.00
   6  -7   1  145.39   12.00
  -7   7  -1  145.39   13.30
   7  -7   1  157.08   11.40
   7  -7   1  175.38   13.60
   7  -7   1  179.98   11.40
  -8   7  -1   41.70    7.60
   8  -7   1   48.80    4.70
   8  -7   1   37.60    6.80
   5   6  -1    8.60    5.00
   5   6  -1   10.00    3.20
  -5  -6   1    7.10    3.40
  -5  -6   1   12.20    4.60
   4   6  -1  277.07   19.80
   4   6  -1  286.57   17.80
  -4  -6   1  285.87   18.80
  -4  -6   1  290.87   18.00
   3   6  -1  671.33   36.10
   3   6  -1  622.24   37.40
  -3  -6   1  662.23   36.50
  -3  -6   1  694.93   36.10
   2   6  -1   79.89    7.80
   2   6  -1   96.69    8.90
   2   6  -1   77.59    7.60
  -2  -6   1   82.39    8.00
  -2  -6   1   91.49    7.80
   1   6  -1  897.31   46.80
   1   6  -1  914.71   46.60
   1   6  -1  868.21   45.90
  -1  -6   1  841.72   45.50
  -1  -6   1  811.62   44.50
   0   6  -1    3.70    2.60
   0   6  -1    4.20    2.90
   0   6  -1   -0.40    2.70
   0  -6   1    4.30    2.00
   0  -6   1    1.60    2.60
   0  -6   1    4.80    2.60
   0  -6   1    6.00    2.10
  -1   6  -1 2846.02  145.99
  -1   6  -1 3148.68  147.49
  -1   6  -1 3029.40  146.49
   1  -6   1 2689.83  143.69
   1  -6   1 3068.69  145.19
   1  -6   1 3105.69  146.09
   1  -6   1 2860.41  146.19
  -2   6  -1  215.78   14.90
  -2   6  -1  209.08   15.90
   2  -6   1  265.87   15.60
   2  -6   1  263.77   15.40
   2  -6   1  226.78   14.70
  -3   6  -1 1284.07   70.29
  -3   6  -1 1349.66   69.09
   3  -6   1 1284.97   69.79
   3  -6   1 1462.35   69.39
   3  -6   1 1449.46   69.69
  -4   6  -1    9.00    2.90
  -4   6  -1    7.50    3.30
   4  -6   1    7.40    2.70
   4  -6   1   15.40    4.20
   4  -6   1   20.60    3.50
  -5   6  -1 1320.87   63.79
  -5   6  -1 1185.38   65.49
   5  -6   1 1155.08   63.89
   5  -6   1 1305.47   63.69
   5  -6   1 1343.87   66.19
  -6   6  -1  173.08   13.30
   6  -6   1  169.28   11.20
   6  -6   1  161.18   11.10
   6  -6   1  175.78   13.10
  -7   6  -1  942.01   52.79
   7  -6   1 1034.50   49.70
   7  -6   1  952.20   50.79
   7  -6   1  997.00   52.89
  -8   6  -1   57.99    8.60
   8  -6   1   75.79    9.00
   8  -6   1   61.49    4.60
   6   5  -1  138.09   10.60
   6   5  -1  147.69   13.20
  -6  -5   1  167.28   12.30
  -6  -5   1  165.38   12.80
   5   5  -1 1302.07   68.49
   5   5  -1 1342.87   71.49
  -5  -5   1 1360.96   69.49
  -5  -5   1 1404.26   70.39
   4   5  -1   23.40    4.80
   4   5  -1   24.30    5.70
   4   5  -1   24.70    4.40
  -4  -5   1   26.40    5.10
  -4  -5   1   30.10    5.80
   3   5  -1 1611.14   80.29
   3   5  -1 1637.44   81.19
   3   5  -1 1664.73   80.79
   3   5  -1 1490.05   81.79
  -3  -5   1 1629.14   80.89
  -3  -5   1 1550.84   81.29
   2   5  -1  339.37   18.90
   2   5  -1  295.77   18.80
   2   5  -1  340.07   19.30
   2   5  -1  287.17   19.40
  -2  -5   1  322.97   19.20
  -2  -5   1  301.77   18.70
   1   5  -1 1503.45   72.19
   1   5  -1 1221.88   72.19
   1   5  -1 1388.16   72.19
  -1  -5   1 1406.26   71.19
  -1  -5   1 1408.96   70.79
  -1  -5   1 1433.96   71.59
  -1  -5   1 1499.55   69.29
   0   5  -1   17.80    3.90
   0   5  -1   18.40    3.80
   0   5  -1   12.10    3.80
   0  -5   1   19.60    3.00
   0  -5   1    8.30    2.40
   0  -5   1   14.30    3.70
   0  -5   1   14.80    3.20
  -1   5  -1 3197.48  162.88
  -1   5  -1 3268.47  163.68
  -1   5  -1 3385.56  162.78
   1  -5   1 3494.05  162.98
   1  -5   1 3565.04  162.88
   1  -5   1 3360.36  160.58
   1  -5   1 2945.51  161.58
  -2   5  -1  509.25   29.50
  -2   5  -1  531.55   28.60
  -2   5  -1  491.35   28.20
   2  -5   1  519.65   28.60
   2  -5   1  578.24   29.00
   2  -5   1  476.95   25.60
   2  -5   1  586.54   28.60
  -3   5  -1  611.84   31.10
  -3   5  -1  563.84   32.30
   3  -5   1  589.94   31.10
   3  -5   1  587.64   31.70
  -4   5  -1  718.33   35.10
  -4   5  -1  649.74   36.50
   4  -5   1  653.03   34.80
   4  -5   1  639.64   35.40
   4  -5   1  700.03   36.90
  -5   5  -1  461.75   28.30
  -5   5  -1  495.45   26.90
   5  -5   1  481.35   26.80
   5  -5   1  529.05   27.20
   5  -5   1  548.65   29.10
  -6   5  -1   22.20    3.70
  -6   5  -1   17.30    4.40
   6  -5   1   15.00    3.50
   6  -5   1   19.80    3.10
   6  -5   1   14.50    4.10
  -7   5  -1   25.60    5.40
   7  -5   1   24.50    2.80
   7  -5   1   22.80    4.20
   7  -5   1   34.50    5.70
  -8   5  -1  322.57   21.70
   8  -5   1  364.16   21.60
   7   4  -1   51.99    5.30
   7   4  -1   47.00    7.60
  -7  -4   1   51.99    7.20
  -7  -4   1   52.99    7.20
   6   4  -1  181.78   11.90
   6   4  -1  181.88   14.10
  -6  -4   1  199.48   13.90
  -6  -4   1  183.98   13.80
   5   4  -1   56.99    8.10
   5   4  -1   63.39    6.30
   5   4  -1   88.79    8.50
  -5  -4   1   64.09    8.00
  -5  -4   1   80.39    7.80
   4   4  -1  236.08   15.30
   4   4  -1  215.68   15.40
   4   4  -1  225.88   13.80
   4   4  -1  206.98   13.80
  -4  -4   1  229.78   15.10
  -4  -4   1  222.88   15.20
   3   4  -1   54.59    5.40
   3   4  -1   75.79    6.40
   3   4  -1   51.39    6.90
   3   4  -1   52.79    6.80
  -3  -4   1   54.69    6.70
  -3  -4   1   51.69    6.70
   2   4  -1 2864.91  135.09
   2   4  -1 2621.34  134.69
   2   4  -1 2607.84  134.49
   2   4  -1 2960.90  135.69
  -2  -4   1 2584.54  134.89
  -2  -4   1 2773.42  134.79
   1   4  -1  160.78   11.50
   1   4  -1  142.79   11.80
   1   4  -1  180.88   10.90
   1   4  -1  159.28   11.30
  -1  -4   1  175.68    9.30
  -1  -4   1  166.18   11.30
  -1  -4   1  157.88   10.80
  -1  -4   1  171.68   10.90
   0   4  -1 2863.31  133.39
   0   4  -1 2665.23  132.19
   0   4  -1 2895.51  132.49
   0  -4   1 2714.93  131.89
   0  -4   1 2562.54  130.39
   0  -4   1 2457.85  130.49
   0  -4   1 2625.54  131.59
  -1   4  -1  145.59   10.60
  -1   4  -1  170.68   11.90
  -1   4  -1  161.08   10.80
   1  -4   1  165.58   10.70
   1  -4   1  177.18    9.20
   1  -4   1  151.58   10.60
   1  -4   1  168.98   10.40
  -2   4  -1 3789.82  174.28
  -2   4  -1 3417.86  175.28
  -2   4  -1 3927.11  174.78
   2  -4   1 3537.05  174.18
   2  -4   1 3756.32  175.18
   2  -4   1 3063.69  174.48
  -3   4  -1  110.29    7.20
  -3   4  -1  101.79    8.30
   3  -4   1  102.29    7.70
   3  -4   1   89.99    6.90
   3  -4   1  119.89    8.70
   3  -4   1  104.39    8.20
  -4   4  -1 2410.66  110.19
  -4   4  -1 2282.47  111.79
   4  -4   1 2155.88  110.19
   4  -4   1 2144.29  110.29
   4  -4   1 2223.58  109.19
   4  -4   1 2175.68  111.79
   4  -4   1 2364.26  111.69
  -5   4  -1  195.48   11.60
  -5   4  -1  196.38   13.40
   5  -4   1  219.28   11.40
   5  -4   1  193.78   11.90
   5  -4   1  188.18   13.00
   5  -4   1  162.88   11.60
  -6   4  -1 1644.84   79.09
  -6   4  -1 1518.85   80.79
   6  -4   1 1681.53   80.99
   6  -4   1 1539.65   77.69
   6  -4   1 1590.24   79.79
  -7   4  -1  199.78   15.10
   7  -4   1  230.18   14.40
   7  -4   1  222.48   14.80
   7  -4   1  225.08   11.90
   7  -4   1  227.78   11.40
  -8   4  -1  718.33   42.10
   8  -4   1  826.02   41.80
   7   3  -1  275.27   18.80
   7   3  -1  260.07   15.70
  -7  -3   1  323.77   19.30
  -7  -3   1  309.47   18.50
   6   3  -1 1178.98   59.69
   6   3  -1 1037.60   58.49
   6   3  -1 1098.69   56.29
  -6  -3   1 1177.28   58.39
  -6  -3   1 1132.79   58.99
   5   3  -1   37.00    6.30
   5   3  -1   35.70    4.30
   5   3  -1   41.10    5.10
   5   3  -1   37.00    5.90
  -5  -3   1   40.80    6.50
  -5  -3   1   31.80    5.30
   4   3  -1 2179.38  115.99
   4   3  -1 2301.17  114.79
   4   3  -1 2383.36  114.89
   4   3  -1 2408.66  116.99
  -4  -3   1 2464.45  116.69
  -4  -3   1 2271.97  115.69
   3   3  -1  265.07   15.60
   3   3  -1  248.98   14.80
   3   3  -1  247.78   15.70
   3   3  -1  244.88   16.10
   3   3  -1  233.18   15.20
   3   3  -1  272.97   15.20
  -3  -3   1  271.97   16.50
  -3  -3   1  253.67   12.80
  -3  -3   1  256.17   15.70
   2   3  -1 2138.79  101.99
   2   3  -1 2087.39  101.69
   2   3  -1 2000.10  102.29
   2   3  -1 2125.69  102.19
   2   3  -1 1979.20  101.59
  -2  -3   1 1967.40  100.99
  -2  -3   1 2022.70  102.19
  -2  -3   1 2018.90  102.29
  -2  -3   1 2178.68   99.29
   1   3  -1  102.99    8.70
   1   3  -1  118.69    8.30
   1   3  -1  100.89    7.70
   1   3  -1  124.09    8.50
  -1  -3   1  129.89    8.60
  -1  -3   1  125.19    7.90
  -1  -3   1  104.69    7.90
  -1  -3   1  113.59    6.40
   0   3  -1 4682.93  231.28
   0   3  -1 4972.90  230.38
   0   3  -1 4790.02  230.28
   0  -3   1 5007.00  230.18
   0  -3   1 4717.23  229.08
   0  -3   1 4613.94  228.88
   0  -3   1 4417.36  229.68
  -1   3  -1   97.59    7.80
  -1   3  -1   95.29    6.80
  -1   3  -1   92.59    6.90
   1  -3   1  103.59    6.70
   1  -3   1  103.29    5.40
   1  -3   1   99.39    6.60
   1  -3   1   83.29    6.80
  -2   3  -1 1708.03   78.19
  -2   3  -1 1605.94   79.39
   2  -3   1 1677.63   79.19
   2  -3   1 1426.36   78.49
   2  -3   1 1463.35   78.69
   2  -3   1 1683.13   78.29
  -3   3  -1   38.20    3.40
  -3   3  -1   33.00    4.60
   3  -3   1   30.30    4.20
   3  -3   1   38.90    3.50
   3  -3   1   39.80    3.50
   3  -3   1   35.80    4.20
   3  -3   1   35.70    3.50
  -4   3  -1  496.95   27.70
  -4   3  -1  523.85   26.30
   4  -3   1  523.95   26.00
   4  -3   1  508.35   26.90
   4  -3   1  505.05   26.70
   4  -3   1  479.65   27.40
   4  -3   1  522.65   27.10
  -5   3  -1  681.53   37.50
  -5   3  -1  719.53   35.80
   5  -3   1  693.43   36.60
   5  -3   1  711.83   34.80
   5  -3   1  692.83   37.20
   5  -3   1  661.43   35.20
   5  -3   1  768.82   37.10
  -6   3  -1  190.68   13.80
  -6   3  -1  213.78   12.50
   6  -3   1  204.78   10.60
   6  -3   1  219.58   13.60
   6  -3   1  198.98   13.30
   6  -3   1  220.38   10.60
   6  -3   1  211.08   13.30
  -7   3  -1   83.49    8.20
   7  -3   1   84.89    7.60
   7  -3   1   81.09    7.20
  -8   3  -1   35.80    6.00
  -8   3  -1   38.70    5.50
   8  -3   1   34.90    5.40
   8   2  -1  104.09    9.70
  -8  -2   1  101.79    9.60
   7   2  -1   19.50    2.50
   7   2  -1   26.40    5.00
  -7  -2   1   18.50    4.80
  -7  -2   1   31.90    5.10
   6   2  -1   54.59    4.30
   6   2  -1   47.20    6.00
   6   2  -1   66.59    8.40
   6   2  -1   46.50    6.50
  -6  -2   1   65.49    7.00
  -6  -2   1   60.69    7.70
   5   2  -1  959.90   49.99
   5   2  -1 1059.59   53.59
   5   2  -1  968.20   51.89
   5   2  -1  992.60   51.39
  -5  -2   1 1053.49   53.29
  -5  -2   1 1022.90   51.79
   4   2  -1  109.09    9.70
   4   2  -1  118.79    8.50
   4   2  -1  117.09    9.00
   4   2  -1  124.29    8.30
   4   2  -1  123.09    7.80
  -4  -2   1  126.59   10.00
  -4  -2   1  123.89    7.30
  -4  -2   1  135.59    9.10
   3   2  -1  677.13   37.80
   3   2  -1  744.73   36.20
   3   2  -1  668.63   35.90
   3   2  -1  690.23   36.90
   3   2  -1  713.23   36.30
  -3  -2   1  783.22   35.10
  -3  -2   1  701.03   36.70
  -3  -2   1  665.23   37.60
   2   2  -1  388.46   20.80
   2   2  -1  400.66   20.80
   2   2  -1  423.96   21.30
   2   2  -1  380.76   20.50
   2   2  -1  350.96   21.50
  -2  -2   1  352.36   21.60
  -2  -2   1  407.26   19.10
  -2  -2   1  404.06   21.20
   1   2  -1 9322.27  424.66
   1   2  -1 9461.95  424.06
   1   2  -1 8695.43  424.26
   1   2  -1 9999.00  424.26
   1   2  -1 9515.65  424.26
  -1  -2   1 7658.13  423.36
  -1  -2   1 7943.11  422.86
  -1  -2   1 8887.31  424.46
  -1  -2   1 7732.33  423.86
   0   2  -1   36.60    5.10
   0   2  -1   40.50    3.90
   0   2  -1   41.40    3.50
   0  -2   1   41.20    3.50
   0  -2   1   41.60    3.20
   0  -2   1   45.70    3.70
   0  -2   1   41.80    3.00
  -1   2  -1 1531.15   75.09
  -1   2  -1 1626.54   76.49
  -1   2  -1 1672.93   75.29
   1  -2   1 1383.06   74.59
   1  -2   1 1585.34   75.59
   1  -2   1 1467.75   75.39
   1  -2   1 1527.05   75.39
  -2   2  -1  391.76   21.80
  -2   2  -1  431.76   20.70
   2  -2   1  397.76   21.70
   2  -2   1  385.96   20.90
   2  -2   1  411.46   21.00
   2  -2   1  429.66   21.10
  -3   2  -1 5573.64  242.98
   3  -2   1 4994.10  242.88
   3  -2   1 5254.27  242.88
   3  -2   1 4607.04  240.98
   3  -2   1 4502.05  242.48
   3  -2   1 4957.20  241.38
   3  -2   1 5174.08  242.18
  -4   2  -1  280.57   14.60
  -4   2  -1  255.37   15.70
   4  -2   1  249.58   15.20
   4  -2   1  253.97   16.20
   4  -2   1  244.08   14.10
   4  -2   1  284.87   14.80
   4  -2   1  279.67   16.00
   4  -2   1  277.47   15.70
   4  -2   1  278.47   13.60
  -5   2  -1 1589.34   79.19
  -5   2  -1 1609.94   77.79
   5  -2   1 1647.84   78.09
   5  -2   1 1478.05   78.69
   5  -2   1 1583.94   78.79
   5  -2   1 1570.74   79.79
   5  -2   1 1567.84   79.49
  -6   2  -1  435.16   26.00
  -6   2  -1  475.75   24.90
   6  -2   1  524.75   26.00
   6  -2   1  434.36   25.50
   6  -2   1  483.85   26.80
   6  -2   1  448.16   25.00
   6  -2   1  469.45   26.60
  -7   2  -1 1451.75   73.69
  -7   2  -1 1441.26   73.49
  -7   2  -1 1542.15   72.99
  -7   2  -1 1418.46   72.09
   7  -2   1 1406.36   72.39
   7  -2   1 1443.56   74.29
   7  -2   1 1556.84   73.29
   7  -2   1 1441.86   74.09
   7  -2   1 1311.27   72.79
  -8   2  -1    1.40    3.60
   8  -2   1    0.30    2.30
   8  -2   1   12.50    5.90
   8   1  -1   90.29    8.30
  -8  -1   1   73.69    8.90
   7   1  -1 1391.46   69.69
   7   1  -1 1393.56   73.19
   7   1  -1 1469.55   73.29
   7   1  -1 1453.55   69.69
  -7  -1   1 1437.66   73.99
  -7  -1   1 1495.35   72.69
   6   1  -1  203.08   15.20
   6   1  -1  213.88   14.00
   6   1  -1  217.98   11.80
   6   1  -1  260.77   12.70
   6   1  -1  220.88   14.40
  -6  -1   1  204.98   15.00
  -6  -1   1  232.38   14.10
   5   1  -1 1691.33   84.09
   5   1  -1 1892.71   85.09
   5   1  -1 1587.44   87.49
   5   1  -1 1695.43   84.89
   5   1  -1 1739.53   86.39
  -5  -1   1 1606.74   87.29
  -5  -1   1 1759.92   84.79
  -5  -1   1 1849.11   86.09
   4   1  -1   21.20    2.60
   4   1  -1   24.40    3.70
   4   1  -1   21.20    2.40
   4   1  -1   25.40    2.50
   4   1  -1   19.60    3.40
   4   1  -1   22.70    4.50
  -4  -1   1   16.60    4.10
  -4  -1   1   19.90    3.30
   3   1  -1 2958.70  137.39
   3   1  -1 2793.02  136.29
   3   1  -1 3057.19  137.69
   3   1  -1 3134.39  136.49
   3   1  -1 2623.34  136.19
   3   1  -1 2475.25  138.29
  -3  -1   1 2579.64  138.29
  -3  -1   1 2892.21  137.29
   2   1  -1 1065.19   51.69
   2   1  -1 1153.88   51.19
   2   1  -1 1020.20   51.09
   2   1  -1  949.31   52.39
   2   1  -1 1026.30   51.79
   2   1  -1 1058.29   50.69
  -2  -1   1  981.60   52.49
  -2  -1   1 1074.09   51.69
   1   1  -1 4475.75  192.88
   1   1  -1 3808.32  192.18
   1   1  -1 3913.41  192.18
   1   1  -1 4343.67  192.58
  -1  -1   1 3672.03  192.68
  -1  -1   1 3961.00  192.78
  -1  -1   1 3759.02  192.18
   0   1  -1    7.50    2.00
   0   1  -1    9.10    1.10
   0   1  -1    3.70    0.80
   0  -1   1    6.90    0.90
   0  -1   1    7.40    1.00
  -1   1  -1 3730.83  157.28
  -1   1  -1 3458.85  157.58
   1  -1   1 2998.70  156.68
   1  -1   1 3168.48  156.78
   1  -1   1 3183.18  156.88
   1  -1   1 2943.11  157.18
   1  -1   1 3316.77  156.98
  -2   1  -1   82.99    5.60
   2  -1   1   77.79    4.40
   2  -1   1   85.69    5.70
   2  -1   1   88.29    4.50
   2  -1   1   79.99    5.50
   2  -1   1   93.09    5.60
   2  -1   1   73.99    5.40
   3  -1   1 1212.38   61.69
   3  -1   1 1231.28   59.99
   3  -1   1 1278.67   60.79
   3  -1   1 1170.08   58.79
   3  -1   1 1237.38   60.69
   3  -1   1 1229.28   58.79
   3  -1   1 1182.98   60.59
   4  -1   1  759.32   36.80
   4  -1   1  683.23   35.80
   4  -1   1  770.72   36.60
   4  -1   1  633.14   37.70
   4  -1   1  675.33   36.50
   5  -1   1   76.39    6.30
   5  -1   1   68.49    6.30
   5  -1   1   82.39    6.10
   5  -1   1   71.89    6.40
   5  -1   1   65.49    8.00
  -6   1  -1  216.48   13.00
  -6   1  -1  207.68   13.30
  -6   1  -1  221.58   13.50
   6  -1   1  210.58   13.20
   6  -1   1  198.58   12.70
   6  -1   1  201.88   13.50
   6  -1   1  185.38   12.60
   6  -1   1  187.78   14.20
  -7   1  -1  211.78   13.60
  -7   1  -1  209.78   13.10
   7  -1   1  197.38   13.40
   7  -1   1  191.98   14.50
   7  -1   1  193.08   14.10
   7  -1   1  207.88   13.20
  -8   1  -1  167.68   12.90
   8  -1   1  184.98   13.80
   8   0  -1   97.39    8.50
  -8   0   1   81.29    9.20
   7   0  -1   31.70    5.10
   7   0  -1   48.80    6.20
  -7   0   1   56.69    5.60
  -7   0   1   50.99    6.70
   6   0  -1  308.17   18.00
   6   0  -1  286.27   19.00
   6   0  -1  297.17   17.00
   6   0  -1  321.97   18.50
  -6   0   1  309.77   17.60
  -6   0   1  308.17   19.00
   5   0  -1  137.19    9.50
   5   0  -1  131.19   10.30
   5   0  -1  132.89    7.40
   5   0  -1  141.69    9.40
   5   0  -1  137.09    8.60
   5   0  -1  132.19    7.30
  -5   0   1  136.79   10.40
  -5   0   1  165.18    9.50
   4   0  -1 2295.47  105.29
   4   0  -1 2145.89  108.29
   4   0  -1 2058.29  106.39
   4   0  -1 2054.19  105.29
   4   0  -1 2322.27  107.19
   4   0  -1 2185.18  106.79
   4   0  -1 2121.39  107.29
  -4   0   1 2307.67  106.89
  -4   0   1 2155.28  108.09
   3   0  -1  118.09    6.40
   3   0  -1  121.49    7.20
   3   0  -1  113.79    8.20
   3   0  -1  121.59    7.60
   3   0  -1  117.09    7.10
   3   0  -1  117.99    6.30
   3   0  -1  122.89    7.80
  -3   0   1  124.69    7.50
  -3   0   1  117.59    8.40
   2   0  -1 4516.25  226.18
   2   0  -1 4259.67  225.58
   2   0  -1 4737.63  226.18
   2   0  -1 4441.46  225.48
   2   0  -1 4425.56  225.68
   2   0  -1 4933.31  225.38
   2   0  -1 5192.48  225.58
  -2   0   1 4905.91  226.38
  -2   0   1 4733.33  225.58
   1   0  -1  290.17   13.90
   1   0  -1  272.07   14.20
   1   0  -1  269.57   14.30
   1   0  -1  269.87   13.80
   1   0  -1  285.17   13.80
  -1   0   1  277.87   14.00
  -1   0   1  284.47   13.50
  -1   0   1  295.77   13.60
  -1   0   1  240.18   13.80
   0   0  -1 3228.68  183.98
   0   0  -1 3281.27  184.08
   0   0  -1 3872.61  184.48
   0   0   1 4255.57  184.28
   0   0   1 4066.09  185.18
   0   0   1 4060.29  185.38
   0   0   1 4031.00  184.88
  -1   0  -1  581.94   28.20
  -1   0  -1  586.84   28.70
   1   0   1  574.14   28.00
   1   0   1  552.64   28.70
   1   0   1  555.44   28.70
   1   0   1  556.64   28.20
   1   0   1  595.24   28.40
   1   0   1  538.75   28.00
  -2   0  -1 2292.17  111.19
   2   0   1 2251.17  111.49
   2   0   1 2315.97  112.09
   2   0   1 2100.49  111.09
   2   0   1 2363.56  111.09
   2   0   1 2232.18  110.79
   2   0   1 2428.66  110.19
   2   0   1 2263.97  110.19
  -3   0  -1  546.25   27.40
   3   0   1  537.05   27.80
   3   0   1  542.15   27.40
   3   0   1  515.65   26.00
   3   0   1  551.74   27.50
   3   0   1  505.75   27.10
   3   0   1  526.65   25.90
   3   0   1  486.35   28.80
  -4   0  -1 4844.52  239.78
  -4   0  -1 5091.69  240.58
   4   0   1 5037.40  242.38
   4   0   1 4838.22  238.48
   4   0   1 5051.89  240.68
   4   0   1 4985.90  238.08
   4   0   1 5059.69  240.18
   4   0   1 5190.58  240.18
   4   0   1 4480.35  239.68
  -5   0  -1  372.16   19.90
  -5   0  -1  353.86   20.40
   5   0   1  348.17   21.90
   5   0   1  356.76   20.10
   5   0   1  355.46   20.00
   5   0   1  345.57   20.40
  -6   0  -1  987.20   51.19
  -6   0  -1 1002.20   50.39
   6   0   1  960.30   50.89
   6   0   1 1018.10   51.29
   6   0   1  982.00   52.99
  -7   0  -1   54.59    6.60
   7   0   1   59.99    8.00
   7   0   1   62.89    7.00
  -8   0  -1  783.52   45.90
  -8   0  -1  723.43   41.50
   8   0   1  792.72   42.90
   9  -1  -1   40.00    5.90
  -9   1   1   45.40    6.20
   8  -1  -1  519.75   30.00
   8  -1  -1  534.55   30.90
  -8   1   1  581.14   30.80
  -8   1   1  554.74   30.10
   7  -1  -1  185.58   12.50
   7  -1  -1  195.38   12.10
   7  -1  -1  184.08   13.20
  -7   1   1  199.98   12.70
  -7   1   1  210.28   13.60
   6  -1  -1 2270.07  117.69
   6  -1  -1 2390.06  116.99
   6  -1  -1 2268.67  116.99
   6  -1  -1 2358.96  116.89
  -6   1   1 2516.35  117.99
  -6   1   1 2473.45  116.79
   5  -1  -1   37.20    2.30
   5  -1  -1   44.50    4.20
   5  -1  -1   34.30    4.10
   5  -1  -1   35.60    4.90
   5  -1  -1   40.40    4.60
   5  -1  -1   38.90    2.40
   5  -1  -1   36.20    4.80
  -5   1   1   38.10    5.10
   4  -1  -1 1089.09   54.99
   4  -1  -1 1097.09   52.89
   4  -1  -1 1093.39   52.89
   4  -1  -1 1015.30   54.39
   4  -1  -1 1076.59   54.29
   4  -1  -1 1100.99   54.99
   4  -1  -1 1116.59   54.19
  -4   1   1 1121.09   54.99
   3  -1  -1  480.75   24.30
   3  -1  -1  455.25   25.40
   3  -1  -1  485.55   24.90
   3  -1  -1  489.45   25.70
   3  -1  -1  483.35   24.30
   3  -1  -1  538.95   25.20
  -3   1   1  489.25   25.10
  -3   1   1  507.25   25.40
   2  -1  -1 5317.87  257.27
   2  -1  -1 4886.51  256.47
   2  -1  -1 5370.26  257.17
   2  -1  -1 5145.19  257.37
   2  -1  -1 5211.98  256.37
  -2   1   1 6047.00  256.77
   1  -1  -1   14.80    1.60
   1  -1  -1   17.30    2.50
   1  -1  -1   15.50    1.60
   1  -1  -1   21.00    1.70
  -1   1   1   15.60    1.70
  -1   1   1   23.80    1.50
   0  -1  -1 2755.92  147.99
   0  -1  -1 3055.29  147.89
   0  -1  -1 3068.19  148.09
   0   1   1 3400.86  148.09
   0   1   1 3259.47  147.39
   0   1   1 3223.48  147.89
   0   1   1 2676.33  148.59
  -1  -1  -1    9.30    1.80
  -1  -1  -1    3.70    1.40
   1   1   1    8.50    0.90
   1   1   1    8.40    1.30
   1   1   1    4.10    1.80
   1   1   1    3.70    1.10
   1   1   1   14.60    2.20
  -2  -1  -1 1404.96   68.89
  -2  -1  -1 1467.65   68.39
   2   1   1 1352.96   67.39
   2   1   1 1385.66   67.79
   2   1   1 1346.47   67.79
   2   1   1 1426.66   68.69
   2   1   1 1306.07   69.39
  -3  -1  -1 1001.30   47.20
  -3  -1  -1  986.90   48.20
   3   1   1  918.21   47.70
   3   1   1  978.80   46.50
   3   1   1  872.01   49.00
   3   1   1  917.01   46.70
   3   1   1  894.11   46.60
  -4  -1  -1  167.68   10.40
  -4  -1  -1  172.08   11.30
   4   1   1  174.18    9.40
   4   1   1  180.28   12.60
   4   1   1  164.08   10.20
   4   1   1  154.88   11.00
   4   1   1  163.98    9.80
  -5  -1  -1  107.59    7.80
  -5  -1  -1  121.29    8.80
   5   1   1  111.49    8.00
   5   1   1  106.39    6.40
   5   1   1  115.09    9.80
   5   1   1   99.29    6.60
   5   1   1  116.59    8.60
  -6  -1  -1   89.49    8.00
   6   1   1   89.79    5.20
   6   1   1   92.29    9.10
   6   1   1   87.79    7.90
   6   1   1   81.79    5.00
  -7  -1  -1  427.66   24.30
  -7  -1  -1  439.86   25.50
   7   1   1  393.86   24.40
   7   1   1  428.66   25.90
  -8  -1  -1    1.70    3.20
  -8  -1  -1    5.10    3.60
   8   1   1    3.00    3.60
   8   1   1    9.00    3.60
   9  -2  -1  125.39   11.10
  -9   2   1  111.09    9.50
  -9   2   1  146.19   11.20
   8  -2  -1   81.99    7.40
   8  -2  -1   93.59    8.70
  -8   2   1   91.09    7.60
   7  -2  -1  240.48   13.40
   7  -2  -1  194.38   13.90
  -7   2   1  212.68   13.30
  -7   2   1  178.78   12.60
   6  -2  -1  151.38    7.90
   6  -2  -1  151.08    8.40
   6  -2  -1  156.28   10.30
   6  -2  -1  147.99    9.80
   6  -2  -1  154.68   11.10
  -6   2   1  165.18   10.50
  -6   2   1  154.78   10.00
   5  -2  -1 1335.27   65.99
   5  -2  -1 1365.96   68.39
   5  -2  -1 1345.37   67.99
   5  -2  -1 1255.17   65.69
   5  -2  -1 1303.97   67.09
  -5   2   1 1388.06   67.19
  -5   2   1 1496.95   67.59
   4  -2  -1  254.87   13.30
   4  -2  -1  263.17   14.90
   4  -2  -1  245.08   13.10
   4  -2  -1  255.07   13.80
   4  -2  -1  240.88   14.70
  -4   2   1  244.88   13.90
  -4   2   1  255.37   13.80
   3  -2  -1 3268.87  164.28
   3  -2  -1 3338.37  163.08
   3  -2  -1 3157.78  163.18
   3  -2  -1 3499.75  164.78
   3  -2  -1 3314.97  163.28
  -3   2   1 3502.15  162.88
  -3   2   1 3563.64  163.58
   2  -2  -1   58.69    4.10
   2  -2  -1   52.09    4.20
   2  -2  -1   52.59    4.30
   2  -2  -1   69.39    5.20
  -2   2   1   55.59    3.20
  -2   2   1   67.39    4.40
  -2   2   1   44.10    6.20
   1  -2  -1 3958.80  196.58
   1  -2  -1 3734.83  196.88
   1  -2  -1 4009.80  197.58
   1  -2  -1 3822.12  196.78
  -1   2   1 4221.88  195.98
  -1   2   1 4215.78  197.18
  -1   2   1 4338.47  196.68
  -1   2   1 4266.27  197.28
   0  -2  -1  729.93   35.80
   0  -2  -1  717.73   35.50
   0  -2  -1  766.52   36.30
   0   2   1  734.93   35.40
   0   2   1  662.53   35.80
   0   2   1  687.53   35.50
   0   2   1  613.84   36.60
  -1  -2  -1 3951.00  196.08
  -1  -2  -1 4167.78  196.38
  -1  -2  -1 3785.12  195.98
  -1  -2  -1 4283.47  195.48
   1   2   1 3862.81  195.98
   1   2   1 4170.98  196.68
   1   2   1 4046.60  196.28
   1   2   1 4045.70  197.28
  -2  -2  -1  189.48   12.00
  -2  -2  -1  216.18   11.50
   2   2   1  186.88   12.70
   2   2   1  192.98   11.80
   2   2   1  193.98   11.70
   2   2   1  190.08   10.40
   2   2   1  177.38   12.30
  -3  -2  -1 3588.94  173.78
  -3  -2  -1 3596.24  172.68
   3   2   1 3520.85  173.08
   3   2   1 3429.96  173.88
   3   2   1 3770.72  175.28
   3   2   1 3498.45  171.88
   3   2   1 3467.95  172.88
  -4  -2  -1  720.13   38.10
  -4  -2  -1  738.83   36.90
   4   2   1  707.13   36.80
   4   2   1  699.03   36.40
   4   2   1  727.33   39.20
   4   2   1  710.53   36.70
   4   2   1  714.03   38.40
  -5  -2  -1 2109.89  102.19
   5   2   1 2077.89  103.59
   5   2   1 2049.20  102.59
   5   2   1 1950.30  100.29
  -6  -2  -1   33.70    5.40
   6   2   1   31.20    5.70
   6   2   1   29.50    5.40
   6   2   1   37.80    3.60
  -7  -2  -1  557.44   30.90
  -7  -2  -1  587.24   31.90
   7   2   1  528.85   31.30
   7   2   1  499.75   27.70
   7   2   1  638.44   32.90
   9  -3  -1  761.72   42.50
  -9   3   1  770.62   42.10
   8  -3  -1  149.19   11.50
   8  -3  -1  136.09   10.30
  -8   3   1  147.29   11.30
  -8   3   1  134.29    9.90
   7  -3  -1  604.74   29.30
   7  -3  -1  572.04   29.10
   7  -3  -1  592.94   32.30
   7  -3  -1  590.64   33.00
  -7   3   1  613.54   31.60
   6  -3  -1   23.90    4.40
   6  -3  -1   22.80    3.10
   6  -3  -1   28.40    4.70
   6  -3  -1   24.30    3.60
   6  -3  -1   24.20    2.40
  -6   3   1   26.30    3.80
   5  -3  -1 2285.77  120.69
   5  -3  -1 2351.06  120.09
   5  -3  -1 2483.55  120.99
   5  -3  -1 2370.46  122.39
   5  -3  -1 2665.53  122.89
  -5   3   1 2571.34  121.19
  -5   3   1 2621.34  120.29
   4  -3  -1   65.99    5.10
   4  -3  -1   81.39    6.80
   4  -3  -1   71.09    5.00
   4  -3  -1   68.19    5.40
   4  -3  -1   68.39    6.10
  -4   3   1   77.99    4.60
  -4   3   1   75.09    5.60
   3  -3  -1 1559.04   77.99
   3  -3  -1 1509.75   77.69
   3  -3  -1 1491.55   76.79
   3  -3  -1 1476.55   77.39
   3  -3  -1 1516.45   78.69
  -3   3   1 1728.03   77.69
  -3   3   1 1710.53   75.79
   2  -3  -1  119.89    7.60
   2  -3  -1  119.99    8.30
   2  -3  -1  116.69    7.80
  -2   3   1  112.69    7.70
  -2   3   1  116.49    7.90
  -2   3   1  115.69    6.00
  -2   3   1  119.49    8.40
   1  -3  -1 5258.17  254.47
   1  -3  -1 5095.69  254.57
   1  -3  -1 5198.68  254.57
  -1   3   1 5466.55  254.07
  -1   3   1 4949.60  254.87
  -1   3   1 5731.13  253.37
  -1   3   1 5068.19  254.77
   0  -3  -1   43.90    5.30
   0  -3  -1   50.29    4.50
   0  -3  -1   33.70    3.90
   0   3   1   32.90    3.80
   0   3   1   27.30    4.60
   0   3   1   28.40    4.10
  -1  -3  -1  254.57   14.00
  -1  -3  -1  283.37   15.20
  -1  -3  -1  265.27   15.60
   1   3   1  261.77   14.30
   1   3   1  246.48   15.30
   1   3   1  242.18   16.10
   1   3   1  240.68   15.30
  -2  -3  -1  773.42   39.70
  -2  -3  -1  777.92   37.90
   2   3   1  728.83   39.60
   2   3   1  751.42   40.10
   2   3   1  748.03   40.40
   2   3   1  761.42   39.50
   2   3   1  724.43   37.40
  -3  -3  -1  653.63   36.60
  -3  -3  -1  657.13   34.90
   3   3   1  681.03   34.50
   3   3   1  687.63   37.50
   3   3   1  701.73   36.10
   3   3   1  750.82   37.80
  -4  -3  -1  156.58   11.60
   4   3   1  154.18   11.90
   4   3   1  145.89   11.80
   4   3   1  170.58   10.70
  -5  -3  -1   17.40    4.40
   5   3   1   13.40    3.00
   5   3   1   21.70    4.60
   5   3   1   27.60    5.40
  -6  -3  -1  252.67   16.70
   6   3   1  267.07   17.20
   6   3   1  266.67   17.50
   6   3   1  231.98   14.50
  -7  -3  -1   15.40    4.30
  -7  -3  -1    6.90    3.60
   7   3   1   14.40    4.70
   7   3   1    8.90    2.30
   7   3   1    8.60    3.80
   9  -4  -1   13.50    3.90
  -9   4   1   25.50    5.40
   8  -4  -1   96.89    9.40
   8  -4  -1   93.09    5.20
   8  -4  -1  102.39    8.70
  -8   4   1   79.09    7.40
  -8   4   1   85.89    8.90
   7  -4  -1  182.48   12.80
   7  -4  -1  170.18   12.80
   7  -4  -1  176.18   10.40
  -7   4   1  167.78   11.50
  -7   4   1  180.98   12.80
   6  -4  -1  892.01   43.80
   6  -4  -1  898.71   45.70
   6  -4  -1  821.32   45.40
   6  -4  -1  816.22   43.60
  -6   4   1  814.62   45.20
  -6   4   1  891.61   44.10
   5  -4  -1  111.59    8.30
   5  -4  -1  108.79    9.00
   5  -4  -1  115.79    9.40
   5  -4  -1  121.69    7.60
   5  -4  -1  113.09    8.30
  -5   4   1  108.29    9.00
  -5   4   1  115.89    8.20
   4  -4  -1 1568.24   79.09
   4  -4  -1 1534.55   78.29
   4  -4  -1 1425.76   77.39
   4  -4  -1 1533.45   77.89
   4  -4  -1 1607.34   76.69
  -4   4   1 1534.85   78.29
  -4   4   1 1711.33   77.69
   3  -4  -1   88.99    6.90
   3  -4  -1   84.09    7.10
   3  -4  -1   69.59    7.00
  -3   4   1   82.89    6.80
  -3   4   1   89.99    6.80
  -3   4   1   90.89    7.20
   2  -4  -1 3716.73  191.88
   2  -4  -1 4261.37  191.88
   2  -4  -1 3749.72  191.98
   2  -4  -1 3892.61  192.08
  -2   4   1 3919.31  192.58
  -2   4   1 4051.29  189.68
  -2   4   1 4087.79  192.08
  -2   4   1 3811.12  191.58
   1  -4  -1  113.59    8.60
   1  -4  -1  115.39    8.00
   1  -4  -1  100.39    8.20
   1  -4  -1  102.79    8.30
  -1   4   1  111.59    7.20
  -1   4   1  124.29    9.10
  -1   4   1  117.09    8.30
   0  -4  -1 1795.22   86.49
   0  -4  -1 1672.23   85.39
   0  -4  -1 1728.33   86.09
   0  -4  -1 1747.23   86.59
   0   4   1 1739.03   86.89
   0   4   1 1726.43   86.19
   0   4   1 1644.04   87.09
   0   4   1 1750.02   85.79
  -1  -4  -1  703.83   34.40
  -1  -4  -1  643.14   36.10
  -1  -4  -1  689.63   35.20
   1   4   1  693.03   36.20
   1   4   1  608.34   34.70
   1   4   1  670.33   36.90
   1   4   1  681.13   35.70
  -2  -4  -1 4113.39  191.78
  -2  -4  -1 3653.63  193.68
   2   4   1 4037.00  193.58
   2   4   1 4219.18  194.38
   2   4   1 3727.83  191.48
   2   4   1 4010.30  195.18
  -3  -4  -1   93.49    8.90
   3   4   1   82.59    9.90
   3   4   1  107.49    8.20
   3   4   1  112.29    9.20
  -4  -4  -1 1451.05   74.79
   4   4   1 1470.55   74.89
   4   4   1 1451.25   75.89
   4   4   1 1455.25   73.29
  -5  -4  -1  259.17   17.10
   5   4   1  243.98   16.70
   5   4   1  260.27   15.40
   5   4   1  243.38   17.90
  -6  -4  -1  871.41   46.60
  -6  -4  -1  910.91   47.30
   6   4   1  950.70   47.50
   6   4   1  801.02   44.70
   6   4   1  827.72   48.20
   9  -5  -1   59.59    7.60
  -9   5   1   64.09    8.50
   8  -5  -1  679.03   36.90
   8  -5  -1  661.63   33.50
  -8   5   1  642.54   36.80
  -8   5   1  653.33   35.30
   7  -5  -1   12.30    4.00
   7  -5  -1    4.50    2.10
  -7   5   1   10.20    3.80
  -7   5   1   11.60    3.50
   6  -5  -1  690.13   37.40
   6  -5  -1  724.93   40.00
   6  -5  -1  762.72   38.20
  -6   5   1  725.23   39.50
  -6   5   1  735.63   38.30
   5  -5  -1   76.59    6.80
   5  -5  -1   57.19    7.40
   5  -5  -1   70.49    6.50
   5  -5  -1   60.89    5.30
  -5   5   1   65.29    6.70
  -5   5   1   64.39    6.30
   4  -5  -1 1831.92   94.89
   4  -5  -1 1869.51   94.29
   4  -5  -1 1734.83   92.49
   4  -5  -1 1889.41   94.19
  -4   5   1 1959.60   94.49
  -4   5   1 2028.40   93.89
   3  -5  -1   17.80    3.70
   3  -5  -1   10.90    3.10
   3  -5  -1   14.60    3.40
   3  -5  -1   11.90    2.80
  -3   5   1   16.30    3.60
  -3   5   1   15.00    3.30
   2  -5  -1 1677.23   80.79
   2  -5  -1 1665.93   83.39
   2  -5  -1 1616.74   83.69
   2  -5  -1 1609.64   83.49
   2  -5  -1 1614.14   82.99
  -2   5   1 1783.72   80.89
  -2   5   1 1684.83   83.39
  -2   5   1 1765.02   84.09
  -2   5   1 1524.75   83.49
   1  -5  -1    2.40    2.10
   1  -5  -1    3.90    2.30
   1  -5  -1    4.00    2.00
   1  -5  -1    4.10    2.70
  -1   5   1    4.10    1.70
  -1   5   1    3.00    2.80
  -1   5   1    1.30    3.90
  -1   5   1   -1.00    1.80
   0  -5  -1  831.22   45.10
   0  -5  -1  882.91   46.60
   0  -5  -1  901.71   46.10
   0   5   1  886.91   46.30
   0   5   1  855.11   45.50
   0   5   1  920.91   47.10
   0   5   1  967.60   47.70
  -1  -5  -1  456.35   25.00
  -1  -5  -1  427.86   26.80
   1   5   1  485.55   26.80
   1   5   1  543.25   28.20
   1   5   1  447.76   25.60
   1   5   1  487.05   26.30
  -2  -5  -1  111.29    9.80
   2   5   1  111.29    9.00
   2   5   1  118.29   10.20
   2   5   1  100.19    8.80
  -3  -5  -1  110.19   10.30
   3   5   1  102.59   10.50
   3   5   1  104.99    9.00
   3   5   1  110.19    8.80
  -4  -5  -1   96.79    9.50
   4   5   1   92.79    8.80
   4   5   1   87.39   11.10
   4   5   1   92.39    7.90
  -5  -5  -1  222.78   14.80
  -5  -5  -1  221.78   15.80
   5   5   1  205.88   13.60
   5   5   1  207.38   16.60
   5   5   1  206.58   14.70
  -6  -5  -1    9.90    3.70
  -6  -5  -1    2.40    4.10
   6   5   1    3.60    3.40
   6   5   1    3.10    4.20
   6   5   1    6.20    2.70
   8  -6  -1    1.50    3.20
   8  -6  -1    2.60    1.90
  -8   6   1    0.10    2.70
   7  -6  -1  506.85   27.90
  -7   6   1  542.25   28.80
  -7   6   1  485.65   29.60
   6  -6  -1   51.89    4.90
   6  -6  -1   59.29    6.40
   6  -6  -1   41.70    6.70
  -6   6   1   43.50    5.90
  -6   6   1   37.60    6.10
   5  -6  -1  633.14   38.10
   5  -6  -1  836.42   40.00
   5  -6  -1  673.83   40.50
  -5   6   1  815.52   39.90
  -5   6   1  801.32   40.90
   4  -6  -1  335.37   20.50
   4  -6  -1  381.96   21.70
   4  -6  -1  402.36   22.50
  -4   6   1  366.66   21.90
  -4   6   1  363.16   21.50
   3  -6  -1 1657.23   85.59
   3  -6  -1 1637.44   85.29
   3  -6  -1 1818.52   85.89
  -3   6   1 1685.13   85.89
  -3   6   1 1710.93   85.99
   2  -6  -1    4.60    2.40
   2  -6  -1    2.70    2.80
   2  -6  -1    8.80    2.80
  -2   6   1    9.30    3.40
  -2   6   1    4.10    2.80
   1  -6  -1 1699.83   80.79
   1  -6  -1 1657.03   79.69
   1  -6  -1 1552.84   80.29
  -1   6   1 1556.04   78.79
  -1   6   1 1554.24   80.99
  -1   6   1 1570.34   81.49
  -1   6   1 1589.24   81.19
   0  -6  -1  243.48   14.50
   0  -6  -1  248.18   15.90
   0   6   1  244.18   14.80
   0   6   1  236.58   16.40
   0   6   1  265.97   15.90
  -1  -6  -1 1994.10  107.19
   1   6   1 2167.18  106.59
   1   6   1 2297.07  108.69
   1   6   1 2132.89  107.29
  -2  -6  -1  186.48   14.10
   2   6   1  187.08   14.50
   2   6   1  189.78   13.20
   2   6   1  200.08   13.10
  -3  -6  -1 1538.95   81.19
   3   6   1 1581.44   79.69
   3   6   1 1581.24   80.09
   3   6   1 1597.94   82.19
  -4  -6  -1   82.59    9.90
  -4  -6  -1   64.79    7.50
   4   6   1   66.39    6.90
   4   6   1   86.39    8.20
   4   6   1   77.69   10.60
  -5  -6  -1  418.66   24.30
   5   6   1  385.26   26.70
   5   6   1  414.26   23.40
   5   6   1  410.56   24.50
   8  -7  -1   19.30    5.20
   8  -7  -1   11.80    3.30
  -8   7   1   16.90    5.10
   7  -7  -1  586.84   30.80
   7  -7  -1  561.24   33.10
  -7   7   1  555.54   31.10
  -7   7   1  539.95   32.50
   6  -7  -1    2.60    2.00
   6  -7  -1    2.00    2.90
   6  -7  -1    2.30    2.30
  -6   7   1    4.10    3.20
  -6   7   1    2.40    2.90
   5  -7  -1  646.64   34.00
   5  -7  -1  526.25   31.50
   5  -7  -1  633.04   32.90
  -5   7   1  608.34   33.00
  -5   7   1  588.94   33.90
   4  -7  -1   98.69    8.40
   4  -7  -1  100.99    9.00
   4  -7  -1  101.59    8.60
  -4   7   1  115.99    9.50
  -4   7   1   89.39    9.10
   3  -7  -1 1413.46   82.89
   3  -7  -1 1619.74   83.09
   3  -7  -1 1824.92   83.39
  -3   7   1 1663.03   84.19
  -3   7   1 1721.33   84.39
   2  -7  -1  117.79    8.50
   2  -7  -1  109.29    8.80
   2  -7  -1  101.19    9.00
  -2   7   1   89.39    9.00
  -2   7   1   81.39    9.00
   1  -7  -1   77.99    6.40
   1  -7  -1   66.59    7.70
  -1   7   1   54.09    7.50
  -1   7   1   76.39    7.60
   0  -7  -1   13.30    3.80
   0  -7  -1   12.90    3.10
   0   7   1   12.30    3.00
   0   7   1    5.00    3.30
   0   7   1   11.50    3.60
  -1  -7  -1  459.85   27.10
  -1  -7  -1  470.25   26.20
   1   7   1  460.85   27.90
   1   7   1  479.25   26.40
   1   7   1  496.05   27.50
  -2  -7  -1  456.45   25.20
  -2  -7  -1  413.86   26.00
   2   7   1  465.75   27.20
   2   7   1  431.96   25.60
   2   7   1  446.36   25.30
  -3  -7  -1    3.40    4.00
  -3  -7  -1   16.20    4.20
   3   7   1    6.80    3.70
   3   7   1    0.60    2.70
   3   7   1    8.50    3.30
  -4  -7  -1   30.80    5.30
  -4  -7  -1   27.40    6.00
   4   7   1   26.20    4.70
   4   7   1   26.90    5.10
   7  -8  -1    7.60    4.30
   7  -8  -1    7.20    3.00
  -7   8   1   10.00    4.40
   6  -8  -1  470.65   26.40
   6  -8  -1  484.35   28.00
  -6   8   1  442.16   28.00
  -6   8   1  451.65   26.80
   5  -8  -1    5.60    2.90
   5  -8  -1   12.10    4.00
   5  -8  -1    5.80    2.90
  -5   8   1    7.50    3.50
  -5   8   1    6.60    3.60
   4  -8  -1  731.43   40.80
   4  -8  -1  800.82   41.40
  -4   8   1  776.22   42.60
  -4   8   1  748.93   41.90
   3  -8  -1   35.70    5.80
   3  -8  -1   37.60    5.50
   3  -8  -1   37.30    5.50
  -3   8   1   37.50    6.50
  -3   8   1   32.70    6.30
   2  -8  -1  908.01   50.29
   2  -8  -1  946.71   49.30
  -2   8   1  941.41   51.09
  -2   8   1 1029.90   51.59
   1  -8  -1   16.00    4.30
  -1   8   1    8.30    3.70
   0  -8  -1  973.70   51.19
  -1  -8  -1  205.08   14.80
   1   8   1  211.58   14.90
   1   8   1  223.28   15.70
  -2  -8  -1  973.70   52.69
  -2  -8  -1  974.90   51.59
   2   8   1  991.80   51.99
   2   8   1 1003.60   52.49
   2   8   1 1046.90   53.89
  -3  -8  -1   61.49    7.00
  -3  -8  -1   57.59    7.70
   3   8   1   58.69    8.70
   3   8   1   58.99    7.20
   3   8   1   59.49    7.10
   6  -9  -1  362.46   21.60
   6  -9  -1  374.76   22.90
  -6   9   1  357.86   22.60
  -6   9   1  354.66   23.80
   5  -9  -1   38.10    5.90
   5  -9  -1   34.80    5.70
   5  -9  -1   30.80    5.60
  -5   9   1   40.30    7.40
  -5   9   1   40.60    6.90
   4  -9  -1  525.15   28.20
   4  -9  -1  509.45   28.90
   4  -9  -1  492.05   28.20
  -4   9   1  462.25   29.80
  -4   9   1  464.15   29.10
   3  -9  -1   10.70    4.30
   3  -9  -1    7.60    3.20
  -3   9   1   20.90    5.50
  -3   9   1    8.50    4.20
   2  -9  -1  270.77   17.60
  -2   9   1  261.17   17.80
   1  -9  -1   82.19    8.30
  -1   9   1   83.09    9.40
   0  -9  -1   37.20    5.80
   0   9   1   37.00    6.50
  -1  -9  -1   88.39    9.50
   1   9   1   77.19    9.20
   5 -10  -1  179.88   14.80
   5 -10  -1  242.38   15.30
   5 -10  -1  212.38   14.70
  -5  10   1  227.18   17.00
  -5  10   1  210.38   15.90
   4 -10  -1   17.50    4.80
   4 -10  -1   23.40    4.80
  -4  10   1   18.10    5.30
  -4  10   1   18.60    4.90
   3 -10  -1  571.84   32.50
  -3  10   1  573.24   32.90
   2 -10  -1   95.89    9.10
   1 -10  -1  357.46   22.00
  -1  10   1  364.56   22.50
   1  10  -2   89.09    8.60
  -1 -10   2   75.79    8.80
   0  10  -2   71.59    8.00
   0 -10   2   70.19    8.40
  -1  10  -2  147.89   11.20
  -1  10  -2  153.58   12.60
   1 -10   2  145.09   11.90
  -2  10  -2   17.80    5.40
  -2  10  -2   14.00    3.80
   2 -10   2   18.50    5.10
  -3  10  -2   78.39   10.20
   3 -10   2   85.39    9.90
  -4  10  -2   53.29    8.40
   4 -10   2   50.29    7.10
   4 -10   2   47.90    7.70
   4 -10   2   57.99    7.40
  -5  10  -2  484.15   30.50
   5 -10   2  536.55   29.10
   5 -10   2  433.46   28.30
   5 -10   2  500.85   28.60
   3   9  -2  365.16   22.80
   3   9  -2  409.86   24.40
  -3  -9   2  384.16   22.20
  -3  -9   2  365.56   22.80
   2   9  -2    5.10    3.50
  -2  -9   2    5.70    3.20
   1   9  -2  837.62   43.70
  -1  -9   2  775.82   43.10
   0   9  -2  296.67   19.00
   0   9  -2  259.17   17.50
   0  -9   2  273.87   18.00
  -1   9  -2 1175.48   58.79
  -1   9  -2 1074.39   56.89
   1  -9   2 1053.59   57.69
  -2   9  -2   27.40    6.40
  -2   9  -2   38.10    5.60
   2  -9   2   29.20    5.90
  -3   9  -2  602.24   35.60
  -3   9  -2  619.94   33.60
   3  -9   2  577.44   34.80
   3  -9   2  642.64   34.10
   3  -9   2  631.84   34.50
  -4   9  -2   26.10    6.00
   4  -9   2   24.90    5.00
   4  -9   2   20.50    4.70
   4  -9   2   17.30    4.80
  -5   9  -2  412.96   26.80
   5  -9   2  433.36   24.90
   5  -9   2  430.56   25.40
   5  -9   2  380.46   24.30
  -6   9  -2   -1.80    3.50
   6  -9   2    0.70    3.40
   6  -9   2    2.40    2.60
   6  -9   2    2.20    2.80
   4   8  -2   79.39    8.60
   4   8  -2   81.39   10.30
  -4  -8   2   67.39    8.20
  -4  -8   2   79.69    8.40
   3   8  -2   57.69    8.30
   3   8  -2   62.29    7.40
  -3  -8   2   62.59    7.60
  -3  -8   2   53.09    6.70
   2   8  -2    6.30    3.30
   2   8  -2    2.20    2.80
  -2  -8   2    4.50    2.90
  -2  -8   2    6.00    3.40
   1   8  -2  214.68   14.70
   1   8  -2  206.88   15.80
   1   8  -2  209.18   14.10
  -1  -8   2  172.78   13.30
  -1  -8   2  189.48   12.60
   0   8  -2  674.43   36.80
   0   8  -2  633.84   35.50
   0  -8   2  636.74   35.60
  -1   8  -2  100.89    8.50
  -1   8  -2  111.69   10.30
   1  -8   2   87.29    9.10
  -2   8  -2  131.19   11.60
  -2   8  -2  130.79   10.10
   2  -8   2  138.89   10.30
   2  -8   2  150.28   11.10
   2  -8   2  122.09   11.00
  -3   8  -2   22.40    4.30
  -3   8  -2   25.00    5.50
   3  -8   2   20.90    4.60
   3  -8   2   15.00    4.00
   3  -8   2   18.60    4.70
  -4   8  -2  685.43   39.00
   4  -8   2  674.23   37.60
   4  -8   2  660.13   36.90
   4  -8   2  690.43   37.30
  -5   8  -2   17.30    5.20
   5  -8   2   12.10    3.80
   5  -8   2   14.30    4.50
   5  -8   2    8.90    3.30
  -6   8  -2  506.25   31.30
   6  -8   2  531.25   30.80
   6  -8   2  470.95   28.30
   6  -8   2  534.85   28.90
  -7   8  -2   53.19    8.40
   7  -8   2   47.30    7.80
   7  -8   2   39.60    5.90
   7  -8   2   53.99    6.20
   5   7  -2    4.70    2.80
   5   7  -2    7.90    4.60
  -5  -7   2    4.90    3.50
  -5  -7   2    9.00    3.90
   4   7  -2  750.42   42.00
   4   7  -2  713.43   39.90
  -4  -7   2  755.02   39.80
  -4  -7   2  740.63   40.10
   3   7  -2  120.69   10.00
   3   7  -2  124.49   11.10
  -3  -7   2  110.89    9.60
  -3  -7   2  113.49    9.40
   2   7  -2 1016.40   52.39
   2   7  -2 1004.90   52.79
   2   7  -2 1002.70   52.59
  -2  -7   2  987.60   51.69
  -2  -7   2  932.31   50.89
   1   7  -2  133.19   11.30
   1   7  -2  127.39   10.40
   1   7  -2  126.19   10.60
  -1  -7   2  119.09    9.10
  -1  -7   2  134.59   10.50
   0   7  -2 2876.81  137.99
   0   7  -2 2704.43  136.49
   0   7  -2 2794.12  137.29
   0  -7   2 2674.53  136.59
   0  -7   2 2734.23  134.89
  -1   7  -2  653.43   35.70
  -1   7  -2  668.53   37.50
   1  -7   2  638.34   36.40
   1  -7   2  692.83   36.40
   1  -7   2  662.33   35.10
  -2   7  -2 1014.10   55.29
  -2   7  -2 1038.50   53.29
   2  -7   2  990.80   53.39
   2  -7   2 1051.49   54.19
   2  -7   2 1072.49   54.39
  -3   7  -2   62.99    6.30
  -3   7  -2   59.09    8.20
   3  -7   2   58.29    7.20
   3  -7   2   69.39    7.60
   3  -7   2   55.59    7.20
  -4   7  -2 1342.67   65.89
  -4   7  -2 1285.87   68.29
   4  -7   2 1177.68   65.59
   4  -7   2 1308.87   66.59
   4  -7   2 1374.46   67.69
  -5   7  -2  108.89   10.70
   5  -7   2  100.19    8.50
   5  -7   2  113.79   10.20
   5  -7   2  117.99    9.30
  -6   7  -2  321.17   21.80
   6  -7   2  363.06   19.70
   6  -7   2  303.67   19.30
  -7   7  -2   12.70    5.10
   7  -7   2   14.70    3.00
   7  -7   2   14.20    3.60
   7  -7   2    9.00    4.10
   6   6  -2  260.47   17.80
   6   6  -2  287.47   20.90
  -6  -6   2  303.17   18.80
  -6  -6   2  327.97   19.40
   5   6  -2   11.70    4.50
   5   6  -2    9.90    3.30
  -5  -6   2    8.90    3.70
  -5  -6   2   12.60    4.10
   4   6  -2  392.46   23.40
   4   6  -2  402.66   25.10
  -4  -6   2  388.56   23.60
  -4  -6   2  422.96   23.80
   3   6  -2  307.07   18.90
   3   6  -2  292.37   18.80
   3   6  -2  291.27   19.60
  -3  -6   2  301.47   18.60
  -3  -6   2  318.67   18.90
   2   6  -2  117.49    9.90
   2   6  -2  110.79   10.00
   2   6  -2  120.19   10.00
  -2  -6   2  129.59    9.70
  -2  -6   2  113.69    9.00
   1   6  -2  263.57   16.60
   1   6  -2  264.27   16.50
   1   6  -2  274.17   18.10
  -1  -6   2  225.88   14.90
  -1  -6   2  245.68   15.90
   0   6  -2  297.17   19.40
   0   6  -2  359.46   21.00
   0   6  -2  328.87   19.20
   0  -6   2  297.87   17.80
   0  -6   2  304.17   17.50
   0  -6   2  326.37   19.50
   0  -6   2  319.47   19.20
  -1   6  -2  808.52   43.40
  -1   6  -2  740.83   41.90
  -1   6  -2  822.12   41.50
   1  -6   2  770.62   41.80
   1  -6   2  828.72   39.90
   1  -6   2  713.83   40.70
   1  -6   2  829.92   42.30
  -2   6  -2    2.60    2.80
  -2   6  -2    3.10    2.30
   2  -6   2    7.60    2.90
   2  -6   2    4.70    2.40
   2  -6   2    7.80    2.70
  -3   6  -2  720.43   38.10
  -3   6  -2  687.83   40.20
   3  -6   2  712.83   39.00
   3  -6   2  751.92   39.60
   3  -6   2  771.92   38.70
  -4   6  -2   16.90    3.20
  -4   6  -2   17.30    4.70
   4  -6   2    7.70    2.80
   4  -6   2    8.90    2.60
   4  -6   2   14.70    4.20
  -5   6  -2 1327.87   69.99
   5  -6   2 1300.07   67.69
   5  -6   2 1431.16   70.09
   5  -6   2 1326.57   67.89
  -6   6  -2   78.09    9.90
   6  -6   2   96.99    9.30
   6  -6   2   79.49    7.40
   6  -6   2  107.99    7.40
  -7   6  -2  580.54   34.30
   7  -6   2  576.64   32.20
   7  -6   2  608.84   33.90
   7  -6   2  588.54   30.20
  -8   6  -2   -1.30    3.10
   8  -6   2    2.20    1.10
   8  -6   2    3.10    3.10
   6   5  -2   23.50    4.30
   6   5  -2   13.40    4.80
  -6  -5   2   19.90    5.10
  -6  -5   2   18.10    4.90
   5   5  -2 1033.60   55.19
   5   5  -2  983.90   56.99
  -5  -5   2 1108.49   56.49
  -5  -5   2 1162.68   56.69
   4   5  -2  118.39   10.50
   4   5  -2  112.09    9.10
   4   5  -2  116.79    9.30
  -4  -5   2  115.89    9.60
  -4  -5   2  106.49    9.50
   3   5  -2 1351.96   69.89
   3   5  -2 1412.76   70.89
   3   5  -2 1342.17   69.89
  -3  -5   2 1402.86   70.09
  -3  -5   2 1349.07   69.89
   2   5  -2  498.25   30.40
   2   5  -2  561.64   30.40
   2   5  -2  532.65   30.00
  -2  -5   2  553.14   29.70
  -2  -5   2  551.94   29.70
   1   5  -2 4524.45  210.08
   1   5  -2 4172.38  211.48
   1   5  -2 4427.16  210.08
  -1  -5   2 3908.61  208.48
  -1  -5   2 4150.18  206.98
  -1  -5   2 4615.14  209.78
  -1  -5   2 4233.88  209.28
   0   5  -2  234.08   14.60
   0   5  -2  230.28   15.00
   0   5  -2  235.68   16.30
   0  -5   2  242.58   13.50
   0  -5   2  229.18   14.60
   0  -5   2  236.38   15.00
   0  -5   2  225.68   13.70
  -1   5  -2 2448.85  119.89
  -1   5  -2 2578.14  117.99
  -1   5  -2 2522.05  118.49
   1  -5   2 2253.37  118.09
   1  -5   2 2233.28  117.39
   1  -5   2 2151.58  117.79
   1  -5   2 2532.85  116.29
  -2   5  -2  256.67   15.00
  -2   5  -2  239.78   16.70
   2  -5   2  249.18   15.40
   2  -5   2  305.07   15.50
   2  -5   2  221.98   13.00
   2  -5   2  250.37   15.50
  -3   5  -2 1979.70   95.09
  -3   5  -2 1856.71   97.19
   3  -5   2 1877.61   95.89
   3  -5   2 2008.40   96.89
  -4   5  -2   27.10    3.60
  -4   5  -2   20.60    4.70
   4  -5   2   33.60    5.20
   4  -5   2   25.90    3.90
   4  -5   2   29.30    4.00
  -5   5  -2 1106.79   59.09
   5  -5   2 1143.99   57.29
   5  -5   2 1130.79   56.49
   5  -5   2 1124.99   58.69
  -6   5  -2  104.89   10.10
   6  -5   2  113.99    8.90
   6  -5   2  119.59    9.80
   6  -5   2  122.69    7.50
  -7   5  -2  394.86   24.60
   7  -5   2  414.26   24.10
   7  -5   2  380.16   20.20
   7  -5   2  411.06   23.20
  -8   5  -2   82.29   10.20
   8  -5   2  107.19    9.50
   8  -5   2   95.59    9.60
   7   4  -2  284.07   19.40
   7   4  -2  279.17   16.60
  -7  -4   2  309.77   19.20
   6   4  -2   42.00    6.80
   6   4  -2   65.89    5.90
  -6  -4   2   61.99    7.80
  -6  -4   2   55.79    7.60
   5   4  -2  709.43   41.40
   5   4  -2  774.12   39.80
   5   4  -2  728.93   40.30
  -5  -4   2  783.82   41.30
  -5  -4   2  806.92   41.60
   4   4  -2   21.90    4.40
   4   4  -2   14.30    3.20
   4   4  -2   16.10    3.70
  -4  -4   2   21.80    4.60
  -4  -4   2   19.30    4.40
   3   4  -2  106.09    8.40
   3   4  -2   73.29    7.30
   3   4  -2   84.99    7.30
  -3  -4   2   86.19    7.90
  -3  -4   2  110.99    8.80
   2   4  -2 1204.18   64.29
   2   4  -2 1322.67   63.89
   2   4  -2 1324.57   63.99
  -2  -4   2 1155.08   63.59
  -2  -4   2 1281.97   63.69
  -2  -4   2 1233.68   62.89
   1   4  -2  570.84   29.30
   1   4  -2  571.14   29.10
   1   4  -2  454.95   30.20
  -1  -4   2  556.04   29.10
  -1  -4   2  552.34   26.70
  -1  -4   2  492.25   28.30
   0   4  -2  290.17   17.20
   0   4  -2  279.07   19.00
   0  -4   2  291.87   17.20
   0  -4   2  309.27   16.50
   0  -4   2  329.17   17.70
   0  -4   2  297.37   16.20
  -1   4  -2   31.30    3.90
  -1   4  -2   53.49    6.50
  -1   4  -2   21.70    3.30
   1  -4   2   24.30    2.50
   1  -4   2   22.80    3.30
   1  -4   2   29.60    4.00
   1  -4   2   27.10    3.60
  -2   4  -2 2532.75  117.69
  -2   4  -2 2628.94  117.89
  -2   4  -2 2417.66  119.99
   2  -4   2 2650.23  118.19
   2  -4   2 2113.39  116.59
   2  -4   2 2449.85  118.39
   2  -4   2 2294.97  118.49
   2  -4   2 2207.48  118.29
  -3   4  -2   18.70    4.20
  -3   4  -2   26.20    3.20
   3  -4   2   31.20    4.20
   3  -4   2   16.80    3.20
   3  -4   2   23.70    3.40
   3  -4   2   26.00    3.40
  -4   4  -2 1560.54   79.69
  -4   4  -2 1613.64   82.29
   4  -4   2 1642.94   79.99
   4  -4   2 1654.03   81.89
   4  -4   2 1546.55   80.69
   4  -4   2 1744.23   80.69
   4  -4   2 1617.44   80.59
  -5   4  -2  244.68   16.60
  -5   4  -2  281.57   14.60
   5  -4   2  256.67   15.30
   5  -4   2  242.58   13.80
   5  -4   2  255.77   16.10
  -6   4  -2 1125.49   59.89
   6  -4   2 1163.18   56.09
   6  -4   2 1138.09   58.59
   6  -4   2 1156.98   59.39
  -7   4  -2    8.10    3.80
   7  -4   2    1.80    2.80
   7  -4   2    6.30    3.00
  -8   4  -2  526.55   32.70
  -8   4  -2  599.54   31.80
   8  -4   2  592.14   32.00
   8  -4   2  555.24   31.40
   8   3  -2  600.74   33.40
   8   3  -2  554.14   29.40
  -8  -3   2  580.94   32.70
   7   3  -2   85.29    6.40
   7   3  -2   88.69    8.80
  -7  -3   2   97.49    9.40
   6   3  -2  677.43   35.90
   6   3  -2  624.44   36.10
   6   3  -2  609.24   33.90
  -6  -3   2  696.63   37.10
  -6  -3   2  711.93   36.20
   5   3  -2   29.20    3.80
   5   3  -2   22.60    4.30
   5   3  -2   26.90    4.30
  -5  -3   2   28.60    5.40
  -5  -3   2   20.00    4.20
   4   3  -2 2513.15  122.99
   4   3  -2 2576.64  123.69
   4   3  -2 2465.15  122.29
  -4  -3   2 2520.35  124.29
  -4  -3   2 2395.26  123.29
   3   3  -2  949.11   46.20
   3   3  -2  915.11   46.60
   3   3  -2  909.91   46.80
   3   3  -2  922.41   45.90
  -3  -3   2  831.52   47.20
  -3  -3   2  874.31   46.90
   2   3  -2 4654.93  234.18
   2   3  -2 5178.58  234.78
   2   3  -2 5094.49  234.98
   2   3  -2 4905.81  235.58
  -2  -3   2 4963.60  235.18
  -2  -3   2 4227.38  234.88
  -2  -3   2 4813.52  234.08
   1   3  -2  413.26   22.40
   1   3  -2  443.26   22.60
   1   3  -2  398.76   24.30
  -1  -3   2  397.06   22.30
  -1  -3   2  418.36   20.70
  -1  -3   2  407.26   22.80
  -1  -3   2  411.46   22.30
   0   3  -2 3767.32  214.58
   0   3  -2 4718.93  213.08
   0   3  -2 4635.54  212.98
   0  -3   2 4732.83  212.38
   0  -3   2 4205.08  212.88
   0  -3   2 4511.45  213.08
   0  -3   2 4164.78  211.98
  -1   3  -2  345.97   21.10
  -1   3  -2  339.17   19.10
  -1   3  -2  366.56   19.10
   1  -3   2  348.17   18.30
   1  -3   2  369.66   19.50
   1  -3   2  360.06   19.30
   1  -3   2  364.86   19.20
  -2   3  -2 3493.35  174.18
  -2   3  -2 3871.91  171.98
   2  -3   2 3555.14  173.28
   2  -3   2 3530.25  172.48
   2  -3   2 3437.76  171.88
   2  -3   2 3456.65  172.48
  -3   3  -2    5.80    2.60
  -3   3  -2    2.20    1.20
   3  -3   2    3.30    1.80
   3  -3   2   11.00    1.80
   3  -3   2    8.00    1.80
   3  -3   2    4.70    1.70
  -4   3  -2 1749.22   83.39
  -4   3  -2 1702.43   85.59
   4  -3   2 1688.13   84.49
   4  -3   2 1626.94   84.99
   4  -3   2 1720.43   82.99
   4  -3   2 1734.23   85.29
   4  -3   2 1710.93   83.69
  -5   3  -2   56.29    4.70
  -5   3  -2   60.09    7.20
   5  -3   2   61.49    6.00
   5  -3   2   65.09    5.90
   5  -3   2   64.19    4.00
   5  -3   2   65.09    7.50
   5  -3   2   65.09    5.10
  -6   3  -2  885.51   48.10
   6  -3   2  928.11   47.50
   6  -3   2  923.41   48.00
   6  -3   2  898.71   47.20
  -7   3  -2    4.60    3.10
  -7   3  -2    1.20    2.40
   7  -3   2    2.70    2.50
   7  -3   2    7.30    3.00
  -8   3  -2   66.09    7.40
   8  -3   2   56.69    6.80
   8  -3   2   60.49    7.10
   8   2  -2  254.77   13.80
   8   2  -2  270.27   17.50
  -8  -2   2  272.37   17.80
   7   2  -2   23.90    4.80
   7   2  -2   21.10    4.60
   7   2  -2   22.70    2.70
  -7  -2   2   32.50    5.80
   6   2  -2  661.33   35.50
   6   2  -2  639.94   33.10
   6   2  -2  625.34   35.10
  -6  -2   2  703.93   35.10
  -6  -2   2  639.34   36.20
   5   2  -2  394.26   22.30
   5   2  -2  380.36   22.10
   5   2  -2  384.26   20.50
  -5  -2   2  387.26   23.30
  -5  -2   2  403.76   22.00
   4   2  -2  249.28   14.90
   4   2  -2  241.08   14.90
   4   2  -2  249.28   13.80
   4   2  -2  240.48   13.70
  -4  -2   2  232.08   15.80
  -4  -2   2  241.78   14.80
  -4  -2   2  266.17   12.90
   3   2  -2  277.87   14.80
   3   2  -2  270.87   15.60
   3   2  -2  254.77   15.50
   3   2  -2  264.47   14.60
  -3  -2   2  243.58   16.10
  -3  -2   2  276.17   13.30
  -3  -2   2  271.17   15.60
   2   2  -2  477.15   23.70
   2   2  -2  431.56   24.40
   2   2  -2  473.55   24.20
   2   2  -2  416.46   23.60
  -2  -2   2  500.45   23.70
  -2  -2   2  444.36   24.60
  -2  -2   2  453.05   24.50
   1   2  -2 2528.55  117.19
   1   2  -2 2481.95  117.99
   1   2  -2 2357.76  119.49
   1   2  -2 2399.16  117.99
  -1  -2   2 2398.36  118.19
  -1  -2   2 2370.66  118.09
  -1  -2   2 2444.16  117.99
   0   2  -2  199.68   11.60
   0   2  -2  217.78   14.00
   0   2  -2  209.48   11.40
   0  -2   2  227.78   11.70
   0  -2   2  219.58   11.90
   0  -2   2  229.28   11.60
   0  -2   2  213.98   11.50
  -1   2  -2  528.05   30.50
  -1   2  -2  580.44   28.10
  -1   2  -2  621.64   28.60
   1  -2   2  555.54   29.00
   1  -2   2  547.75   28.50
   1  -2   2  541.85   28.60
   1  -2   2  560.64   28.70
   1  -2   2  611.74   28.70
  -2   2  -2  245.38   15.10
  -2   2  -2  266.97   13.20
   2  -2   2  254.87   13.60
   2  -2   2  255.57   14.00
   2  -2   2  264.67   14.80
   2  -2   2  267.57   13.70
   2  -2   2  262.17   14.10
  -3   2  -2 4836.82  229.58
  -3   2  -2 5415.76  227.78
   3  -2   2 4550.04  227.48
   3  -2   2 4279.77  229.18
   3  -2   2 4380.66  227.58
   3  -2   2 4944.31  229.08
   3  -2   2 4663.63  229.08
  -4   2  -2  137.29    8.40
  -4   2  -2  140.29   10.00
   4  -2   2  135.09    9.40
   4  -2   2  144.99    8.60
   4  -2   2  134.09   10.30
   4  -2   2  167.78   10.10
   4  -2   2  141.49    7.60
   4  -2   2  150.68    8.00
  -5   2  -2  999.90   48.30
  -5   2  -2  967.00   49.99
   5  -2   2  987.10   49.60
   5  -2   2  982.40   48.40
   5  -2   2 1004.30   47.10
   5  -2   2  961.60   46.70
   5  -2   2  846.12   50.59
   5  -2   2  927.41   49.50
  -6   2  -2   40.50    5.40
  -6   2  -2   38.00    5.70
  -6   2  -2   39.10    4.50
   6  -2   2   34.50    5.00
   6  -2   2   34.10    5.00
   6  -2   2   40.00    6.20
   6  -2   2   29.40    4.00
  -7   2  -2 1384.86   66.89
   7  -2   2 1264.77   66.89
   7  -2   2 1273.27   68.29
   7  -2   2 1327.47   66.99
  -8   2  -2   42.70    6.20
   8  -2   2   32.10    5.30
   8   1  -2   39.60    5.80
  -8  -1   2   37.80    6.20
   7   1  -2 1217.38   61.69
   7   1  -2 1236.48   61.59
   7   1  -2 1140.79   58.49
  -7  -1   2 1202.58   62.29
   6   1  -2   40.30    5.30
   6   1  -2   31.80    4.80
   6   1  -2   35.30    3.40
   6   1  -2   37.60    3.20
  -6  -1   2   53.99    5.10
  -6  -1   2   40.70    6.10
   5   1  -2 1393.16   68.89
   5   1  -2 1389.56   70.69
   5   1  -2 1422.16   70.49
   5   1  -2 1400.96   68.59
   5   1  -2 1314.77   68.59
  -5  -1   2 1419.66   71.69
  -5  -1   2 1494.65   70.09
   4   1  -2 1017.90   48.50
   4   1  -2  961.00   48.40
   4   1  -2  992.80   48.40
   4   1  -2  983.00   49.80
   4   1  -2  971.40   49.99
  -4  -1   2  918.51   50.59
  -4  -1   2 1009.00   49.40
   3   1  -2 6646.53  279.47
   3   1  -2 5410.76  277.87
   3   1  -2 6071.09  279.57
   3   1  -2 5396.26  278.07
   3   1  -2 5528.85  278.17
  -3  -1   2 5621.04  279.87
  -3  -1   2 5759.92  278.67
   2   1  -2  241.68   13.40
   2   1  -2  250.67   13.20
   2   1  -2  248.48   14.30
   2   1  -2  245.98   13.50
   2   1  -2  268.97   14.00
  -2  -1   2  256.27   14.10
  -2  -1   2  255.57   14.30
   1   1  -2 7548.84  341.37
   1   1  -2 7343.87  340.37
   1   1  -2 7098.59  339.77
   1   1  -2 7346.87  339.67
  -1  -1   2 6418.06  339.37
  -1  -1   2 6569.44  339.07
   0   1  -2  601.04   27.70
   0   1  -2  544.35   28.20
   0   1  -2  575.44   28.70
   0   1  -2  511.45   29.30
   0  -1   2  532.85   28.30
   0  -1   2  590.74   28.20
   0  -1   2  575.24   28.40
  -1   1  -2 3375.36  168.08
  -1   1  -2 3779.92  167.48
   1  -1   2 3524.75  166.58
   1  -1   2 3322.77  165.88
   1  -1   2 3350.96  166.98
   1  -1   2 3470.15  167.38
   1  -1   2 3393.26  166.58
   1  -1   2 3416.46  166.98
  -2   1  -2    4.50    1.70
  -2   1  -2   15.40    2.60
   2  -1   2    6.90    1.20
   2  -1   2   17.30    2.80
   2  -1   2    7.10    1.90
   2  -1   2    4.20    1.10
   2  -1   2    3.90    1.60
  -3   1  -2 3028.60  139.79
  -3   1  -2 3101.19  139.79
   3  -1   2 2934.01  140.29
   3  -1   2 2648.14  137.89
   3  -1   2 2868.21  139.89
   3  -1   2 2616.84  138.49
   3  -1   2 2863.41  137.89
   3  -1   2 2848.01  139.79
  -4   1  -2  249.08   14.30
  -4   1  -2  242.58   14.30
   4  -1   2  232.48   12.10
   4  -1   2  244.48   13.50
   4  -1   2  227.68   14.30
   4  -1   2  228.88   14.30
   4  -1   2  208.28   15.20
   4  -1   2  236.98   12.10
   4  -1   2  270.77   14.60
  -5   1  -2  799.92   40.50
  -5   1  -2  771.32   40.70
   5  -1   2  714.33   42.10
   5  -1   2  809.82   40.60
   5  -1   2  778.42   40.70
   5  -1   2  781.12   39.80
   5  -1   2  768.02   41.00
  -6   1  -2   23.70    4.40
  -6   1  -2   38.10    4.90
  -6   1  -2   26.60    4.80
   6  -1   2   37.50    4.70
   6  -1   2   25.20    5.50
   6  -1   2   27.30    4.50
  -7   1  -2  364.86   21.70
  -7   1  -2  395.26   21.40
   7  -1   2  367.16   21.80
   7  -1   2  329.77   22.70
  -8   1  -2   64.09    7.80
  -8   1  -2   56.29    7.60
   8  -1   2   60.19    8.40
   9   0  -2  344.67   21.20
  -9   0   2  354.76   21.30
  -9   0   2  346.47   21.20
   8   0  -2   25.00    4.80
   8   0  -2   28.30    5.30
  -8   0   2   21.00    4.60
   7   0  -2  485.65   29.10
   7   0  -2  575.54   26.50
   7   0  -2  532.75   29.10
   7   0  -2  498.15   25.90
  -7   0   2  542.15   29.70
   6   0  -2  217.38   11.30
   6   0  -2  207.08   13.80
   6   0  -2  231.68   12.70
   6   0  -2  208.58   11.50
   6   0  -2  227.28   13.70
  -6   0   2  223.48   13.00
  -6   0   2  194.78   14.00
   5   0  -2  270.47   15.50
   5   0  -2  273.47   14.80
   5   0  -2  307.77   14.70
   5   0  -2  284.67   16.40
  -5   0   2  269.87   17.00
  -5   0   2  290.57   15.90
   4   0  -2  631.64   33.30
   4   0  -2  693.13   32.80
   4   0  -2  647.84   33.90
   4   0  -2  639.94   34.40
   4   0  -2  648.04   32.50
  -4   0   2  691.53   33.40
  -4   0   2  657.43   34.60
   3   0  -2  411.06   20.70
   3   0  -2  400.36   22.10
   3   0  -2  387.06   20.70
   3   0  -2  425.36   21.60
   3   0  -2  398.26   21.30
  -3   0   2  428.06   21.00
  -3   0   2  435.06   22.00
   2   0  -2  262.27   13.80
   2   0  -2  253.57   12.90
   2   0  -2  258.67   13.10
   2   0  -2  240.28   12.90
   2   0  -2  235.18   13.60
  -2   0   2  231.38   13.20
  -2   0   2  255.67   12.50
  -1   0   2   30.90    1.80
   0   0  -2 3003.10  147.39
   0   0   2 2948.51  147.49
   0   0   2 3004.20  147.39
   0   0   2 3301.77  147.69
   0   0   2 3013.60  147.19
  -1   0  -2    3.30    1.50
  -1   0  -2    6.20    1.50
   1   0   2    1.60    1.00
   1   0   2    2.70    1.20
   1   0   2    3.50    0.90
   1   0   2    2.30    1.20
  -2   0  -2 3950.70  183.58
  -2   0  -2 3697.63  184.18
   2   0   2 3796.02  183.08
   2   0   2 3970.20  183.18
   2   0   2 3526.15  183.48
   2   0   2 3922.31  184.58
   2   0   2 3707.43  184.38
  -3   0  -2  341.57   18.10
  -3   0  -2  343.27   17.50
   3   0   2  309.27   18.70
   3   0   2  299.87   16.40
   3   0   2  315.57   17.60
   3   0   2  319.27   17.40
   3   0   2  331.77   16.50
   3   0   2  309.77   18.10
  -4   0  -2 2689.63  128.29
  -4   0  -2 2612.04  128.49
   4   0   2 2574.44  130.49
   4   0   2 2719.73  128.39
   4   0   2 2553.24  129.09
   4   0   2 2609.44  126.69
   4   0   2 2689.33  128.59
   4   0   2 2523.95  126.69
  -5   0  -2   50.59    5.70
  -5   0  -2   47.60    5.50
  -5   0  -2   53.79    6.50
   5   0   2   48.20    6.00
   5   0   2   56.19    5.60
   5   0   2   55.89    5.40
   5   0   2   51.19    3.40
   5   0   2   55.29    7.70
  -6   0  -2  926.51   46.90
  -6   0  -2  908.11   47.60
   6   0   2  885.81   47.00
   6   0   2  884.61   47.60
   6   0   2  937.91   49.60
  -7   0  -2   53.89    7.00
   7   0   2   60.69    8.40
   7   0   2   67.49   10.00
  -8   0  -2  702.33   39.10
  -8   0  -2  714.83   38.50
   8   0   2  696.53   40.10
   9  -1  -2   38.80    6.40
  -9   1   2   33.90    5.50
   8  -1  -2  252.87   16.50
   8  -1  -2  239.88   15.70
  -8   1   2  259.87   16.00
  -8   1   2  249.28   15.70
   7  -1  -2   35.00    4.90
   7  -1  -2   28.10    4.00
   7  -1  -2   29.10    4.90
  -7   1   2   39.70    5.20
  -7   1   2   35.20    5.20
   6  -1  -2 2634.24  130.09
   6  -1  -2 2565.34  127.09
   6  -1  -2 2664.23  128.69
   6  -1  -2 2392.86  128.99
   6  -1  -2 2488.95  128.99
   6  -1  -2 2500.35  126.89
  -6   1   2 2966.10  128.79
  -6   1   2 2930.21  129.89
  -6   1   2 2581.84  129.19
   5  -1  -2  334.97   19.60
   5  -1  -2  341.87   17.30
   5  -1  -2  339.97   18.20
   5  -1  -2  341.37   18.90
   5  -1  -2  334.57   17.40
   5  -1  -2  312.87   18.70
  -5   1   2  344.87   18.90
  -5   1   2  368.16   18.40
  -5   1   2  353.46   19.20
   4  -1  -2 2224.38  106.39
   4  -1  -2 2131.99  106.69
   4  -1  -2 1960.90  105.39
   4  -1  -2 2264.17  107.29
   4  -1  -2 2155.18  105.59
   4  -1  -2 2106.69  105.39
  -4   1   2 2290.17  106.39
  -4   1   2 2251.67  106.39
   3  -1  -2  520.35   27.30
   3  -1  -2  575.84   27.80
   3  -1  -2  548.55   28.50
   3  -1  -2  527.15   26.90
   3  -1  -2  555.64   27.40
  -3   1   2  535.05   27.50
  -3   1   2  538.85   27.70
   2  -1  -2 8959.00  382.46
   2  -1  -2 7793.22  382.86
   2  -1  -2 7697.93  382.26
   2  -1  -2 7250.17  382.16
  -2   1   2 8011.80  382.56
   1  -1  -2  381.56   20.00
   1  -1  -2  402.46   20.20
   1  -1  -2  410.16   19.90
   1  -1  -2  402.16   20.90
  -1   1   2  406.96   20.30
  -1   1   2  358.76   19.80
  -1   1   2  386.36   20.20
   0  -1  -2 1241.08   59.19
   0  -1  -2 1114.79   58.69
   0  -1  -2 1213.18   59.39
   0   1   2 1002.70   59.39
   0   1   2 1277.37   58.99
   0   1   2 1317.77   58.99
  -1  -1  -2   90.89    6.60
  -1  -1  -2   84.29    6.30
   1   1   2   85.29    5.50
   1   1   2   88.19    6.80
   1   1   2   90.39    5.70
   1   1   2   97.99    6.20
   1   1   2   75.49    5.90
  -2  -1  -2 4342.57  219.98
  -2  -1  -2 4801.92  218.58
  -2  -1  -2 4576.54  220.48
   2   1   2 4466.45  220.18
   2   1   2 4446.96  218.98
   2   1   2 4714.23  219.18
   2   1   2 4681.13  220.68
   2   1   2 4278.07  220.18
   2   1   2 4525.15  218.58
  -3  -1  -2  110.59    8.40
  -3  -1  -2  112.59    7.90
   3   1   2  110.09    6.90
   3   1   2  112.69    8.30
   3   1   2  117.29    6.80
   3   1   2  104.99    6.80
   3   1   2  100.89    8.80
   3   1   2  113.49    8.10
  -4  -1  -2 1033.30   50.99
  -4  -1  -2  987.50   49.99
   4   1   2 1012.70   50.59
   4   1   2 1008.70   49.40
   4   1   2  958.80   48.90
   4   1   2  940.41   48.40
   4   1   2  928.41   51.89
  -5  -1  -2    8.90    2.70
  -5  -1  -2    3.50    2.50
   5   1   2    1.70    1.40
   5   1   2    2.50    3.10
   5   1   2    3.90    1.30
   5   1   2    9.80    2.80
  -6  -1  -2  378.46   22.30
   6   1   2  374.46   22.00
   6   1   2  399.76   23.80
   6   1   2  360.66   19.30
  -7  -1  -2   99.99    8.80
   7   1   2   90.89   10.60
   7   1   2   93.69    8.60
   9  -2  -2    0.10    2.90
  -9   2   2    2.60    2.50
   8  -2  -2  460.15   27.00
   8  -2  -2  477.05   25.80
  -8   2   2  457.15   25.80
   7  -2  -2   88.99    7.00
   7  -2  -2   78.69    5.00
   7  -2  -2   83.99    7.60
   7  -2  -2   78.99    4.50
  -7   2   2   73.89    6.60
  -7   2   2   68.59    6.50
   6  -2  -2  148.09    8.50
   6  -2  -2  142.59    8.30
   6  -2  -2  157.98   11.00
   6  -2  -2  167.68   10.50
   6  -2  -2  151.28    9.30
  -6   2   2  144.99    9.80
  -6   2   2  153.08    9.80
   5  -2  -2  273.37   14.90
   5  -2  -2  256.17   16.00
   5  -2  -2  279.47   14.40
   5  -2  -2  267.57   14.40
   5  -2  -2  279.17   16.50
  -5   2   2  270.57   15.40
  -5   2   2  272.37   15.10
   4  -2  -2  185.98   12.20
   4  -2  -2  209.28   10.90
   4  -2  -2  194.58   11.00
   4  -2  -2  183.78   12.40
   4  -2  -2  197.58   11.00
  -4   2   2  212.68   11.10
  -4   2   2  197.48   11.50
   3  -2  -2 1031.20   51.19
   3  -2  -2  941.71   49.50
   3  -2  -2  978.40   50.29
   3  -2  -2  975.20   48.80
   3  -2  -2 1037.80   49.60
  -3   2   2 1028.40   49.00
  -3   2   2 1019.20   49.80
   2  -2  -2  710.83   37.20
   2  -2  -2  695.13   37.40
   2  -2  -2  694.53   36.80
   2  -2  -2  718.63   38.00
   2  -2  -2  772.52   38.80
  -2   2   2  799.42   36.60
  -2   2   2  799.82   37.70
  -2   2   2  769.92   37.60
   1  -2  -2 1282.07   65.89
   1  -2  -2 1337.77   65.19
   1  -2  -2 1305.27   64.69
   1  -2  -2 1261.47   65.59
  -1   2   2 1379.66   65.79
  -1   2   2 1340.87   64.59
  -1   2   2 1365.96   65.49
   0  -2  -2  567.94   29.60
   0  -2  -2  584.44   29.90
   0  -2  -2  567.64   29.40
   0   2   2  585.44   29.30
   0   2   2  596.34   29.70
   0   2   2  506.65   30.70
   0   2   2  607.84   28.60
  -1  -2  -2 4472.15  226.18
  -1  -2  -2 4621.94  225.58
  -1  -2  -2 4704.33  225.88
   1   2   2 4975.30  225.88
   1   2   2 4296.67  227.38
   1   2   2 4855.21  226.38
   1   2   2 4705.23  225.68
  -2  -2  -2   13.70    2.80
  -2  -2  -2    7.30    2.60
   2   2   2    8.40    2.00
   2   2   2    7.50    2.90
   2   2   2   11.60    2.20
   2   2   2    7.20    2.60
  -3  -2  -2 1979.30   97.99
  -3  -2  -2 2060.29   99.09
   3   2   2 2027.90   99.99
   3   2   2 1951.70   99.09
   3   2   2 1963.30   97.69
   3   2   2 1898.61   97.29
   3   2   2 2019.20   96.49
  -4  -2  -2  532.75   28.50
  -4  -2  -2  537.75   27.30
   4   2   2  517.85   29.30
   4   2   2  503.75   26.90
   4   2   2  426.46   27.80
  -5  -2  -2 1551.74   77.69
   5   2   2 1475.35   77.89
   5   2   2 1602.24   75.89
   5   2   2 1462.45   78.59
  -6  -2  -2   17.90    4.30
   6   2   2   17.70    4.70
   6   2   2   14.00    2.60
   6   2   2   20.70    4.60
  -7  -2  -2  574.24   30.40
   7   2   2  513.65   30.30
   7   2   2  536.35   31.20
   7   2   2  506.35   26.80
   9  -3  -2  386.96   24.20
  -9   3   2  433.66   24.50
  -9   3   2  375.06   22.70
   8  -3  -2    9.00    3.80
   8  -3  -2   11.30    3.30
  -8   3   2    8.90    2.90
   7  -3  -2  957.70   50.19
   7  -3  -2  955.90   48.20
  -7   3   2  972.40   49.30
   6  -3  -2  161.48   11.40
   6  -3  -2  156.48    9.70
   6  -3  -2  148.39   11.00
   6  -3  -2  153.58    9.40
  -6   3   2  158.98   10.30
   5  -3  -2 3409.86  152.88
   5  -3  -2 2962.80  149.99
   5  -3  -2 2858.81  149.88
   5  -3  -2 3035.10  150.28
   5  -3  -2 2995.50  151.88
  -5   3   2 3283.97  149.79
  -5   3   2 3122.19  150.78
   4  -3  -2  491.65   26.50
   4  -3  -2  502.35   25.80
   4  -3  -2  502.65   26.60
   4  -3  -2  516.85   27.70
  -4   3   2  513.35   26.90
  -4   3   2  534.15   25.50
   3  -3  -2 3020.20  152.98
   3  -3  -2 2642.04  153.88
   3  -3  -2 3181.88  152.98
   3  -3  -2 3298.97  153.48
  -3   3   2 3294.47  151.48
  -3   3   2 3398.36  153.28
   2  -3  -2  203.78   12.20
   2  -3  -2  197.68   11.80
   2  -3  -2  204.18   12.10
   2  -3  -2  181.88   12.80
  -2   3   2  225.88   11.00
  -2   3   2  220.98   12.70
  -2   3   2  210.08   12.60
   1  -3  -2 4263.07  212.38
   1  -3  -2 4324.37  212.28
   1  -3  -2 4251.17  211.78
  -1   3   2 4497.25  210.88
  -1   3   2 4805.22  212.48
  -1   3   2 4029.60  212.38
  -1   3   2 4375.66  211.08
   0  -3  -2   18.70    3.10
   0  -3  -2   27.00    3.60
   0  -3  -2   26.70    4.00
   0   3   2   35.40    3.70
   0   3   2   23.90    4.60
   0   3   2   21.10    3.10
   0   3   2   21.90    3.40
  -1  -3  -2 1578.74   78.39
  -1  -3  -2 1724.83   77.99
  -1  -3  -2 1587.74   78.39
  -1  -3  -2 1588.34   78.89
   1   3   2 1427.06   79.79
   1   3   2 1616.44   78.69
   1   3   2 1594.84   78.59
   1   3   2 1471.25   76.29
  -2  -3  -2  178.18   12.10
  -2  -3  -2  183.38   11.00
   2   3   2  176.28   13.10
   2   3   2  173.78    9.10
   2   3   2  176.48   12.30
   2   3   2  175.58   11.50
  -3  -3  -2 1903.81   94.29
  -3  -3  -2 1905.51   92.59
   3   3   2 1862.91   95.09
   3   3   2 1864.81   93.39
   3   3   2 1838.42   94.89
  -4  -3  -2    6.20    3.10
   4   3   2    2.20    1.80
   4   3   2    6.90    3.20
   4   3   2    0.60    2.30
  -5  -3  -2  223.88   15.10
   5   3   2  228.68   13.60
   5   3   2  203.68   15.40
   5   3   2  222.48   16.00
  -6  -3  -2  139.99   11.30
   6   3   2  128.79    9.00
   6   3   2  143.09   11.70
   6   3   2  121.29   11.50
   9  -4  -2   73.69    7.60
   9  -4  -2   71.89    9.00
  -9   4   2   73.99    8.90
  -9   4   2   76.69    7.30
   8  -4  -2   65.79    7.60
   8  -4  -2   59.99    7.70
   8  -4  -2   56.19    4.70
  -8   4   2   52.39    6.40
  -8   4   2   57.29    7.50
   7  -4  -2  431.76   24.30
   7  -4  -2  447.96   24.40
   7  -4  -2  458.55   26.30
   7  -4  -2  452.55   26.20
  -7   4   2  461.45   25.00
  -7   4   2  443.36   26.00
   6  -4  -2  176.38   12.80
   6  -4  -2  181.48   12.70
   6  -4  -2  179.48   11.30
  -6   4   2  182.58   11.80
   5  -4  -2   38.30    5.40
   5  -4  -2   10.20    3.00
   5  -4  -2   11.90    2.70
   5  -4  -2   13.00    2.20
  -5   4   2   12.60    3.10
   4  -4  -2  521.15   27.60
   4  -4  -2  497.15   25.90
   4  -4  -2  536.95   27.20
   4  -4  -2  469.55   28.30
  -4   4   2  493.55   27.60
  -4   4   2  512.65   27.20
   3  -4  -2  567.34   30.70
   3  -4  -2  601.94   31.80
   3  -4  -2  586.74   30.10
   3  -4  -2  591.34   30.80
  -3   4   2  590.54   28.40
  -3   4   2  576.04   31.60
  -3   4   2  553.14   30.80
  -3   4   2  581.44   30.90
   2  -4  -2  987.00   52.09
   2  -4  -2 1061.49   52.69
   2  -4  -2  958.00   51.99
  -2   4   2 1024.90   52.59
  -2   4   2 1053.69   50.29
  -2   4   2 1058.99   52.89
  -2   4   2 1026.30   51.69
   1  -4  -2  103.89    8.20
   1  -4  -2  117.09    8.80
   1  -4  -2   97.99    8.00
  -1   4   2  111.19    7.20
  -1   4   2  112.49    9.30
  -1   4   2  122.39    8.00
  -1   4   2  121.79    8.90
   0  -4  -2 2444.86  126.49
   0  -4  -2 2612.64  127.19
   0  -4  -2 2345.87  127.39
   0  -4  -2 2737.53  127.29
   0   4   2 2672.83  127.69
   0   4   2 2508.05  126.29
   0   4   2 2631.64  126.69
   0   4   2 2693.23  128.69
  -1  -4  -2   44.10    5.90
  -1  -4  -2   45.50    4.50
   1   4   2   31.30    4.90
   1   4   2   38.90    3.60
   1   4   2   46.20    6.80
   1   4   2   29.70    4.80
  -2  -4  -2 2680.63  126.49
  -2  -4  -2 2562.74  128.29
   2   4   2 2632.64  128.69
   2   4   2 2379.36  129.29
   2   4   2 2645.54  128.09
  -3  -4  -2   84.89    8.40
   3   4   2   87.19    7.50
   3   4   2   73.79    9.20
   3   4   2   79.39    7.90
  -4  -4  -2  785.22   41.50
   4   4   2  719.63   42.40
   4   4   2  767.92   41.50
   4   4   2  752.92   39.80
  -5  -4  -2  113.59   10.20
   5   4   2  115.39    8.70
   5   4   2  111.39   10.20
   5   4   2  115.79   11.30
  -6  -4  -2  799.52   43.20
   6   4   2  796.12   43.20
   6   4   2  769.72   44.50
   6   4   2  774.72   40.80
   9  -5  -2   28.80    3.10
   9  -5  -2   32.70    5.80
  -9   5   2   27.50    5.80
  -9   5   2   26.60    5.60
   8  -5  -2  609.94   33.40
   8  -5  -2  557.34   30.00
   8  -5  -2  574.84   32.80
  -8   5   2  542.65   31.20
  -8   5   2  587.14   32.80
   7  -5  -2    5.60    2.30
   7  -5  -2    2.70    3.00
   7  -5  -2    6.30    3.40
  -7   5   2    2.40    2.80
  -7   5   2    2.40    2.50
   6  -5  -2 1408.36   69.19
   6  -5  -2 1317.47   68.39
   6  -5  -2 1291.87   67.19
   6  -5  -2 1252.67   67.09
  -6   5   2 1281.67   68.09
  -6   5   2 1410.86   67.29
   5  -5  -2  577.14   34.20
   5  -5  -2  600.14   33.60
   5  -5  -2  669.03   33.40
   5  -5  -2  547.45   31.40
  -5   5   2  671.73   33.40
  -5   5   2  646.34   33.90
   4  -5  -2 2773.12  141.49
   4  -5  -2 2902.31  142.69
  -4   5   2 2894.41  141.79
  -4   5   2 2937.11  141.59
   3  -5  -2   20.90    3.70
   3  -5  -2   19.20    3.80
   3  -5  -2   17.00    3.60
  -3   5   2   29.50    4.80
  -3   5   2   16.80    3.40
   2  -5  -2 1190.58   60.69
   2  -5  -2 1292.37   60.89
   2  -5  -2 1118.29   60.69
  -2   5   2 1127.59   61.39
  -2   5   2 1205.68   58.89
  -2   5   2 1184.58   61.39
  -2   5   2 1200.28   60.39
   1  -5  -2  487.35   27.50
   1  -5  -2  557.04   27.20
   1  -5  -2  482.95   27.40
   1  -5  -2  512.15   27.40
  -1   5   2  477.95   27.10
  -1   5   2  464.45   27.90
  -1   5   2  490.65   26.20
  -1   5   2  446.06   28.20
   0  -5  -2 2231.18  118.19
   0  -5  -2 2261.37  117.29
   0   5   2 2500.05  119.49
   0   5   2 2654.53  117.49
   0   5   2 2279.17  118.69
   0   5   2 2351.26  117.69
  -1  -5  -2   19.90    3.60
  -1  -5  -2   21.80    4.90
   1   5   2   22.50    4.80
   1   5   2   19.30    4.10
   1   5   2   26.80    4.70
  -2  -5  -2  688.93   41.30
   2   5   2  766.52   42.60
   2   5   2  792.22   41.20
   2   5   2  800.22   41.00
  -3  -5  -2   91.19    9.40
   3   5   2  104.69    8.60
   3   5   2  104.79    9.30
   3   5   2  101.69   10.10
  -4  -5  -2  571.24   32.70
   4   5   2  516.45   33.20
   4   5   2  560.44   30.60
   4   5   2  580.74   32.00
  -5  -5  -2  286.77   19.20
   5   5   2  269.37   18.10
   5   5   2  275.27   16.80
   5   5   2  266.37   20.00
   8  -6  -2   63.49    5.80
   8  -6  -2   35.10    6.50
  -8   6   2   44.30    6.50
  -8   6   2   35.30    6.70
   7  -6  -2  113.39   10.50
   7  -6  -2  109.19    8.40
  -7   6   2  103.49    9.00
  -7   6   2   91.19    9.00
   6  -6  -2  204.08   13.50
   6  -6  -2  187.08   14.30
   6  -6  -2  186.18   13.10
  -6   6   2  197.48   13.90
  -6   6   2  196.58   13.40
   5  -6  -2  187.18   13.40
   5  -6  -2  216.78   14.40
   5  -6  -2  199.88   13.50
   5  -6  -2  178.08   11.70
  -5   6   2  201.28   13.90
  -5   6   2  199.98   13.20
   4  -6  -2   27.20    4.90
   4  -6  -2   18.60    4.00
   4  -6  -2   22.10    4.50
  -4   6   2   32.80    5.30
  -4   6   2   28.00    4.90
   3  -6  -2  761.62   40.30
   3  -6  -2  723.03   40.70
   3  -6  -2  825.62   40.60
   3  -6  -2  766.12   41.00
  -3   6   2  727.23   40.30
  -3   6   2  748.93   40.90
   2  -6  -2  109.39    9.10
   2  -6  -2  111.89    9.40
   2  -6  -2  118.49    8.80
   2  -6  -2  106.79    9.20
  -2   6   2  105.69    9.70
  -2   6   2  105.59    9.00
   1  -6  -2 1206.28   63.79
   1  -6  -2 1284.27   63.49
   1  -6  -2 1244.48   63.69
   1  -6  -2 1255.37   62.69
  -1   6   2 1249.18   64.29
  -1   6   2 1055.19   63.89
  -1   6   2 1334.97   63.69
  -1   6   2 1252.87   62.19
   0  -6  -2  284.47   16.10
   0  -6  -2  255.27   17.10
   0   6   2  265.97   16.30
   0   6   2  286.37   17.80
   0   6   2  253.87   17.60
  -1  -6  -2 1787.92   94.49
   1   6   2 1868.11   95.09
   1   6   2 1897.81   94.29
   1   6   2 1912.91   93.79
  -2  -6  -2   14.80    4.60
   2   6   2   20.70    5.30
   2   6   2   19.40    4.50
   2   6   2   25.40    4.70
  -3  -6  -2  512.75   30.80
   3   6   2  528.75   31.40
   3   6   2  513.65   29.60
   3   6   2  519.55   29.10
  -4  -6  -2   52.59    8.40
   4   6   2   50.59    8.30
   4   6   2   59.49    6.70
   4   6   2   48.50    6.90
   8  -7  -2    2.30    2.40
   8  -7  -2    7.80    4.40
  -8   7   2    1.20    2.80
  -8   7   2    3.00    3.10
   7  -7  -2  855.81   43.10
   7  -7  -2  810.12   45.30
  -7   7   2  773.92   44.50
  -7   7   2  820.32   43.70
   6  -7  -2  165.88   13.40
   6  -7  -2  186.58   12.70
  -6   7   2  175.98   13.60
  -6   7   2  188.78   13.00
   5  -7  -2 1031.20   54.89
   5  -7  -2 1254.27   56.49
   5  -7  -2  976.60   53.59
  -5   7   2 1016.70   54.99
  -5   7   2 1017.20   55.49
   4  -7  -2   55.89    6.70
   4  -7  -2   52.79    7.10
   4  -7  -2   62.99    7.30
   4  -7  -2   49.50    6.90
  -4   7   2   65.19    8.00
  -4   7   2   60.59    7.60
   3  -7  -2 1002.60   55.09
   3  -7  -2 1100.39   55.29
   3  -7  -2 1103.39   54.79
  -3   7   2 1060.69   55.59
  -3   7   2 1010.20   55.89
   2  -7  -2   10.90    3.00
   2  -7  -2    7.70    3.30
   2  -7  -2    5.00    2.90
  -2   7   2   10.90    4.40
  -2   7   2    9.10    4.20
   1  -7  -2  825.32   42.90
   1  -7  -2  861.51   44.00
  -1   7   2  783.12   44.70
   0  -7  -2   70.09    8.00
   0   7   2   65.69    8.10
   0   7   2   63.89    6.50
   0   7   2   79.49    9.10
  -1  -7  -2 1058.69   55.49
   1   7   2 1078.19   54.49
   1   7   2 1106.59   55.59
   1   7   2  952.70   55.49
  -2  -7  -2   15.50    5.20
   2   7   2   10.80    3.50
   2   7   2   19.70    5.10
   2   7   2   13.00    3.90
  -3  -7  -2  144.29   12.60
   3   7   2  144.39   11.30
   3   7   2  151.28   13.00
   3   7   2  134.59   10.80
   7  -8  -2    6.80    4.10
   7  -8  -2   11.60    5.00
  -7   8   2   14.20    4.40
  -7   8   2    5.40    3.50
   6  -8  -2   28.50    5.00
   6  -8  -2   27.30    5.70
  -6   8   2   22.40    5.20
  -6   8   2   24.80    5.70
   5  -8  -2  220.68   14.80
   5  -8  -2  188.48   14.00
   5  -8  -2  281.17   16.20
  -5   8   2  214.38   15.80
  -5   8   2  202.98   15.20
   4  -8  -2  611.24   32.00
   4  -8  -2  566.54   32.00
   4  -8  -2  494.15   31.40
  -4   8   2  567.44   33.00
  -4   8   2  636.24   33.60
   3  -8  -2    3.80    2.90
   3  -8  -2    1.80    2.50
   3  -8  -2    4.20    3.10
  -3   8   2    3.30    3.30
  -3   8   2    1.10    3.00
   2  -8  -2  327.27   19.40
   2  -8  -2  335.97   20.40
  -2   8   2  307.87   20.90
  -2   8   2  352.06   22.60
   1  -8  -2   20.60    4.60
  -1   8   2   10.20    4.20
   0  -8  -2 1220.68   64.79
   0   8   2 1295.47   65.99
  -1  -8  -2   50.09    6.80
   1   8   2   40.00    6.60
   1   8   2   43.90    6.40
  -2  -8  -2  262.77   18.70
  -2  -8  -2  313.87   17.80
   2   8   2  266.97   18.00
   2   8   2  270.27   19.00
   2   8   2  288.07   17.80
   6  -9  -2  453.75   26.90
   6  -9  -2  462.45   26.30
  -6   9   2  437.66   28.00
  -6   9   2  453.75   27.30
   5  -9  -2   36.20    5.80
   5  -9  -2   46.10    6.70
  -5   9   2   66.79    9.00
  -5   9   2   43.30    7.40
   4  -9  -2  579.74   33.60
   4  -9  -2  621.54   32.70
   4  -9  -2  525.55   32.60
  -4   9   2  578.14   34.20
  -4   9   2  629.44   34.90
   3  -9  -2    0.50    2.50
   3  -9  -2    4.60    3.40
  -3   9   2    2.70    3.30
   2  -9  -2  331.67   20.20
  -2   9   2  309.87   20.70
   1  -9  -2    4.40    3.30
  -1   9   2   12.20    4.40
   0  -9  -2  580.24   32.30
   0   9   2  561.94   32.90
  -1  -9  -2   10.40    4.20
   1   9   2   11.10    4.40
   4 -10  -2   78.09    7.70
   4 -10  -2   61.49    8.20
  -4  10   2   75.59    9.80
   3 -10  -2  569.74   32.00
  -3  10   2  551.84   32.70
   2 -10  -2   89.79    9.00
  -2  10   2   82.69    9.70
   1  10  -3    6.20    3.20
  -1 -10   3    5.00    3.40
   0  10  -3  417.56   24.90
   0  10  -3  481.65   27.30
   0 -10   3  409.66   25.70
  -1  10  -3   16.90    4.70
  -1  10  -3   15.60    4.00
   1 -10   3   15.10    4.60
  -2  10  -3  149.29   12.80
   2 -10   3  158.18   13.10
  -3  10  -3  124.89   11.90
   3 -10   3  122.09   11.60
  -4  10  -3   95.69   11.50
   4 -10   3   96.79    9.80
   4 -10   3  105.09    9.60
   4 -10   3  109.99   10.00
  -5  10  -3   87.69   11.30
   5 -10   3   95.29    9.80
   5 -10   3  105.19    9.80
   5 -10   3  100.59    9.90
   3   9  -3  267.57   17.90
   3   9  -3  248.08   17.00
  -3  -9   3  262.27   16.20
  -3  -9   3  233.28   16.50
   2   9  -3   22.50    5.30
  -2  -9   3   24.30    5.40
   1   9  -3  909.91   49.90
   1   9  -3  996.30   51.29
  -1  -9   3  932.11   50.09
   0   9  -3  152.18   12.70
   0   9  -3  127.89   10.50
   0  -9   3  144.79   11.70
  -1   9  -3  484.65   29.10
  -1   9  -3  487.95   27.20
   1  -9   3  482.55   28.50
  -2   9  -3    6.00    3.90
  -2   9  -3    5.10    3.60
   2  -9   3   -1.50    3.30
  -3   9  -3 1040.50   60.09
   3  -9   3 1218.48   59.69
   3  -9   3 1088.19   59.59
   3  -9   3 1151.78   58.69
  -4   9  -3  158.38   13.30
   4  -9   3  140.79   11.90
   4  -9   3  143.09   12.00
   4  -9   3  160.98   12.30
  -5   9  -3  631.54   37.30
   5  -9   3  650.53   35.60
   5  -9   3  655.63   36.20
   5  -9   3  598.14   35.20
  -6   9  -3   17.40    6.00
   6  -9   3   12.40    3.80
   6  -9   3   10.10    4.40
   6  -9   3   14.20    4.10
   4   8  -3    8.50    4.40
   4   8  -3    2.50    2.90
  -4  -8   3    6.70    3.40
  -4  -8   3    5.20    3.30
   3   8  -3  398.86   23.00
   3   8  -3  374.76   23.40
  -3  -8   3  355.06   22.00
  -3  -8   3  350.96   21.60
   2   8  -3   48.10    7.10
   2   8  -3   56.39    7.70
   2   8  -3   49.90    7.20
  -2  -8   3   50.09    6.90
  -2  -8   3   44.60    5.90
   1   8  -3 1123.39   57.99
   1   8  -3 1086.49   56.49
  -1  -8   3 1041.30   55.09
  -1  -8   3 1073.19   56.39
   0   8  -3   19.30    4.20
   0   8  -3    7.10    3.80
   0  -8   3   41.80    6.20
  -1   8  -3  233.58   15.20
  -1   8  -3  269.67   17.90
   1  -8   3  236.48   16.60
  -2   8  -3   21.00    4.10
  -2   8  -3   30.60    6.40
   2  -8   3   23.40    4.60
   2  -8   3   12.50    4.00
   2  -8   3   34.20    5.90
  -3   8  -3  168.78   14.60
   3  -8   3  189.98   13.80
   3  -8   3  215.98   14.40
   3  -8   3  193.88   13.80
  -4   8  -3  322.37   22.40
   4  -8   3  367.86   21.00
   4  -8   3  345.87   21.20
   4  -8   3  327.87   21.50
  -5   8  -3   14.80    5.30
   5  -8   3   16.80    4.10
   5  -8   3   18.80    4.20
   5  -8   3   20.80    4.90
  -6   8  -3  120.59   12.20
   6  -8   3  134.79   10.10
   6  -8   3  111.19    9.60
   6  -8   3  130.89   11.80
  -7   8  -3   54.59    9.00
   7  -8   3   46.20    6.60
   7  -8   3   63.09    6.00
   5   7  -3    9.80    3.70
   5   7  -3   11.10    4.70
  -5  -7   3    9.20    3.60
  -5  -7   3   13.60    4.30
   4   7  -3  354.36   21.90
   4   7  -3  378.26   23.50
  -4  -7   3  345.47   21.40
  -4  -7   3  360.96   21.40
   3   7  -3  217.08   15.10
   3   7  -3  200.38   14.70
   3   7  -3  202.08   15.00
  -3  -7   3  211.68   14.10
  -3  -7   3  210.68   14.20
   2   7  -3 1240.78   68.29
   2   7  -3 1334.97   68.79
   2   7  -3 1361.56   69.79
  -2  -7   3 1390.36   68.19
  -2  -7   3 1307.57   67.39
   1   7  -3    2.60    3.20
   1   7  -3    4.40    3.30
   1   7  -3    1.90    2.40
  -1  -7   3    9.50    3.20
  -1  -7   3   17.10    4.30
   0   7  -3 1613.44   78.59
   0   7  -3 1529.55   76.39
   0  -7   3 1458.25   75.09
   0  -7   3 1429.56   76.79
  -1   7  -3  218.38   14.00
  -1   7  -3  241.28   16.40
   1  -7   3  230.78   15.30
   1  -7   3  229.98   15.30
   1  -7   3  198.08   13.60
  -2   7  -3 1581.34   72.99
  -2   7  -3 1452.45   75.39
   2  -7   3 1418.26   73.49
   2  -7   3 1364.56   73.99
   2  -7   3 1420.36   73.99
  -3   7  -3   22.30    5.30
   3  -7   3   26.90    5.10
   3  -7   3   19.60    4.10
   3  -7   3   19.80    4.60
  -4   7  -3 1581.24   85.99
   4  -7   3 1797.42   84.39
   4  -7   3 1597.14   83.49
   4  -7   3 1668.73   85.09
  -5   7  -3  399.76   26.60
   5  -7   3  429.46   24.40
   5  -7   3  451.05   26.20
   5  -7   3  429.36   24.40
  -6   7  -3  598.44   37.20
   6  -7   3  657.53   35.00
   6  -7   3  653.93   36.80
   6  -7   3  649.24   34.00
  -7   7  -3   17.10    5.80
   7  -7   3   18.90    3.00
   7  -7   3   16.80    4.20
   7  -7   3   21.70    5.50
   6   6  -3  609.74   34.40
   6   6  -3  631.74   36.80
  -6  -6   3  626.14   34.60
  -6  -6   3  658.03   35.20
   5   6  -3   72.89    7.20
   5   6  -3   57.29    8.50
  -5  -6   3   46.30    6.80
  -5  -6   3   65.79    7.70
   4   6  -3  551.84   31.90
   4   6  -3  556.34   31.10
   4   6  -3  511.35   30.40
  -4  -6   3  540.05   30.30
  -4  -6   3  564.44   30.70
   3   6  -3   10.10    3.40
   3   6  -3    6.80    3.60
   3   6  -3    8.40    3.60
  -3  -6   3    7.00    3.40
  -3  -6   3    4.70    2.90
   2   6  -3 1403.26   69.39
   2   6  -3 1184.58   69.89
   2   6  -3 1398.56   69.29
  -2  -6   3 1428.96   68.79
  -2  -6   3 1304.97   68.19
   1   6  -3  128.29   11.40
   1   6  -3  115.29    9.10
   1   6  -3  117.09    9.80
  -1  -6   3  110.09    8.80
  -1  -6   3  111.49    9.50
   0   6  -3  753.12   39.20
   0   6  -3  676.83   37.30
   0   6  -3  699.23   36.70
   0  -6   3  650.63   35.20
   0  -6   3  714.53   36.00
   0  -6   3  644.94   36.90
   0  -6   3  687.23   37.40
  -1   6  -3  254.57   17.60
  -1   6  -3  246.78   15.10
   1  -6   3  252.67   14.20
   1  -6   3  279.37   16.20
   1  -6   3  232.78   15.00
  -2   6  -3  278.27   19.40
  -2   6  -3  305.17   17.20
   2  -6   3  316.07   18.10
   2  -6   3  289.67   18.00
  -3   6  -3  379.96   22.30
  -3   6  -3  386.06   25.10
   3  -6   3  467.55   23.50
   3  -6   3  408.76   23.90
   3  -6   3  409.06   23.50
  -4   6  -3   61.89    8.80
   4  -6   3   75.79    6.90
   4  -6   3  111.49    9.00
   4  -6   3   90.09    7.40
  -5   6  -3  234.28   17.50
   5  -6   3  252.67   15.60
   5  -6   3  270.47   17.30
   5  -6   3  259.37   15.20
  -6   6  -3   54.69    8.30
   6  -6   3   60.79    6.80
   6  -6   3   71.19    8.50
   6  -6   3   46.80    4.70
  -7   6  -3  334.67   22.90
   7  -6   3  371.36   22.40
   7  -6   3  349.17   18.50
   7  -6   3  335.37   20.80
   7   5  -3   65.09    8.70
   7   5  -3   42.70    5.70
  -7  -5   3   56.89    7.50
   6   5  -3   32.00    6.30
   6   5  -3   35.30    5.10
  -6  -5   3   38.40    6.30
  -6  -5   3   47.20    6.60
   5   5  -3  952.40   49.40
   5   5  -3  926.51   48.30
   5   5  -3  889.11   49.80
  -5  -5   3  939.91   49.40
  -5  -5   3  921.91   48.70
   4   5  -3  196.88   13.80
   4   5  -3  202.48   14.10
   4   5  -3  193.08   13.10
  -4  -5   3  186.08   13.30
  -4  -5   3  194.98   13.70
   3   5  -3 1728.53   83.39
   3   5  -3 1643.54   83.59
   3   5  -3 1676.23   82.79
  -3  -5   3 1470.35   82.39
  -3  -5   3 1671.63   82.49
   2   5  -3   37.20    5.40
   2   5  -3   37.30    5.50
   2   5  -3   39.10    6.80
  -2  -5   3   47.60    5.90
  -2  -5   3   38.50    5.50
   1   5  -3 2561.44  116.19
   1   5  -3 2136.39  117.89
   1   5  -3 2452.75  115.69
  -1  -5   3 2283.87  115.69
  -1  -5   3 2369.96  115.59
  -1  -5   3 2286.07  113.19
  -1  -5   3 2235.38  114.99
   0   5  -3  261.67   15.50
   0   5  -3  239.98   15.70
   0   5  -3  250.27   17.70
   0  -5   3  254.47   16.00
   0  -5   3  256.57   14.50
   0  -5   3  272.17   15.10
  -1   5  -3 3191.18  154.68
  -1   5  -3 3195.28  157.58
  -1   5  -3 3190.58  155.08
   1  -5   3 3380.26  153.68
   1  -5   3 2962.70  155.28
   1  -5   3 2881.91  154.48
   1  -5   3 3360.06  155.28
  -2   5  -3  238.48   16.30
  -2   5  -3  225.18   13.20
   2  -5   3  241.18   13.90
   2  -5   3  221.88   14.00
   2  -5   3  206.58   12.40
   2  -5   3  234.58   14.30
  -3   5  -3 2637.04  130.89
  -3   5  -3 2646.54  134.39
   3  -5   3 2740.93  131.99
   3  -5   3 2790.02  131.99
   3  -5   3 2615.84  132.79
  -4   5  -3  325.67   21.00
   4  -5   3  326.47   18.90
   4  -5   3  325.37   20.00
   4  -5   3  340.87   18.50
  -5   5  -3 1709.13   90.99
   5  -5   3 1741.73   88.99
   5  -5   3 1881.61   90.59
   5  -5   3 1804.62   87.59
  -6   5  -3   76.59    9.70
   6  -5   3   67.79    5.00
   6  -5   3   64.59    7.90
   6  -5   3   75.19    7.00
  -7   5  -3  382.96   23.30
  -7   5  -3  386.06   24.90
   7  -5   3  385.46   20.00
   7  -5   3  392.46   23.00
   7  -5   3  416.46   24.00
  -8   5  -3    0.60    3.60
  -8   5  -3    4.10    2.90
   8  -5   3   -0.10    2.20
   8  -5   3    3.20    3.00
   7   4  -3  618.04   35.80
   7   4  -3  624.74   33.30
  -7  -4   3  666.33   35.90
   6   4  -3   16.70    4.30
   6   4  -3   13.30    3.00
   6   4  -3   12.00    4.10
  -6  -4   3   19.30    4.60
  -6  -4   3   14.70    4.50
   5   4  -3  829.22   44.90
   5   4  -3  807.72   45.00
   5   4  -3  866.61   43.80
  -5  -4   3  875.51   45.60
  -5  -4   3  844.42   44.80
   4   4  -3  346.37   19.20
   4   4  -3  309.97   19.90
   4   4  -3  321.97   19.90
  -4  -4   3  340.87   19.80
  -4  -4   3  330.97   20.40
   3   4  -3 1360.96   65.99
   3   4  -3 1348.07   67.09
   3   4  -3 1316.07   66.39
  -3  -4   3 1351.26   66.19
  -3  -4   3 1138.79   66.19
   2   4  -3  201.98   12.20
   2   4  -3  169.48   13.20
   2   4  -3  185.78   12.00
  -2  -4   3  170.08   12.10
  -2  -4   3  192.68   11.70
  -2  -4   3  187.58   12.20
   1   4  -3 2290.37  110.59
   1   4  -3 2336.37  112.09
   1   4  -3 2420.76  112.59
   1   4  -3 2088.39  114.79
  -1  -4   3 2337.87  112.59
  -1  -4   3 2339.07  112.19
  -1  -4   3 2133.09  110.29
   0   4  -3  147.99    9.60
   0   4  -3  152.18    9.90
   0   4  -3  137.59   11.80
   0  -4   3  160.08    9.50
   0  -4   3  151.18    9.20
   0  -4   3  172.38   10.40
   0  -4   3  154.88   10.10
  -1   4  -3   92.89    6.50
  -1   4  -3   88.09    6.30
  -1   4  -3   84.29    8.50
   1  -4   3   87.59    6.50
   1  -4   3   93.49    6.90
   1  -4   3  104.69    6.90
   1  -4   3   82.69    5.80
  -2   4  -3 2029.90  102.29
  -2   4  -3 2002.40  105.49
  -2   4  -3 2222.28  103.39
   2  -4   3 2079.09  103.09
   2  -4   3 2071.89  103.59
   2  -4   3 2283.37  103.19
   2  -4   3 2192.38  103.19
   2  -4   3 1894.81  102.09
  -3   4  -3  448.46   22.30
  -3   4  -3  406.36   25.30
   3  -4   3  428.66   24.20
   3  -4   3  449.86   23.40
   3  -4   3  442.16   23.40
   3  -4   3  416.56   22.90
  -4   4  -3   96.99    8.80
   4  -4   3   99.29    6.30
   4  -4   3   81.79    6.90
   4  -4   3   79.49    6.90
   4  -4   3   95.79    8.00
  -5   4  -3   37.60    6.40
   5  -4   3   41.60    5.20
   5  -4   3   53.09    6.40
   5  -4   3   41.70    3.60
  -6   4  -3 1053.59   53.29
   6  -4   3  974.60   48.50
   6  -4   3  972.50   51.19
   6  -4   3  962.00   51.69
  -7   4  -3    0.00    2.50
  -7   4  -3    2.90    3.40
   7  -4   3    0.60    2.10
   7  -4   3    0.10    2.50
  -8   4  -3  256.67   15.90
   8  -4   3  234.28   15.40
   8  -4   3  211.48   15.40
   8   3  -3  232.78   15.80
   8   3  -3  215.98   12.80
  -8  -3   3  214.18   15.50
   7   3  -3   12.80    4.00
   7   3  -3    8.90    2.30
  -7  -3   3   26.20    5.30
   6   3  -3  461.15   27.00
   6   3  -3  492.35   27.30
   6   3  -3  441.56   25.10
  -6  -3   3  515.65   27.30
  -6  -3   3  475.55   27.90
   5   3  -3   83.29    6.50
   5   3  -3   92.89    7.70
   5   3  -3   86.09    7.80
  -5  -3   3   86.49    8.60
  -5  -3   3   87.49    7.80
   4   3  -3 2768.02  128.89
   4   3  -3 2708.23  128.99
   4   3  -3 2703.63  127.69
  -4  -3   3 2497.35  128.49
  -4  -3   3 2341.87  128.99
   3   3  -3  143.49   10.20
   3   3  -3  171.58   11.30
   3   3  -3  193.48   10.90
   3   3  -3  177.58   11.90
  -3  -3   3  180.98   11.40
  -3  -3   3  159.08   11.60
   2   3  -3 3309.87  150.68
   2   3  -3 3093.29  150.28
   2   3  -3 3387.56  152.58
  -2  -3   3 3097.29  150.08
  -2  -3   3 2726.43  150.38
  -2  -3   3 2894.61  150.78
   1   3  -3  162.98   12.90
   1   3  -3  179.28   10.10
   1   3  -3  192.18   11.00
   1   3  -3  181.18   10.70
  -1  -3   3  157.38   10.70
  -1  -3   3  190.28   11.10
  -1  -3   3  183.78   11.10
   0   3  -3 4629.14  213.68
   0   3  -3 4527.95  213.08
   0   3  -3 4625.74  213.48
   0   3  -3 3975.10  215.78
   0  -3   3 4700.63  213.28
   0  -3   3 4378.56  213.78
   0  -3   3 4153.78  213.18
   0  -3   3 4257.07  213.48
  -1   3  -3  445.76   26.40
  -1   3  -3  493.05   23.80
  -1   3  -3  444.36   23.10
   1  -3   3  446.06   24.20
   1  -3   3  422.36   23.40
   1  -3   3  471.65   23.90
   1  -3   3  469.15   24.10
  -2   3  -3 5299.07  255.47
  -2   3  -3 5641.74  251.57
   2  -3   3 5342.37  252.57
   2  -3   3 4774.22  252.37
   2  -3   3 5101.59  252.57
   2  -3   3 4973.60  253.47
   2  -3   3 5449.75  253.07
  -3   3  -3  715.83   40.80
  -3   3  -3  822.02   37.80
   3  -3   3  757.82   39.10
   3  -3   3  701.53   39.00
   3  -3   3  741.43   38.40
   3  -3   3  803.82   40.00
   3  -3   3  784.42   38.30
  -4   3  -3 1870.61   85.29
  -4   3  -3 1797.32   88.59
   4  -3   3 1709.63   85.59
   4  -3   3 1742.33   85.29
   4  -3   3 1655.13   87.29
   4  -3   3 1681.23   86.89
   4  -3   3 1791.22   87.69
  -5   3  -3  167.68   11.50
  -5   3  -3  159.48   12.20
   5  -3   3  169.38    8.90
   5  -3   3  155.58   11.00
   5  -3   3  147.39   11.10
   5  -3   3  144.69   11.80
   5  -3   3  174.58    9.60
  -6   3  -3 1337.27   65.89
  -6   3  -3 1301.47   67.09
   6  -3   3 1295.67   65.79
   6  -3   3 1316.37   62.49
   6  -3   3 1315.77   66.09
   6  -3   3 1174.08   63.19
   6  -3   3 1300.97   67.29
  -7   3  -3    4.00    2.70
   7  -3   3    3.40    2.50
   7  -3   3    1.70    2.50
  -8   3  -3  217.18   14.50
   8  -3   3  208.68   14.30
   8   2  -3  443.76   27.40
   8   2  -3  494.05   24.80
  -8  -2   3  497.35   28.20
   7   2  -3    4.10    2.70
   7   2  -3    3.90    2.70
   7   2  -3    2.40    1.40
  -7  -2   3    0.20    3.10
   6   2  -3  950.90   49.50
   6   2  -3  945.31   49.70
   6   2  -3  886.21   47.30
  -6  -2   3  942.71   50.29
  -6  -2   3 1025.20   49.20
   5   2  -3   31.30    4.60
   5   2  -3   31.60    4.90
   5   2  -3   35.20    3.60
  -5  -2   3   51.59    6.80
  -5  -2   3   39.60    5.00
   4   2  -3 1589.84   84.89
   4   2  -3 1755.82   86.79
   4   2  -3 1681.03   83.79
   4   2  -3 1802.22   86.29
   4   2  -3 1908.01   85.29
  -4  -2   3 1713.03   86.19
  -4  -2   3 1693.13   86.99
   3   2  -3  165.78   10.20
   3   2  -3  172.18   11.40
   3   2  -3  178.08    8.90
   3   2  -3  177.78   10.80
   3   2  -3  177.28   10.20
  -3  -2   3  177.28   11.00
  -3  -2   3  175.88   11.40
   2   2  -3 1929.11   90.99
   2   2  -3 1762.52   92.99
   2   2  -3 1901.91   91.79
   2   2  -3 1949.20   91.99
  -2  -2   3 2014.10   91.99
  -2  -2   3 1811.52   91.79
  -2  -2   3 1743.23   92.29
   1   2  -3  408.56   22.80
   1   2  -3  409.26   20.70
   1   2  -3  401.46   20.90
   1   2  -3  403.46   21.00
  -1  -2   3  404.56   20.70
  -1  -2   3  393.96   21.10
  -1  -2   3  389.06   21.00
   0   2  -3  965.90   44.40
   0   2  -3  913.21   45.10
   0   2  -3  831.02   46.90
   0   2  -3  853.51   45.40
   0  -2   3  899.91   45.00
   0  -2   3  946.71   45.40
   0  -2   3  937.81   45.00
  -1   2  -3  669.83   34.00
  -1   2  -3  546.55   34.80
  -1   2  -3  723.83   33.00
   1  -2   3  704.33   33.40
   1  -2   3  651.43   33.10
   1  -2   3  624.14   33.70
   1  -2   3  634.84   33.30
   1  -2   3  698.73   33.30
  -2   2  -3  259.27   12.40
  -2   2  -3  227.48   15.40
  -2   2  -3  239.78   14.40
   2  -2   3  237.38   13.90
   2  -2   3  262.27   14.00
   2  -2   3  246.58   13.30
   2  -2   3  247.58   13.30
   2  -2   3  251.77   14.50
  -3   2  -3 1418.76   71.69
  -3   2  -3 1499.35   69.69
  -3   2  -3 1380.46   72.29
   3  -2   3 1457.45   71.49
   3  -2   3 1490.75   69.79
   3  -2   3 1455.15   70.09
   3  -2   3 1327.27   69.79
   3  -2   3 1462.35   71.89
   3  -2   3 1391.46   71.49
  -4   2  -3  242.08   13.00
  -4   2  -3  253.77   15.50
  -4   2  -3  239.28   14.80
   4  -2   3  252.17   12.80
   4  -2   3  233.48   12.60
   4  -2   3  230.08   14.40
   4  -2   3  233.08   14.70
   4  -2   3  231.68   15.20
   4  -2   3  243.18   13.10
  -5   2  -3  368.46   20.90
  -5   2  -3  393.76   21.90
   5  -2   3  365.76   20.90
   5  -2   3  382.06   21.10
   5  -2   3  351.46   18.10
   5  -2   3  365.76   18.40
   5  -2   3  338.37   22.10
   5  -2   3  332.87   19.20
  -6   2  -3   22.50    4.30
  -6   2  -3   16.20    4.40
   6  -2   3   11.90    3.40
   6  -2   3   14.80    4.80
  -7   2  -3  794.72   42.10
   7  -2   3  810.12   42.40
   7  -2   3  772.82   44.00
  -8   2  -3   32.20    5.80
   8  -2   3   28.90    5.40
   8   1  -3    0.30    2.60
   8   1  -3    4.90    2.80
   8   1  -3    0.30    0.90
  -8  -1   3   -2.10    2.30
   7   1  -3 1180.58   60.09
   7   1  -3 1128.39   60.39
   7   1  -3 1138.49   57.69
  -7  -1   3 1238.18   60.99
   6   1  -3   19.80    4.20
   6   1  -3   25.30    3.00
   6   1  -3   27.40    4.30
  -6  -1   3   21.10    4.70
   5   1  -3  864.31   44.50
   5   1  -3  935.31   44.50
   5   1  -3  870.11   44.40
   5   1  -3  821.62   45.80
   5   1  -3  906.21   46.60
  -5  -1   3  915.41   46.90
  -5  -1   3  951.90   45.50
   4   1  -3  197.08   10.30
   4   1  -3  179.28   11.20
   4   1  -3  192.98   10.40
   4   1  -3  159.18    9.90
   4   1  -3  184.38   11.80
  -4  -1   3  176.78   11.80
  -4  -1   3  187.98   10.90
   3   1  -3 7196.58  333.77
   3   1  -3 6467.35  333.67
   3   1  -3 7109.69  334.57
   3   1  -3 7463.85  335.57
   3   1  -3 7361.96  333.97
  -3  -1   3 6504.05  334.77
  -3  -1   3 6407.06  334.17
   2   1  -3  111.99    6.60
   2   1  -3   99.79    6.60
   2   1  -3  101.99    6.60
   2   1  -3  108.69    7.00
   2   1  -3  101.89    7.60
  -2  -1   3  109.49    6.30
  -2  -1   3  121.19    7.00
  -2  -1   3  109.09    7.10
   1   1  -3 1420.66   67.09
   1   1  -3 1433.26   66.59
   1   1  -3 1282.37   67.99
   1   1  -3 1230.08   67.39
  -1  -1   3 1366.16   67.19
  -1  -1   3 1459.95   66.49
  -1  -1   3 1338.57   67.19
   0   1  -3 1255.67   64.69
   0   1  -3 1275.47   64.39
   0   1  -3 1301.57   63.39
   0  -1   3 1295.77   63.69
   0  -1   3 1352.76   62.69
   0  -1   3 1278.67   63.69
   0  -1   3 1285.47   63.29
  -1   1  -3 7920.71  356.16
  -1   1  -3 8313.97  355.86
   1  -1   3 6707.73  353.86
   1  -1   3 7248.17  354.56
   1  -1   3 7271.27  355.06
   1  -1   3 7067.59  354.46
   1  -1   3 7034.00  354.96
  -2   1  -3  717.23   40.40
  -2   1  -3  798.72   40.30
   2  -1   3  803.92   39.00
   2  -1   3  771.52   39.90
   2  -1   3  827.72   38.90
   2  -1   3  809.12   40.00
   2  -1   3  727.63   38.50
  -3   1  -3 2647.54  130.19
  -3   1  -3 2696.23  130.39
   3  -1   3 2494.45  130.19
   3  -1   3 2738.33  128.69
   3  -1   3 2627.74  128.49
   3  -1   3 2585.64  130.19
   3  -1   3 2756.22  128.39
  -4   1  -3  286.97   17.00
  -4   1  -3  307.67   17.40
   4  -1   3  275.77   17.70
   4  -1   3  300.07   15.00
   4  -1   3  261.87   14.80
   4  -1   3  280.47   16.90
   4  -1   3  300.07   15.90
  -5   1  -3 1612.34   80.69
  -5   1  -3 1697.63   81.29
   5  -1   3 1555.34   82.79
   5  -1   3 1693.73   79.79
   5  -1   3 1534.55   78.09
   5  -1   3 1607.84   80.99
   5  -1   3 1571.94   78.09
  -6   1  -3    3.40    2.90
  -6   1  -3    0.60    2.30
   6  -1   3    9.50    4.30
   6  -1   3   -0.30    1.80
  -7   1  -3  579.74   31.10
  -7   1  -3  563.24   31.60
   7  -1   3  563.84   33.40
   7  -1   3  543.45   31.30
   9   0  -3  537.75   31.00
   9   0  -3  558.34   31.90
  -9   0   3  561.44   31.10
  -9   0   3  560.64   31.20
   8   0  -3   24.90    5.10
   8   0  -3   24.20    2.00
   8   0  -3   28.40    4.80
  -8   0   3   19.50    4.20
  -8   0   3   16.70    4.10
   7   0  -3  669.03   34.00
   7   0  -3  663.43   36.30
   7   0  -3  685.13   37.00
  -7   0   3  711.93   36.80
   6   0  -3    9.40    1.60
   6   0  -3   10.70    3.20
   6   0  -3   12.50    3.00
   6   0  -3    9.90    2.20
   6   0  -3   10.90    2.00
  -6   0   3    8.80    3.00
   5   0  -3 1278.37   61.99
   5   0  -3 1286.57   60.79
   5   0  -3 1139.39   60.99
   5   0  -3 1166.18   60.19
   5   0  -3 1245.88   62.69
  -5   0   3 1196.08   62.09
  -5   0   3 1315.67   60.99
   4   0  -3  254.67   13.50
   4   0  -3  249.08   13.20
   4   0  -3  243.08   14.90
   4   0  -3  214.38   13.90
   4   0  -3  258.27   14.00
  -4   0   3  246.48   13.20
  -4   0   3  276.87   14.70
   3   0  -3 2573.84  135.19
   3   0  -3 2985.80  134.89
   3   0  -3 2869.81  134.49
   3   0  -3 2852.51  134.49
   3   0  -3 2894.41  135.79
  -3   0   3 2634.14  133.79
  -3   0   3 2603.34  134.79
   2   0  -3  542.05   27.80
   2   0  -3  452.05   27.00
   2   0  -3  540.45   28.00
   2   0  -3  563.44   27.00
   2   0  -3  550.94   27.10
  -2   0   3  524.75   27.30
  -2   0   3  573.54   27.20
  -2   0   3  537.35   27.00
   1   0  -3  326.27   17.80
   1   0  -3  343.07   17.70
   1   0  -3  334.87   18.20
  -1   0   3  349.07   17.60
  -1   0   3  350.86   17.00
  -1   0   3  307.07   17.60
  -1   0   3  346.07   17.20
   0   0  -3 1371.76   64.39
   0   0  -3 1203.08   64.19
   0   0  -3 1311.47   65.49
   0   0   3 1298.97   64.49
   0   0   3 1350.06   64.49
   0   0   3 1380.46   64.69
   0   0   3 1280.47   64.19
  -1   0  -3 1435.26   73.79
  -1   0  -3 1583.74   75.29
   1   0   3 1565.44   73.99
   1   0   3 1587.54   74.69
   1   0   3 1469.05   73.89
   1   0   3 1437.76   74.19
   1   0   3 1495.95   74.49
  -2   0  -3 1015.20   44.80
  -2   0  -3  864.51   45.10
   2   0   3  864.91   44.00
   2   0   3  846.82   44.80
   2   0   3  817.12   43.70
   2   0   3  881.31   43.70
   2   0   3  879.41   44.90
  -3   0  -3   35.00    4.70
  -3   0  -3   39.00    4.40
   3   0   3   34.10    4.80
   3   0   3   22.30    3.80
   3   0   3   36.00    3.20
   3   0   3   41.50    3.30
   3   0   3   39.30    4.30
  -4   0  -3  785.42   39.20
  -4   0  -3  742.13   39.40
   4   0   3  706.53   39.60
   4   0   3  747.93   37.60
   4   0   3  774.82   39.00
   4   0   3  750.72   37.50
   4   0   3  772.92   41.00
  -5   0  -3  171.48   11.20
  -5   0  -3  157.08   11.50
   5   0   3  143.19   12.40
   5   0   3  163.68    8.90
   5   0   3  149.79    9.00
   5   0   3  162.38   11.40
   5   0   3  161.58   10.60
  -6   0  -3  765.22   39.80
  -6   0  -3  754.72   40.40
   6   0   3  756.62   40.50
   6   0   3  762.42   37.40
   6   0   3  695.83   37.10
   6   0   3  799.12   42.50
  -7   0  -3  263.47   17.30
   7   0   3  269.97   18.90
   9  -1  -3   19.50    5.00
  -9   1   3   16.90    4.20
   8  -1  -3  386.06   23.50
   8  -1  -3  394.96   19.70
   8  -1  -3  387.36   22.70
  -8   1   3  428.66   23.00
  -8   1   3  375.96   22.50
   7  -1  -3   13.20    3.70
   7  -1  -3   16.00    3.60
   7  -1  -3   20.70    2.30
   7  -1  -3   18.90    3.30
  -7   1   3   17.50    3.70
  -7   1   3   14.90    3.50
   6  -1  -3 1851.31   86.69
   6  -1  -3 1636.54   87.99
   6  -1  -3 1827.62   89.29
   6  -1  -3 1609.34   87.79
  -6   1   3 1992.30   88.49
  -6   1   3 1744.33   88.09
   5  -1  -3  107.59    6.90
   5  -1  -3  113.79    8.00
   5  -1  -3  106.99    7.60
   5  -1  -3  105.49    6.70
   5  -1  -3  109.19    8.50
  -5   1   3  126.69    8.00
  -5   1   3  117.49    6.80
  -5   1   3  106.39    7.70
   4  -1  -3 1960.30  102.59
   4  -1  -3 2012.40  101.79
   4  -1  -3 2073.39  103.99
   4  -1  -3 2033.30  102.59
  -4   1   3 2333.97  101.89
  -4   1   3 2064.39  102.99
  -4   1   3 2248.38  102.99
   3  -1  -3  316.37   16.90
   3  -1  -3  333.67   17.80
   3  -1  -3  311.37   16.90
   3  -1  -3  285.67   18.10
  -3   1   3  308.87   16.60
  -3   1   3  326.77   17.00
   2  -1  -3 4652.43  226.48
   2  -1  -3 4468.55  226.08
   2  -1  -3 4191.28  227.18
   2  -1  -3 4644.24  224.98
  -2   1   3 4818.12  225.68
  -2   1   3 4969.70  225.98
  -2   1   3 4985.80  226.28
   1  -1  -3  457.45   23.30
   1  -1  -3  447.06   23.30
   1  -1  -3  447.76   24.20
   1  -1  -3  455.15   23.60
  -1   1   3  455.25   23.70
  -1   1   3  457.05   23.50
  -1   1   3  451.15   23.70
   0  -1  -3 3505.25  171.38
   0  -1  -3 3620.84  169.48
   0  -1  -3 3481.25  170.38
   0  -1  -3 3524.25  170.88
   0   1   3 3767.92  170.88
   0   1   3 3154.68  171.18
   0   1   3 3629.24  170.68
   0   1   3 3442.06  170.68
  -1  -1  -3 1222.38   57.59
  -1  -1  -3 1340.37   58.49
  -1  -1  -3 1142.39   57.29
   1   1   3 1156.78   56.79
   1   1   3 1056.19   56.79
   1   1   3 1052.39   55.99
   1   1   3 1171.38   56.39
   1   1   3  934.91   57.29
  -2  -1  -3 6036.90  296.67
  -2  -1  -3 6116.09  296.97
  -2  -1  -3 6465.85  294.57
   2   1   3 6488.05  297.07
   2   1   3 5694.23  296.67
   2   1   3 6744.12  295.77
   2   1   3 5651.53  296.47
   2   1   3 5776.52  295.37
  -3  -1  -3  264.77   13.10
  -3  -1  -3  241.98   14.30
  -3  -1  -3  220.18   14.40
   3   1   3  221.18   12.80
   3   1   3  238.88   14.20
   3   1   3  212.18   14.50
   3   1   3  208.78   12.60
   3   1   3  220.88   14.20
  -4  -1  -3  848.92   44.30
  -4  -1  -3  846.52   45.10
   4   1   3  844.12   46.00
   4   1   3  856.01   43.00
   4   1   3  869.91   44.70
  -5  -1  -3    8.10    3.10
  -5  -1  -3   10.00    3.30
   5   1   3   12.10    3.40
   5   1   3   12.30    2.50
   5   1   3   15.60    4.60
  -6  -1  -3 1033.70   55.49
   6   1   3 1054.49   52.79
   6   1   3 1009.60   54.89
   6   1   3 1172.98   57.79
  -7  -1  -3    8.00    3.40
   7   1   3    4.70    3.90
   9  -2  -3   31.50    5.70
  -9   2   3   26.20    4.80
   8  -2  -3  784.02   43.80
   8  -2  -3  893.11   41.90
   8  -2  -3  858.51   45.40
  -8   2   3  832.62   44.10
   7  -2  -3    1.00    2.40
   7  -2  -3    3.30    1.20
  -7   2   3    2.00    2.10
  -7   2   3    2.80    2.00
   6  -2  -3  681.93   33.30
   6  -2  -3  578.34   33.20
   6  -2  -3  599.84   31.10
  -6   2   3  595.24   32.30
  -6   2   3  627.84   32.00
   5  -2  -3   57.19    6.00
   5  -2  -3   72.29    4.90
   5  -2  -3   64.89    4.40
   5  -2  -3   64.69    4.80
   5  -2  -3   52.99    5.80
  -5   2   3   67.29    5.10
  -5   2   3   55.69    5.10
   4  -2  -3 2445.86  124.19
   4  -2  -3 2548.15  125.59
   4  -2  -3 2585.14  123.29
   4  -2  -3 2558.24  124.29
  -4   2   3 2435.16  123.79
  -4   2   3 2748.53  124.79
   3  -2  -3  178.88   10.30
   3  -2  -3  166.98   10.20
   3  -2  -3  144.29   11.40
   3  -2  -3  182.38   10.90
  -3   2   3  185.28   10.50
  -3   2   3  178.98   10.40
  -3   2   3  181.08    9.60
   2  -2  -3  314.47   18.30
   2  -2  -3  353.66   18.70
   2  -2  -3  337.47   20.10
   2  -2  -3  350.76   18.70
  -2   2   3  386.36   19.20
  -2   2   3  366.36   18.20
  -2   2   3  339.97   18.90
   1  -2  -3  629.44   33.80
   1  -2  -3  701.13   34.80
   1  -2  -3  623.64   33.70
  -1   2   3  703.13   33.60
  -1   2   3  654.73   34.40
  -1   2   3  678.03   34.20
   0  -2  -3  692.53   33.90
   0  -2  -3  661.63   34.30
   0  -2  -3  671.13   34.50
   0   2   3  627.24   33.80
   0   2   3  674.23   32.40
   0   2   3  703.63   34.30
   0   2   3  587.34   35.10
  -1  -2  -3 1329.37   66.19
  -1  -2  -3 1351.16   65.89
  -1  -2  -3 1376.36   65.19
   1   2   3 1217.78   64.99
   1   2   3 1382.16   65.79
   1   2   3 1138.09   66.79
   1   2   3 1375.46   65.39
  -2  -2  -3  166.28   11.40
  -2  -2  -3  187.18   11.10
   2   2   3  148.09   10.00
   2   2   3  174.28   11.30
   2   2   3  159.98   11.80
   2   2   3  148.69    9.90
  -3  -2  -3  537.85   26.70
  -3  -2  -3  489.05   27.40
   3   2   3  457.15   27.40
   3   2   3  459.15   25.60
   3   2   3  471.75   27.30
  -4  -2  -3    5.20    2.90
  -4  -2  -3    4.80    2.50
   4   2   3    5.70    2.20
   4   2   3    5.40    3.00
   4   2   3    8.00    2.90
  -5  -2  -3 1024.50   52.99
   5   2   3  925.71   52.79
   5   2   3 1035.60   51.09
   5   2   3 1033.90   54.29
  -6  -2  -3   15.90    4.50
   6   2   3   14.40    4.60
   6   2   3   20.20    3.30
   6   2   3   14.70    4.20
   9  -3  -3  236.88   18.80
   9  -3  -3  238.48   16.20
  -9   3   3  213.28   14.60
   8  -3  -3   10.80    3.70
   8  -3  -3    9.30    3.20
   8  -3  -3   10.00    2.20
  -8   3   3   10.40    3.20
   7  -3  -3  958.00   49.40
   7  -3  -3  959.50   49.80
   7  -3  -3  947.61   47.20
  -7   3   3  896.41   48.20
   6  -3  -3  387.06   23.00
   6  -3  -3  407.26   23.20
   6  -3  -3  391.76   21.00
  -6   3   3  391.16   21.90
   5  -3  -3 1788.52   92.39
   5  -3  -3 1953.90   94.99
   5  -3  -3 1917.21   95.69
   5  -3  -3 1857.51   93.29
  -5   3   3 2045.20   92.59
  -5   3   3 1846.02   93.79
   4  -3  -3   26.70    5.00
   4  -3  -3   39.80    4.00
   4  -3  -3   39.30    4.90
   4  -3  -3   39.30    3.00
   4  -3  -3   34.50    4.00
  -4   3   3   33.90    4.30
  -4   3   3   41.10    3.00
   3  -3  -3 2488.85  128.29
   3  -3  -3 2541.65  126.79
   3  -3  -3 2486.45  126.89
  -3   3   3 2664.13  125.69
  -3   3   3 2722.03  127.19
  -3   3   3 2648.54  127.19
   2  -3  -3 1280.87   63.49
   2  -3  -3 1276.47   62.99
   2  -3  -3 1255.97   64.89
   2  -3  -3 1231.28   63.39
  -2   3   3 1314.97   62.39
  -2   3   3 1250.17   63.69
  -2   3   3 1275.07   63.89
   1  -3  -3 4278.97  208.98
   1  -3  -3 4446.46  207.38
   1  -3  -3 4229.18  208.38
   1  -3  -3 4185.38  208.98
  -1   3   3 4474.75  208.88
  -1   3   3 4327.47  207.38
  -1   3   3 4254.77  209.38
  -1   3   3 4125.09  207.68
   0  -3  -3  245.78   14.30
   0  -3  -3  224.08   13.70
   0  -3  -3  244.78   13.60
   0   3   3  199.78   14.70
   0   3   3  193.58   12.20
   0   3   3  234.98   13.80
   0   3   3  234.88   13.30
  -1  -3  -3 3619.34  179.68
  -1  -3  -3 3608.44  180.38
   1   3   3 3764.22  180.18
   1   3   3 3834.32  179.98
   1   3   3 3594.34  181.78
  -2  -3  -3  656.73   34.10
  -2  -3  -3  626.04   35.00
   2   3   3  645.04   34.20
   2   3   3  651.23   35.10
   2   3   3  657.43   36.50
  -3  -3  -3 1769.42   90.69
  -3  -3  -3 1861.41   89.49
   3   3   3 1782.02   89.59
   3   3   3 1743.33   91.49
   3   3   3 1825.52   91.49
  -4  -3  -3   34.40    5.80
   4   3   3   39.00    6.60
   4   3   3   32.30    4.80
   4   3   3   27.50    5.50
  -5  -3  -3  664.03   37.20
   5   3   3  624.34   37.80
   5   3   3  687.83   38.00
   5   3   3  701.33   35.50
  -6  -3  -3   71.79    8.70
   6   3   3   65.09    8.60
   6   3   3   62.99    8.70
   6   3   3   69.99    6.30
   9  -4  -3  156.58    9.50
   9  -4  -3  151.88   12.70
   9  -4  -3  176.68   12.40
  -9   4   3  176.58   13.20
  -9   4   3  156.98   11.60
   8  -4  -3    5.60    3.20
   8  -4  -3    8.30    2.50
   8  -4  -3    3.90    2.00
   8  -4  -3    6.80    3.20
  -8   4   3    4.10    2.40
   7  -4  -3 1133.09   59.09
   7  -4  -3 1105.39   56.69
   7  -4  -3 1144.49   58.99
  -7   4   3 1124.99   57.49
   6  -4  -3   11.90    3.40
   6  -4  -3   29.70    5.20
   6  -4  -3    9.10    2.40
  -6   4   3    9.00    2.90
   5  -4  -3  499.55   26.30
   5  -4  -3  492.55   27.30
   5  -4  -3  465.95   24.90
   5  -4  -3  474.45   28.10
  -5   4   3  511.85   26.70
   4  -4  -3   28.90    4.80
   4  -4  -3   29.10    3.10
   4  -4  -3   36.00    4.50
  -4   4   3   29.10    4.30
   3  -4  -3 1423.76   72.39
   3  -4  -3 1392.26   71.69
   3  -4  -3 1493.75   72.29
   3  -4  -3 1484.35   73.59
  -3   4   3 1505.15   70.59
  -3   4   3 1315.87   72.39
  -3   4   3 1429.86   72.29
  -3   4   3 1526.45   73.19
   2  -4  -3  559.14   29.40
   2  -4  -3  639.44   31.40
   2  -4  -3  549.54   30.00
   2  -4  -3  549.74   30.10
  -2   4   3  558.14   29.50
  -2   4   3  555.84   30.70
  -2   4   3  571.94   28.60
  -2   4   3  531.55   30.40
   1  -4  -3   27.20    4.00
   1  -4  -3   24.80    4.30
   1  -4  -3   25.90    4.50
  -1   4   3   48.60    4.20
  -1   4   3   37.40    5.90
  -1   4   3   32.80    3.80
  -1   4   3   35.10    5.00
   0  -4  -3  849.52   45.40
   0  -4  -3  857.31   44.60
   0  -4  -3  843.62   44.50
   0   4   3  908.31   45.40
   0   4   3  903.91   43.50
   0   4   3  830.12   44.20
   0   4   3  834.92   46.10
  -1  -4  -3  368.76   19.80
  -1  -4  -3  317.17   20.50
   1   4   3  335.57   20.30
   1   4   3  361.66   21.90
   1   4   3  348.67   20.30
  -2  -4  -3  280.37   17.70
  -2  -4  -3  265.67   16.10
   2   4   3  270.97   17.60
   2   4   3  280.57   18.80
   2   4   3  278.57   17.10
  -3  -4  -3   23.10    5.20
   3   4   3   15.90    4.50
   3   4   3   17.70    5.10
   3   4   3   20.80    4.20
  -4  -4  -3  901.11   47.60
   4   4   3  890.91   47.70
   4   4   3  796.62   48.00
   4   4   3  910.21   46.00
  -5  -4  -3   19.20    5.30
   5   4   3   13.60    3.30
   5   4   3   16.80    5.10
   5   4   3   17.10    4.70
   9  -5  -3   19.40    5.00
   9  -5  -3   12.60    4.50
   9  -5  -3   14.90    3.00
  -9   5   3   16.10    4.10
  -9   5   3   21.60    5.30
   8  -5  -3  686.93   38.40
   8  -5  -3  686.73   38.50
   8  -5  -3  696.63   36.40
   8  -5  -3  677.83   36.20
  -8   5   3  670.83   38.00
  -8   5   3  686.03   36.90
   7  -5  -3   84.19    8.70
   7  -5  -3   78.89    7.20
   7  -5  -3   90.29    8.80
  -7   5   3   80.49    8.30
  -7   5   3   90.79    7.80
   6  -5  -3  825.42   41.20
   6  -5  -3  801.82   42.30
   6  -5  -3  683.43   42.40
  -6   5   3  828.02   41.50
  -6   5   3  763.02   41.90
   5  -5  -3   33.90    5.80
   5  -5  -3   37.50    5.00
   5  -5  -3   39.30    5.60
   5  -5  -3   33.50    3.70
  -5   5   3   32.60    5.10
  -5   5   3   36.10    5.30
   4  -5  -3 1735.53   85.89
   4  -5  -3 1866.61   86.99
   4  -5  -3 1562.54   84.29
   4  -5  -3 1694.53   85.79
  -4   5   3 1698.83   85.79
  -4   5   3 1735.23   85.89
   3  -5  -3   86.69    7.80
   3  -5  -3   85.89    7.60
   3  -5  -3   94.69    7.50
  -3   5   3   96.39    8.10
  -3   5   3   90.79    7.30
   2  -5  -3 2299.87  101.59
   2  -5  -3 1921.61  101.19
   2  -5  -3 1942.41  101.39
  -2   5   3 2056.29   99.59
  -2   5   3 2013.10  100.59
  -2   5   3 2056.29  102.19
  -2   5   3 1951.70  102.09
   1  -5  -3  772.12   39.30
   1  -5  -3  744.53   39.20
   1  -5  -3  718.33   38.90
  -1   5   3  611.34   39.60
  -1   5   3  733.33   38.30
  -1   5   3  782.72   40.00
  -1   5   3  756.82   38.00
   0  -5  -3 3520.25  166.98
   0  -5  -3 3360.16  167.88
   0   5   3 3118.89  168.08
   0   5   3 3568.34  168.18
   0   5   3 3440.26  167.08
  -1  -5  -3    9.30    4.10
  -1  -5  -3   13.00    3.20
   1   5   3   16.50    4.10
   1   5   3   12.10    4.10
   1   5   3   11.60    3.80
  -2  -5  -3 1023.70   54.39
   2   5   3  909.61   54.49
   2   5   3 1074.29   53.99
   2   5   3 1079.09   54.29
  -3  -5  -3  139.99   11.90
   3   5   3  149.39   11.80
   3   5   3  147.79   11.00
   3   5   3  131.19   12.30
  -4  -5  -3  748.83   40.70
   4   5   3  730.53   38.50
   4   5   3  766.22   40.20
   4   5   3  621.24   40.70
  -5  -5  -3   13.30    5.10
   5   5   3   10.50    5.10
   5   5   3   17.40    4.80
   5   5   3   13.40    3.40
   8  -6  -3  311.47   20.30
   8  -6  -3  298.17   17.80
  -8   6   3  296.87   19.60
  -8   6   3  284.37   18.60
   7  -6  -3   48.90    6.40
   7  -6  -3   48.30    6.30
   7  -6  -3   54.59    7.70
   7  -6  -3   58.79    7.90
  -7   6   3   61.39    7.90
  -7   6   3   56.39    7.20
   6  -6  -3  807.12   42.20
   6  -6  -3  799.92   42.20
   6  -6  -3  761.92   43.20
  -6   6   3  783.02   41.90
  -6   6   3  777.72   42.60
   5  -6  -3  141.29   10.50
   5  -6  -3  161.28   12.10
   5  -6  -3  160.78   11.50
  -5   6   3  152.88   11.30
  -5   6   3  148.89   11.40
   4  -6  -3  313.47   18.70
   4  -6  -3  348.47   20.10
   4  -6  -3  318.47   19.90
  -4   6   3  326.97   19.90
  -4   6   3  332.37   19.90
   3  -6  -3   36.30    5.60
   3  -6  -3   55.69    6.60
   3  -6  -3   44.60    5.80
  -3   6   3   52.39    6.40
  -3   6   3   61.59    7.70
   2  -6  -3  126.09   10.30
   2  -6  -3  128.79   10.50
   2  -6  -3  129.69    9.70
   2  -6  -3  126.99    9.60
  -2   6   3  106.39   10.30
  -2   6   3  119.49    9.50
   1  -6  -3  760.52   40.00
   1  -6  -3  702.83   39.30
  -1   6   3  738.33   41.20
  -1   6   3  780.52   39.30
   0  -6  -3  111.69   10.10
   0  -6  -3  123.19    9.20
   0   6   3  115.09   10.40
   0   6   3  121.49    9.50
   0   6   3   96.49    9.60
  -1  -6  -3  138.59   12.30
   1   6   3  157.48   11.60
   1   6   3  156.18   12.20
   1   6   3  147.29   12.00
  -2  -6  -3    6.30    4.10
   2   6   3    2.90    3.50
   2   6   3   10.50    3.70
   2   6   3    4.10    3.10
  -3  -6  -3  662.43   38.80
   3   6   3  689.63   37.10
   3   6   3  680.23   37.80
   3   6   3  687.43   39.10
  -4  -6  -3   16.30    5.60
   4   6   3    9.80    4.80
   4   6   3    8.70    3.90
   4   6   3   13.60    3.60
   8  -7  -3    1.10    2.20
   8  -7  -3    0.50    3.40
  -8   7   3    0.30    3.00
  -8   7   3    0.80    2.80
   7  -7  -3  440.46   24.70
   7  -7  -3  465.45   26.50
  -7   7   3  395.96   24.70
  -7   7   3  398.66   25.50
   6  -7  -3   89.29    8.40
   6  -7  -3   75.49    9.00
   6  -7  -3   71.39    8.40
  -6   7   3   86.09    8.80
  -6   7   3   88.59    8.10
   5  -7  -3  737.73   40.90
   5  -7  -3  752.22   40.80
   5  -7  -3  711.13   40.60
  -5   7   3  763.22   40.70
  -5   7   3  766.42   40.90
   4  -7  -3    8.50    3.80
   4  -7  -3    8.10    3.40
   4  -7  -3    3.00    2.80
   4  -7  -3    3.90    2.80
  -4   7   3    4.50    2.90
  -4   7   3    4.80    3.50
   3  -7  -3 1246.48   68.69
   3  -7  -3 1407.26   68.19
   3  -7  -3 1290.17   68.89
   3  -7  -3 1326.07   68.09
  -3   7   3 1333.97   69.59
  -3   7   3 1373.56   68.59
   2  -7  -3  259.67   15.90
   2  -7  -3  232.28   15.20
  -2   7   3  240.68   16.10
  -2   7   3  228.38   16.90
   1  -7  -3 1662.43   81.59
   1  -7  -3 1598.04   82.19
  -1   7   3 1602.84   83.49
   0  -7  -3  111.69   10.00
   0   7   3  101.99    9.90
   0   7   3  106.69   10.10
   0   7   3  110.69    9.10
  -1  -7  -3  809.72   46.30
   1   7   3  874.81   46.30
   1   7   3  876.61   45.50
   1   7   3  851.91   46.60
  -2  -7  -3    4.80    4.40
   2   7   3    1.00    2.60
   2   7   3    4.50    3.50
   2   7   3    9.20    3.60
  -3  -7  -3  421.36   26.50
   3   7   3  410.46   24.40
   3   7   3  392.36   25.50
   3   7   3  399.96   24.00
   7  -8  -3  205.78   15.00
   7  -8  -3  179.38   13.20
  -7   8   3  191.48   14.10
  -7   8   3  192.58   14.60
   6  -8  -3   10.50    4.40
   6  -8  -3    7.40    3.30
  -6   8   3    9.70    4.00
  -6   8   3   14.10    4.60
   5  -8  -3  387.86   24.30
   5  -8  -3  447.36   24.50
  -5   8   3  404.36   24.90
  -5   8   3  382.26   24.60
   4  -8  -3  284.97   18.40
   4  -8  -3  295.67   19.10
   4  -8  -3  297.37   18.50
  -4   8   3  290.67   19.30
  -4   8   3  304.97   19.90
   3  -8  -3   12.10    4.10
   3  -8  -3    7.30    2.90
  -3   8   3    7.90    3.80
  -3   8   3   12.10    4.70
   2  -8  -3   47.80    6.80
   2  -8  -3   59.69    6.50
  -2   8   3   45.20    7.50
   1  -8  -3  259.77   17.20
  -1   8   3  267.97   18.10
   0  -8  -3  454.45   26.80
   0   8   3  459.85   27.40
  -1  -8  -3    5.00    3.90
   1   8   3    1.40    3.30
   1   8   3    6.60    3.30
  -2  -8  -3  129.19   11.90
   2   8   3  113.99   10.90
   2   8   3  111.69   10.30
   2   8   3  136.29   10.50
   6  -9  -3  389.56   23.90
   6  -9  -3  399.36   24.40
  -6   9   3  436.56   25.90
  -6   9   3  387.26   24.90
   5  -9  -3   10.10    3.70
   5  -9  -3   14.80    4.10
  -5   9   3   20.00    5.40
  -5   9   3   14.20    5.00
   4  -9  -3  528.85   28.50
   4  -9  -3  476.25   28.50
  -4   9   3  476.95   30.10
  -4   9   3  523.75   36.90
   3  -9  -3   72.69    8.40
   3  -9  -3   67.69    7.50
  -3   9   3   59.89    8.90
   2  -9  -3  870.51   46.20
  -2   9   3  859.31   47.40
   1  -9  -3   33.50    5.60
  -1   9   3   32.80    6.40
   0  -9  -3  499.05   28.30
   0   9   3  464.25   28.60
   1  10  -4   -0.90    2.50
   1  10  -4    2.40    4.40
  -1 -10   4    5.70    3.60
   0  10  -4  342.97   21.60
   0  10  -4  375.96   24.00
   0 -10   4  388.26   23.00
  -1  10  -4   62.79    8.90
   1 -10   4   72.39    8.90
  -2  10  -4  454.55   26.90
   2 -10   4  405.06   26.20
  -3  10  -4   16.60    5.10
   3 -10   4   35.10    6.20
   3 -10   4   11.10    4.50
  -4  10  -4  230.08   17.80
   4 -10   4  235.68   16.50
   4 -10   4  240.28   17.00
   4 -10   4  244.88   17.10
   3   9  -4  103.39    9.80
  -3  -9   4  104.09    9.40
  -3  -9   4   98.49    9.20
   2   9  -4  115.99   10.20
   2   9  -4  101.09   10.30
  -2  -9   4  121.09   10.20
   1   9  -4  338.07   21.10
   1   9  -4  306.27   19.20
  -1  -9   4  282.27   19.40
   0   9  -4    4.50    4.00
   0   9  -4    7.90    3.20
   0  -9   4    8.30    4.00
  -1   9  -4  355.46   22.70
   1  -9   4  338.77   22.10
  -2   9  -4    3.70    3.40
   2  -9   4    0.20    3.40
   2  -9   4    2.90    3.60
  -3   9  -4 1190.78   63.49
   3  -9   4 1248.78   61.99
   3  -9   4 1141.49   62.29
   3  -9   4 1161.18   62.29
  -4   9  -4  187.48   15.20
   4  -9   4  197.28   14.10
   4  -9   4  187.18   13.90
   4  -9   4  168.18   13.60
  -5   9  -4  260.07   19.20
   5  -9   4  284.17   18.00
   5  -9   4  248.38   18.40
   5  -9   4  266.97   17.60
   4   8  -4   18.40    4.90
   4   8  -4   21.60    5.70
  -4  -8   4   20.60    4.80
  -4  -8   4   28.20    5.40
   3   8  -4  999.70   53.99
   3   8  -4 1064.79   54.49
   3   8  -4  989.40   53.69
  -3  -8   4  990.20   52.79
  -3  -8   4 1003.20   52.69
   2   8  -4  292.97   19.50
   2   8  -4  302.77   19.20
  -2  -8   4  291.57   18.70
  -2  -8   4  291.37   18.00
   1   8  -4  813.52   44.40
   1   8  -4  895.81   47.10
  -1  -8   4  843.32   43.80
  -1  -8   4  796.72   44.80
   0   8  -4   10.80    4.40
   0   8  -4    7.30    3.10
   0  -8   4    4.60    3.30
  -1   8  -4  800.32   44.20
  -1   8  -4  792.12   41.80
   1  -8   4  884.51   43.90
   1  -8   4  706.43   43.00
  -2   8  -4   21.10    5.60
   2  -8   4    3.90    3.40
   2  -8   4    0.30    2.60
   2  -8   4    2.80    2.50
  -3   8  -4  690.73   41.20
   3  -8   4  774.32   40.60
   3  -8   4  776.62   40.10
   3  -8   4  684.73   39.70
  -4   8  -4   -3.10    2.80
   4  -8   4    2.10    2.70
   4  -8   4    2.20    2.80
   4  -8   4   -0.50    3.00
  -5   8  -4  311.87   22.10
   5  -8   4  332.57   21.40
   5  -8   4  358.76   20.10
   5  -8   4  292.97   19.50
  -6   8  -4   32.70    7.90
   6  -8   4   26.90    5.10
   6  -8   4   36.90    7.20
   6  -8   4   30.60    4.70
   5   7  -4   21.20    5.80
   5   7  -4    5.50    3.40
  -5  -7   4    6.40    3.70
  -5  -7   4   12.40    4.00
   4   7  -4   90.39    9.40
   4   7  -4   90.79    8.90
   4   7  -4   85.29   10.20
  -4  -7   4   86.69    9.40
  -4  -7   4   98.29    8.70
   3   7  -4  158.58   11.80
   3   7  -4  123.59   11.10
   3   7  -4  130.89   11.90
  -3  -7   4  140.09   10.70
  -3  -7   4  135.19   10.90
   2   7  -4  562.54   32.30
   2   7  -4  632.44   33.20
   2   7  -4  565.44   34.00
  -2  -7   4  554.24   31.80
  -2  -7   4  564.54   31.60
   1   7  -4   17.20    4.70
   1   7  -4   16.30    3.90
   1   7  -4   15.40    4.90
  -1  -7   4    8.20    3.90
  -1  -7   4   14.30    3.70
   0   7  -4  732.73   40.10
   0   7  -4  803.22   43.30
   0  -7   4  764.72   41.30
   0  -7   4  756.12   39.70
  -1   7  -4   81.39    7.00
  -1   7  -4   92.49   10.80
   1  -7   4   79.79    7.90
   1  -7   4   76.19    6.90
   1  -7   4   87.79    8.40
  -2   7  -4 1464.85   75.39
   2  -7   4 1492.75   73.69
   2  -7   4 1427.76   73.09
   2  -7   4 1367.16   73.59
  -3   7  -4   85.19   10.40
   3  -7   4   88.99    8.50
   3  -7   4   89.59    8.30
   3  -7   4   80.99    7.50
  -4   7  -4 1132.39   63.59
   4  -7   4 1225.48   61.49
   4  -7   4 1192.08   61.29
   4  -7   4 1218.48   62.79
  -5   7  -4   50.19    8.30
   5  -7   4   49.50    7.30
   5  -7   4   57.59    5.90
   5  -7   4   62.29    7.20
  -6   7  -4  468.35   31.10
   6  -7   4  472.45   28.30
   6  -7   4  517.25   27.10
   6  -7   4  560.44   30.70
  -7   7  -4    6.60    3.70
  -7   7  -4    9.30    4.60
   7  -7   4   11.90    3.70
   7  -7   4    8.40    4.40
   7  -7   4    9.90    2.40
   6   6  -4  724.13   39.80
   6   6  -4  720.73   41.40
  -6  -6   4  784.12   41.00
   5   6  -4  334.37   21.00
   5   6  -4  347.17   22.10
   5   6  -4  335.27   22.30
  -5  -6   4  367.06   21.10
  -5  -6   4  368.96   21.90
   4   6  -4  900.31   48.30
   4   6  -4  918.61   47.60
   4   6  -4  913.51   48.80
  -4  -6   4  872.21   46.80
  -4  -6   4  868.41   47.60
   3   6  -4   15.10    4.50
   3   6  -4   24.40    5.00
   3   6  -4   26.00    5.10
  -3  -6   4   24.80    4.50
  -3  -6   4   31.50    5.40
   2   6  -4 2729.73  120.39
   2   6  -4 2553.74  119.79
   2   6  -4 1997.80  120.99
  -2  -6   4 2271.67  118.99
  -2  -6   4 2444.56  119.39
   1   6  -4  428.96   25.10
   1   6  -4  451.25   27.90
   1   6  -4  438.36   24.50
  -1  -6   4  437.76   24.50
  -1  -6   4  415.66   25.00
   0   6  -4  679.53   36.30
   0   6  -4  710.63   37.40
   0  -6   4  697.33   36.10
   0  -6   4  642.74   35.50
   0  -6   4  710.43   37.40
   0  -6   4  716.63   37.30
  -1   6  -4  175.38   11.30
  -1   6  -4  165.18   13.80
   1  -6   4  174.08   12.10
   1  -6   4  176.98   12.50
   1  -6   4  193.98   11.10
   1  -6   4  183.08   11.70
  -2   6  -4 2341.77  105.69
  -2   6  -4 2254.17  108.49
   2  -6   4 1779.72  104.59
   2  -6   4 2201.88  106.19
   2  -6   4 2066.99  105.49
   2  -6   4 2152.98  106.09
  -3   6  -4  243.18   18.00
   3  -6   4  264.37   16.90
   3  -6   4  285.27   16.30
   3  -6   4  255.87   16.00
  -4   6  -4  352.26   23.70
   4  -6   4  378.46   20.80
   4  -6   4  368.76   22.50
  -5   6  -4  186.58   15.90
   5  -6   4  218.18   14.90
   5  -6   4  214.78   13.70
   5  -6   4  197.98   12.30
  -6   6  -4  286.67   20.60
   6  -6   4  295.57   16.00
   6  -6   4  314.27   19.50
   6  -6   4  251.17   17.40
  -7   6  -4   60.19    7.90
  -7   6  -4   60.89    9.70
   7  -6   4   54.89    7.20
   7  -6   4   62.19    4.80
   7  -6   4   67.19    8.60
   7   5  -4   23.10    5.30
   7   5  -4   32.90    4.80
  -7  -5   4   28.10    5.70
   6   5  -4   89.29    8.70
   6   5  -4   72.99    7.10
  -6  -5   4   70.59    8.60
   5   5  -4  422.56   25.50
   5   5  -4  435.46   24.60
   5   5  -4  423.36   25.80
  -5  -5   4  442.06   24.70
  -5  -5   4  430.56   25.70
   4   5  -4   38.80    5.40
   4   5  -4   51.29    7.20
   4   5  -4   49.10    6.60
  -4  -5   4   38.00    5.50
  -4  -5   4   39.20    6.20
   3   5  -4  277.47   18.00
   3   5  -4  309.27   18.10
   3   5  -4  309.97   19.70
  -3  -5   4  278.47   18.50
  -3  -5   4  295.17   17.80
   2   5  -4   78.49   10.00
   2   5  -4   81.29    7.00
   2   5  -4   79.99    7.20
  -2  -5   4   81.19    7.50
  -2  -5   4   65.29    6.70
   1   5  -4 1689.13   84.99
   1   5  -4 1758.42   86.89
   1   5  -4 1767.82   86.29
   1   5  -4 1553.74   89.49
  -1  -5   4 1809.12   87.09
  -1  -5   4 1750.72   86.69
  -1  -5   4 1788.82   86.59
   0   5  -4  166.78   11.10
   0   5  -4  182.58   11.90
   0   5  -4  190.78   11.50
   0   5  -4  173.68   14.10
   0  -5   4  195.18   12.20
   0  -5   4  194.48   11.60
   0  -5   4  185.08   12.10
   0  -5   4  185.28   11.20
  -1   5  -4 2703.83  127.69
  -1   5  -4 2676.43  131.49
  -1   5  -4 2702.53  128.29
   1  -5   4 2485.15  128.19
   1  -5   4 2491.55  128.59
   1  -5   4 2508.95  127.39
   1  -5   4 2733.93  128.69
  -2   5  -4  146.39    9.00
  -2   5  -4  147.79   12.30
   2  -5   4  155.68   10.10
   2  -5   4  140.29   10.30
   2  -5   4  145.99    9.20
   2  -5   4  152.78    9.90
  -3   5  -4 1671.83   86.69
   3  -5   4 1693.73   83.39
   3  -5   4 1730.23   83.89
   3  -5   4 1644.94   83.09
   3  -5   4 1660.43   84.69
  -4   5  -4  190.38   15.50
   4  -5   4  213.98   13.20
   4  -5   4  200.78   12.20
   4  -5   4  213.58   14.10
  -5   5  -4 1331.37   71.19
   5  -5   4 1320.77   66.79
   5  -5   4 1404.96   69.79
   5  -5   4 1346.97   68.59
  -6   5  -4   14.30    5.20
  -6   5  -4   18.10    4.40
   6  -5   4   12.50    3.70
   6  -5   4   17.30    4.20
   6  -5   4   13.50    2.30
  -7   5  -4  575.44   34.30
  -7   5  -4  561.84   31.90
   7  -5   4  572.44   31.70
   7  -5   4  582.54   32.40
   7  -5   4  550.84   28.40
   7   4  -4  675.53   36.20
   7   4  -4  672.73   38.20
  -7  -4   4  738.13   39.00
   6   4  -4  148.49   11.80
   6   4  -4  150.78   10.20
   6   4  -4  144.69   11.60
  -6  -4   4  162.58   12.30
   5   4  -4 1468.25   75.69
   5   4  -4 1477.35   76.39
   5   4  -4 1548.65   74.79
  -5  -4   4 1567.94   75.29
  -5  -4   4 1373.86   76.19
   4   4  -4  344.37   19.50
   4   4  -4  353.46   20.20
   4   4  -4  340.67   20.90
  -4  -4   4  349.47   19.90
  -4  -4   4  303.97   20.40
   3   4  -4 2507.35  127.49
   3   4  -4 2712.43  129.49
   3   4  -4 2779.02  127.49
  -3  -4   4 2429.36  127.99
  -3  -4   4 2503.15  127.29
   2   4  -4   49.40    7.40
   2   4  -4   40.80    3.30
   2   4  -4   39.30    4.90
   2   4  -4   50.29    4.90
  -2  -4   4   53.89    5.90
  -2  -4   4   49.20    6.00
  -2  -4   4   50.89    4.90
   1   4  -4 2064.99  100.99
   1   4  -4 2171.58  101.49
   1   4  -4 1990.80  105.09
   1   4  -4 1867.11  101.59
  -1  -4   4 2145.39  101.89
  -1  -4   4 1997.10  101.79
  -1  -4   4 2194.38  102.09
   0   4  -4  113.49    7.00
   0   4  -4  114.89    7.70
   0   4  -4  101.79    9.80
   0   4  -4  108.69    7.70
   0  -4   4  106.99    7.80
   0  -4   4  118.79    7.60
   0  -4   4  114.29    7.70
   0  -4   4  105.89    7.30
  -1   4  -4 2125.79  114.29
  -1   4  -4 2235.28  111.89
  -1   4  -4 2295.67  111.19
  -1   4  -4 2337.67  110.19
   1  -4   4 2269.67  111.79
   1  -4   4 2458.15  111.59
   1  -4   4 2191.38  110.89
   1  -4   4 2237.58  111.59
  -2   4  -4   43.50    3.20
  -2   4  -4   40.50    6.60
   2  -4   4   50.39    4.60
   2  -4   4   39.80    4.70
   2  -4   4   38.90    4.30
   2  -4   4   47.70    5.60
   2  -4   4   44.50    4.30
  -3   4  -4 1694.43   88.29
   3  -4   4 1693.03   85.19
   3  -4   4 1728.03   85.39
   3  -4   4 1619.64   86.09
   3  -4   4 1855.01   84.79
  -4   4  -4    6.20    2.90
  -4   4  -4   13.40    4.60
   4  -4   4   10.90    3.40
   4  -4   4    8.50    2.90
   4  -4   4   12.00    2.20
   4  -4   4   12.30    2.90
  -5   4  -4  116.89   11.30
  -5   4  -4  113.29    9.60
   5  -4   4  124.69    7.60
   5  -4   4  119.99    9.70
   5  -4   4  135.59    9.70
  -6   4  -4  370.36   24.10
  -6   4  -4  360.56   22.00
   6  -4   4  381.26   22.00
   6  -4   4  358.86   19.20
   6  -4   4  402.06   22.70
  -7   4  -4   67.69    8.00
   7  -4   4   62.09    7.50
   8   3  -4  188.58   11.60
   8   3  -4  177.88   13.70
  -8  -3   4  205.08   14.50
   7   3  -4  176.28   10.90
   7   3  -4  173.08   12.70
   7   3  -4  181.08   13.40
  -7  -3   4  175.18   13.60
   6   3  -4   35.70    4.40
   6   3  -4   56.29    7.10
   6   3  -4   43.20    5.80
  -6  -3   4   37.80    6.10
   5   3  -4    9.50    3.10
   5   3  -4   13.10    3.60
   5   3  -4   10.60    2.50
  -5  -3   4    8.70    3.00
  -5  -3   4    9.80    3.50
   4   3  -4 1445.36   74.19
   4   3  -4 1443.06   73.09
   4   3  -4 1565.94   72.59
  -4  -3   4 1336.67   73.79
  -4  -3   4 1470.75   72.89
   3   3  -4  310.87   17.60
   3   3  -4  329.47   18.00
  -3  -3   4  304.47   17.80
   2   3  -4  751.52   41.30
   2   3  -4  710.73   39.00
   2   3  -4  770.42   39.10
   2   3  -4  732.43   38.00
  -2  -3   4  797.22   39.40
  -2  -3   4  784.02   39.80
  -2  -3   4  812.72   39.20
   1   3  -4  471.85   25.30
   1   3  -4  504.95   24.90
   1   3  -4  441.96   27.60
  -1  -3   4  462.05   25.30
  -1  -3   4  515.55   25.70
  -1  -3   4  476.85   25.00
   0   3  -4 5254.07  255.67
   0   3  -4 5091.39  258.07
   0   3  -4 5325.97  255.37
   0   3  -4 5560.14  254.47
   0  -3   4 5073.69  255.17
   0  -3   4 5211.78  255.67
   0  -3   4 5440.46  255.37
  -1   3  -4  236.18   14.40
  -1   3  -4  204.98   15.90
  -1   3  -4  233.08   13.40
   1  -3   4  246.08   13.80
   1  -3   4  260.47   14.00
   1  -3   4  263.57   13.90
   1  -3   4  233.98   14.20
  -2   3  -4 2283.67  109.89
  -2   3  -4 2270.27  111.69
   2  -3   4 2169.58  109.69
   2  -3   4 2004.20  108.59
   2  -3   4 2367.66  108.69
   2  -3   4 2061.69  108.39
   2  -3   4 2392.86  109.09
  -3   3  -4  350.36   22.00
  -3   3  -4  328.27   20.00
   3  -3   4  354.36   20.20
   3  -3   4  346.77   18.60
   3  -3   4  352.86   18.50
   3  -3   4  360.76   19.50
   3  -3   4  342.27   19.60
  -4   3  -4 2294.27  107.59
  -4   3  -4 2103.39  105.49
   4  -3   4 2136.59  105.79
   4  -3   4 2047.90  103.19
   4  -3   4 2071.79  105.09
   4  -3   4 2093.59  105.59
  -5   3  -4    8.70    4.30
  -5   3  -4   13.00    3.50
   5  -3   4   12.20    1.90
   5  -3   4   11.00    3.40
   5  -3   4    9.70    3.70
   5  -3   4   13.10    3.30
  -6   3  -4 1336.67   67.29
  -6   3  -4 1322.77   65.29
   6  -3   4 1138.89   66.69
   6  -3   4 1247.98   64.99
   6  -3   4 1288.27   61.79
  -7   3  -4  213.78   14.40
   7  -3   4  209.98   14.30
   8   2  -4  521.05   29.80
   8   2  -4  544.45   30.60
   8   2  -4  509.95   27.30
  -8  -2   4  528.95   30.40
   7   2  -4   72.59    7.20
   7   2  -4   60.39    7.70
   7   2  -4   67.49    5.50
  -7  -2   4   75.09    8.80
   6   2  -4 1434.56   77.59
   6   2  -4 1590.44   78.79
   6   2  -4 1612.84   76.39
  -6  -2   4 1530.35   78.69
   5   2  -4  642.94   33.90
   5   2  -4  609.54   34.50
   5   2  -4  640.94   32.60
  -5  -2   4  615.44   34.60
  -5  -2   4  658.43   33.60
   4   2  -4 2945.91  143.59
   4   2  -4 2758.22  141.79
   4   2  -4 3021.20  141.79
   4   2  -4 3030.80  142.59
   4   2  -4 2695.63  140.29
  -4  -2   4 2910.31  143.29
  -4  -2   4 3014.10  142.19
   3   2  -4   10.60    2.50
   3   2  -4    8.00    2.00
   3   2  -4   13.00    2.40
   3   2  -4   15.10    3.70
   3   2  -4   16.80    2.40
  -3  -2   4    8.00    2.80
  -3  -2   4    7.70    2.10
  -3  -2   4    9.10    2.40
   2   2  -4 2384.96  115.79
   2   2  -4 2356.06  115.79
   2   2  -4 2288.77  117.69
   2   2  -4 2548.65  116.19
  -2  -2   4 2514.65  115.59
  -2  -2   4 2118.09  116.19
  -2  -2   4 2415.16  116.19
   1   2  -4  109.69    7.80
   1   2  -4  109.89    6.50
   1   2  -4  107.49    7.00
   1   2  -4  108.49    8.90
  -1  -2   4  110.69    6.70
  -1  -2   4  113.39    7.40
  -1  -2   4  109.29    7.30
   0   2  -4 4413.16  229.28
   0   2  -4 4798.42  227.28
   0   2  -4 5282.77  226.08
   0   2  -4 4710.33  228.18
   0  -2   4 4547.15  227.48
   0  -2   4 4686.23  225.98
   0  -2   4 4392.56  227.38
   0  -2   4 4770.32  227.18
  -1   2  -4    4.50    2.00
  -1   2  -4    1.60    1.00
  -1   2  -4   14.60    3.60
   1  -2   4    1.30    1.50
   1  -2   4    6.40    1.60
   1  -2   4    2.00    1.20
   1  -2   4    3.50    1.30
  -2   2  -4 1128.79   60.99
  -2   2  -4 1186.18   60.09
   2  -2   4 1166.08   58.59
   2  -2   4 1134.39   59.39
   2  -2   4 1281.47   58.69
   2  -2   4 1206.08   59.39
  -3   2  -4   10.60    1.40
  -3   2  -4    3.50    2.20
  -3   2  -4    5.10    3.00
   3  -2   4    5.00    1.10
   3  -2   4    6.60    1.50
   3  -2   4    1.50    1.60
   3  -2   4   10.80    1.90
   3  -2   4    4.70    2.20
  -4   2  -4  740.43   40.40
  -4   2  -4  721.93   39.20
   4  -2   4  759.02   37.20
   4  -2   4  744.13   39.00
   4  -2   4  739.03   37.00
   4  -2   4  733.73   39.70
  -5   2  -4  270.27   16.90
  -5   2  -4  299.77   18.50
   5  -2   4  255.37   16.50
   5  -2   4  284.57   14.40
   5  -2   4  249.58   18.00
  -6   2  -4    7.70    3.20
   6  -2   4    9.70    1.40
   6  -2   4    8.00    3.00
   6  -2   4   13.20    4.60
  -7   2  -4  200.98   13.70
   7  -2   4  204.08   13.80
   7  -2   4  185.88   15.50
   8   1  -4   84.49    8.00
   8   1  -4   82.79    8.50
   8   1  -4   82.19    5.90
  -8  -1   4   92.89    8.80
   7   1  -4  455.55   26.00
   7   1  -4  435.66   23.30
   7   1  -4  439.06   25.10
  -7  -1   4  445.66   25.80
   6   1  -4  150.78   10.60
   6   1  -4  144.59   11.20
   6   1  -4  146.69    9.20
  -6  -1   4  168.38   11.40
   5   1  -4  303.87   17.50
   5   1  -4  297.77   15.50
   5   1  -4  242.38   14.80
   5   1  -4  269.87   16.20
  -5  -1   4  292.37   16.00
  -5  -1   4  282.07   17.00
   4   1  -4    5.00    1.50
   4   1  -4    4.40    1.50
   4   1  -4    6.40    1.50
   4   1  -4    4.10    1.70
   4   1  -4    2.20    1.90
  -4  -1   4    4.60    1.70
  -4  -1   4    5.60    2.60
   3   1  -4 2114.39  101.69
   3   1  -4 1810.52  101.29
   3   1  -4 2102.39  103.19
   3   1  -4 2145.99  101.79
   3   1  -4 2098.39  102.49
  -3  -1   4 2036.20  102.19
  -3  -1   4 2102.39  100.69
  -3  -1   4 2239.38  102.29
   2   1  -4   31.90    3.20
   2   1  -4   37.30    3.10
   2   1  -4   28.90    3.70
   2   1  -4   28.40    4.10
  -2  -1   4   31.40    3.70
  -2  -1   4   42.70    3.70
  -2  -1   4   41.10    2.60
   1   1  -4 2709.23  119.29
   1   1  -4 2242.38  120.09
   1   1  -4 2453.95  120.19
  -1  -1   4 2508.55  119.29
  -1  -1   4 2357.26  118.39
  -1  -1   4 2519.15  118.49
  -1  -1   4 2349.26  119.39
   0   1  -4  841.02   45.30
   0   1  -4  911.01   44.10
   0   1  -4  857.31   45.10
   0  -1   4  855.01   43.30
   0  -1   4  901.41   44.60
   0  -1   4  919.91   44.00
   0  -1   4  900.51   44.40
  -1   1  -4 6217.88  300.27
  -1   1  -4 6538.65  300.77
  -1   1  -4 6734.03  299.77
   1  -1   4 6306.57  299.97
   1  -1   4 5787.52  299.17
   1  -1   4 6048.59  299.87
   1  -1   4 5883.51  299.27
   1  -1   4 6127.99  298.37
  -2   1  -4   75.79    6.80
  -2   1  -4   77.49    6.80
   2  -1   4   74.49    5.40
   2  -1   4   61.99    5.90
   2  -1   4   79.09    4.90
   2  -1   4   79.19    5.50
   2  -1   4   93.49    6.50
  -3   1  -4 1373.06   70.79
  -3   1  -4 1508.75   71.49
   3  -1   4 1350.96   70.39
   3  -1   4 1394.26   68.69
   3  -1   4 1381.16   68.99
   3  -1   4 1419.66   70.89
   3  -1   4 1385.16   68.79
  -4   1  -4  182.28   12.40
  -4   1  -4  157.48   11.50
   4  -1   4  164.58    9.70
   4  -1   4  168.88   11.40
   4  -1   4  169.48    9.60
   4  -1   4  167.08   10.00
   4  -1   4  168.78   12.20
  -5   1  -4 2429.06  117.49
   5  -1   4 2290.37  119.19
   5  -1   4 2348.67  114.79
   5  -1   4 2387.96  117.59
  -6   1  -4  166.28   12.30
  -6   1  -4  157.88   11.70
   6  -1   4  152.98   13.70
   6  -1   4  146.79   11.60
   6  -1   4  177.38    9.10
  -7   1  -4  610.04   33.90
  -7   1  -4  596.44   33.50
   7  -1   4  587.04   33.60
   7  -1   4  632.44   36.10
   9   0  -4  643.64   36.00
   9   0  -4  669.73   37.20
  -9   0   4  684.73   36.50
  -9   0   4  647.94   36.10
   8   0  -4   30.00    5.70
   8   0  -4   32.70    3.10
   8   0  -4   19.80    4.10
  -8   0   4   31.60    5.10
  -8   0   4   29.90    5.20
   7   0  -4  860.81   43.20
   7   0  -4  854.41   44.80
   7   0  -4  826.12   45.60
  -7   0   4  886.71   45.30
  -7   0   4  864.11   44.90
   6   0  -4  553.84   30.20
   6   0  -4  521.85   29.00
   6   0  -4  546.75   28.20
   6   0  -4  545.25   28.10
  -6   0   4  537.15   29.40
  -6   0   4  536.65   29.20
   5   0  -4 3074.69  149.88
   5   0  -4 3003.80  148.69
   5   0  -4 3240.18  149.39
   5   0  -4 3070.09  149.59
   5   0  -4 3041.30  151.08
  -5   0   4 3021.50  149.99
  -5   0   4 3022.20  150.08
   4   0  -4   33.30    4.30
   4   0  -4   17.00    3.60
   4   0  -4   16.20    2.50
   4   0  -4   19.00    2.80
   4   0  -4   16.70    2.80
  -4   0   4   20.40    3.40
  -4   0   4   25.60    2.00
  -4   0   4   19.00    3.30
   3   0  -4 2119.89  113.09
   3   0  -4 2380.96  112.89
   3   0  -4 2560.84  111.79
   3   0  -4 2371.26  111.79
   3   0  -4 1957.60  111.39
  -3   0   4 2308.37  111.59
  -3   0   4 2233.88  111.79
  -3   0   4 2374.46  111.79
   2   0  -4  248.18   13.70
   2   0  -4  240.68   14.10
   2   0  -4  241.68   14.40
  -2   0   4  240.68   12.30
  -2   0   4  243.08   13.80
  -2   0   4  244.88   13.20
  -2   0   4  246.58   13.50
   1   0  -4 3001.70  144.89
   1   0  -4 2803.72  145.59
  -1   0   4 3079.79  144.79
  -1   0   4 3049.20  144.99
  -1   0   4 2922.41  144.19
  -1   0   4 3024.20  144.29
   0   0  -4    9.30    1.90
   0   0  -4   11.60    2.00
   0   0  -4   23.00    3.60
   0   0   4    8.00    1.90
   0   0   4    7.40    1.80
   0   0   4    7.50    1.70
   0   0   4    5.90    2.00
  -1   0  -4 2591.94  127.99
  -1   0  -4 2701.03  126.29
   1   0   4 2598.14  127.29
   1   0   4 2737.53  126.69
   1   0   4 2595.04  126.59
   1   0   4 2634.14  127.29
   1   0   4 2332.47  126.89
  -2   0  -4   15.70    2.60
  -2   0  -4   12.80    3.10
   2   0   4   11.80    2.30
   2   0   4   15.40    2.30
   2   0   4   12.60    2.80
   2   0   4    9.70    2.00
   2   0   4   13.50    2.80
  -3   0  -4  379.96   22.00
  -3   0  -4  423.36   21.60
   3   0   4  367.96   20.20
   3   0   4  385.36   21.80
   3   0   4  378.26   22.10
   3   0   4  368.26   20.20
   3   0   4  396.46   21.00
  -4   0  -4  404.86   23.50
  -4   0  -4  418.66   23.90
   4   0   4  395.06   22.50
   4   0   4  419.66   23.60
   4   0   4  423.86   24.60
   4   0   4  414.96   21.70
  -5   0  -4  209.88   14.30
  -5   0  -4  212.38   14.00
   5   0   4  216.18   14.30
   5   0   4  216.38   15.80
   5   0   4  204.68   11.80
  -6   0  -4  176.48   12.40
  -6   0  -4  170.58   12.80
   6   0   4  171.08   12.60
   6   0   4  174.68   10.30
   6   0   4  194.68   15.10
  -7   0  -4    5.50    3.30
   7   0   4    3.00    3.70
   9  -1  -4  107.39    6.10
   9  -1  -4  103.19    9.80
  -9   1   4  102.19    9.00
   8  -1  -4  189.98   10.80
   8  -1  -4  198.78   13.80
  -8   1   4  194.48   13.00
  -8   1   4  197.58   13.10
   7  -1  -4   18.20    4.00
   7  -1  -4   15.70    3.10
   7  -1  -4   13.10    2.30
  -7   1   4   10.80    3.10
  -7   1   4   12.10    3.10
   6  -1  -4  357.26   18.40
   6  -1  -4  319.17   19.10
   6  -1  -4  341.17   20.20
  -6   1   4  329.17   19.10
  -6   1   4  343.17   19.20
   5  -1  -4  206.98   12.00
   5  -1  -4  234.08   12.40
   5  -1  -4  220.38   13.30
   5  -1  -4  204.98   13.60
  -5   1   4  195.48   12.40
  -5   1   4  196.98   12.50
   4  -1  -4 1012.60   53.09
   4  -1  -4 1086.29   53.29
   4  -1  -4 1046.90   54.69
   4  -1  -4 1077.59   54.39
  -4   1   4 1093.69   53.29
   3  -1  -4  213.28   14.60
   3  -1  -4  230.58   13.70
   3  -1  -4  216.68   13.10
   3  -1  -4  233.08   13.20
  -3   1   4  246.88   12.80
  -3   1   4  237.38   13.20
  -3   1   4  222.08   12.80
   2  -1  -4 3695.83  170.08
   2  -1  -4 3351.16  171.28
   2  -1  -4 3216.68  172.08
   2  -1  -4 3510.05  171.28
  -2   1   4 3905.41  170.98
  -2   1   4 3445.96  170.88
  -2   1   4 3541.05  171.28
   1  -1  -4  124.59    8.00
   1  -1  -4  123.09    7.80
   1  -1  -4  129.09    7.60
   1  -1  -4  129.79    9.00
  -1   1   4  124.39    8.10
  -1   1   4  120.29    7.90
  -1   1   4  123.99    8.20
   0  -1  -4 4382.06  211.98
   0  -1  -4 4189.48  214.18
   0  -1  -4 4638.64  213.08
   0  -1  -4 4283.87  213.58
   0   1   4 4388.56  213.38
   0   1   4 4556.14  214.18
   0   1   4 4087.49  213.28
   0   1   4 4674.13  213.38
  -1  -1  -4  546.55   25.90
  -1  -1  -4  479.85   27.20
  -1  -1  -4  522.55   27.20
   1   1   4  411.26   27.00
   1   1   4  489.75   26.60
   1   1   4  535.65   26.20
   1   1   4  442.36   25.70
   1   1   4  532.25   26.80
  -2  -1  -4 2422.96  115.19
  -2  -1  -4 2342.97  115.29
   2   1   4 2421.36  115.09
   2   1   4 2440.26  113.79
   2   1   4 2152.08  113.49
   2   1   4 2211.38  114.79
   2   1   4 2276.57  114.89
  -3  -1  -4   49.40    6.30
  -3  -1  -4   40.40    5.70
   3   1   4   39.70    5.70
   3   1   4   38.60    5.40
   3   1   4   49.20    4.40
   3   1   4   51.09    5.80
  -4  -1  -4 1910.01   97.69
  -4  -1  -4 1967.20   98.49
   4   1   4 2008.90   96.29
   4   1   4 1941.91   99.29
   4   1   4 1962.00   97.79
  -5  -1  -4  263.27   16.20
  -5  -1  -4  270.57   16.90
   5   1   4  242.78   15.90
   5   1   4  255.87   18.00
   5   1   4  244.38   14.50
  -6  -1  -4 1004.90   55.69
   6   1   4 1102.39   57.89
   6   1   4 1083.69   53.29
   9  -2  -4   40.50    3.50
   9  -2  -4   38.30    6.20
  -9   2   4   40.10    5.80
   8  -2  -4 1463.55   73.99
   8  -2  -4 1453.85   72.69
   8  -2  -4 1412.66   70.59
  -8   2   4 1422.26   72.59
   7  -2  -4  127.89   10.10
   7  -2  -4  123.19    7.90
   7  -2  -4  129.39    9.50
  -7   2   4  125.89    9.20
  -7   2   4  128.99    9.00
   6  -2  -4  854.71   47.10
   6  -2  -4  924.91   45.50
   6  -2  -4  906.31   47.50
  -6   2   4  912.41   45.80
  -6   2   4  916.01   46.30
   5  -2  -4  138.89   10.40
   5  -2  -4  139.69   10.10
   5  -2  -4  140.09    9.00
  -5   2   4  144.69    8.80
  -5   2   4  141.19    9.30
   4  -2  -4 3146.59  151.88
   4  -2  -4 2621.14  152.18
   4  -2  -4 2937.91  150.68
   4  -2  -4 3103.99  150.88
  -4   2   4 3429.06  150.18
  -4   2   4 3309.37  150.98
   3  -2  -4    3.20    1.60
   3  -2  -4    3.70    2.50
   3  -2  -4    2.70    0.80
   3  -2  -4    4.10    1.70
  -3   2   4    3.40    1.90
  -3   2   4    3.70    1.80
  -3   2   4    3.10    1.40
   2  -2  -4 1430.06   72.29
   2  -2  -4 1451.95   72.69
   2  -2  -4 1486.25   73.99
   2  -2  -4 1557.74   72.59
  -2   2   4 1507.25   72.19
  -2   2   4 1415.66   72.79
  -2   2   4 1413.86   72.79
   1  -2  -4   74.39    5.50
   1  -2  -4   56.09    5.70
   1  -2  -4   68.99    5.20
  -1   2   4   61.59    5.30
  -1   2   4   67.79    5.90
  -1   2   4   55.99    4.90
   0  -2  -4 3017.80  151.98
   0  -2  -4 3097.69  153.18
   0  -2  -4 3292.67  150.38
   0  -2  -4 3193.98  152.88
   0   2   4 3350.06  152.68
   0   2   4 2749.02  153.48
   0   2   4 3148.28  152.58
  -1  -2  -4    7.10    2.90
  -1  -2  -4    3.20    2.40
   1   2   4   -0.10    2.20
   1   2   4    3.40    2.00
   1   2   4    4.40    2.10
   1   2   4    3.70    1.80
  -2  -2  -4  440.46   23.00
  -2  -2  -4  385.16   23.20
   2   2   4  396.36   23.00
   2   2   4  370.46   23.60
   2   2   4  411.16   22.00
  -3  -2  -4  224.58   14.90
  -3  -2  -4  209.38   13.90
   3   2   4  219.78   13.20
   3   2   4  234.28   15.00
   3   2   4  211.48   14.70
  -4  -2  -4  126.89    9.70
  -4  -2  -4  170.08   11.50
   4   2   4  116.89   10.80
   4   2   4  120.69   10.30
   4   2   4  124.09    9.00
  -5  -2  -4  296.77   18.90
   5   2   4  288.17   17.20
   5   2   4  301.17   19.00
   5   2   4  290.47   19.90
  -6  -2  -4   34.70    6.10
   6   2   4   45.70    7.40
   6   2   4   46.60    5.00
   9  -3  -4  171.08   10.00
   9  -3  -4  160.38   12.70
  -9   3   4  145.89   11.30
   8  -3  -4   25.70    5.00
   8  -3  -4   22.50    3.20
   8  -3  -4   21.30    4.20
  -8   3   4   16.20    4.00
   7  -3  -4  166.88   12.30
   7  -3  -4  165.58   10.20
   7  -3  -4  179.48   12.30
  -7   3   4  152.08   11.00
   6  -3  -4   53.59    6.80
   6  -3  -4   50.29    6.80
   6  -3  -4   71.99    5.40
  -6   3   4   61.39    5.70
   5  -3  -4  984.60   52.29
   5  -3  -4 1021.70   51.69
   5  -3  -4  984.40   50.29
  -5   3   4 1028.90   49.30
  -5   3   4  959.60   50.59
   4  -3  -4    7.20    3.00
   4  -3  -4   13.60    3.00
   4  -3  -4   11.10    2.40
   4  -3  -4   11.40    1.50
  -4   3   4   16.30    2.20
  -4   3   4    8.60    2.70
   3  -3  -4 1775.52   85.19
   3  -3  -4 1645.84   86.89
   3  -3  -4 1551.74   83.99
   3  -3  -4 1674.83   84.99
  -3   3   4 1827.82   85.59
  -3   3   4 1801.62   83.99
  -3   3   4 1747.33   85.39
   2  -3  -4  887.41   45.10
   2  -3  -4  866.41   45.70
   2  -3  -4  863.01   47.00
   2  -3  -4  897.01   46.00
  -2   3   4  889.71   46.20
  -2   3   4  977.10   46.40
  -2   3   4  906.71   45.00
   1  -3  -4 4539.35  216.58
   1  -3  -4 4546.35  217.98
   1  -3  -4 4336.87  218.18
   1  -3  -4 3848.42  218.38
  -1   3   4 4990.80  218.68
  -1   3   4 4542.95  219.18
  -1   3   4 4539.45  217.58
  -1   3   4 4547.15  216.58
   0  -3  -4   48.40    5.90
   0  -3  -4   37.60    5.10
   0  -3  -4   45.70    4.80
   0   3   4   59.49    7.50
   0   3   4   48.00    5.40
   0   3   4   42.30    5.20
   0   3   4   48.00    3.50
  -1  -3  -4 1793.32   92.29
  -1  -3  -4 1793.32   91.89
   1   3   4 1873.31   93.69
   1   3   4 1838.32   91.99
   1   3   4 1917.81   91.79
  -2  -3  -4  578.14   31.70
  -2  -3  -4  571.44   30.80
   2   3   4  597.54   30.80
   2   3   4  584.94   31.60
   2   3   4  497.95   32.10
  -3  -3  -4 1961.60  100.39
  -3  -3  -4 2046.10   99.29
   3   3   4 1961.90  101.19
   3   3   4 1958.90  100.89
   3   3   4 2027.90   99.19
  -4  -3  -4   14.20    4.30
   4   3   4   23.00    5.50
   4   3   4   18.20    3.80
   4   3   4   15.80    4.50
  -5  -3  -4  848.72   45.00
   5   3   4  848.92   43.10
   5   3   4  747.03   45.00
   5   3   4  849.32   45.90
   9  -4  -4  523.25   30.70
   9  -4  -4  542.15   28.10
   9  -4  -4  521.15   28.00
   9  -4  -4  506.45   30.00
  -9   4   4  520.95   29.30
   8  -4  -4  136.09    9.20
   8  -4  -4  147.59   11.50
   8  -4  -4  119.69   10.70
  -8   4   4  129.59   10.10
   7  -4  -4 1168.48   59.59
   7  -4  -4 1156.48   57.59
   7  -4  -4 1119.79   59.99
  -7   4   4 1108.29   58.19
   6  -4  -4   11.80    3.40
   6  -4  -4   11.90    3.70
   6  -4  -4   15.30    3.20
  -6   4   4   19.40    3.70
   5  -4  -4 1192.08   60.09
   5  -4  -4 1115.79   58.99
   5  -4  -4 1116.69   58.09
  -5   4   4 1174.08   58.49
   4  -4  -4   30.10    5.20
   4  -4  -4   27.50    4.00
   4  -4  -4   28.40    4.20
   4  -4  -4   29.40    3.00
  -4   4   4   41.00    5.20
   3  -4  -4 1411.26   78.89
   3  -4  -4 1661.93   79.99
   3  -4  -4 1552.14   79.19
   3  -4  -4 1797.22   81.69
  -3   4   4 1599.14   80.09
  -3   4   4 1590.94   78.19
   2  -4  -4    3.90    2.70
   2  -4  -4    7.30    2.00
   2  -4  -4    2.20    2.00
   2  -4  -4    6.20    2.60
  -2   4   4    3.80    1.80
  -2   4   4    5.90    1.80
  -2   4   4    5.20    2.90
  -2   4   4    3.10    2.10
   1  -4  -4 1448.56   69.59
   1  -4  -4 1366.96   68.59
   1  -4  -4 1292.77   68.99
  -1   4   4 1356.36   67.19
  -1   4   4 1390.56   67.89
  -1   4   4 1474.95   69.39
  -1   4   4 1184.28   69.49
   0  -4  -4   29.90    5.30
   0  -4  -4   31.40    5.00
   0   4   4   36.30    5.00
   0   4   4   32.00    5.80
   0   4   4   27.70    4.20
  -1  -4  -4  714.03   35.40
  -1  -4  -4  596.64   35.60
   1   4   4  653.73   35.30
   1   4   4  685.43   35.60
   1   4   4  620.24   36.40
  -2  -4  -4  264.17   15.50
  -2  -4  -4  242.88   16.60
   2   4   4  246.48   15.70
   2   4   4  238.18   16.20
   2   4   4  225.38   17.00
  -3  -4  -4  126.39   11.00
   3   4   4  126.79   11.20
   3   4   4  150.08   10.80
   3   4   4  117.69   11.40
  -4  -4  -4  342.87   21.50
   4   4   4  338.17   21.60
   4   4   4  323.97   19.90
   4   4   4  311.57   21.80
  -5  -4  -4   27.20    5.90
   5   4   4   28.20    5.90
   5   4   4   24.30    6.20
   5   4   4   28.30    4.60
   9  -5  -4   99.79    7.90
   9  -5  -4   97.69    9.60
   9  -5  -4   98.89    7.90
   9  -5  -4   87.69    9.40
  -9   5   4   99.99    9.50
  -9   5   4   85.29    8.40
   8  -5  -4  116.19    9.00
   8  -5  -4  117.79   10.80
   8  -5  -4  116.29   10.60
  -8   5   4  126.89    9.90
  -8   5   4  115.89   10.40
   7  -5  -4    6.00    2.50
   7  -5  -4   22.50    5.40
   7  -5  -4    3.50    2.90
  -7   5   4    3.70    2.80
   6  -5  -4  353.26   19.20
   6  -5  -4  317.87   19.80
   6  -5  -4  297.97   20.40
  -6   5   4  308.37   19.10
   5  -5  -4   51.89    6.30
   5  -5  -4   35.10    5.60
   5  -5  -4   36.70    5.00
  -5   5   4   33.60    5.20
   4  -5  -4 1351.06   73.69
   4  -5  -4 1565.54   75.19
   4  -5  -4 1613.84   76.59
   4  -5  -4 1521.95   75.39
  -4   5   4 1409.96   75.19
  -4   5   4 1495.35   75.19
   3  -5  -4  193.18   12.60
   3  -5  -4  173.68   12.00
   3  -5  -4  189.68   13.10
  -3   5   4  177.18   11.90
  -3   5   4  185.98   12.80
   2  -5  -4 1988.80   96.99
   2  -5  -4 1912.31   97.89
   2  -5  -4 1857.11   96.99
  -2   5   4 1935.11   96.09
  -2   5   4 2035.30   95.79
  -2   5   4 1882.91   98.09
  -2   5   4 1997.20   97.99
   1  -5  -4   62.39    7.50
   1  -5  -4   64.29    7.60
  -1   5   4   60.89    5.80
  -1   5   4   75.79    7.50
  -1   5   4   60.59    8.20
   0  -5  -4 1878.31   90.59
   0  -5  -4 1788.82   91.49
   0   5   4 1923.81   91.49
   0   5   4 1780.92   90.19
   0   5   4 1633.14   91.29
  -1  -5  -4   49.90    7.30
  -1  -5  -4   67.79    6.60
   1   5   4   70.79    8.50
   1   5   4   60.99    7.60
   1   5   4   50.79    7.20
  -2  -5  -4  969.60   52.39
   2   5   4  964.80   51.69
   2   5   4  971.80   52.79
   2   5   4  983.40   52.09
  -3  -5  -4  227.68   16.70
   3   5   4  229.78   15.40
   3   5   4  217.88   16.70
   3   5   4  219.98   15.90
  -4  -5  -4 1136.99   57.79
   4   5   4 1100.49   57.09
   4   5   4 1052.99   55.29
   4   5   4  966.40   57.49
   8  -6  -4  420.06   27.80
   8  -6  -4  473.25   26.30
   8  -6  -4  498.75   26.60
   8  -6  -4  453.85   27.80
  -8   6   4  453.05   27.30
  -8   6   4  453.45   26.70
   7  -6  -4  115.69   10.90
   7  -6  -4  125.39    9.70
   7  -6  -4  126.89   10.60
  -7   6   4  114.29   10.10
  -7   6   4  115.19   10.00
   6  -6  -4  950.50   50.09
   6  -6  -4  937.91   49.40
   6  -6  -4  958.00   48.80
  -6   6   4  945.91   49.30
  -6   6   4  842.02   48.40
   5  -6  -4   53.59    7.10
   5  -6  -4   58.69    6.90
   5  -6  -4   52.99    6.70
  -5   6   4   47.10    6.40
  -5   6   4   55.59    6.80
   4  -6  -4  361.86   21.50
   4  -6  -4  317.87   20.10
   4  -6  -4  365.26   21.70
  -4   6   4  364.26   21.60
  -4   6   4  379.46   21.20
   3  -6  -4  180.38   13.20
   3  -6  -4  204.18   13.10
   3  -6  -4  189.78   13.30
  -3   6   4  181.68   13.70
  -3   6   4  194.38   12.70
   2  -6  -4 1688.23   78.49
   2  -6  -4 1398.06   78.09
  -2   6   4 1502.25   79.79
  -2   6   4 1590.34   77.79
   1  -6  -4  103.09    9.30
   1  -6  -4  100.69    9.00
  -1   6   4  106.09    8.50
  -1   6   4   82.49    9.90
  -1   6   4  122.99   10.60
   0  -6  -4  245.48   16.20
   0  -6  -4  242.78   17.10
   0   6   4  244.28   17.30
   0   6   4  246.98   16.10
   0   6   4  269.97   17.40
  -1  -6  -4   16.00    5.30
   1   6   4   15.80    4.40
   1   6   4    8.80    4.00
   1   6   4    7.90    3.60
  -2  -6  -4  150.88   13.60
   2   6   4  167.78   12.80
   2   6   4  154.78   13.20
   2   6   4  169.28   12.80
  -3  -6  -4  433.16   27.90
   3   6   4  455.35   26.10
   3   6   4  430.66   27.30
   3   6   4  452.05   26.80
   8  -7  -4   50.99    6.70
   8  -7  -4   59.39    7.30
   8  -7  -4   58.59    8.80
  -8   7   4   57.99    7.50
  -8   7   4   53.09    7.80
   7  -7  -4  177.88   14.10
   7  -7  -4  207.08   13.80
   7  -7  -4  186.48   13.50
  -7   7   4  179.48   13.10
  -7   7   4  165.28   13.30
   6  -7  -4    5.70    3.20
   6  -7  -4    0.70    2.80
   6  -7  -4    0.90    2.70
  -6   7   4    2.00    3.00
  -6   7   4    0.90    2.90
   5  -7  -4  857.71   42.70
   5  -7  -4  777.32   42.60
   5  -7  -4  772.72   42.70
  -5   7   4  744.23   42.00
  -5   7   4  749.42   42.10
   4  -7  -4   34.20    5.90
   4  -7  -4   14.70    3.80
   4  -7  -4   22.90    4.60
   4  -7  -4   30.80    5.80
  -4   7   4   26.10    5.40
  -4   7   4   29.60    5.40
   3  -7  -4  842.82   45.80
   3  -7  -4  881.01   45.80
  -3   7   4  867.21   46.00
  -3   7   4  875.21   47.50
   2  -7  -4   55.99    6.90
   2  -7  -4   68.89    7.60
  -2   7   4   55.39    8.20
   1  -7  -4 1128.09   56.69
   1  -7  -4 1136.39   57.19
  -1   7   4 1009.20   57.89
   0  -7  -4   53.79    7.70
   0   7   4   49.20    7.80
   0   7   4   38.60    6.20
   0   7   4   44.80    6.90
  -1  -7  -4  632.34   35.50
   1   7   4  587.64   33.90
   1   7   4  570.94   34.50
   1   7   4  652.23   35.20
  -2  -7  -4   37.00    7.20
   2   7   4   32.30    6.00
   2   7   4   30.10    6.00
   2   7   4   31.00    5.70
   7  -8  -4  297.17   19.30
   7  -8  -4  258.27   17.90
  -7   8   4  274.77   18.40
  -7   8   4  279.77   18.80
   6  -8  -4   -0.40    2.70
   6  -8  -4    1.60    3.00
   6  -8  -4   -0.30    2.80
  -6   8   4    2.60    3.50
  -6   8   4    1.50    2.70
   5  -8  -4  410.16   25.90
   5  -8  -4  451.95   25.50
   5  -8  -4  419.36   26.00
  -5   8   4  428.26   26.00
  -5   8   4  416.36   25.60
   4  -8  -4    3.10    2.80
  -4   8   4    1.60    3.10
  -4   8   4    1.40    3.60
   3  -8  -4  430.26   24.60
   3  -8  -4  424.66   24.80
  -3   8   4  414.76   26.50
   2  -8  -4   20.30    4.50
   2  -8  -4   21.40    4.70
  -2   8   4   21.00    5.10
   1  -8  -4  431.46   25.00
  -1   8   4  400.06   25.50
   0  -8  -4  160.18   12.60
   0   8   4  148.89   12.40
  -1  -8  -4    7.00    3.90
   1   8   4   12.50    4.50
   5  -9  -4   36.10    6.00
  -5   9   4   48.10    7.80
   4  -9  -4  310.97   19.50
  -4   9   4  316.87   22.00
   3  -9  -4    2.50    2.80
   3  -9  -4    8.60    3.50
  -3   9   4    1.30    3.30
   2  -9  -4  708.33   38.20
  -2   9   4  677.63   39.20
   1  -9  -4   21.70    5.00
  -1   9   4   22.50    5.70
   1  10  -5    2.50    3.40
  -1 -10   5    3.10    3.70
   0  10  -5  539.75   31.60
   0 -10   5  495.95   30.20
  -1  10  -5  124.69   11.90
   1 -10   5  125.29   11.30
  -2  10  -5  752.92   42.30
   2 -10   5  748.63   42.30
  -3  10  -5   27.80    6.40
   3 -10   5   18.70    5.20
   3 -10   5   21.10    5.60
  -4  10  -5  477.65   30.20
   4 -10   5  474.45   29.50
   4 -10   5  527.15   29.50
   4 -10   5  491.05   29.30
   3   9  -5   30.90    6.20
  -3  -9   5   36.40    6.30
  -3  -9   5   24.30    5.10
   2   9  -5  253.77   17.30
   2   9  -5  271.37   18.60
  -2  -9   5  258.37   17.50
   1   9  -5   25.70    4.90
   1   9  -5   33.60    6.90
  -1  -9   5   36.90    6.20
   0   9  -5   28.20    6.70
   0  -9   5   14.50    5.00
  -1   9  -5  257.27   18.50
   1  -9   5  262.87   18.00
  -2   9  -5   61.19    8.90
   2  -9   5   68.19    8.60
   2  -9   5   51.89    7.70
  -3   9  -5  207.48   16.50
   3  -9   5  202.68   15.20
   3  -9   5  251.77   16.10
   3  -9   5  218.58   15.80
  -4   9  -5   -2.70    3.50
   4  -9   5   -0.70    2.40
   4  -9   5   -1.80    3.40
   4  -9   5   -1.60    2.80
  -5   9  -5  246.38   18.30
   5  -9   5  247.68   17.40
   5  -9   5  227.78   16.20
   5  -9   5  222.68   15.80
   4   8  -5   17.60    4.80
   4   8  -5   10.40    4.30
  -4  -8   5   17.30    4.40
  -4  -8   5   21.90    5.10
   3   8  -5 1028.90   55.39
   3   8  -5 1083.49   56.59
   3   8  -5 1027.80   55.49
  -3  -8   5 1016.10   54.29
  -3  -8   5 1049.59   54.49
   2   8  -5  160.58   13.50
   2   8  -5  134.89   11.30
  -2  -8   5  143.79   11.10
  -2  -8   5  150.68   11.70
   1   8  -5  651.73   35.10
   1   8  -5  562.24   31.80
  -1  -8   5  559.14   31.20
  -1  -8   5  537.05   32.20
   0   8  -5    6.50    3.90
   0   8  -5    7.40    3.10
   0  -8   5   13.60    4.20
  -1   8  -5 2050.59  105.89
  -1   8  -5 2260.77  108.69
   1  -8   5 2136.29  107.19
   1  -8   5 2053.79  106.99
  -2   8  -5  402.46   25.10
   2  -8   5  411.36   23.80
   2  -8   5  381.46   23.80
   2  -8   5  371.26   22.90
  -3   8  -5  586.44   36.00
   3  -8   5  602.44   34.50
   3  -8   5  606.04   34.70
   3  -8   5  680.03   34.80
  -4   8  -5    3.00    3.90
   4  -8   5    3.40    2.90
   4  -8   5    2.20    3.40
   4  -8   5   10.40    3.70
  -5   8  -5  609.34   38.20
   5  -8   5  674.83   38.00
   5  -8   5  666.93   35.50
   5  -8   5  669.13   36.30
  -6   8  -5    1.00    3.00
  -6   8  -5   -1.60    3.70
   6  -8   5    0.90    4.10
   6  -8   5    1.10    2.80
   6  -8   5    5.00    2.40
   5   7  -5  344.77   22.50
   5   7  -5  356.46   21.80
  -5  -7   5  363.16   22.10
  -5  -7   5  347.27   21.10
   4   7  -5   20.40    5.20
   4   7  -5   15.40    5.10
   4   7  -5   21.00    5.00
  -4  -7   5   38.50    5.70
  -4  -7   5   29.00    5.80
   3   7  -5  470.25   27.00
   3   7  -5  444.86   28.20
   3   7  -5  468.05   27.10
  -3  -7   5  471.85   26.40
  -3  -7   5  426.56   26.20
   2   7  -5  171.58   12.80
   2   7  -5  148.49   11.70
   2   7  -5  168.78   14.50
  -2  -7   5  162.08   12.20
  -2  -7   5  157.88   11.90
   1   7  -5   30.40    6.60
   1   7  -5   25.90    4.60
  -1  -7   5   32.30    5.70
  -1  -7   5   26.30    4.60
   0   7  -5  278.37   17.40
   0   7  -5  303.27   20.90
   0  -7   5  275.27   17.40
   0  -7   5  350.36   19.30
   0  -7   5  281.27   22.10
  -1   7  -5  147.49   12.40
  -1   7  -5  137.59   10.50
   1  -7   5  136.39   11.00
   1  -7   5  134.59   10.00
   1  -7   5  145.09   10.90
  -2   7  -5  509.45   31.10
   2  -7   5  518.25   29.00
   2  -7   5  517.25   29.40
   2  -7   5  537.75   29.40
  -3   7  -5    8.90    4.40
   3  -7   5    5.30    2.70
   3  -7   5    7.00    3.50
   3  -7   5    2.70    2.60
  -4   7  -5  459.45   29.40
   4  -7   5  495.55   26.60
   4  -7   5  500.35   27.10
   4  -7   5  439.86   27.80
  -5   7  -5    2.40    3.80
  -5   7  -5    1.90    3.50
   5  -7   5    0.30    2.50
   5  -7   5   -0.10    1.90
   5  -7   5   -1.90    2.70
  -6   7  -5  512.95   30.70
  -6   7  -5  534.45   32.90
   6  -7   5  525.45   28.00
   6  -7   5  510.55   29.80
   6  -7   5  549.25   31.70
   6   6  -5  492.15   27.90
   6   6  -5  462.15   28.90
  -6  -6   5  529.95   29.50
   5   6  -5  138.29   10.80
   5   6  -5  128.59   12.00
   5   6  -5  132.59   11.30
  -5  -6   5  143.99   11.90
  -5  -6   5  141.79   10.80
   4   6  -5 1116.89   58.89
   4   6  -5 1174.98   58.69
   4   6  -5 1116.49   60.29
  -4  -6   5 1146.29   58.29
  -4  -6   5 1063.99   58.79
   3   6  -5    6.60    3.20
   3   6  -5    4.40    3.50
   3   6  -5   13.40    3.70
  -3  -6   5    7.90    3.70
  -3  -6   5   10.50    3.70
   2   6  -5 1629.04   78.79
   2   6  -5 1444.56   81.69
   2   6  -5 1627.04   79.39
  -2  -6   5 1465.45   78.69
  -2  -6   5 1605.54   79.19
   1   6  -5  473.55   29.10
   1   6  -5  448.86   25.70
   1   6  -5  447.26   24.80
  -1  -6   5  433.36   25.10
  -1  -6   5  451.55   25.70
   0   6  -5 2420.66  113.09
   0   6  -5 2221.68  113.19
   0   6  -5 2357.46  117.19
   0  -6   5 2221.58  114.09
   0  -6   5 2368.36  113.29
   0  -6   5 2210.38  112.79
   0  -6   5 2279.87  114.09
  -1   6  -5  136.19   12.20
  -1   6  -5  116.99    9.60
   1  -6   5  133.09    9.60
   1  -6   5  139.29    9.20
   1  -6   5  123.09    9.70
   1  -6   5  134.89    9.90
  -2   6  -5 2503.85  122.49
  -2   6  -5 2430.96  120.19
   2  -6   5 2349.46  119.19
   2  -6   5 2420.46  119.99
   2  -6   5 2324.77  118.29
   2  -6   5 2457.55  119.49
  -3   6  -5  270.97   18.50
  -3   6  -5  238.88   16.60
   3  -6   5  255.47   15.80
   3  -6   5  270.07   15.70
   3  -6   5  246.28   16.70
  -4   6  -5  591.64   34.90
  -4   6  -5  580.14   33.10
   4  -6   5  618.54   32.10
   4  -6   5  571.84   31.00
   4  -6   5  563.24   32.90
  -5   6  -5   48.30    8.40
  -5   6  -5   33.30    5.90
   5  -6   5   39.60    6.40
   5  -6   5   41.80    4.70
   5  -6   5   41.70    5.80
  -6   6  -5  575.54   35.70
  -6   6  -5  612.74   33.70
   6  -6   5  579.64   32.70
   6  -6   5  568.14   30.30
   6  -6   5  608.94   34.00
  -7   6  -5   42.30    6.60
  -7   6  -5   39.40    8.50
   7  -6   5   39.70    7.00
   7  -6   5   44.70    4.00
   7  -6   5   46.30    6.50
   7   5  -5   36.00    6.10
   7   5  -5   33.30    4.90
  -7  -5   5   35.80    6.60
   6   5  -5  219.08   16.10
   6   5  -5  223.68   15.40
   6   5  -5  213.58   14.10
  -6  -5   5  234.18   16.40
   5   5  -5    9.80    3.70
   5   5  -5   22.40    4.00
   5   5  -5   11.40    3.80
  -5  -5   5   17.60    4.00
  -5  -5   5   11.90    4.60
   4   5  -5  954.90   50.39
   4   5  -5  990.70   48.30
   4   5  -5  907.81   48.30
  -4  -5   5  936.91   48.10
  -4  -5   5  804.82   48.70
   3   5  -5   27.70    6.20
   3   5  -5   38.40    5.40
   3   5  -5   47.00    5.90
  -3  -5   5   30.10    5.10
  -3  -5   5   28.90    5.20
   2   5  -5   53.69    8.60
   2   5  -5   50.79    6.10
   2   5  -5   46.80    5.60
  -2  -5   5   44.50    5.80
  -2  -5   5   39.30    5.60
   1   5  -5  693.23   43.00
   1   5  -5  757.52   40.00
   1   5  -5  788.32   39.40
   1   5  -5  801.52   39.40
  -1  -5   5  760.02   39.80
  -1  -5   5  776.92   39.90
  -1  -5   5  740.93   40.00
   0   5  -5  206.98   13.40
   0   5  -5  229.28   12.70
   0   5  -5  228.18   13.70
   0   5  -5  194.48   16.00
   0  -5   5  232.48   13.80
   0  -5   5  232.38   13.60
   0  -5   5  217.28   13.90
  -1   5  -5  640.44   35.50
  -1   5  -5  638.84   38.00
  -1   5  -5  714.73   33.70
   1  -5   5  666.23   35.00
   1  -5   5  667.93   35.30
   1  -5   5  639.94   34.60
   1  -5   5  695.33   35.50
  -2   5  -5    3.10    3.70
  -2   5  -5    4.30    2.70
   2  -5   5    0.40    1.80
   2  -5   5    1.70    1.60
   2  -5   5    4.00    2.30
   2  -5   5    3.50    2.00
  -3   5  -5  710.83   39.20
  -3   5  -5  733.83   41.20
   3  -5   5  729.73   37.60
   3  -5   5  767.82   38.40
   3  -5   5  686.13   37.80
   3  -5   5  730.33   39.10
  -4   5  -5    7.40    3.10
  -4   5  -5    8.10    4.50
   4  -5   5   12.00    3.10
   4  -5   5   11.30    2.50
   4  -5   5   14.10    4.00
  -5   5  -5 1283.67   67.79
  -5   5  -5 1205.58   64.89
   5  -5   5 1274.27   65.39
   5  -5   5 1258.57   64.49
   5  -5   5 1266.37   62.49
  -6   5  -5  117.79   10.00
  -6   5  -5  101.59   12.50
   6  -5   5  110.29    7.20
   6  -5   5  103.79    9.80
   6  -5   5  111.19    9.40
  -7   5  -5  499.65   28.30
   7  -5   5  467.25   24.60
   7  -5   5  499.15   28.10
   7   4  -5  721.33   39.50
   7   4  -5  788.52   42.70
   7   4  -5  771.42   41.60
  -7  -4   5  779.22   42.50
   6   4  -5  146.29    9.90
   6   4  -5  141.79   11.70
   6   4  -5  135.79   10.70
  -6  -4   5  143.59   11.90
   5   4  -5 1240.98   60.89
   5   4  -5 1204.98   62.99
   5   4  -5 1162.18   61.59
  -5  -4   5 1154.58   62.69
  -5  -4   5 1228.98   61.19
   4   4  -5   48.80    5.40
   4   4  -5   35.20    4.90
   4   4  -5   48.70    6.90
  -4  -4   5   38.20    5.20
  -4  -4   5   37.10    5.90
   3   4  -5 1833.92   95.59
   3   4  -5 1896.01   93.09
   3   4  -5 1930.71   93.19
  -3  -4   5 1944.81   93.29
  -3  -4   5 1754.52   93.79
   2   4  -5  360.36   23.30
   2   4  -5  345.67   20.10
   2   4  -5  351.06   20.30
  -2  -4   5  409.16   20.70
  -2  -4   5  359.06   20.90
  -2  -4   5  355.46   20.60
   1   4  -5 4749.12  221.78
   1   4  -5 4441.96  222.28
   1   4  -5 4632.34  226.08
   1   4  -5 4614.14  222.38
  -1  -4   5 4682.63  222.18
  -1  -4   5 4399.16  222.28
  -1  -4   5 4521.35  222.68
   0   4  -5  420.86   22.70
   0   4  -5  418.16   21.50
   0   4  -5  414.66   23.20
   0  -4   5  404.86   23.10
   0  -4   5  428.76   22.70
   0  -4   5  426.16   22.80
  -1   4  -5 2573.64  143.29
  -1   4  -5 2995.60  138.49
  -1   4  -5 2910.81  140.99
  -1   4  -5 2840.82  141.39
   1  -4   5 2872.91  140.79
   1  -4   5 2863.91  140.59
   1  -4   5 3040.80  140.79
  -2   4  -5  266.07   19.10
  -2   4  -5  275.57   17.30
   2  -4   5  284.37   17.20
   2  -4   5  310.97   16.60
   2  -4   5  290.47   16.40
   2  -4   5  277.77   16.20
  -3   4  -5 1567.34   81.29
  -3   4  -5 1620.24   83.49
   3  -4   5 1678.43   79.69
   3  -4   5 1648.34   80.59
   3  -4   5 1645.74   81.39
   3  -4   5 1496.05   80.39
  -4   4  -5    9.90    4.40
  -4   4  -5   11.40    3.40
   4  -4   5    9.10    3.10
   4  -4   5   11.30    3.50
   4  -4   5   13.50    3.10
   4  -4   5    7.80    2.00
  -5   4  -5  569.04   34.00
  -5   4  -5  522.05   31.10
   5  -4   5  561.14   30.90
   5  -4   5  581.64   28.80
  -6   4  -5   -0.90    4.20
  -6   4  -5    1.90    2.70
   6  -4   5    4.80    3.00
   6  -4   5    3.40    1.30
  -7   4  -5  444.66   26.00
   7  -4   5  451.95   25.80
   7  -4   5  434.36   22.10
   8   3  -5   14.80    4.20
   8   3  -5   17.70    3.30
   8   3  -5   26.50    5.60
  -8  -3   5   16.80    5.20
   7   3  -5  499.95   29.60
   7   3  -5  554.64   28.30
   7   3  -5  513.35   30.70
  -7  -3   5  538.25   30.90
   6   3  -5   85.19    8.40
   6   3  -5   84.49    6.70
   6   3  -5   80.39    7.70
  -6  -3   5   99.89    9.50
   5   3  -5  487.65   26.50
   5   3  -5  473.55   25.50
   5   3  -5  453.25   27.50
  -5  -3   5  481.45   27.70
   4   3  -5  392.76   22.80
   4   3  -5  426.36   23.40
   4   3  -5  405.56   24.70
  -4  -3   5  428.06   24.50
  -4  -3   5  449.56   23.20
   3   3  -5  621.94   28.00
   3   3  -5  496.75   28.50
   3   3  -5  524.65   28.70
  -3  -3   5  543.65   28.50
  -3  -3   5  515.15   29.50
   2   3  -5  139.19   10.70
   2   3  -5  120.49    7.70
   2   3  -5  111.59    8.10
   2   3  -5  103.99    7.90
  -2  -3   5  122.49    7.70
  -2  -3   5  136.19    8.70
  -2  -3   5  119.59    8.50
   1   3  -5    8.80    2.20
   1   3  -5   27.10    5.30
   1   3  -5    7.60    1.60
  -1  -3   5    8.30    2.50
  -1  -3   5    9.80    2.50
  -1  -3   5    8.70    2.00
   0   3  -5 2526.45  124.79
   0   3  -5 2587.44  122.29
   0   3  -5 2427.16  126.59
   0   3  -5 2590.04  123.89
   0  -3   5 2611.74  123.79
   0  -3   5 2570.04  124.39
   0  -3   5 2423.56  123.99
  -1   3  -5  456.75   22.60
  -1   3  -5  380.26   24.80
  -1   3  -5  408.36   23.70
   1  -3   5  485.05   23.20
   1  -3   5  392.56   22.90
   1  -3   5  421.46   22.70
  -2   3  -5  569.74   30.70
  -2   3  -5  486.45   31.50
   2  -3   5  596.54   29.30
   2  -3   5  557.84   29.70
   2  -3   5  581.74   29.70
  -3   3  -5   22.80    5.30
  -3   3  -5   21.80    4.20
   3  -3   5   32.10    3.50
   3  -3   5   20.70    3.80
   3  -3   5   24.00    3.90
  -4   3  -5 2156.08  107.39
  -4   3  -5 2159.58  105.39
   4  -3   5 2007.80  102.79
   4  -3   5 2135.69  105.49
   4  -3   5 2095.99  104.89
  -5   3  -5  101.49   11.80
  -5   3  -5   94.39    8.70
   5  -3   5  103.89    9.80
   5  -3   5   97.99    8.20
   5  -3   5   95.89    6.30
  -6   3  -5  644.94   35.80
   6  -3   5  648.74   32.60
   6  -3   5  651.33   38.20
   6  -3   5  666.43   35.70
  -7   3  -5   78.89    8.80
   7  -3   5   70.79    8.20
   8   2  -5  427.96   22.90
   8   2  -5  437.36   25.90
   8   2  -5  410.86   24.70
  -8  -2   5  421.26   25.70
   7   2  -5  182.08   11.40
   7   2  -5  187.68   12.90
   7   2  -5  175.78   13.60
  -7  -2   5  196.68   14.10
   6   2  -5 1441.86   73.69
   6   2  -5 1429.16   74.89
   6   2  -5 1494.05   72.59
  -6  -2   5 1469.85   74.79
   5   2  -5    6.80    2.10
   5   2  -5    6.80    3.00
   5   2  -5    5.30    2.30
  -5  -2   5    8.80    3.50
   4   2  -5 2192.38  114.49
   4   2  -5 2325.37  117.59
   4   2  -5 2359.66  115.49
   4   2  -5 2476.45  115.99
  -4  -2   5 2289.87  116.59
  -4  -2   5 2499.45  115.09
   3   2  -5  521.45   28.80
   3   2  -5  509.25   30.40
   3   2  -5  545.95   29.00
   3   2  -5  553.94   28.80
  -3  -2   5  575.24   28.00
  -3  -2   5  567.24   29.30
  -3  -2   5  578.04   29.60
   2   2  -5 4062.29  191.38
   2   2  -5 3938.41  193.88
   2   2  -5 3818.12  192.28
   2   2  -5 3844.42  191.98
  -2  -2   5 3928.51  192.38
  -2  -2   5 4009.40  192.28
  -2  -2   5 4079.19  191.08
   1   2  -5  634.24   32.40
   1   2  -5  663.93   34.70
   1   2  -5  650.93   33.50
   1   2  -5  675.93   35.50
  -1  -2   5  622.94   33.60
  -1  -2   5  684.93   32.90
  -1  -2   5  615.24   32.40
  -1  -2   5  656.23   33.90
   0   2  -5 5768.42  265.67
   0   2  -5 5580.04  267.77
   0   2  -5 5601.84  267.07
   0  -2   5 5366.66  266.07
   0  -2   5 5232.78  265.87
   0  -2   5 5346.96  265.47
   0  -2   5 5574.94  264.17
  -1   2  -5  548.05   31.00
  -1   2  -5  618.14   29.70
  -1   2  -5  561.44   31.40
   1  -2   5  608.94   30.00
   1  -2   5  596.44   30.40
   1  -2   5  578.94   29.90
   1  -2   5  514.65   29.80
  -2   2  -5 1251.17   64.89
  -2   2  -5 1310.47   65.59
   2  -2   5 1153.58   63.89
   2  -2   5 1260.87   63.99
   2  -2   5 1347.47   63.29
   2  -2   5 1316.17   63.49
  -3   2  -5    4.30    3.10
  -3   2  -5    5.40    2.70
   3  -2   5    5.00    2.20
   3  -2   5    8.70    1.90
   3  -2   5    4.60    2.30
  -4   2  -5 1850.11   92.59
  -4   2  -5 1915.71   93.89
   4  -2   5 1865.71   92.19
   4  -2   5 1815.92   89.99
   4  -2   5 1764.62   92.79
  -5   2  -5   -0.20    2.70
   5  -2   5    0.10    2.00
   5  -2   5   -1.40    2.60
  -6   2  -5  234.58   15.60
   6  -2   5  253.47   18.10
   6  -2   5  230.38   15.00
   6  -2   5  221.58   12.40
  -7   2  -5    1.20    2.60
  -7   2  -5    0.20    3.30
   7  -2   5   -3.10    4.50
   7  -2   5    3.70    2.60
   9   1  -5    3.00    3.40
   9   1  -5    4.80    3.10
   9   1  -5    0.50    1.30
  -9  -1   5    3.70    3.30
  -9  -1   5    1.90    2.90
   8   1  -5  387.36   22.80
   8   1  -5  377.26   21.10
   8   1  -5  353.86   23.40
  -8  -1   5  386.76   23.00
  -8  -1   5  451.45   24.00
   7   1  -5   27.30    4.60
  -7  -1   5   17.80    4.50
   6   1  -5  630.54   33.50
   6   1  -5  616.64   34.70
   6   1  -5  644.74   32.50
  -6  -1   5  607.74   33.90
   5   1  -5   10.40    2.20
   5   1  -5   10.90    2.60
   5   1  -5   16.30    3.80
   5   1  -5   11.90    2.40
  -5  -1   5   12.10    3.30
   4   1  -5  264.87   15.50
   4   1  -5  280.67   15.90
   4   1  -5  244.48   15.10
   4   1  -5  272.07   17.00
  -4  -1   5  265.57   16.00
  -4  -1   5  296.07   14.00
   3   1  -5 1146.29   60.79
   3   1  -5 1139.39   58.89
   3   1  -5 1201.28   60.29
   3   1  -5 1141.99   59.19
  -3  -1   5 1195.38   59.19
  -3  -1   5 1143.39   59.49
  -3  -1   5 1243.58   59.99
  -3  -1   5 1294.77   57.79
   2   1  -5  331.47   19.90
   2   1  -5  342.47   18.30
   2   1  -5  346.87   18.90
   2   1  -5  344.07   19.70
  -2  -1   5  348.07   19.40
  -2  -1   5  360.36   19.10
  -2  -1   5  345.87   18.30
  -2  -1   5  376.86   17.80
   1   1  -5 1272.57   61.69
   1   1  -5 1231.08   62.99
   1   1  -5 1250.87   62.59
  -1  -1   5 1277.07   60.99
  -1  -1   5 1246.98   60.69
  -1  -1   5 1270.17   61.89
  -1  -1   5 1140.29   61.89
   0   1  -5  130.39    8.70
   0   1  -5   94.89    7.30
   0   1  -5   98.29    6.60
   0  -1   5   88.99    6.80
   0  -1   5  111.39    7.40
   0  -1   5   89.59    5.90
   0  -1   5  100.79    6.60
  -1   1  -5 1673.53   75.49
  -1   1  -5 1569.64   77.39
  -1   1  -5 1514.15   76.19
   1  -1   5 1463.65   74.69
   1  -1   5 1473.75   75.69
   1  -1   5 1547.45   76.29
   1  -1   5 1535.85   76.09
   1  -1   5 1481.95   75.59
  -2   1  -5    1.50    2.20
  -2   1  -5    4.00    2.20
   2  -1   5    1.80    1.30
   2  -1   5    3.50    2.20
   2  -1   5    0.80    1.80
   2  -1   5    5.40    1.80
   2  -1   5    6.10    1.30
  -3   1  -5 1764.72   83.89
  -3   1  -5 1609.04   84.09
   3  -1   5 1813.42   82.49
   3  -1   5 1556.54   83.79
   3  -1   5 1661.53   83.69
   3  -1   5 1611.64   81.89
  -4   1  -5  197.18   13.70
   4  -1   5  193.58   11.50
   4  -1   5  198.18   13.30
   4  -1   5  227.18   14.60
  -5   1  -5 1468.55   73.29
   5  -1   5 1484.15   73.09
   5  -1   5 1484.65   74.99
   5  -1   5 1322.77   70.39
  -6   1  -5   87.19    8.20
  -6   1  -5   94.69    8.60
   6  -1   5   74.99   10.50
   6  -1   5   77.39    5.30
   6  -1   5   73.09    7.40
  -7   1  -5  504.65   28.70
   7  -1   5  516.95   31.10
   7  -1   5  458.45   28.00
   9   0  -5  752.62   42.90
   9   0  -5  777.22   39.30
  -9   0   5  791.62   42.20
  -9   0   5  825.72   42.30
   8   0  -5   27.90    5.40
   8   0  -5   25.00    4.50
   8   0  -5   25.50    3.40
  -8   0   5   21.80    4.30
  -8   0   5   28.10    5.00
   7   0  -5  524.05   27.60
   7   0  -5  536.65   30.00
   7   0  -5  500.65   28.60
  -7   0   5  503.35   28.70
  -7   0   5  553.54   29.00
   6   0  -5   77.99    7.70
   6   0  -5   71.39    5.90
   6   0  -5   68.59    6.20
   6   0  -5   76.39    6.00
  -6   0   5   67.59    6.40
  -6   0   5   74.69    6.80
   5   0  -5 2844.52  139.59
   5   0  -5 2609.14  137.79
   5   0  -5 2981.10  137.99
   5   0  -5 2971.60  138.39
  -5   0   5 2756.22  137.99
  -5   0   5 2755.32  138.09
   4   0  -5  168.38   11.00
   4   0  -5  179.28   11.10
   4   0  -5  205.88   13.20
   4   0  -5  187.78   11.30
   4   0  -5  189.08   12.40
  -4   0   5  185.98   11.30
  -4   0   5  194.18   11.50
   3   0  -5 2033.50  104.39
   3   0  -5 2185.78  105.49
   3   0  -5 2143.59  105.79
  -3   0   5 2188.58  104.29
  -3   0   5 2172.18  104.69
  -3   0   5 2036.80  103.89
   2   0  -5 1215.58   61.49
   2   0  -5 1235.38   60.99
   2   0  -5 1233.28   61.89
  -2   0   5 1186.68   59.59
  -2   0   5 1202.68   61.09
  -2   0   5 1289.37   60.79
  -2   0   5 1179.78   60.19
   1   0  -5 5281.87  274.77
   1   0  -5 5609.24  273.77
   1   0  -5 5623.74  273.67
  -1   0   5 6192.68  274.17
  -1   0   5 5663.73  273.17
  -1   0   5 5737.83  273.87
  -1   0   5 5498.65  273.07
   0   0  -5  210.28   13.70
   0   0  -5  192.18   11.80
   0   0  -5  213.38   12.20
   0   0   5  206.88   12.50
   0   0   5  214.78   12.40
   0   0   5  208.18   12.20
   0   0   5  217.28   12.40
  -1   0  -5 2328.07  113.09
  -1   0  -5 2281.57  114.79
  -1   0  -5 2366.46  112.69
   1   0   5 2330.17  113.29
   1   0   5 2255.07  113.99
   1   0   5 2177.38  113.19
   1   0   5 2459.05  114.09
  -2   0  -5   68.09    6.80
  -2   0  -5   63.09    5.00
   2   0   5   86.99    5.90
   2   0   5   68.59    6.30
   2   0   5   59.49    6.20
   2   0   5   88.29    5.90
  -3   0  -5 1329.57   66.09
   3   0   5 1377.86   65.69
   3   0   5 1232.88   63.79
   3   0   5 1236.48   65.79
   3   0   5 1262.77   64.19
  -4   0  -5   -0.30    2.10
  -4   0  -5   11.20    3.60
   4   0   5    0.00    1.30
   4   0   5    6.90    3.00
   4   0   5    2.50    2.60
  -5   0  -5  809.72   43.90
  -5   0  -5  807.82   43.80
   5   0   5  832.32   45.90
   5   0   5  879.41   44.30
   5   0   5  795.52   41.50
  -6   0  -5    3.50    2.80
  -6   0  -5    3.30    3.10
   6   0   5    5.70    1.90
   6   0   5   -0.60    3.40
   9  -1  -5  291.37   15.60
   9  -1  -5  294.47   19.20
  -9   1   5  283.87   18.10
   8  -1  -5    4.10    3.10
   8  -1  -5   10.20    2.20
  -8   1   5    5.90    2.60
  -8   1   5    5.80    3.00
   7  -1  -5  362.86   22.30
   7  -1  -5  350.86   20.10
   7  -1  -5  354.16   20.90
  -7   1   5  353.66   21.10
  -7   1   5  450.55   21.80
   6  -1  -5   53.59    4.90
   6  -1  -5   52.89    6.10
   6  -1  -5   56.19    6.80
  -6   1   5   40.50    5.10
   5  -1  -5  757.32   38.90
   5  -1  -5  757.52   40.30
   5  -1  -5  752.72   40.30
  -5   1   5  727.23   38.90
  -5   1   5  780.42   38.70
   4  -1  -5  487.35   29.40
   4  -1  -5  532.75   28.70
   4  -1  -5  570.14   27.90
   4  -1  -5  535.35   28.90
  -4   1   5  509.75   27.10
  -4   1   5  498.85   27.30
   3  -1  -5   27.60    4.80
   3  -1  -5   23.60    3.80
   3  -1  -5   25.50    3.60
  -3   1   5   29.20    3.40
  -3   1   5   34.40    4.20
  -3   1   5   28.00    3.50
   2  -1  -5 1485.75   70.79
   2  -1  -5 1381.86   72.89
   2  -1  -5 1431.16   71.79
   2  -1  -5 1561.34   71.99
  -2   1   5 1506.15   71.59
  -2   1   5 1315.67   71.29
  -2   1   5 1434.36   71.99
   1  -1  -5 1160.18   56.39
   1  -1  -5 1151.08   57.69
   1  -1  -5 1122.49   56.29
   1  -1  -5 1105.49   55.69
  -1   1   5 1089.89   56.19
  -1   1   5 1131.59   56.09
  -1   1   5 1071.29   56.49
  -1   1   5 1167.08   56.39
   0  -1  -5  916.51   47.80
   0  -1  -5  925.81   46.00
   0  -1  -5  940.41   48.60
   0  -1  -5  935.41   47.10
   0   1   5  860.11   47.20
   0   1   5  907.71   47.40
   0   1   5 1015.40   48.50
   0   1   5  983.00   47.70
  -1  -1  -5  350.16   16.70
  -1  -1  -5  339.17   19.70
   1   1   5  356.96   19.40
   1   1   5  312.37   19.80
   1   1   5  321.07   18.60
   1   1   5  324.17   19.10
   1   1   5  329.67   21.90
  -2  -1  -5 2205.28  107.79
  -2  -1  -5 2196.98  107.89
   2   1   5 2170.48  106.39
   2   1   5 2093.89  107.39
   2   1   5 2126.69  107.59
   2   1   5 2186.78  107.49
  -3  -1  -5   12.00    3.80
  -3  -1  -5   16.90    4.00
   3   1   5   11.50    3.60
   3   1   5    9.70    2.50
   3   1   5   10.10    2.90
   3   1   5   13.50    3.50
  -4  -1  -5 1273.17   65.79
  -4  -1  -5 1284.87   65.19
   4   1   5 1257.57   66.59
   4   1   5 1292.77   65.89
   4   1   5 1253.47   63.59
  -5  -1  -5  452.15   25.20
  -5  -1  -5  441.26   25.90
   5   1   5  423.96   27.20
   5   1   5  438.36   23.80
  -6  -1  -5  661.63   38.30
   6   1   5  703.23   36.20
   6   1   5  732.93   40.90
   9  -2  -5   50.09    4.40
   9  -2  -5   49.20    7.10
  -9   2   5   47.80    6.40
   8  -2  -5  781.92   41.30
   8  -2  -5  735.03   39.80
   8  -2  -5  776.92   38.20
  -8   2   5  705.33   39.50
   7  -2  -5   18.00    4.20
   7  -2  -5   20.60    3.20
   7  -2  -5   30.60    4.90
  -7   2   5   33.20    4.20
  -7   2   5   23.50    4.00
   6  -2  -5 1018.00   52.89
   6  -2  -5 1014.10   52.79
   6  -2  -5  991.40   51.09
  -6   2   5 1032.30   50.79
  -6   2   5  994.30   51.49
   5  -2  -5  154.28   10.10
   5  -2  -5  156.18   11.10
   5  -2  -5  145.19   11.50
  -5   2   5  160.88   10.30
  -5   2   5  154.58    9.40
   4  -2  -5 3298.57  160.68
   4  -2  -5 3362.66  161.38
   4  -2  -5 3240.58  162.78
  -4   2   5 3503.75  159.68
  -4   2   5 3035.50  160.18
   3  -2  -5  500.45   26.60
   3  -2  -5  420.76   27.70
   3  -2  -5  473.25   25.00
  -3   2   5  549.45   25.90
  -3   2   5  509.25   26.50
  -3   2   5  500.65   26.60
   2  -2  -5 2694.33  132.69
   2  -2  -5 2746.93  133.29
   2  -2  -5 2428.16  134.19
   2  -2  -5 2687.73  132.69
  -2   2   5 2796.32  133.49
  -2   2   5 2733.43  133.49
  -2   2   5 2945.41  132.89
   1  -2  -5  429.06   24.70
   1  -2  -5  453.15   23.70
   1  -2  -5  440.06   23.80
  -1   2   5  419.36   23.80
  -1   2   5  420.66   24.10
  -1   2   5  457.85   23.60
   0  -2  -5 3044.10  156.58
   0  -2  -5 3081.89  156.08
   0  -2  -5 3192.88  155.38
   0   2   5 3228.48  157.38
   0   2   5 3360.56  155.98
   0   2   5 3204.28  155.98
  -1  -2  -5   33.10    5.20
  -1  -2  -5   38.70    5.60
   1   2   5   29.90    4.60
   1   2   5   35.70    4.60
   1   2   5   26.80    5.00
  -2  -2  -5  942.01   49.00
  -2  -2  -5 1020.70   48.60
   2   2   5  914.31   48.60
   2   2   5  797.62   48.80
   2   2   5  954.60   47.60
  -3  -2  -5   13.90    4.30
  -3  -2  -5    8.60    3.30
   3   2   5   13.80    3.10
   3   2   5   10.80    3.30
   3   2   5   11.00    3.90
  -4  -2  -5 1154.88   52.99
  -4  -2  -5  950.50   53.39
   4   2   5 1043.00   54.79
   4   2   5  993.20   51.79
   4   2   5  928.41   52.99
  -5  -2  -5   16.70    4.80
   5   2   5   21.80    4.00
   5   2   5   32.30    6.50
   9  -3  -5    2.10    2.70
   9  -3  -5    3.20    1.80
  -9   3   5    2.40    2.70
   8  -3  -5  230.68   15.20
   8  -3  -5  218.58   15.30
   8  -3  -5  217.88   13.10
  -8   3   5  217.08   14.20
   7  -3  -5   14.70    4.00
   7  -3  -5    7.20    3.10
   7  -3  -5    5.10    2.10
  -7   3   5    5.70    2.80
   6  -3  -5  352.96   22.70
   6  -3  -5  392.66   22.40
   6  -3  -5  377.26   20.70
  -6   3   5  370.96   21.20
   5  -3  -5  491.35   27.90
   5  -3  -5  492.65   26.70
   5  -3  -5  469.05   25.70
  -5   3   5  476.05   24.50
  -5   3   5  444.66   25.70
   4  -3  -5   64.19    5.80
   4  -3  -5   58.49    7.60
   4  -3  -5   61.49    5.90
  -4   3   5   65.99    4.90
  -4   3   5   58.49    5.80
   3  -3  -5  723.23   39.50
   3  -3  -5  648.24   36.50
   3  -3  -5  734.53   37.30
   3  -3  -5  764.52   37.70
  -3   3   5  651.63   37.50
  -3   3   5  772.62   36.60
  -3   3   5  747.93   37.90
   2  -3  -5  211.98   12.60
   2  -3  -5  183.08   13.30
   2  -3  -5  202.98   12.80
   2  -3  -5  194.38   11.50
  -2   3   5  207.88   11.90
  -2   3   5  201.28   12.90
  -2   3   5  198.18   13.00
   1  -3  -5 1213.98   60.69
   1  -3  -5 1166.18   59.79
   1  -3  -5 1125.29   59.29
   1  -3  -5 1200.48   57.79
  -1   3   5 1189.48   59.29
  -1   3   5 1193.48   60.69
  -1   3   5 1148.59   59.79
   0  -3  -5   20.90    4.30
   0  -3  -5   19.20    4.20
   0   3   5   18.60    3.70
   0   3   5   15.40    4.30
   0   3   5   17.30    3.50
  -1  -3  -5 1044.00   53.89
  -1  -3  -5 1003.00   54.09
   1   3   5 1094.39   53.89
   1   3   5 1013.60   53.39
  -2  -3  -5  336.27   19.10
  -2  -3  -5  317.17   19.60
   2   3   5  276.07   19.70
   2   3   5  316.77   19.30
   2   3   5  301.27   18.30
  -3  -3  -5 1620.04   81.89
  -3  -3  -5 1567.54   82.99
   3   3   5 1591.34   83.39
   3   3   5 1692.33   83.89
   3   3   5 1657.33   81.79
  -4  -3  -5    9.30    4.40
   4   3   5   16.00    4.60
   4   3   5   12.30    4.70
   4   3   5   13.50    3.40
  -5  -3  -5  555.74   33.10
   5   3   5  583.34   34.40
   5   3   5  603.94   31.90
   9  -4  -5  357.56   21.80
   9  -4  -5  372.86   22.50
   9  -4  -5  329.77   19.40
  -9   4   5  329.07   20.70
   8  -4  -5  127.69   11.20
   8  -4  -5  137.49    9.40
   8  -4  -5  136.39   11.40
  -8   4   5  128.79   10.20
   7  -4  -5  748.13   44.90
   7  -4  -5  892.01   43.20
   7  -4  -5  867.91   45.00
  -7   4   5  807.82   43.60
   6  -4  -5   24.90    5.40
   6  -4  -5   28.50    5.20
   6  -4  -5   22.90    3.90
  -6   4   5   20.90    4.00
   5  -4  -5 1280.87   65.39
   5  -4  -5 1260.67   63.39
   5  -4  -5 1199.68   63.79
  -5   4   5 1257.27   63.49
   4  -4  -5  970.80   50.29
   4  -4  -5  970.10   51.89
   4  -4  -5  970.90   50.19
  -4   4   5  951.20   50.39
  -4   4   5 1014.30   48.70
   3  -4  -5 2777.82  134.69
   3  -4  -5 2744.83  134.59
   3  -4  -5 2931.01  135.59
   3  -4  -5 2393.76  136.49
  -3   4   5 2918.51  133.99
  -3   4   5 2706.13  135.59
   2  -4  -5   11.90    2.40
   2  -4  -5    4.80    2.30
   2  -4  -5    9.60    3.70
   2  -4  -5    9.80    3.40
  -2   4   5   13.40    3.30
  -2   4   5   10.10    3.60
  -2   4   5   10.20    2.40
  -2   4   5    9.60    2.40
   1  -4  -5 1578.04   84.59
   1  -4  -5 1569.24   84.69
  -1   4   5 1750.12   83.69
  -1   4   5 1715.83   84.59
  -1   4   5 1787.92   85.99
   0  -4  -5  166.78   12.00
   0  -4  -5  151.78   12.00
   0   4   5  172.68   11.80
   0   4   5  165.88   12.50
   0   4   5  158.38   11.10
  -1  -4  -5 1209.58   66.29
  -1  -4  -5 1196.28   65.49
   1   4   5 1427.46   67.59
   1   4   5 1256.47   65.79
   1   4   5 1349.16   66.09
  -2  -4  -5   55.99    7.70
  -2  -4  -5   48.80    6.50
   2   4   5   47.90    7.10
   2   4   5   61.99    8.50
   2   4   5   65.69    7.50
  -3  -4  -5  600.24   34.00
   3   4   5  622.44   34.40
   3   4   5  496.95   33.50
   3   4   5  633.54   33.00
  -4  -4  -5   52.89    7.80
   4   4   5   61.19    7.30
   4   4   5   47.40    7.90
   4   4   5   56.69    8.50
   9  -5  -5  336.47   19.80
   9  -5  -5  345.47   22.10
   9  -5  -5  334.97   22.00
  -9   5   5  369.56   22.20
  -9   5   5  317.37   20.60
   8  -5  -5   11.80    3.10
   8  -5  -5    9.90    4.10
   8  -5  -5    6.90    3.30
  -8   5   5    8.10    3.40
   7  -5  -5   81.99   10.00
   7  -5  -5   97.09    8.80
   7  -5  -5   85.29    7.50
  -7   5   5   77.89    7.90
   6  -5  -5  309.17   18.90
   6  -5  -5  298.77   19.70
   6  -5  -5  292.77   18.10
  -6   5   5  292.77   18.20
   5  -5  -5  183.48   13.00
   5  -5  -5  197.48   13.30
   5  -5  -5  231.68   14.90
  -5   5   5  177.18   12.90
   4  -5  -5  284.87   18.30
   4  -5  -5  323.97   18.10
   4  -5  -5  290.67   19.00
  -4   5   5  315.97   18.50
  -4   5   5  290.17   18.30
   3  -5  -5   21.10    4.30
   3  -5  -5   27.30    4.30
   3  -5  -5   29.50    5.50
   3  -5  -5   28.50    4.10
  -3   5   5   26.90    4.20
  -3   5   5   24.40    4.70
   2  -5  -5  843.62   43.40
   2  -5  -5  854.51   44.60
   2  -5  -5  803.82   43.70
  -2   5   5  827.52   42.10
  -2   5   5  834.32   44.60
  -2   5   5  765.42   41.80
   1  -5  -5   25.50    5.20
   1  -5  -5   24.50    5.00
  -1   5   5   21.30    5.00
  -1   5   5   17.60    4.20
  -1   5   5   24.10    4.00
   0  -5  -5  494.45   31.00
   0  -5  -5  497.35   30.10
   0   5   5  562.04   31.00
   0   5   5  535.45   29.90
   0   5   5  637.34   32.00
  -1  -5  -5   72.19    9.40
  -1  -5  -5   85.59    8.10
   1   5   5   86.49    8.60
   1   5   5   87.89    9.80
   1   5   5   81.69    9.00
  -2  -5  -5 1470.15   80.79
   2   5   5 1540.95   80.79
   2   5   5 1611.24   80.39
   2   5   5 1641.64   81.49
  -3  -5  -5   73.89    9.90
   3   5   5   85.29    9.50
   3   5   5   85.19   10.30
   3   5   5   90.09   10.60
  -4  -5  -5  442.36   27.10
   4   5   5  420.36   26.30
   4   5   5  463.15   25.30
   4   5   5  369.06   26.20
   8  -6  -5  267.37   18.90
   8  -6  -5  283.97   17.30
   8  -6  -5  271.67   18.50
  -8   6   5  266.57   18.10
  -8   6   5  261.97   17.70
   7  -6  -5   38.80    5.60
   7  -6  -5   40.90    7.00
   7  -6  -5   41.60    6.80
  -7   6   5   45.80    6.80
  -7   6   5   41.40    6.20
   6  -6  -5  901.01   45.90
   6  -6  -5  879.21   46.30
   6  -6  -5  955.50   47.40
  -6   6   5  800.52   45.40
  -6   6   5  778.12   45.60
   5  -6  -5   26.80    5.20
   5  -6  -5   21.00    4.50
   5  -6  -5   26.70    4.90
  -5   6   5   29.00    5.00
  -5   6   5   26.90    4.80
   4  -6  -5 1387.46   68.19
   4  -6  -5 1287.37   67.59
  -4   6   5 1278.17   67.69
  -4   6   5 1305.07   66.89
   3  -6  -5  351.46   21.90
   3  -6  -5  330.77   21.50
   3  -6  -5  375.36   21.20
  -3   6   5  396.16   22.90
  -3   6   5  350.46   20.60
   2  -6  -5 1424.76   71.99
   2  -6  -5 1499.45   73.09
  -2   6   5 1309.77   73.39
   1  -6  -5   68.79    8.10
   1  -6  -5   68.99    8.30
  -1   6   5   70.79    9.10
  -1   6   5   71.19    6.90
   0  -6  -5  431.76   27.80
   0  -6  -5  473.65   27.10
   0   6   5  465.05   27.70
   0   6   5  479.65   28.10
   0   6   5  465.05   26.90
  -1  -6  -5   93.79   11.10
   1   6   5  101.29    9.60
   1   6   5  107.09   10.20
   1   6   5   92.49    9.40
  -2  -6  -5  679.53   41.00
   2   6   5  744.33   40.50
   2   6   5  704.33   40.10
   2   6   5  748.23   40.50
  -3  -6  -5   25.90    6.40
   3   6   5   28.80    5.50
   3   6   5   35.10    6.40
   3   6   5   35.40    6.70
   7  -7  -5  283.47   18.40
   7  -7  -5  317.37   19.50
  -7   7   5  263.67   18.20
  -7   7   5  261.87   18.00
   6  -7  -5   19.20    4.90
   6  -7  -5   17.00    4.60
  -6   7   5   17.70    4.60
  -6   7   5   22.40    4.70
   5  -7  -5   43.70    6.50
   5  -7  -5   61.09    7.50
  -5   7   5   43.60    6.70
  -5   7   5   47.60    6.80
   4  -7  -5   67.79    8.00
   4  -7  -5   68.89    8.30
  -4   7   5   57.09    7.90
  -4   7   5   61.69    7.40
   3  -7  -5  545.75   31.50
   3  -7  -5  558.84   31.20
  -3   7   5  585.94   33.20
   2  -7  -5   50.09    6.60
   2  -7  -5   31.30    5.40
  -2   7   5   16.40    5.60
   1  -7  -5  347.67   21.10
   1  -7  -5  336.47   21.30
  -1   7   5  334.17   21.90
   0  -7  -5   41.10    7.10
   0   7   5   63.89    8.20
  -1  -7  -5  804.92   46.40
   1   7   5  841.32   46.10
   1   7   5  844.52   45.70
   1   7   5  834.92   45.30
  -2  -7  -5   33.70    7.10
   2   7   5   34.30    6.30
   2   7   5   32.80    6.20
   2   7   5   35.50    6.50
   6  -8  -5   25.40    5.70
   6  -8  -5   34.70    6.10
   6  -8  -5   36.30    6.80
  -6   8   5   39.20    6.70
  -6   8   5   32.90    6.00
   5  -8  -5  610.64   34.70
   5  -8  -5  594.94   33.50
   5  -8  -5  607.94   34.60
  -5   8   5  552.54   33.80
  -5   8   5  606.54   33.80
   4  -8  -5   47.50    6.70
  -4   8   5   46.20    7.90
   3  -8  -5  803.32   42.90
   3  -8  -5  810.92   42.80
  -3   8   5  772.12   44.50
   2  -8  -5   12.50    4.00
   2  -8  -5   10.20    3.70
  -2   8   5   23.00    5.90
   1  -8  -5  267.97   17.80
  -1   8   5  260.17   18.30
   0  -8  -5    6.10    4.20
   0   8   5    8.60    3.90
   4  -9  -5   16.80    4.20
  -4   9   5   21.20    6.10
   3  -9  -5   64.49    7.50
  -3   9   5   73.39    9.60
   1  10  -6    3.30    3.60
  -1 -10   6   -0.40    3.50
   0  10  -6  931.61   47.10
   0 -10   6  726.13   44.50
  -1  10  -6   77.79   10.30
   1 -10   6   74.89    9.60
  -2  10  -6  387.26   24.50
   2 -10   6  370.26   24.00
  -3  10  -6    5.90    4.20
   3 -10   6   18.00    5.00
   3 -10   6    6.60    4.30
   3   9  -6    8.40    4.30
   3   9  -6    3.00    3.40
  -3  -9   6    5.70    3.80
  -3  -9   6    2.80    3.30
   2   9  -6  216.78   15.50
   2   9  -6  255.27   17.80
  -2  -9   6  214.08   15.60
   1   9  -6   24.00    5.80
  -1  -9   6   21.40    5.50
   0   9  -6  604.64   33.50
   0  -9   6  478.95   30.60
  -1   9  -6    3.80    4.00
   1  -9   6    4.70    4.00
  -2   9  -6  262.97   18.70
   2  -9   6  249.18   18.00
   2  -9   6  277.67   17.90
  -3   9  -6   28.70    6.40
  -3   9  -6   37.00    6.50
   3  -9   6   41.30    6.80
   3  -9   6   31.20    6.00
   3  -9   6   36.30    6.30
  -4   9  -6   91.99   11.10
  -4   9  -6  116.59   11.40
   4  -9   6  112.59   10.90
   4  -9   6  118.69   10.30
   4  -9   6  109.49   10.20
   4   8  -6   66.39    9.20
   4   8  -6   83.09    9.30
   4   8  -6   67.89    8.80
  -4  -8   6   73.19    8.50
  -4  -8   6   72.29    8.50
   3   8  -6  612.14   35.10
   3   8  -6  532.55   32.70
   3   8  -6  629.74   35.50
  -3  -8   6  586.54   32.70
  -3  -8   6  563.24   32.60
   2   8  -6  122.99   10.30
   2   8  -6  141.49   12.70
  -2  -8   6  117.29   10.70
  -2  -8   6  119.99   10.10
   1   8  -6  799.12   42.40
  -1  -8   6  687.33   38.20
  -1  -8   6  681.03   39.40
   0   8  -6   28.50    6.90
   0  -8   6   30.70    5.90
  -1   8  -6 1477.65   76.19
  -1   8  -6 1429.66   74.79
   1  -8   6 1472.55   74.49
   1  -8   6 1396.16   74.39
  -2   8  -6  209.18   16.10
  -2   8  -6  196.88   14.70
   2  -8   6  229.78   14.90
   2  -8   6  215.88   14.70
   2  -8   6  213.78   15.10
  -3   8  -6  442.86   27.10
  -3   8  -6  453.45   28.30
   3  -8   6  466.85   26.50
   3  -8   6  432.56   26.70
   3  -8   6  461.25   26.40
  -4   8  -6    5.60    3.20
  -4   8  -6    7.40    4.30
   4  -8   6    4.40    3.70
   4  -8   6    2.50    2.50
   4  -8   6    5.50    3.10
  -5   8  -6 1033.60   57.49
  -5   8  -6  960.70   55.89
   5  -8   6 1067.59   55.19
   5  -8   6 1093.99   56.89
   5  -8   6 1060.29   53.99
   5   7  -6  678.03   37.40
   5   7  -6  666.93   36.90
   5   7  -6  645.54   38.40
  -5  -7   6  676.63   37.30
   4   7  -6   43.30    7.50
   4   7  -6   55.59    7.40
   4   7  -6   52.49    7.40
  -4  -7   6   38.70    6.20
  -4  -7   6   44.70    6.90
   3   7  -6  391.06   23.00
   3   7  -6  412.56   23.70
   3   7  -6  336.07   24.60
  -3  -7   6  376.46   22.90
  -3  -7   6  381.16   23.20
   2   7  -6    8.10    4.80
   2   7  -6    4.10    3.00
   2   7  -6    1.60    2.50
  -2  -7   6   -1.80    2.60
  -2  -7   6    1.80    2.80
   1   7  -6 1029.80   55.69
   1   7  -6 1032.70   51.69
  -1  -7   6  953.50   52.39
  -1  -7   6  982.70   51.79
   0   7  -6    0.20    3.20
   0  -7   6    1.80    2.40
   0  -7   6    2.00    2.50
   0  -7   6    0.50    4.10
  -1   7  -6  541.15   30.10
  -1   7  -6  550.84   32.30
   1  -7   6  528.65   30.20
   1  -7   6  527.65   29.80
  -2   7  -6    9.90    4.30
  -2   7  -6   18.90    4.60
   2  -7   6   10.30    3.30
   2  -7   6   11.30    3.40
   2  -7   6   23.90    4.70
  -3   7  -6  146.29   13.00
  -3   7  -6  137.89   11.60
   3  -7   6  150.28   10.80
   3  -7   6  140.99   11.70
   3  -7   6  153.78   11.00
  -4   7  -6  372.06   23.70
  -4   7  -6  377.26   25.00
   4  -7   6  365.66   21.70
   4  -7   6  386.86   23.80
   4  -7   6  400.96   22.80
  -5   7  -6   32.20    6.00
  -5   7  -6   26.30    6.90
   5  -7   6   26.70    5.20
   5  -7   6   35.60    4.60
   5  -7   6   31.90    6.50
  -6   7  -6  130.89   11.70
  -6   7  -6  130.99   13.30
   6  -7   6  126.89   11.70
   6  -7   6  131.89   11.00
   6  -7   6  127.39    8.90
   6   6  -6  153.08   13.30
   6   6  -6  167.08   12.50
   6   6  -6  140.49   11.20
  -6  -6   6  146.29   12.70
   5   6  -6   15.70    4.90
   5   6  -6   24.10    4.80
   5   6  -6   14.40    4.20
  -5  -6   6   10.80    4.40
   4   6  -6  558.64   33.20
   4   6  -6  570.54   31.00
   4   6  -6  543.65   30.80
  -4  -6   6  567.24   30.80
  -4  -6   6  512.45   31.40
   3   6  -6   47.30    6.10
   3   6  -6   43.00    6.20
   3   6  -6   43.50    8.00
  -3  -6   6   44.10    6.10
  -3  -6   6   40.10    6.40
   2   6  -6 1678.53   85.69
   2   6  -6 1682.43   89.29
   2   6  -6 1759.02   85.29
  -2  -6   6 1712.43   85.59
  -2  -6   6 1656.63   85.59
   1   6  -6  241.88   19.40
   1   6  -6  285.87   16.20
   1   6  -6  252.37   17.80
  -1  -6   6  313.87   17.80
  -1  -6   6  268.77   16.90
   0   6  -6 1802.12   90.89
   0   6  -6 1751.42   86.99
   0  -6   6 1728.73   86.79
   0  -6   6 1639.64   87.19
   0  -6   6 1772.92   87.19
  -1   6  -6   73.79    7.30
  -1   6  -6   70.99    9.80
   1  -6   6   72.79    6.70
   1  -6   6   84.49    7.00
   1  -6   6   79.09    7.20
  -2   6  -6 1588.74   81.09
  -2   6  -6 1621.44   83.29
   2  -6   6 1635.44   80.29
   2  -6   6 1553.84   79.49
   2  -6   6 1553.14   80.79
   2  -6   6 1609.94   80.09
  -3   6  -6  160.48   12.30
  -3   6  -6  161.28   13.70
   3  -6   6  143.59   11.80
   3  -6   6  156.48   10.70
   3  -6   6  158.18   11.10
  -4   6  -6 1074.79   56.79
  -4   6  -6  991.40   54.49
   4  -6   6 1086.19   54.89
   4  -6   6  982.60   52.29
   4  -6   6 1026.60   53.59
  -5   6  -6   89.19   11.80
  -5   6  -6   98.29    9.30
   5  -6   6   85.69    6.70
   5  -6   6   79.49    8.10
  -6   6  -6  901.51   48.10
  -6   6  -6  874.21   50.39
   6  -6   6  856.81   44.80
   6  -6   6  916.11   47.60
   7   5  -6  235.88   16.50
   7   5  -6  234.48   15.10
   7   5  -6  239.78   17.60
  -7  -5   6  259.77   17.70
   6   5  -6  559.44   29.30
   6   5  -6  513.55   30.60
   6   5  -6  490.25   27.80
  -6  -5   6  453.75   29.30
   5   5  -6   31.20    4.90
   5   5  -6   33.70    6.60
   5   5  -6   33.00    5.30
  -5  -5   6   28.80    6.00
   4   5  -6 1243.58   65.69
   4   5  -6 1254.87   62.79
   4   5  -6 1254.67   62.79
  -4  -5   6 1128.09   63.59
  -4  -5   6 1244.28   62.79
   3   5  -6  213.98   13.60
   3   5  -6  210.78   16.40
   3   5  -6  220.98   14.10
  -3  -5   6  233.98   14.30
  -3  -5   6  201.48   14.60
   2   5  -6  551.14   29.20
   2   5  -6  547.95   33.40
   2   5  -6  523.85   29.80
  -2  -5   6  533.35   30.20
  -2  -5   6  589.44   29.90
   1   5  -6  158.08   11.00
   1   5  -6  171.78   10.20
   1   5  -6  168.48   11.50
   1   5  -6  160.68   13.90
  -1  -5   6  169.78   11.50
  -1  -5   6  163.08   10.90
  -1  -5   6  163.38   11.30
   0   5  -6 1773.52   93.39
   0   5  -6 1875.51   94.19
   0   5  -6 1889.61   97.49
   0  -5   6 1908.21   93.59
   0  -5   6 2037.90   93.99
   0  -5   6 1844.52   94.09
  -1   5  -6   17.50    4.00
  -1   5  -6   10.50    4.20
   1  -5   6   18.70    3.60
   1  -5   6   15.50    3.20
   1  -5   6   18.70    3.50
  -2   5  -6  138.69   10.90
  -2   5  -6  147.19   12.90
   2  -5   6  159.48   10.30
   2  -5   6  145.89   10.10
   2  -5   6  145.69   10.10
  -3   5  -6  752.72   42.80
  -3   5  -6  732.93   40.80
   3  -5   6  689.73   39.60
   3  -5   6  795.12   40.00
   3  -5   6  799.02   39.30
  -4   5  -6   83.69    8.30
  -4   5  -6   87.79   11.00
   4  -5   6   77.99    6.50
   4  -5   6  102.69    8.20
  -5   5  -6  196.48   16.20
  -5   5  -6  157.08   13.20
   5  -5   6  196.78   11.50
   5  -5   6  199.68   13.50
  -6   5  -6   -0.30    3.40
   6  -5   6    1.50    1.60
   6  -5   6    4.30    2.90
   7   4  -6  231.88   17.20
   7   4  -6  237.68   16.20
   7   4  -6  241.28   14.90
  -7  -4   6  260.47   17.70
   6   4  -6   26.60    4.90
   6   4  -6   17.10    3.50
   6   4  -6   16.80    4.50
  -6  -4   6   14.00    4.90
   5   4  -6  614.34   33.40
   5   4  -6  628.14   36.20
   5   4  -6  608.24   33.80
  -5  -4   6  664.73   35.50
   4   4  -6   20.50    5.00
   4   4  -6   29.60    4.40
   4   4  -6   24.70    4.10
  -4  -4   6   30.40    4.50
  -4  -4   6   28.50    5.40
   3   4  -6 1921.21   96.99
   3   4  -6 1991.10   97.49
   3   4  -6 1916.91  100.19
  -3  -4   6 1987.30   96.99
  -3  -4   6 1989.40   98.19
   2   4  -6  412.46   25.20
   2   4  -6  400.26   22.20
   2   4  -6  399.26   21.40
   2   4  -6  352.86   21.90
  -2  -4   6  418.36   22.70
  -2  -4   6  419.16   21.70
  -2  -4   6  384.86   22.40
   1   4  -6 3487.35  169.28
   1   4  -6 3552.84  172.88
   1   4  -6 3398.76  167.98
   1   4  -6 3427.26  169.98
  -1  -4   6 3478.65  168.88
  -1  -4   6 3466.65  169.88
  -1  -4   6 3474.35  169.48
   0   4  -6  220.18   13.60
   0   4  -6  202.18   10.60
   0   4  -6  195.78   15.20
   0  -4   6  192.28   12.50
   0  -4   6  192.68   12.80
   0  -4   6  207.58   12.30
  -1   4  -6 1267.47   69.39
  -1   4  -6 1388.26   68.09
   1  -4   6 1269.27   67.09
   1  -4   6 1384.66   66.89
   1  -4   6 1353.66   67.09
  -2   4  -6  228.78   15.70
  -2   4  -6  228.98   17.20
   2  -4   6  239.88   14.80
   2  -4   6  269.37   15.10
   2  -4   6  259.37   14.70
  -3   4  -6 3008.70  151.68
  -3   4  -6 3031.90  149.88
   3  -4   6 3127.89  149.19
   3  -4   6 2799.92  148.89
   3  -4   6 3175.68  148.09
  -4   4  -6   71.09   10.20
  -4   4  -6   85.69    8.40
   4  -4   6   83.69    7.70
   4  -4   6   79.69    8.00
   4  -4   6   90.79    6.50
  -5   4  -6  752.12   42.50
  -5   4  -6  807.42   45.10
   5  -4   6  779.32   42.10
   5  -4   6  813.42   40.10
  -6   4  -6  124.89   10.80
   6  -4   6  132.99    8.00
   6  -4   6  133.19   10.60
   8   3  -6   71.49    9.30
   8   3  -6   52.99    7.40
   8   3  -6   55.89    5.70
  -8  -3   6   69.09    8.80
   7   3  -6  754.32   41.80
   7   3  -6  745.33   38.80
   7   3  -6  715.63   39.90
  -7  -3   6  772.52   41.40
   6   3  -6   79.89    6.80
   6   3  -6   89.69    7.80
   6   3  -6   93.79    9.20
  -6  -3   6   77.39    8.90
   5   3  -6  779.52   43.90
   5   3  -6  806.22   41.60
   5   3  -6  794.42   42.10
  -5  -3   6  840.22   43.60
   4   3  -6   19.10    3.40
   4   3  -6   16.10    4.20
   4   3  -6   21.20    3.50
  -4  -3   6   10.50    3.60
  -4  -3   6   14.80    2.80
   3   3  -6 1653.03   79.89
   3   3  -6 1515.45   81.89
   3   3  -6 1544.95   79.29
   3   3  -6 1600.64   79.39
  -3  -3   6 1696.33   78.99
  -3  -3   6 1600.34   80.39
   2   3  -6   46.60    5.80
   2   3  -6   53.69    7.10
   2   3  -6   53.09    4.30
   2   3  -6   41.60    4.50
  -2  -3   6   60.19    6.30
  -2  -3   6   57.89    4.40
  -2  -3   6   42.30    5.20
   1   3  -6 1508.95   80.79
   1   3  -6 1598.64   79.79
   1   3  -6 1573.84   78.29
   1   3  -6 1600.24   82.39
  -1  -3   6 1614.74   79.99
  -1  -3   6 1686.63   80.49
  -1  -3   6 1675.43   79.29
   0   3  -6  277.67   17.50
   0   3  -6  294.57   18.90
   0   3  -6  292.07   16.30
   0  -3   6  273.57   16.60
   0  -3   6  275.37   14.40
   0  -3   6  305.07   16.20
   0  -3   6  308.27   16.90
  -1   3  -6  733.63   39.40
  -1   3  -6  758.92   40.30
   1  -3   6  694.43   38.10
   1  -3   6  751.52   38.00
   1  -3   6  746.13   38.20
  -2   3  -6  153.58   12.60
  -2   3  -6  163.98   12.00
   2  -3   6  172.78   11.00
   2  -3   6  171.58   11.20
   2  -3   6  174.98   10.70
  -3   3  -6    6.30    3.80
  -3   3  -6    5.10    3.10
   3  -3   6    8.50    2.90
   3  -3   6   10.20    3.00
   3  -3   6   13.70    2.60
  -4   3  -6  744.53   40.80
  -4   3  -6  758.72   42.10
   4  -3   6  735.03   40.70
   4  -3   6  730.53   38.30
   4  -3   6  796.72   40.20
  -5   3  -6   56.69    7.40
   5  -3   6   55.99    4.50
   5  -3   6   47.20    6.60
   5  -3   6   48.60    7.70
  -6   3  -6  174.28   13.30
   6  -3   6  186.88   15.60
   6  -3   6  168.38   12.40
   6  -3   6  175.38   10.00
   8   2  -6   61.19    5.60
   8   2  -6   51.39    7.00
   8   2  -6   62.69    8.40
  -8  -2   6   61.79    7.90
   7   2  -6    2.50    1.90
   7   2  -6    1.30    2.50
   7   2  -6    8.50    3.50
  -7  -2   6    5.10    3.50
   6   2  -6 1124.59   56.69
   6   2  -6 1121.29   55.89
   6   2  -6 1071.79   58.19
  -6  -2   6 1098.69   57.49
   5   2  -6    4.10    1.90
   5   2  -6    5.00    2.20
   5   2  -6    0.90    2.50
  -5  -2   6    3.80    2.80
   4   2  -6 1113.79   56.19
   4   2  -6 1194.58   56.69
   4   2  -6 1132.59   56.19
   4   2  -6 1034.60   58.09
  -4  -2   6 1088.09   56.89
   3   2  -6  730.73   36.60
   3   2  -6  693.03   37.50
   3   2  -6  703.73   37.00
   3   2  -6  672.63   38.70
  -3  -2   6  824.12   40.70
  -3  -2   6  670.33   37.20
  -3  -2   6  739.13   35.70
   2   2  -6 4176.78  202.88
   2   2  -6 4119.49  199.98
   2   2  -6 4138.09  200.98
   2   2  -6 3984.60  201.88
  -2  -2   6 4469.05  199.98
  -2  -2   6 4208.18  201.48
  -2  -2   6 3857.01  199.98
  -2  -2   6 4141.59  201.18
   1   2  -6  138.39   10.30
   1   2  -6  133.09   10.40
   1   2  -6  135.79    8.90
  -1  -2   6  153.58    9.70
  -1  -2   6  133.19    9.30
  -1  -2   6  140.49    8.50
  -1  -2   6  135.79    7.90
   0   2  -6 2515.45  126.89
   0   2  -6 2598.94  126.79
   0   2  -6 2494.15  125.09
   0  -2   6 2505.15  123.79
   0  -2   6 2624.34  125.79
   0  -2   6 2631.64  125.19
   0  -2   6 2562.74  125.99
  -1   2  -6  316.37   19.00
  -1   2  -6  288.47   19.00
   1  -2   6  333.17   18.00
   1  -2   6  314.07   17.70
   1  -2   6  310.17   18.10
  -2   2  -6 2766.52  136.99
  -2   2  -6 2843.82  136.59
   2  -2   6 2763.12  135.09
   2  -2   6 2682.73  135.99
  -3   2  -6  152.88   11.70
  -3   2  -6  158.98   11.80
   3  -2   6  157.48   11.30
   3  -2   6  147.49    9.60
   3  -2   6  170.88   11.00
  -4   2  -6 2150.18  105.79
   4  -2   6 2185.28  106.09
   4  -2   6 2068.09  102.79
   4  -2   6 2027.50  104.89
  -5   2  -6  207.08   14.80
   5  -2   6  214.18   14.20
   5  -2   6  209.88   15.70
   5  -2   6  211.28   12.00
  -6   2  -6  476.45   27.90
   6  -2   6  455.35   24.70
   6  -2   6  506.65   27.60
   6  -2   6  506.55   30.60
   8   1  -6  463.05   27.90
   8   1  -6  474.25   26.80
   8   1  -6  464.15   25.40
  -8  -1   6  473.25   27.20
  -8  -1   6  471.15   26.80
   7   1  -6   80.69    8.20
   7   1  -6   69.39    6.20
   7   1  -6   68.79    6.80
  -7  -1   6   80.59    7.90
  -7  -1   6   83.79    7.50
   6   1  -6 1375.16   70.39
   6   1  -6 1392.96   72.29
   6   1  -6 1468.05   69.99
  -6  -1   6 1402.26   70.69
  -6  -1   6 1347.47   70.89
   5   1  -6   36.60    4.60
   5   1  -6   34.40    4.30
   5   1  -6   43.70    5.10
   5   1  -6   37.70    5.80
  -5  -1   6   45.40    5.40
  -5  -1   6   42.50    5.30
   4   1  -6  712.03   37.80
   4   1  -6  651.53   37.80
   4   1  -6  681.23   36.20
   4   1  -6  694.93   36.10
  -4  -1   6  749.33   36.80
  -4  -1   6  721.93   36.40
   3   1  -6   29.20    3.80
   3   1  -6   25.20    4.40
   3   1  -6   25.10    4.40
  -3  -1   6   26.90    3.70
  -3  -1   6   27.60    3.50
  -3  -1   6   26.80    2.20
  -3  -1   6   26.70    4.00
   2   1  -6 3223.98  155.88
   2   1  -6 3141.79  157.18
   2   1  -6 3192.38  157.08
  -2  -1   6 3248.48  154.68
  -2  -1   6 3245.68  156.08
  -2  -1   6 3148.78  154.98
  -2  -1   6 3192.08  156.48
   1   1  -6   36.10    4.80
   1   1  -6   35.50    5.30
   1   1  -6   49.20    4.30
  -1  -1   6   42.70    3.70
  -1  -1   6   39.80    4.70
  -1  -1   6   36.20    3.40
  -1  -1   6   45.60    4.60
   0   1  -6   88.89    6.80
   0   1  -6   88.89    6.40
   0   1  -6   85.39    7.90
   0  -1   6   77.79    5.70
   0  -1   6   83.69    6.60
   0  -1   6   85.89    6.30
   0  -1   6   80.29    6.50
  -1   1  -6  428.06   25.40
  -1   1  -6  411.76   23.90
   1  -1   6  471.05   24.30
   1  -1   6  482.15   24.70
   1  -1   6  482.45   24.10
   1  -1   6  406.26   22.80
  -2   1  -6  500.35   28.00
  -2   1  -6  592.64   30.30
   2  -1   6  550.64   28.80
   2  -1   6  487.15   28.80
   2  -1   6  529.95   27.80
  -3   1  -6  667.53   36.50
   3  -1   6  682.93   34.10
   3  -1   6  620.14   35.80
   3  -1   6  680.53   35.60
  -4   1  -6   21.40    4.50
   4  -1   6   22.40    3.10
   4  -1   6   20.10    4.60
   4  -1   6   28.70    4.80
  -5   1  -6  339.37   21.00
   5  -1   6  339.37   18.30
   5  -1   6  352.86   22.40
   5  -1   6  321.47   20.20
  -6   1  -6   65.39    8.20
  -6   1  -6   64.49    7.90
   6  -1   6   61.59    4.90
   6  -1   6   73.79   10.50
   6  -1   6   64.89    7.80
   9   0  -6  240.18   13.80
   9   0  -6  228.38   16.70
  -9   0   6  247.78   16.10
  -9   0   6  242.98   15.90
   8   0  -6   49.10    5.40
   8   0  -6   42.10    6.60
  -8   0   6   47.80    6.30
  -8   0   6   50.79    6.50
   7   0  -6  224.18   15.70
   7   0  -6  219.08   13.60
  -7   0   6  226.38   14.50
  -7   0   6  224.48   14.40
   6   0  -6   68.89    6.20
   6   0  -6   69.89    7.40
   6   0  -6   66.29    6.20
  -6   0   6   75.89    6.40
  -6   0   6   67.29    6.30
   5   0  -6 2144.79  105.69
   5   0  -6 2141.09  107.39
   5   0  -6 2218.28  106.79
  -5   0   6 2115.49  105.49
  -5   0   6 2087.79  105.49
   4   0  -6  159.28   10.30
   4   0  -6  150.88   11.20
   4   0  -6  149.59   11.80
  -4   0   6  164.18   10.20
  -4   0   6  155.28    9.90
   3   0  -6 1951.70   95.19
   3   0  -6 1827.32   97.99
   3   0  -6 2036.10   98.89
   3   0  -6 1927.21   97.29
  -3   0   6 1889.71   96.59
  -3   0   6 2119.39   97.69
  -3   0   6 2053.19   97.09
   2   0  -6  310.17   17.60
   2   0  -6  293.27   18.80
   2   0  -6  301.07   18.00
  -2   0   6  309.47   16.50
  -2   0   6  310.77   17.00
  -2   0   6  324.07   17.70
  -2   0   6  340.57   18.10
   1   0  -6 4388.06  221.58
   1   0  -6 4074.49  219.78
   1   0  -6 4516.05  219.98
  -1   0   6 4798.52  220.58
  -1   0   6 4619.94  220.28
  -1   0   6 4571.24  219.68
  -1   0   6 4771.02  219.68
   0   0  -6  195.68   11.40
   0   0  -6  181.38   12.80
   0   0   6  195.28   11.90
   0   0   6  187.08   11.90
   0   0   6  181.98   11.60
   0   0   6  172.88   11.40
  -1   0  -6 1519.75   81.89
  -1   0  -6 1449.95   84.19
   1   0   6 1772.02   84.09
   1   0   6 1847.42   83.29
   1   0   6 1811.22   83.79
  -2   0  -6  275.57   17.30
   2   0   6  251.67   15.30
   2   0   6  290.67   15.70
   2   0   6  263.27   16.60
  -3   0  -6 2996.80  156.58
   3   0   6 3201.58  154.68
   3   0   6 3253.67  157.08
   3   0   6 3248.97  156.48
  -4   0  -6  230.68   15.60
  -4   0  -6  239.28   15.80
   4   0   6  232.28   13.90
   4   0   6  238.68   16.40
   4   0   6  256.57   15.80
  -5   0  -6  643.14   34.90
  -5   0  -6  605.64   34.60
   5   0   6  597.74   32.40
   5   0   6  656.53   36.70
   5   0   6  643.54   34.80
  -6   0  -6   -0.30    2.80
  -6   0  -6    4.20    3.40
   6   0   6    7.60    2.20
   6   0   6    2.70    3.80
   9  -1  -6  384.16   23.00
   9  -1  -6  359.36   19.70
  -9   1   6  352.56   21.70
   8  -1  -6   63.99    8.20
   8  -1  -6   74.89    6.00
  -8   1   6   65.89    7.40
  -8   1   6   68.99    6.80
   7  -1  -6  817.12   45.10
   7  -1  -6  861.01   43.20
   7  -1  -6  799.82   43.60
  -7   1   6  875.61   43.40
  -7   1   6  824.12   43.70
   6  -1  -6   26.50    4.50
   6  -1  -6   19.90    3.50
   6  -1  -6   25.60    4.90
  -6   1   6   23.80    3.80
  -6   1   6   24.70    4.10
   5  -1  -6  931.11   46.80
   5  -1  -6  905.81   48.00
   5  -1  -6  888.61   48.30
  -5   1   6  934.01   46.20
  -5   1   6  885.91   46.40
   4  -1  -6   30.30    4.90
   4  -1  -6   22.00    3.60
   4  -1  -6   34.90    6.10
  -4   1   6   29.30    3.80
  -4   1   6   35.90    4.10
   3  -1  -6 1453.65   74.39
   3  -1  -6 1567.34   72.59
   3  -1  -6 1525.35   76.09
   3  -1  -6 1439.56   74.79
  -3   1   6 1534.25   73.89
  -3   1   6 1454.65   73.89
  -3   1   6 1447.66   74.49
   2  -1  -6   32.90    5.30
   2  -1  -6   35.90    3.80
   2  -1  -6   37.80    4.50
   2  -1  -6   41.10    4.20
  -2   1   6   46.40    4.90
  -2   1   6   45.50    4.80
   1  -1  -6 1166.08   55.09
   1  -1  -6 1079.79   54.19
   1  -1  -6 1054.59   56.39
   1  -1  -6 1010.40   54.79
  -1   1   6 1145.39   55.19
  -1   1   6 1124.29   55.09
  -1   1   6 1091.69   55.29
  -1   1   6 1038.80   54.59
   0  -1  -6  384.66   22.50
   0  -1  -6  404.76   19.70
   0   1   6  356.96   21.10
   0   1   6  377.86   22.10
   0   1   6  373.36   21.20
  -1  -1  -6    8.00    2.80
  -1  -1  -6    6.90    3.10
   1   1   6   11.10    3.30
   1   1   6    4.60    2.40
   1   1   6    7.30    2.70
   1   1   6   15.10    3.10
  -2  -1  -6  689.53   37.60
  -2  -1  -6  671.83   37.50
   2   1   6  747.33   37.60
   2   1   6  649.24   36.10
   2   1   6  675.83   37.50
   2   1   6  746.33   37.40
  -3  -1  -6  223.58   14.50
  -3  -1  -6  200.38   13.80
   3   1   6  207.08   13.80
   3   1   6  192.88   14.10
   3   1   6  188.08   12.40
  -4  -1  -6  423.66   22.90
  -4  -1  -6  374.06   22.90
   4   1   6  353.66   20.90
   4   1   6  370.86   23.70
  -5  -1  -6   28.40    5.60
  -5  -1  -6   19.80    4.50
   5   1   6   30.00    6.50
   5   1   6   26.50    4.00
   9  -2  -6    4.60    1.90
   9  -2  -6    0.00    2.90
  -9   2   6    1.90    2.60
   8  -2  -6  283.87   16.20
   8  -2  -6  308.87   17.80
   8  -2  -6  269.87   18.20
  -8   2   6  262.87   17.10
   7  -2  -6   82.19    9.00
   7  -2  -6   57.69    7.40
   7  -2  -6   70.79    6.10
  -7   2   6   61.49    6.90
  -7   2   6   72.59    6.60
   6  -2  -6 1015.70   55.89
   6  -2  -6 1135.59   54.49
   6  -2  -6 1054.79   55.69
  -6   2   6 1072.49   53.49
  -6   2   6 1039.90   54.29
   5  -2  -6  640.64   33.00
   5  -2  -6  587.04   31.90
   5  -2  -6  532.95   33.40
  -5   2   6  646.74   31.10
  -5   2   6  571.04   31.60
   4  -2  -6 2133.39  101.49
   4  -2  -6 1960.30  103.09
   4  -2  -6 1932.61  100.79
  -4   2   6 1994.00  100.39
  -4   2   6 2146.19   99.89
   3  -2  -6    7.20    2.50
   3  -2  -6    9.60    3.40
   3  -2  -6   25.00    3.70
   3  -2  -6   11.90    2.40
  -3   2   6    8.00    2.70
  -3   2   6   11.80    3.10
  -3   2   6   14.30    2.60
   2  -2  -6 2752.02  134.79
   2  -2  -6 2709.13  136.89
   2  -2  -6 2721.23  134.79
   2  -2  -6 2678.53  135.29
  -2   2   6 2758.22  135.69
  -2   2   6 2782.72  135.49
  -2   2   6 2903.51  135.09
   1  -2  -6  403.36   23.00
   1  -2  -6  410.96   24.40
   1  -2  -6  425.96   23.40
  -1   2   6  427.06   23.80
  -1   2   6  405.76   23.40
  -1   2   6  439.86   23.10
   0  -2  -6 2294.67  117.79
   0  -2  -6 2296.17  118.39
   0   2   6 2366.06  117.59
   0   2   6 2566.74  119.09
   0   2   6 2375.96  117.39
  -1  -2  -6   55.69    7.00
  -1  -2  -6   60.59    7.20
   1   2   6   58.89    5.90
   1   2   6   61.59    7.00
  -2  -2  -6 2400.06  114.89
  -2  -2  -6 2394.16  115.49
   2   2   6 2290.07  113.89
   2   2   6 2075.59  114.99
   2   2   6 2362.16  115.39
  -3  -2  -6  433.96   23.40
  -3  -2  -6  379.46   24.00
   3   2   6  406.66   23.70
   3   2   6  399.06   24.20
   3   2   6  372.46   22.30
  -4  -2  -6  739.33   41.90
  -4  -2  -6  832.42   43.50
   4   2   6  791.92   41.60
   4   2   6  830.82   44.60
  -5  -2  -6    6.30    3.80
   5   2   6    7.50    2.90
   5   2   6    4.70    4.10
   9  -3  -6    8.80    2.40
   9  -3  -6   10.50    4.80
  -9   3   6   11.20    3.50
   8  -3  -6  213.38   14.80
   8  -3  -6  207.48   15.00
   8  -3  -6  211.08   12.80
  -8   3   6  190.18   13.50
   7  -3  -6    0.50    1.70
   7  -3  -6    5.40    3.30
   7  -3  -6   -1.00    2.10
  -7   3   6    6.70    2.90
   6  -3  -6 1175.58   57.09
   6  -3  -6  973.90   57.29
   6  -3  -6 1091.89   55.59
  -6   3   6 1105.69   55.79
   5  -3  -6    0.10    1.70
   5  -3  -6   -1.50    2.30
   5  -3  -6    0.20    2.10
  -5   3   6    4.50    1.90
  -5   3   6    5.10    2.70
   4  -3  -6  704.93   35.80
   4  -3  -6  682.03   35.70
   4  -3  -6  649.54   37.70
  -4   3   6  654.53   35.50
  -4   3   6  662.63   34.40
   3  -3  -6    8.80    2.60
   3  -3  -6   18.30    3.10
   3  -3  -6    9.80    2.50
   3  -3  -6    9.40    3.70
  -3   3   6    9.80    2.90
  -3   3   6   11.90    2.60
   2  -3  -6  828.62   42.70
   2  -3  -6  814.52   41.40
   2  -3  -6  842.12   44.30
   2  -3  -6  781.32   42.50
  -2   3   6  835.02   42.00
  -2   3   6  829.02   43.20
  -2   3   6  814.92   43.10
   1  -3  -6  216.08   12.90
   1  -3  -6  159.28   12.70
  -1   3   6  221.38   13.70
  -1   3   6  168.28   12.20
  -1   3   6  162.28   11.50
   0  -3  -6   32.30    5.40
   0  -3  -6   54.19    6.60
   0   3   6   41.20    5.40
   0   3   6   36.90    5.30
   0   3   6   38.00    6.20
  -1  -3  -6  778.32   44.30
  -1  -3  -6  841.32   44.50
   1   3   6  898.01   45.40
   1   3   6  837.42   44.10
   1   3   6  808.72   43.60
  -2  -3  -6   89.29    8.80
  -2  -3  -6   74.99    7.80
   2   3   6   79.29    9.00
   2   3   6   77.79    7.30
   2   3   6   72.99    8.90
  -3  -3  -6  309.97   20.40
  -3  -3  -6  316.47   19.30
   3   3   6  328.47   20.70
   3   3   6  323.17   20.60
   3   3   6  307.07   19.00
  -4  -3  -6    8.90    4.20
   4   3   6    9.30    3.20
   4   3   6    6.30    3.90
   9  -4  -6  104.89   10.50
   9  -4  -6  111.69   10.30
   9  -4  -6  122.09    8.70
  -9   4   6  107.69    9.60
   8  -4  -6    7.20    3.70
   8  -4  -6    7.70    3.50
   8  -4  -6    5.70    2.50
  -8   4   6    4.00    3.00
   7  -4  -6  682.53   36.50
   7  -4  -6  667.93   34.90
   7  -4  -6  613.64   36.90
  -7   4   6  640.24   35.20
   6  -4  -6    5.60    3.10
   6  -4  -6    7.00    2.90
   6  -4  -6    7.20    3.60
  -6   4   6    6.90    2.90
   5  -4  -6 1182.58   60.59
   5  -4  -6 1252.57   62.69
   5  -4  -6 1217.48   60.99
  -5   4   6 1093.39   60.39
   4  -4  -6  419.56   22.90
   4  -4  -6  455.45   25.40
   4  -4  -6  406.06   23.10
  -4   4   6  359.46   22.80
  -4   4   6  393.06   21.40
   3  -4  -6 1904.91   99.69
   3  -4  -6 1963.50   97.99
   3  -4  -6 2114.79   97.39
   3  -4  -6 1879.41   96.69
  -3   4   6 1960.50   96.49
  -3   4   6 1947.61   98.19
   2  -4  -6   81.39    8.10
   2  -4  -6   78.19    7.90
   2  -4  -6   77.39    7.20
  -2   4   6   72.19    5.80
  -2   4   6   78.39    8.70
  -2   4   6   83.29    7.60
  -2   4   6   67.99    6.10
   1  -4  -6 1517.75   77.99
   1  -4  -6 1435.36   78.09
  -1   4   6 1508.75   76.79
  -1   4   6 1634.04   77.99
  -1   4   6 1564.24   78.99
   0  -4  -6  747.43   42.00
   0  -4  -6  747.33   42.00
   0   4   6  790.62   41.30
   0   4   6  799.52   41.80
   0   4   6  804.82   42.70
  -1  -4  -6 1792.52   95.19
  -1  -4  -6 1824.22   95.89
   1   4   6 2098.89   96.69
   1   4   6 1889.61   95.19
   1   4   6 1870.91   95.49
  -2  -4  -6   16.40    4.80
  -2  -4  -6   12.70    4.10
   2   4   6   17.90    4.10
   2   4   6    9.60    3.70
   2   4   6   16.10    4.70
  -3  -4  -6  714.13   41.10
   3   4   6  794.22   42.10
   3   4   6  709.43   40.00
   3   4   6  743.33   41.40
  -4  -4  -6  118.79   11.90
   4   4   6  141.29   12.60
   4   4   6  145.09   11.30
   8  -5  -6   39.60    6.90
   8  -5  -6   38.40    5.40
   8  -5  -6   40.20    6.80
  -8   5   6   41.50    6.20
   7  -5  -6  336.27   22.10
   7  -5  -6  353.16   21.50
   7  -5  -6  362.76   20.60
  -7   5   6  309.07   20.40
   6  -5  -6   38.50    6.60
   6  -5  -6   44.80    5.90
   6  -5  -6   46.80    6.50
  -6   5   6   54.79    6.90
   5  -5  -6  643.74   34.90
   5  -5  -6  603.44   33.30
   5  -5  -6  632.74   33.70
  -5   5   6  570.04   33.20
   4  -5  -6   54.49    6.10
   4  -5  -6   47.80    7.00
   4  -5  -6   54.39    6.70
  -4   5   6   52.99    6.90
   3  -5  -6  468.55   26.10
   3  -5  -6  537.35   26.40
   3  -5  -6  429.06   27.50
   3  -5  -6  439.36   26.40
  -3   5   6  447.36   25.20
  -3   5   6  458.95   26.90
   2  -5  -6   66.69    7.90
   2  -5  -6   80.39    9.50
  -2   5   6   76.49    6.50
  -2   5   6   79.99    9.20
   1  -5  -6   56.49    7.60
   1  -5  -6   56.89    7.80
  -1   5   6   60.89    8.10
  -1   5   6   84.09    9.30
  -1   5   6   66.39    6.60
   0  -5  -6  512.05   30.90
   0  -5  -6  527.55   30.40
   0   5   6  551.04   30.90
   0   5   6  523.65   29.70
   0   5   6  543.25   30.70
  -1  -5  -6   64.39    8.90
  -1  -5  -6   66.09    8.30
   1   5   6   79.29    9.00
   1   5   6   51.89    7.50
   1   5   6   64.79    8.10
  -2  -5  -6  339.67   23.30
   2   5   6  376.76   23.20
   2   5   6  377.96   23.20
   2   5   6  358.36   22.50
  -3  -5  -6    2.20    3.80
   3   5   6    5.60    3.70
   3   5   6   -1.30    2.80
   3   5   6    2.10    3.00
   8  -6  -6  324.97   19.40
   8  -6  -6  297.77   21.00
   8  -6  -6  314.57   20.60
  -8   6   6  309.17   19.70
  -8   6   6  304.97   20.00
   7  -6  -6    2.70    3.40
   7  -6  -6    2.40    3.20
   7  -6  -6    0.40    2.20
  -7   6   6    3.40    3.00
  -7   6   6    2.80    2.90
   6  -6  -6  791.92   43.00
   6  -6  -6  875.31   44.20
   6  -6  -6  816.32   43.30
  -6   6   6  737.13   42.60
  -6   6   6  779.92   42.90
   5  -6  -6   82.09    7.80
   5  -6  -6   87.39    8.90
   5  -6  -6   89.99    8.50
  -5   6   6   65.09    8.10
  -5   6   6   77.09    7.60
   4  -6  -6  870.01   45.20
   4  -6  -6  814.12   44.50
  -4   6   6  815.92   43.40
  -4   6   6  816.82   44.70
   3  -6  -6   18.50    4.60
   3  -6  -6   22.70    5.10
  -3   6   6   17.70    4.70
   2  -6  -6 1013.60   51.89
   2  -6  -6  963.80   52.79
  -2   6   6  976.50   53.39
   1  -6  -6   78.79    9.30
   1  -6  -6   68.59    8.90
  -1   6   6   68.19    8.80
  -1   6   6   82.49    7.60
   0  -6  -6 1264.17   65.79
   0  -6  -6 1247.78   66.69
   0   6   6 1255.57   66.09
   0   6   6 1243.88   66.29
   0   6   6 1288.67   65.49
  -1  -6  -6  188.88   15.60
   1   6   6  182.28   14.30
   1   6   6  197.58   14.40
   1   6   6  186.78   14.70
   2   6   6  635.24   37.10
   2   6   6  682.33   37.10
   2   6   6  631.34   37.30
   7  -7  -6   45.00    7.00
   7  -7  -6   39.20    6.20
  -7   7   6   37.00    6.10
  -7   7   6   36.30    6.20
   6  -7  -6  206.38   15.00
   6  -7  -6  218.58   15.30
  -6   7   6  206.88   14.60
  -6   7   6  199.08   14.80
   5  -7  -6   44.70    6.80
   5  -7  -6   47.90    7.00
  -5   7   6   37.90    6.50
  -5   7   6   42.90    6.30
   4  -7  -6  439.36   26.50
  -4   7   6  464.25   27.30
   3  -7  -6  309.97   19.60
  -3   7   6  294.87   20.40
   2  -7  -6   25.10    5.40
   2  -7  -6   19.00    4.70
  -2   7   6   18.80    5.30
   1  -7  -6   57.09    8.10
   1  -7  -6   74.09    9.10
  -1   7   6   66.29    8.70
   0  -7  -6   42.10    7.70
   0   7   6   34.50    6.30
  -1  -7  -6  439.96   27.70
   1   7   6  438.46   26.40
   1   7   6  439.06   26.70
   1   7   6  421.06   27.10
   6  -8  -6   21.80    5.50
   6  -8  -6   24.90    5.70
   6  -8  -6   24.90    5.50
  -6   8   6   18.80    5.00
  -6   8   6   20.70    7.00
   5  -8  -6  348.77   22.30
  -5   8   6  399.16   24.00
   4  -8  -6    2.50    3.40
  -4   8   6    1.00    3.50
   3  -8  -6  545.45   31.50
  -3   8   6  566.44   33.10
   2  -8  -6   75.09    8.80
   2  -8  -6   86.19    8.80
  -2   8   6   95.89   10.90
   1  -8  -6  548.15   31.70
  -1   8   6  552.44   32.30
   0  10  -7  450.85   27.90
   0 -10   7  419.66   26.70
  -1  10  -7    6.40    4.20
   1 -10   7    8.80    4.50
  -2  10  -7   54.79    8.30
   2 -10   7   50.29    7.70
   3   9  -7   28.20    6.10
  -3  -9   7   19.60    4.90
  -3  -9   7   23.40    5.00
   2   9  -7  799.92   43.50
  -2  -9   7  703.43   40.90
   1   9  -7  120.59   11.70
  -1  -9   7   95.09   10.00
   0   9  -7  905.71   48.90
   0  -9   7  815.22   46.60
  -1   9  -7   16.60    5.20
   1  -9   7   21.50    5.30
  -2   9  -7  331.27   22.00
   2  -9   7  330.57   21.20
   2  -9   7  315.47   20.80
  -3   9  -7    1.10    3.00
  -3   9  -7    4.20    4.00
   3  -9   7    5.90    3.50
   3  -9   7    1.10    3.00
  -4   9  -7  334.77   22.60
  -4   9  -7  300.07   21.40
   4  -9   7  327.67   20.90
   4  -9   7  331.67   20.60
   4   8  -7   41.10    6.70
   4   8  -7   39.40    7.50
   4   8  -7   39.10    6.50
  -4  -8   7   35.70    6.30
  -4  -8   7   35.90    6.20
   3   8  -7  199.98   15.80
   3   8  -7  194.78   13.80
  -3  -8   7  181.18   13.50
  -3  -8   7  168.68   13.30
   2   8  -7    0.20    4.00
  -2  -8   7   12.40    4.60
  -2  -8   7    1.60    3.30
   1   8  -7  313.07   21.00
  -1  -8   7  248.58   17.00
  -1  -8   7  267.07   18.00
   0   8  -7   55.99    8.90
   0  -8   7   48.20    7.10
  -1   8  -7  630.54   35.40
   1  -8   7  593.44   33.20
   1  -8   7  533.55   32.30
  -2   8  -7   33.20    6.80
  -2   8  -7   48.80    7.00
   2  -8   7   41.00    6.30
   2  -8   7   36.40    5.90
  -3   8  -7  607.54   35.30
  -3   8  -7  576.54   34.00
   3  -8   7  604.64   33.10
   3  -8   7  563.64   32.60
  -4   8  -7   32.50    7.40
  -4   8  -7   22.90    5.80
   4  -8   7   28.50    5.50
   4  -8   7   29.80    4.90
  -5   8  -7  769.32   44.50
  -5   8  -7  775.52   43.40
   5  -8   7  792.52   40.70
   5  -8   7  732.53   41.90
   5   7  -7  923.31   46.40
   5   7  -7  800.22   47.80
   5   7  -7  861.61   46.00
  -5  -7   7  822.52   46.50
   4   7  -7  185.78   16.00
   4   7  -7  215.18   14.50
   4   7  -7  228.88   15.20
  -4  -7   7  208.18   14.60
  -4  -7   7  200.08   15.10
   3   7  -7  628.74   33.80
   3   7  -7  627.34   34.70
   3   7  -7  640.94   37.60
  -3  -7   7  582.04   34.20
  -3  -7   7  604.44   34.00
   2   7  -7   31.30    4.90
   2   7  -7   32.40    7.40
  -2  -7   7   27.00    5.20
  -2  -7   7   31.00    5.50
   1   7  -7 2140.39  108.09
  -1  -7   7 2074.29  104.49
  -1  -7   7 2046.70  104.19
   0   7  -7  288.27   20.10
   0  -7   7  262.27   16.70
   0  -7   7  247.28   16.50
  -1   7  -7  424.66   24.40
  -1   7  -7  401.56   26.20
   1  -7   7  401.86   23.60
   1  -7   7  407.66   24.10
  -2   7  -7   41.00    6.60
  -2   7  -7   35.60    7.10
   2  -7   7   39.50    5.90
   2  -7   7   38.70    5.80
  -3   7  -7  737.43   42.00
  -3   7  -7  798.22   44.00
   3  -7   7  755.92   40.80
   3  -7   7  755.62   40.50
  -4   7  -7    0.10    3.00
  -4   7  -7    3.00    4.30
   4  -7   7    4.00    3.00
   4  -7   7    2.00    2.20
  -5   7  -7  209.58   17.20
  -5   7  -7  188.98   15.10
   5  -7   7  211.08   14.50
   5  -7   7  202.88   12.90
   6   6  -7   16.90    4.50
   6   6  -7   13.30    3.70
   6   6  -7   12.30    4.80
  -6  -6   7   15.30    5.60
   5   6  -7   88.59   11.40
   5   6  -7   99.19    8.60
   5   6  -7   87.09    8.50
  -5  -6   7   76.09    9.70
   4   6  -7  314.27   19.70
   4   6  -7  354.66   20.40
   4   6  -7  310.27   22.40
  -4  -6   7  333.17   20.10
  -4  -6   7  327.57   21.10
   3   6  -7    5.40    2.90
   3   6  -7    1.30    3.90
   3   6  -7    4.20    2.60
  -3  -6   7    5.50    3.50
  -3  -6   7    2.10    2.70
   2   6  -7  555.84   31.20
   2   6  -7  545.35   30.00
   2   6  -7  544.25   34.50
  -2  -6   7  571.24   31.50
  -2  -6   7  608.44   31.20
   1   6  -7   92.79   11.70
  -1  -6   7  107.39    8.90
  -1  -6   7  102.39    8.30
   0   6  -7  543.75   29.70
   0   6  -7  505.85   32.40
   0  -6   7  537.85   29.60
   0  -6   7  498.35   28.70
   0  -6   7  558.74   29.50
  -1   6  -7   96.09    8.90
  -1   6  -7   85.69   11.00
   1  -6   7  108.89    8.80
   1  -6   7  108.19    8.60
   1  -6   7  104.69    8.40
  -2   6  -7 1653.63   85.19
  -2   6  -7 1676.13   86.99
   2  -6   7 1699.33   84.09
   2  -6   7 1662.33   83.89
   2  -6   7 1667.13   83.99
  -3   6  -7   43.80    6.70
  -3   6  -7   30.10    7.10
   3  -6   7   26.00    4.60
   3  -6   7   23.90    4.10
  -4   6  -7  796.42   44.30
  -4   6  -7  819.42   46.40
   4  -6   7  806.72   41.90
   4  -6   7  810.52   43.30
  -5   6  -7  130.89   11.50
  -5   6  -7  126.89   13.20
   5  -6   7  120.89    9.00
   5  -6   7  145.79   11.00
  -6   6  -7  777.52   43.10
   6  -6   7  797.22   40.00
   6  -6   7  751.92   42.30
   7   5  -7   42.10    6.50
   7   5  -7   51.39    8.40
   7   5  -7   35.80    5.30
  -7  -5   7   38.70    7.10
   6   5  -7  530.05   30.10
   6   5  -7  551.44   30.90
   6   5  -7  553.44   33.10
  -6  -5   7  566.54   32.60
   5   5  -7   36.40    7.00
   5   5  -7   30.00    5.00
   5   5  -7   40.50    5.70
  -5  -5   7   26.20    6.00
   4   5  -7 1632.64   81.49
   4   5  -7 1571.94   84.89
   4   5  -7 1601.74   81.79
  -4  -5   7 1609.34   82.99
  -4  -5   7 1698.63   83.59
   3   5  -7  417.66   23.60
   3   5  -7  435.66   27.60
   3   5  -7  433.16   24.40
  -3  -5   7  417.76   25.00
  -3  -5   7  446.76   24.00
   2   5  -7 1747.13   91.39
   2   5  -7 1751.82   86.69
   2   5  -7 1730.03   87.79
  -2  -5   7 1816.42   87.39
  -2  -5   7 1728.73   88.09
   1   5  -7   49.10    7.70
   1   5  -7   18.10    4.40
  -1  -5   7   15.90    3.80
  -1  -5   7   16.60    3.30
  -1  -5   7   14.50    3.80
   0   5  -7 1938.81   97.99
   0   5  -7 1774.92   94.69
   0  -5   7 1927.91   93.79
   0  -5   7 1863.61   94.39
   0  -5   7 1943.01   94.39
  -1   5  -7   91.59   11.00
  -1   5  -7   98.19    8.90
   1  -5   7   95.89    8.10
   1  -5   7  100.89    8.10
   1  -5   7   96.19    7.60
  -2   5  -7  397.26   25.50
  -2   5  -7  391.66   24.00
   2  -5   7  410.16   22.90
   2  -5   7  402.26   22.70
   2  -5   7  417.16   23.00
  -3   5  -7   53.29    7.40
  -3   5  -7   40.70    7.40
   3  -5   7   55.49    5.40
   3  -5   7   55.49    6.50
   3  -5   7   40.80    5.90
  -4   5  -7  730.13   44.00
  -4   5  -7  756.22   42.50
   4  -5   7  814.42   41.90
   4  -5   7  793.02   40.20
  -5   5  -7   21.10    5.00
  -5   5  -7   18.30    6.20
   5  -5   7   20.20    4.60
   5  -5   7   16.70    3.00
  -6   5  -7   98.19    9.90
   6  -5   7  107.59    9.40
   6  -5   7  100.99    7.20
   7   4  -7  109.79    8.70
   7   4  -7  114.89   11.30
   7   4  -7  113.69    9.70
  -7  -4   7  106.29   10.60
   6   4  -7  250.97   18.00
   6   4  -7  231.68   15.00
   6   4  -7  252.47   15.80
  -6  -4   7  230.98   17.00
   5   4  -7  177.08   14.60
   5   4  -7  173.48   12.00
   5   4  -7  190.38   12.30
  -5  -4   7  184.18   13.70
   4   4  -7   21.90    3.90
   4   4  -7   22.20    5.50
   4   4  -7   22.50    3.90
  -4  -4   7   22.40    4.70
   3   4  -7  727.33   40.20
   3   4  -7  777.22   39.70
   3   4  -7  821.62   43.70
  -3  -4   7  739.53   40.80
  -3  -4   7  798.32   39.50
   2   4  -7  114.19    7.60
   2   4  -7  112.59    9.40
   2   4  -7  125.99   11.10
   2   4  -7  117.19    8.60
  -2  -4   7  106.49    8.70
  -2  -4   7  132.89    8.10
   1   4  -7  962.40   49.99
   1   4  -7  905.61   46.80
   1   4  -7  913.61   51.49
   1   4  -7  902.51   48.50
  -1  -4   7  961.80   48.10
  -1  -4   7  991.90   49.20
  -1  -4   7 1018.70   49.50
   0   4  -7   53.29    8.20
   0   4  -7   48.40    6.40
   0  -4   7   46.00    5.60
   0  -4   7   45.90    5.70
   0  -4   7   46.40    4.80
  -1   4  -7 2001.10   97.69
  -1   4  -7 1955.20   98.89
   1  -4   7 1880.31   96.39
   1  -4   7 1924.41   96.29
   1  -4   7 1937.31   96.19
  -2   4  -7   82.99    9.30
  -2   4  -7   70.99    9.20
   2  -4   7   80.19    7.20
   2  -4   7   94.29    7.10
  -3   4  -7 2109.89  104.29
  -3   4  -7 1941.11  102.79
   3  -4   7 2115.09  102.09
   3  -4   7 2002.30  102.09
   3  -4   7 2036.40  100.79
  -4   4  -7  192.18   15.30
  -4   4  -7  166.38   13.40
   4  -4   7  209.18   11.90
   4  -4   7  164.78   13.20
   4  -4   7  194.18   13.10
  -5   4  -7  564.84   33.10
   5  -4   7  593.64   32.60
   5  -4   7  587.24   30.30
  -6   4  -7   32.80    5.90
   6  -4   7   30.40    5.40
   6  -4   7   33.90    3.60
   8   3  -7   65.19    6.30
   8   3  -7   65.59    9.10
   8   3  -7   64.49    7.70
  -8  -3   7   71.79    9.10
   7   3  -7  771.52   42.70
   7   3  -7  778.22   40.70
   7   3  -7  741.93   39.50
  -7  -3   7  732.43   41.70
   6   3  -7   15.40    4.40
   6   3  -7   18.50    3.60
   6   3  -7   17.00    3.70
  -6  -3   7   21.20    5.10
   5   3  -7 1240.18   60.89
   5   3  -7 1129.89   60.69
   5   3  -7 1157.58   63.29
  -5  -3   7 1265.97   62.29
   4   3  -7  399.36   21.90
   4   3  -7  379.36   23.90
   4   3  -7  389.36   21.40
  -4  -3   7  379.66   22.40
   3   3  -7 3432.96  169.78
   3   3  -7 3191.68  167.18
   3   3  -7 3541.75  166.48
   3   3  -7 3420.46  167.38
  -3  -3   7 3571.44  165.98
  -3  -3   7 3373.06  167.68
   2   3  -7   86.39    8.00
   2   3  -7   93.49    8.80
   2   3  -7   80.59    6.90
   2   3  -7   91.89    6.00
  -2  -3   7   91.49    6.30
  -2  -3   7   84.39    7.20
  -2  -3   7  105.19    7.90
   1   3  -7 1081.19   56.29
   1   3  -7 1075.19   56.99
   1   3  -7 1053.29   54.59
  -1  -3   7 1080.99   55.19
  -1  -3   7 1029.80   52.99
  -1  -3   7 1133.99   54.19
  -1  -3   7 1123.29   55.49
   0   3  -7   87.59    8.40
   0   3  -7   89.29    8.50
   0  -3   7   90.79    6.80
   0  -3   7   95.69    7.60
   0  -3   7  105.09    7.90
  -1   3  -7 1721.83   85.39
  -1   3  -7 1609.04   84.89
   1  -3   7 1661.43   83.39
   1  -3   7 1669.63   83.79
   1  -3   7 1715.73   83.59
  -2   3  -7   19.40    4.50
  -2   3  -7   16.30    4.40
   2  -3   7   17.00    3.60
   2  -3   7   14.90    3.60
   2  -3   7   19.70    3.40
  -3   3  -7  583.54   33.10
  -3   3  -7  594.14   33.40
   3  -3   7  592.34   32.10
   3  -3   7  563.44   32.30
   3  -3   7  602.44   31.10
  -4   3  -7    2.60    3.10
   4  -3   7   13.70    2.60
   4  -3   7    4.80    2.70
   4  -3   7    5.70    3.20
  -5   3  -7  405.96   24.50
   5  -3   7  388.46   23.50
   5  -3   7  401.56   25.30
   5  -3   7  413.06   21.40
  -6   3  -7  116.19   10.80
   6  -3   7  124.69    7.80
   6  -3   7  132.69   10.50
   8   2  -7    4.80    2.80
   8   2  -7    3.40    2.10
   8   2  -7    4.70    3.50
  -8  -2   7    1.00    2.50
  -8  -2   7    4.60    3.80
   7   2  -7   17.90    4.00
   7   2  -7   18.30    4.80
   7   2  -7   12.00    3.00
  -7  -2   7   14.10    4.30
  -7  -2   7   13.70    3.80
   6   2  -7  494.75   30.40
   6   2  -7  542.95   28.30
   6   2  -7  535.25   28.70
  -6  -2   7  512.55   29.40
   5   2  -7  114.39   10.70
   5   2  -7  116.49    8.70
   5   2  -7  113.29    8.70
  -5  -2   7  165.58   10.50
   4   2  -7  274.57   15.90
   4   2  -7  312.07   17.40
   4   2  -7  272.27   16.30
   4   2  -7  280.37   18.30
  -4  -2   7  250.97   16.50
  -4  -2   7  288.57   16.30
   3   2  -7    0.40    1.70
   3   2  -7    2.60    1.50
   3   2  -7    4.80    2.40
   3   2  -7    8.40    3.20
  -3  -2   7    5.00    2.30
  -3  -2   7    1.20    1.10
  -3  -2   7    3.00    1.80
   2   2  -7 2283.87  109.89
   2   2  -7 2280.47  111.49
   2   2  -7 2140.89  111.19
  -2  -2   7 2259.97  110.49
  -2  -2   7 2172.78  109.99
  -2  -2   7 2128.39  108.59
  -2  -2   7 2348.07  108.79
   1   2  -7   46.70    5.10
   1   2  -7   43.50    6.10
   1   2  -7   40.20    5.50
  -1  -2   7   40.20    5.00
  -1  -2   7   41.70    4.00
  -1  -2   7   53.69    5.90
  -1  -2   7   42.70    3.50
   0   2  -7 1315.57   68.99
   0   2  -7 1333.57   69.59
   0  -2   7 1366.66   68.49
   0  -2   7 1406.66   67.29
   0  -2   7 1326.17   68.49
   0  -2   7 1399.96   67.89
  -1   2  -7  358.66   22.30
  -1   2  -7  372.56   21.70
   1  -2   7  373.36   21.20
   1  -2   7  373.56   21.00
   1  -2   7  384.96   21.00
  -2   2  -7 3081.89  151.88
  -2   2  -7 3104.89  153.18
   2  -2   7 3064.89  152.18
   2  -2   7 3173.28  150.98
   2  -2   7 3027.50  151.88
  -3   2  -7  176.38   13.60
   3  -2   7  170.48   12.60
   3  -2   7  186.18   12.60
   3  -2   7  198.88   11.40
  -4   2  -7  822.22   44.20
   4  -2   7  827.72   41.20
   4  -2   7  771.02   43.90
   4  -2   7  816.72   43.10
  -5   2  -7   59.99    7.80
   5  -2   7   68.99    9.00
   5  -2   7   53.99    6.60
   5  -2   7   44.20    4.40
  -6   2  -7  756.82   41.00
   6  -2   7  730.73   43.30
   6  -2   7  728.63   37.60
   6  -2   7  758.22   40.40
   8   1  -7  663.13   36.60
   8   1  -7  676.23   38.50
   8   1  -7  674.73   35.80
  -8  -1   7  674.43   37.00
  -8  -1   7  697.53   37.00
   7   1  -7    1.50    2.00
   7   1  -7    4.20    3.10
   7   1  -7   13.40    3.40
  -7  -1   7    8.60    3.20
  -7  -1   7    2.80    2.90
   6   1  -7 1302.87   64.59
   6   1  -7 1308.87   64.79
   6   1  -7 1242.18   66.79
  -6  -1   7 1256.27   64.89
  -6  -1   7 1281.07   65.09
   5   1  -7  448.56   24.60
   5   1  -7  416.66   25.60
   5   1  -7  432.06   23.50
   5   1  -7  415.56   23.60
  -5  -1   7  434.46   24.00
  -5  -1   7  438.46   23.80
   4   1  -7 1794.22   94.69
   4   1  -7 1870.41   95.19
   4   1  -7 1947.61   93.49
  -4  -1   7 1923.61   93.49
  -4  -1   7 1881.81   92.99
   3   1  -7  200.38   13.60
   3   1  -7  195.58   13.60
   3   1  -7  197.98   12.30
  -3  -1   7  191.48   11.70
  -3  -1   7  204.18   11.00
  -3  -1   7  210.58   12.60
   2   1  -7 2431.26  131.29
   2   1  -7 2703.93  130.09
   2   1  -7 2764.92  131.19
  -2  -1   7 2637.24  128.89
  -2  -1   7 2652.43  128.99
  -2  -1   7 2590.54  130.39
  -2  -1   7 2774.12  130.29
   1   1  -7   26.70    3.80
   1   1  -7    5.50    2.40
   1   1  -7    7.10    3.50
  -1  -1   7    6.80    2.50
  -1  -1   7   14.10    2.50
  -1  -1   7    7.40    2.60
  -1  -1   7    7.90    2.10
   0   1  -7  679.13   38.70
   0   1  -7  761.12   40.60
   0  -1   7  802.22   38.60
   0  -1   7  745.83   39.30
   0  -1   7  729.63   39.00
   0  -1   7  797.42   39.00
  -1   1  -7    2.80    1.90
  -1   1  -7    4.10    3.10
   1  -1   7    1.50    1.60
   1  -1   7    1.20    1.80
   1  -1   7    1.70    1.80
  -2   1  -7 1806.42   93.59
   2  -1   7 1860.81   92.99
   2  -1   7 1895.61   91.49
   2  -1   7 1843.62   92.59
  -3   1  -7   14.60    4.50
   3  -1   7    8.40    3.10
   3  -1   7   14.10    2.70
   3  -1   7   15.10    3.60
  -4   1  -7  100.99    9.60
   4  -1   7  111.29    7.40
   4  -1   7   97.29    9.60
   4  -1   7   92.49    8.30
  -5   1  -7   76.89    9.10
  -5   1  -7   90.29    8.60
   5  -1   7  101.59   11.50
   5  -1   7   86.29    6.60
   5  -1   7   96.79    8.50
   9   0  -7    8.10    2.50
   9   0  -7   13.60    4.40
  -9   0   7    6.60    3.40
  -9   0   7    5.50    3.40
   8   0  -7  154.28   12.40
   8   0  -7  157.48   10.50
  -8   0   7  156.98   11.20
  -8   0   7  140.19   11.20
   7   0  -7  265.27   15.10
   7   0  -7  240.18   16.70
  -7   0   7  230.58   15.10
  -7   0   7  228.08   15.00
   6   0  -7    3.20    2.30
   6   0  -7    4.60    2.30
   6   0  -7    1.10    2.60
  -6   0   7    7.50    2.70
  -6   0   7    2.60    2.20
   5   0  -7  579.74   31.00
   5   0  -7  596.54   32.80
   5   0  -7  613.44   32.90
  -5   0   7  556.44   30.60
  -5   0   7  557.34   30.60
   4   0  -7  204.98   14.30
   4   0  -7  186.98   12.40
   4   0  -7  196.58   13.40
  -4   0   7  206.48   12.30
  -4   0   7  188.48   11.80
   3   0  -7 1104.29   60.49
   3   0  -7 1180.48   58.49
   3   0  -7 1215.38   61.69
  -3   0   7 1282.27   61.79
  -3   0   7 1158.18   59.09
  -3   0   7 1182.78   59.69
   2   0  -7   69.89    8.00
   2   0  -7   50.69    5.40
   2   0  -7   63.49    5.70
  -2   0   7   61.09    5.10
  -2   0   7   57.59    4.50
  -2   0   7   61.09    5.60
  -2   0   7   60.79    5.70
   1   0  -7 1814.12   88.59
   1   0  -7 1769.82   90.59
   1   0  -7 1782.22   88.79
  -1   0   7 1760.02   88.39
  -1   0   7 1834.52   89.19
  -1   0   7 1789.72   88.39
  -1   0   7 1800.42   89.09
   0   0  -7   96.49    8.40
   0   0  -7   75.89    6.10
   0   0   7   82.49    7.10
   0   0   7   92.59    7.10
   0   0   7   95.99    7.60
   0   0   7   96.99    7.00
  -1   0  -7 3009.80  144.49
   1   0   7 2981.70  143.29
   1   0   7 2896.91  142.69
   1   0   7 2924.11  143.69
   1   0   7 2764.62  142.79
  -2   0  -7  280.57   19.20
   2   0   7  292.17   18.80
   2   0   7  342.67   19.00
   2   0   7  330.47   18.00
  -3   0  -7 1339.37   64.89
  -3   0  -7 1198.88   63.99
   3   0   7 1322.67   64.09
   3   0   7 1189.18   62.39
   3   0   7 1184.58   64.49
  -4   0  -7   72.19    8.50
  -4   0  -7   82.69    8.30
   4   0   7   68.19    8.00
   4   0   7   76.99    9.20
   4   0   7   80.19    6.40
  -5   0  -7  738.93   39.10
  -5   0  -7  716.43   39.10
   5   0   7  736.83   41.00
   5   0   7  747.63   39.20
   5   0   7  641.84   36.60
   9  -1  -7  211.98   15.10
   9  -1  -7  206.88   12.50
  -9   1   7  178.68   13.50
   8  -1  -7   46.20    5.60
   8  -1  -7   52.19    7.50
  -8   1   7   53.69    6.30
  -8   1   7   54.49    6.50
   7  -1  -7 1154.58   66.09
   7  -1  -7 1289.27   65.69
   7  -1  -7 1352.96   67.89
  -7   1   7 1311.97   65.99
  -7   1   7 1383.96   65.59
   6  -1  -7   98.29    8.80
   6  -1  -7   85.69    7.50
   6  -1  -7   99.69    8.90
  -6   1   7   95.39    7.30
  -6   1   7   89.49    7.40
   5  -1  -7 1325.17   67.69
   5  -1  -7 1187.98   68.19
   5  -1  -7 1371.76   66.59
  -5   1   7 1304.77   65.99
  -5   1   7 1362.16   65.79
   4  -1  -7  307.87   20.50
   4  -1  -7  330.17   19.50
   4  -1  -7  323.27   18.70
  -4   1   7  307.37   18.10
  -4   1   7  337.37   18.20
   3  -1  -7 2310.67  110.09
   3  -1  -7 2221.88  110.29
   3  -1  -7 2119.69  111.59
  -3   1   7 2333.47  109.69
  -3   1   7 2133.69  109.29
   2  -1  -7    3.50    1.80
   2  -1  -7    1.90    1.90
   2  -1  -7    1.90    2.60
   2  -1  -7    3.20    1.80
  -2   1   7    4.30    2.10
  -2   1   7    5.00    2.30
  -2   1   7    3.40    2.10
   1  -1  -7  993.10   52.89
   1  -1  -7 1001.40   54.59
   1  -1  -7 1037.80   53.09
   1  -1  -7 1027.60   51.99
  -1   1   7 1062.99   53.09
  -1   1   7 1086.09   52.89
  -1   1   7 1065.19   53.39
   0  -1  -7    7.70    3.00
   0  -1  -7   14.90    3.90
   0   1   7    3.60    2.20
   0   1   7    6.60    2.50
   0   1   7   10.50    3.00
   0   1   7    5.70    2.90
  -1  -1  -7 1221.78   61.59
  -1  -1  -7 1139.89   61.09
   1   1   7 1208.38   60.89
   1   1   7 1175.68   60.29
   1   1   7 1171.88   60.99
   1   1   7 1219.98   61.39
  -2  -1  -7   14.50    3.90
  -2  -1  -7   12.60    3.80
   2   1   7   17.80    4.20
   2   1   7   18.50    3.50
   2   1   7   17.80    4.00
  -3  -1  -7  529.75   29.80
  -3  -1  -7  514.65   29.90
   3   1   7  525.65   30.40
   3   1   7  533.55   28.50
  -4  -1  -7   89.09    8.60
  -4  -1  -7   87.19    8.60
   4   1   7   91.59   10.70
   4   1   7   96.29    7.50
  -5  -1  -7   35.70    6.30
  -5  -1  -7   31.20    5.40
   5   1   7   29.70    4.60
   5   1   7   40.00    7.30
   9  -2  -7   41.80    5.00
   9  -2  -7   58.39    8.30
  -9   2   7   35.70    5.90
   8  -2  -7  171.48   12.40
   8  -2  -7  168.18   13.00
   8  -2  -7  177.38   11.40
  -8   2   7  157.78   11.90
   7  -2  -7  116.79    9.00
   7  -2  -7  121.49   10.30
   7  -2  -7  113.79   10.10
  -7   2   7   98.69   10.00
  -7   2   7  136.59    9.50
   6  -2  -7  384.36   22.10
   6  -2  -7  350.76   20.70
   6  -2  -7  319.07   22.00
  -6   2   7  385.66   20.00
  -6   2   7  345.77   20.60
   5  -2  -7   33.80    4.70
   5  -2  -7   21.20    5.10
   5  -2  -7   20.70    4.50
  -5   2   7   20.90    3.50
   4  -2  -7  948.81   46.80
   4  -2  -7  892.11   46.90
   4  -2  -7  859.11   48.70
  -4   2   7  929.91   45.70
  -4   2   7  846.52   46.00
   3  -2  -7  345.87   21.70
   3  -2  -7  347.17   20.20
   3  -2  -7  351.96   19.90
  -3   2   7  343.17   19.40
  -3   2   7  354.26   20.10
   2  -2  -7 1432.36   73.19
   2  -2  -7 1425.36   70.49
   2  -2  -7 1453.85   71.39
   2  -2  -7 1342.27   70.69
  -2   2   7 1433.26   70.89
  -2   2   7 1385.06   71.29
  -2   2   7 1448.56   71.79
   1  -2  -7  757.12   41.70
   1  -2  -7  782.42   43.20
  -1   2   7  833.92   41.70
  -1   2   7  826.02   42.60
  -1   2   7  799.12   42.10
   0  -2  -7 2160.38  113.49
   0  -2  -7 2306.17  114.49
   0   2   7 2100.69  112.89
   0   2   7 2310.37  113.49
   0   2   7 2563.84  114.89
  -1  -2  -7   11.50    3.90
  -1  -2  -7   12.00    3.70
   1   2   7   13.80    3.60
   1   2   7   15.30    4.10
   1   2   7    9.80    3.00
  -2  -2  -7 1294.97   69.19
  -2  -2  -7 1364.86   68.89
   2   2   7 1506.05   69.79
   2   2   7 1293.97   69.09
   2   2   7 1256.37   67.79
  -3  -2  -7  268.47   17.70
  -3  -2  -7  283.77   18.50
   3   2   7  283.37   17.10
   3   2   7  290.47   18.90
  -4  -2  -7  706.93   39.30
  -4  -2  -7  682.73   38.10
   4   2   7  720.53   37.80
   4   2   7  733.43   40.70
   9  -3  -7    0.70    2.70
   9  -3  -7    2.50    2.00
  -9   3   7    0.00    2.80
   8  -3  -7  551.94   29.60
   8  -3  -7  542.85   31.60
   8  -3  -7  551.44   31.50
  -8   3   7  535.15   30.30
   7  -3  -7  127.69   11.30
   7  -3  -7  129.39    9.70
   7  -3  -7  132.49   10.80
  -7   3   7  132.59   10.10
   6  -3  -7 1173.48   64.49
   6  -3  -7 1219.08   62.59
   6  -3  -7 1307.97   63.79
  -6   3   7 1198.48   62.39
   5  -3  -7  102.79    8.40
   5  -3  -7   97.19    9.90
   5  -3  -7  102.59    8.50
  -5   3   7   98.69    8.00
  -5   3   7   98.49    7.30
   4  -3  -7 1106.69   56.79
   4  -3  -7 1093.49   56.99
   4  -3  -7 1060.19   59.09
  -4   3   7 1122.99   56.99
  -4   3   7 1151.58   55.79
   3  -3  -7   11.20    4.30
   3  -3  -7   10.80    2.70
   3  -3  -7   15.20    3.40
  -3   3   7   14.60    3.50
  -3   3   7   13.50    2.90
   2  -3  -7 1207.18   60.39
   2  -3  -7 1149.78   58.39
  -2   3   7 1131.69   58.79
  -2   3   7 1063.29   58.49
  -2   3   7 1152.28   57.59
   1  -3  -7    9.50    4.20
   1  -3  -7    4.30    2.80
  -1   3   7    4.30    3.30
  -1   3   7   11.60    3.60
  -1   3   7    6.10    2.50
   0  -3  -7  954.90   50.19
   0  -3  -7  910.01   50.39
   0   3   7  972.30   49.60
   0   3   7  966.00   49.90
  -1  -3  -7   26.30    5.10
  -1  -3  -7   12.10    3.90
   1   3   7   24.20    4.90
   1   3   7   19.30    4.10
   1   3   7   24.80    5.00
  -2  -3  -7  384.66   22.30
  -2  -3  -7  338.17   22.20
   2   3   7  352.56   21.40
   2   3   7  378.76   22.80
   2   3   7  360.26   22.50
  -3  -3  -7   12.50    4.10
  -3  -3  -7    9.90    4.30
   3   3   7    8.40    3.20
   3   3   7    9.50    4.20
  -4  -3  -7   73.89    9.10
   4   3   7   73.59    9.80
   4   3   7   70.99    8.00
   8  -4  -7   49.80    7.30
   8  -4  -7   44.90    5.70
   8  -4  -7   43.90    7.00
  -8   4   7   47.60    6.60
   7  -4  -7  363.86   22.40
   7  -4  -7  386.46   23.40
   7  -4  -7  364.86   21.20
  -7   4   7  331.97   21.10
   6  -4  -7   21.10    4.50
   6  -4  -7   22.80    4.20
   6  -4  -7   21.20    5.30
  -6   4   7   22.40    4.40
   5  -4  -7  438.56   24.60
   5  -4  -7  366.66   22.00
   5  -4  -7  369.26   22.10
  -5   4   7  353.56   22.00
   4  -4  -7   14.30    3.40
   4  -4  -7   10.50    4.20
   4  -4  -7   12.70    3.70
  -4   4   7   14.60    2.90
  -4   4   7   11.50    3.50
   3  -4  -7 1004.40   53.19
   3  -4  -7 1027.10   52.09
   3  -4  -7 1069.79   55.39
  -3   4   7 1004.80   53.39
  -3   4   7 1024.40   51.89
   2  -4  -7   73.39    8.90
   2  -4  -7   74.49    8.20
  -2   4   7   65.69    6.20
  -2   4   7   63.89    8.20
   1  -4  -7 1391.96   69.79
   1  -4  -7 1290.77   68.79
  -1   4   7 1418.06   69.99
  -1   4   7 1266.37   67.59
  -1   4   7 1322.07   68.59
   0  -4  -7  272.97   18.40
   0  -4  -7  306.87   19.00
   0   4   7  270.57   17.80
   0   4   7  269.97   17.40
   0   4   7  289.97   18.60
  -1  -4  -7 1238.78   68.59
  -1  -4  -7 1293.87   68.39
   1   4   7 1557.64   69.59
   1   4   7 1289.37   68.29
   1   4   7 1250.97   67.89
  -2  -4  -7    3.30    3.70
  -2  -4  -7    7.60    3.80
   2   4   7    2.30    3.30
   2   4   7    5.60    3.60
   2   4   7    4.10    3.20
  -3  -4  -7  579.74   33.90
   3   4   7  563.34   32.70
   3   4   7  607.64   34.70
   8  -5  -7    0.60    2.70
   8  -5  -7    2.10    2.40
   8  -5  -7    3.60    3.60
  -8   5   7    5.00    3.40
   7  -5  -7  601.74   34.60
   7  -5  -7  575.74   32.70
  -7   5   7  597.94   33.10
   6  -5  -7  236.08   16.20
   6  -5  -7  237.88   16.40
   6  -5  -7  271.47   18.00
  -6   5   7  254.87   16.40
   5  -5  -7  953.00   49.30
   5  -5  -7  901.71   47.40
   5  -5  -7  892.01   47.80
  -5   5   7  862.61   47.40
   4  -5  -7   61.19    8.30
   4  -5  -7   50.89    6.80
   4  -5  -7   52.79    6.00
  -4   5   7   56.59    7.40
   3  -5  -7  572.14   34.20
  -3   5   7  602.04   33.30
   2  -5  -7   33.60    6.00
   2  -5  -7   32.90    6.50
  -2   5   7   23.20    4.10
  -2   5   7   26.80    5.60
   1  -5  -7  626.14   36.00
   1  -5  -7  629.74   35.90
  -1   5   7  606.24   34.20
  -1   5   7  681.33   36.40
   0  -5  -7   45.20    7.60
   0  -5  -7   55.19    7.80
   0   5   7   51.69    7.40
   0   5   7   46.90    6.50
   0   5   7   51.99    7.50
  -1  -5  -7  369.96   25.00
  -1  -5  -7  414.46   24.60
   1   5   7  432.96   24.80
   1   5   7  399.86   24.40
   1   5   7  384.26   24.40
  -2  -5  -7   14.90    5.50
   2   5   7   16.10    4.50
   2   5   7    5.80    4.00
   2   5   7   13.80    4.60
   7  -6  -7   16.00    4.30
   7  -6  -7   15.30    5.00
   7  -6  -7   14.80    4.60
  -7   6   7   15.40    4.20
  -7   6   7   14.00    4.10
   6  -6  -7  122.79   10.20
   6  -6  -7  117.69   10.30
   6  -6  -7  121.59   11.00
  -6   6   7   98.99    9.40
  -6   6   7  109.49    9.60
   5  -6  -7   21.10    4.50
   5  -6  -7   28.60    5.40
   5  -6  -7   27.90    5.70
  -5   6   7   18.80    4.80
  -5   6   7   22.40    4.50
   4  -6  -7  707.53   38.90
  -4   6   7  670.33   38.10
   3  -6  -7   54.39    8.00
  -3   6   7   52.79    8.00
   2  -6  -7  702.23   38.00
   2  -6  -7  663.73   39.00
  -2   6   7  691.23   39.20
   1  -6  -7   41.60    7.40
   1  -6  -7   41.40    7.00
  -1   6   7   51.79    7.30
  -1   6   7   44.00    6.30
   0  -6  -7 1068.89   58.69
   0  -6  -7 1027.70   57.59
   0   6   7 1090.49   57.39
   0   6   7 1161.88   58.09
  -1  -6  -7   74.39   10.10
   1   6   7   72.79    9.30
   1   6   7   62.59    8.80
   1   6   7   67.19    8.60
   6  -7  -7  414.46   23.70
   6  -7  -7  356.66   23.30
  -6   7   7  363.96   22.80
  -6   7   7  360.96   22.50
   5  -7  -7   30.30    6.00
  -5   7   7   32.50    6.00
   4  -7  -7  441.26   26.10
  -4   7   7  415.86   26.20
   3  -7  -7   83.79    9.60
  -3   7   7   75.79   10.30
   2  -7  -7  290.67   18.80
  -2   7   7  238.38   17.90
   1  -7  -7   17.70    5.50
   1  -7  -7   25.10    6.20
  -1   7   7   23.40    5.50
   0  -7  -7  462.95   27.60
   0   7   7  397.76   25.60
   4  -8  -7    4.80    3.90
  -4   8   7    0.20    3.70
   3  -8  -7  407.66   24.70
  -3   8   7  397.26   25.40
   2   9  -8 1003.70   54.59
  -2  -9   8  951.50   52.19
   1   9  -8   99.49   12.10
  -1  -9   8   87.59   10.10
   0   9  -8  347.47   22.30
   0  -9   8  265.87   19.00
  -1   9  -8   36.20    7.30
   1  -9   8   28.40    6.00
  -2   9  -8  903.71   50.19
   2  -9   8  907.81   48.60
   2  -9   8  885.71   48.80
  -3   9  -8   68.79    9.10
  -3   9  -8   59.69    9.10
   3  -9   8   67.59    8.60
   3  -9   8   55.09    7.70
   4   8  -8  153.48   13.90
   4   8  -8  153.28   12.90
  -4  -8   8  130.99   11.70
   3   8  -8   -1.40    3.40
  -3  -8   8   -1.00    3.10
  -3  -8   8    2.60    3.50
   2   8  -8  520.25   31.00
  -2  -8   8  435.26   26.90
  -2  -8   8  467.85   27.50
   1   8  -8   49.30    8.80
  -1  -8   8   47.80    6.70
  -1  -8   8   64.89    8.00
   0   8  -8   35.60    7.70
   0  -8   8   34.50    6.00
  -1   8  -8  281.97   20.70
   1  -8   8  288.77   18.40
  -2   8  -8   35.40    7.30
  -2   8  -8   35.30    6.40
   2  -8   8   26.70    5.20
   2  -8   8   33.30    5.70
  -3   8  -8  235.98   17.90
  -3   8  -8  227.58   17.20
   3  -8   8  246.18   16.10
   3  -8   8  243.08   16.30
  -4   8  -8    4.10    3.70
  -4   8  -8    2.30    3.80
   4  -8   8    5.50    3.00
   4  -8   8   -0.70    2.50
   5   7  -8  716.03   38.50
   5   7  -8  729.63   38.80
   5   7  -8  670.43   41.10
  -5  -7   8  678.23   39.10
   4   7  -8  205.28   13.30
   4   7  -8  181.28   15.80
   4   7  -8  183.28   13.60
  -4  -7   8  163.08   13.50
   3   7  -8  649.93   37.30
  -3  -7   8  531.75   33.20
  -3  -7   8  616.44   33.20
   2   7  -8   20.50    6.10
  -2  -7   8   18.30    4.50
  -2  -7   8   26.00    5.10
   1   7  -8 1429.96   76.99
  -1  -7   8 1405.46   73.09
  -1  -7   8 1481.55   73.79
   0   7  -8  176.98   15.40
   0  -7   8  191.98   13.30
   0  -7   8  173.38   12.40
  -1   7  -8  694.73   38.50
  -1   7  -8  671.33   40.50
   1  -7   8  724.53   37.70
   1  -7   8  681.53   37.90
  -2   7  -8   46.30    7.30
  -2   7  -8   38.90    7.30
   2  -7   8   35.00    5.60
   2  -7   8   35.40    5.40
  -3   7  -8 1422.56   72.99
  -3   7  -8 1387.86   73.79
   3  -7   8 1384.06   70.59
   3  -7   8 1368.56   71.29
  -4   7  -8  176.38   15.20
  -4   7  -8  169.68   14.10
   4  -7   8  175.18   12.00
   4  -7   8  174.58   12.90
   6   6  -8    0.80    2.70
   6   6  -8    1.50    3.80
   6   6  -8   -1.00    2.40
  -6  -6   8   -2.10    3.20
   5   6  -8  147.29   11.20
   5   6  -8  137.49   10.90
   5   6  -8  143.59   13.80
  -5  -6   8  153.08   12.40
   4   6  -8   -1.60    2.90
   4   6  -8    1.30    2.50
   4   6  -8    1.30    2.40
  -4  -6   8    1.70    3.00
   3   6  -8  678.13   36.70
   3   6  -8  736.93   41.90
   3   6  -8  685.43   37.90
  -3  -6   8  698.83   38.50
  -3  -6   8  715.53   37.50
   2   6  -8   52.59    8.90
  -2  -6   8   64.39    7.00
  -2  -6   8   65.49    7.70
   1   6  -8  110.69   13.20
  -1  -6   8  125.29    9.80
  -1  -6   8  102.99    8.50
   0   6  -8  287.27   18.50
   0   6  -8  268.07   20.50
   0  -6   8  282.17   18.00
   0  -6   8  299.87   17.40
   0  -6   8  279.97   17.80
  -1   6  -8   47.40    7.00
  -1   6  -8   74.19   10.20
   1  -6   8   41.60    6.10
   1  -6   8   37.40    5.40
   1  -6   8   32.80    5.40
  -2   6  -8  737.83   42.20
  -2   6  -8  717.83   43.20
   2  -6   8  781.72   40.60
   2  -6   8  804.22   41.00
   2  -6   8  774.82   40.80
  -3   6  -8   24.80    5.30
  -3   6  -8    4.70    4.40
   3  -6   8   12.50    4.00
   3  -6   8   12.20    3.30
  -4   6  -8  182.08   14.80
  -4   6  -8  196.28   16.30
   4  -6   8  202.58   12.80
   4  -6   8  197.28   13.90
  -5   6  -8    1.40    3.00
   5  -6   8    6.50    3.50
   5  -6   8    6.60    2.50
   7   5  -8    4.50    3.20
   7   5  -8    8.00    4.40
   7   5  -8    4.20    2.50
  -7  -5   8    3.50    4.00
   6   5  -8  546.35   30.10
   6   5  -8  530.85   30.20
   6   5  -8  523.95   33.00
  -6  -5   8  559.34   32.10
   5   5  -8  128.69   10.00
   5   5  -8  133.49   10.00
   5   5  -8  121.29   12.10
  -5  -5   8  121.89   11.30
   4   5  -8 1524.75   74.59
   4   5  -8 1505.15   78.79
   4   5  -8 1487.65   75.09
  -4  -5   8 1407.46   75.79
   3   5  -8   89.49    8.00
   3   5  -8   95.39    7.20
   3   5  -8   98.49   11.90
  -3  -5   8   92.09    8.50
  -3  -5   8   96.49    7.50
   2   5  -8 1175.38   60.19
  -2  -5   8 1075.29   55.49
  -2  -5   8 1060.29   56.79
   1   5  -8  181.88   14.90
   1   5  -8  185.38   13.50
  -1  -5   8  178.78   11.70
  -1  -5   8  185.98   12.90
  -1  -5   8  192.48   13.00
   0   5  -8 1817.22   93.09
   0   5  -8 1880.31   95.29
   0  -5   8 1754.72   92.09
   0  -5   8 1812.12   91.39
   0  -5   8 1938.31   92.59
  -1   5  -8  205.28   15.60
  -1   5  -8  176.28   14.00
   1  -5   8  194.18   13.10
   1  -5   8  213.58   13.60
   1  -5   8  198.28   12.80
  -2   5  -8 1585.94   82.19
  -2   5  -8 1590.14   83.29
   2  -5   8 1622.14   80.89
   2  -5   8 1628.94   80.89
   2  -5   8 1576.94   80.39
  -3   5  -8   99.99   10.00
  -3   5  -8  115.79   11.30
   3  -5   8  120.19    8.90
   3  -5   8  111.29    9.50
   3  -5   8  120.89    9.70
  -4   5  -8  843.92   48.90
  -4   5  -8  944.81   50.69
   4  -5   8  926.41   48.30
   4  -5   8  908.31   46.60
  -5   5  -8    0.10    2.60
   5  -5   8    1.10    1.80
   5  -5   8    0.90    2.90
   7   4  -8   38.00    7.30
   7   4  -8   38.00    5.70
   7   4  -8   35.50    5.10
  -7  -4   8   36.80    7.00
   6   4  -8  582.04   34.30
   6   4  -8  565.14   31.00
   6   4  -8  565.64   31.20
  -6  -4   8  554.84   32.50
   5   4  -8   68.39    6.50
   5   4  -8   59.59    7.00
   5   4  -8   77.99   10.20
  -5  -4   8   59.39    7.90
   4   4  -8  302.17   20.20
   4   4  -8  280.67   17.00
   4   4  -8  270.77   16.20
  -4  -4   8  267.97   17.70
   3   4  -8  243.28   14.50
   3   4  -8  262.07   18.30
   3   4  -8  247.58   15.60
  -3  -4   8  265.77   14.50
  -3  -4   8  249.68   16.10
   2   4  -8  835.12   42.90
   2   4  -8  708.03   37.80
   2   4  -8  776.82   40.80
   2   4  -8  741.33   39.60
  -2  -4   8  722.33   39.90
  -2  -4   8  768.02   38.70
   1   4  -8  249.28   18.00
   1   4  -8  264.27   17.20
  -1  -4   8  267.37   16.30
  -1  -4   8  253.87   15.10
  -1  -4   8  273.37   16.80
   0   4  -8   32.70    5.60
   0   4  -8    9.40    4.00
   0  -4   8   11.30    2.90
   0  -4   8   21.40    4.30
   0  -4   8    6.90    2.80
  -1   4  -8  946.81   53.29
  -1   4  -8  999.10   54.19
   1  -4   8 1049.30   52.19
   1  -4   8 1029.90   51.89
  -2   4  -8   21.50    5.30
  -2   4  -8   26.20    5.70
   2  -4   8   28.80    4.30
   2  -4   8   22.20    4.40
   2  -4   8   28.20    4.60
  -3   4  -8  402.06   24.10
  -3   4  -8  353.36   23.40
   3  -4   8  403.26   21.80
   3  -4   8  376.76   22.80
   3  -4   8  379.76   22.50
  -4   4  -8    4.20    3.50
   4  -4   8    2.80    3.00
   4  -4   8    5.00    3.10
   4  -4   8    8.40    2.50
  -5   4  -8  530.25   31.80
   5  -4   8  571.34   31.30
   5  -4   8  546.35   28.80
   8   3  -8    5.40    3.10
   8   3  -8    5.50    4.00
   8   3  -8    0.70    2.00
  -8  -3   8    2.50    3.00
  -8  -3   8   -1.90    3.20
   7   3  -8  682.33   38.70
   7   3  -8  667.83   36.10
   7   3  -8  652.03   35.40
  -7  -3   8  658.23   37.10
   6   3  -8  144.39   12.70
   6   3  -8  153.08   10.90
   6   3  -8  150.58   10.70
  -6  -3   8  149.59   11.90
   5   3  -8  999.50   52.69
   5   3  -8 1032.10   55.69
   5   3  -8 1037.40   52.59
  -5  -3   8 1044.30   53.69
   4   3  -8  164.38   11.30
   4   3  -8  178.78   13.60
   4   3  -8  174.18   10.80
  -4  -3   8  159.68   10.90
  -4  -3   8  167.88   11.90
   3   3  -8 2213.48  105.79
   3   3  -8 2024.30  106.39
   3   3  -8 2144.29  104.49
   3   3  -8 2287.57  108.29
  -3  -3   8 2074.29  105.89
  -3  -3   8 2065.49  104.59
   2   3  -8  116.79    8.80
   2   3  -8  129.49   10.40
   2   3  -8  117.09   10.30
  -2  -3   8  126.89    8.10
  -2  -3   8  120.19    7.70
  -2  -3   8  111.99    9.20
  -2  -3   8  147.79   10.50
   1   3  -8 1508.65   71.69
   1   3  -8 1333.77   71.09
  -1  -3   8 1365.56   70.19
  -1  -3   8 1374.96   68.99
  -1  -3   8 1349.16   70.29
   0   3  -8  323.87   21.10
   0   3  -8  336.97   21.00
   0  -3   8  382.86   20.50
   0  -3   8  331.17   20.30
   0  -3   8  347.57   19.50
  -1   3  -8 3727.43  185.48
  -1   3  -8 3833.62  185.18
   1  -3   8 3669.33  183.88
   1  -3   8 3786.82  183.78
   1  -3   8 3785.92  184.18
  -2   3  -8  101.79    8.90
  -2   3  -8   77.09    9.40
   2  -3   8   91.69    7.90
   2  -3   8  101.09    7.70
   2  -3   8   83.29    7.60
  -3   3  -8  553.34   32.20
   3  -3   8  566.94   31.30
   3  -3   8  563.44   29.80
   3  -3   8  546.25   30.70
  -4   3  -8   32.80    6.10
   4  -3   8   47.80    4.90
   4  -3   8   27.00    5.50
   4  -3   8   37.20    5.70
  -5   3  -8  717.63   40.50
   5  -3   8  721.23   37.20
   5  -3   8  744.13   39.70
   8   2  -8    1.30    2.20
   8   2  -8    2.40    3.30
   8   2  -8    1.80    2.50
  -8  -2   8    2.10    2.60
  -8  -2   8    4.20    3.50
   7   2  -8  278.47   17.60
   7   2  -8  284.17   17.20
   7   2  -8  273.67   19.70
  -7  -2   8  302.17   18.50
  -7  -2   8  302.57   18.10
   6   2  -8   19.60    4.90
   6   2  -8   14.40    3.60
   6   2  -8   21.50    3.80
  -6  -2   8   10.20    3.40
  -6  -2   8   13.20    3.80
   5   2  -8  768.82   41.30
   5   2  -8  802.62   41.80
  -5  -2   8  814.92   42.30
  -5  -2   8  811.62   41.70
   4   2  -8   30.50    5.70
   4   2  -8   25.30    4.10
   4   2  -8   27.80    4.90
   4   2  -8   28.80    3.70
  -4  -2   8   23.00    3.70
  -4  -2   8   26.00    4.40
   3   2  -8  267.97   17.30
   3   2  -8  298.67   17.80
   3   2  -8  255.67   15.80
  -3  -2   8  270.47   15.10
  -3  -2   8  249.48   15.90
   2   2  -8  500.65   30.20
   2   2  -8  579.94   30.10
   2   2  -8  503.95   28.40
  -2  -2   8  593.74   29.80
  -2  -2   8  506.35   27.30
  -2  -2   8  538.85   27.60
  -2  -2   8  512.35   28.90
   1   2  -8   66.49    6.80
   1   2  -8   79.09    7.80
  -1  -2   8   67.49    6.80
  -1  -2   8   70.79    6.70
  -1  -2   8   73.29    5.90
  -1  -2   8   67.49    5.10
   0   2  -8  765.32   41.20
   0   2  -8  746.83   39.90
   0  -2   8  762.62   39.80
   0  -2   8  762.32   39.30
   0  -2   8  735.03   39.70
  -1   2  -8   30.60    5.40
  -1   2  -8    2.00    2.30
   1  -2   8    9.40    2.90
   1  -2   8    1.20    1.90
   1  -2   8    5.10    2.30
  -2   2  -8  773.72   42.80
   2  -2   8  807.92   42.00
   2  -2   8  805.12   40.70
   2  -2   8  750.22   41.20
  -3   2  -8    6.10    3.50
   3  -2   8   17.80    3.90
   3  -2   8    2.40    1.90
   3  -2   8    6.40    2.90
  -4   2  -8  553.04   32.00
   4  -2   8  570.14   30.80
   4  -2   8  552.44   28.90
   4  -2   8  518.55   31.50
  -5   2  -8   21.20    5.40
   5  -2   8   23.20    3.40
   5  -2   8   28.40    6.50
   5  -2   8   26.80    5.00
   8   1  -8  663.93   37.20
   8   1  -8  621.64   34.10
  -8  -1   8  643.74   35.00
  -8  -1   8  618.14   34.70
   7   1  -8   40.30    5.40
   7   1  -8   43.50    7.30
  -7  -1   8   49.90    6.40
  -7  -1   8   48.30    6.20
   6   1  -8  835.22   45.60
   6   1  -8  841.52   43.40
  -6  -1   8  818.72   43.30
  -6  -1   8  815.72   43.40
   5   1  -8  254.57   17.40
   5   1  -8  260.37   15.80
   5   1  -8  273.87   17.40
  -5  -1   8  245.58   15.70
  -5  -1   8  265.27   15.70
   4   1  -8 1870.71   90.99
   4   1  -8 1865.71   92.59
   4   1  -8 1819.62   92.49
  -4  -1   8 1768.62   90.09
  -4  -1   8 1799.02   90.69
   3   1  -8   24.30    4.70
   3   1  -8   15.00    4.10
   3   1  -8   17.80    3.30
  -3  -1   8   24.20    3.50
  -3  -1   8   21.70    3.80
   2   1  -8 2189.38  107.99
   2   1  -8 2083.99  107.19
   2   1  -8 2234.98  109.39
  -2  -1   8 2234.18  107.69
  -2  -1   8 2096.19  106.09
  -2  -1   8 2229.68  107.69
  -2  -1   8 2136.69  106.19
   1   1  -8  519.25   26.80
   1   1  -8  513.25   28.30
  -1  -1   8  475.25   26.70
  -1  -1   8  459.85   26.80
  -1  -1   8  479.65   25.60
  -1  -1   8  485.35   26.00
   0   1  -8 2427.26  121.89
   0   1  -8 2289.67  119.79
   0  -1   8 2468.15  120.39
   0  -1   8 2456.75  120.89
   0  -1   8 2579.74  120.59
  -1   1  -8  128.09   11.00
   1  -1   8  155.18   10.60
   1  -1   8  140.79   10.00
   1  -1   8  138.39    9.70
  -2   1  -8 1750.42   91.09
   2  -1   8 1820.32   88.99
   2  -1   8 1728.33   89.99
   2  -1   8 1888.91   90.79
  -3   1  -8   25.00    5.20
   3  -1   8   25.30    4.50
   3  -1   8   27.90    5.30
   3  -1   8   26.10    3.80
  -4   1  -8  320.77   20.80
   4  -1   8  342.37   20.10
   4  -1   8  307.97   20.70
   4  -1   8  324.87   18.30
  -5   1  -8    5.50    3.60
  -5   1  -8    4.60    3.70
   5  -1   8    5.20    3.30
   5  -1   8    6.60    4.20
   5  -1   8    3.00    2.00
   8   0  -8  524.85   28.60
   8   0  -8  514.55   31.00
  -8   0   8  530.55   28.90
  -8   0   8  508.15   29.10
   7   0  -8   11.70    3.20
   7   0  -8   29.60    5.70
  -7   0   8   11.80    3.30
  -7   0   8   10.00    3.40
   6   0  -8  183.28   13.90
   6   0  -8  184.68   12.30
   6   0  -8  182.38   13.10
  -6   0   8  178.38   12.00
  -6   0   8  185.78   12.10
   5   0  -8   18.10    4.20
   5   0  -8    6.30    3.60
   5   0  -8   19.20    3.80
  -5   0   8   24.40    4.00
  -5   0   8   12.20    3.20
   4   0  -8 1006.90   53.49
   4   0  -8 1006.40   52.29
   4   0  -8 1083.59   54.69
  -4   0   8 1025.10   52.09
  -4   0   8  989.00   51.59
   3   0  -8  387.46   22.50
   3   0  -8  390.16   23.80
   3   0  -8  401.86   21.90
  -3   0   8  378.86   21.20
  -3   0   8  376.66   21.70
   2   0  -8   62.89    8.00
   2   0  -8   58.39    5.80
   2   0  -8   59.59    5.90
  -2   0   8   72.79    5.90
  -2   0   8   61.89    6.10
  -2   0   8   58.59    4.90
  -2   0   8   59.79    6.00
   1   0  -8  937.91   46.90
   1   0  -8  914.41   49.20
  -1   0   8  906.81   46.80
  -1   0   8  918.11   47.60
  -1   0   8  933.81   47.60
  -1   0   8  912.51   47.00
   0   0  -8  251.57   16.90
   0   0   8  274.47   16.40
   0   0   8  242.78   15.20
   0   0   8  267.07   15.70
   0   0   8  250.87   15.70
  -1   0  -8  771.22   40.70
   1   0   8  774.92   40.10
   1   0   8  718.13   38.90
   1   0   8  726.73   39.30
  -2   0  -8   76.89    7.40
  -2   0  -8   84.19    8.00
   2   0   8   71.09    6.30
   2   0   8   61.19    7.40
   2   0   8   63.79    6.60
  -3   0  -8  584.14   34.60
  -3   0  -8  665.63   35.60
   3   0   8  638.74   34.80
   3   0   8  614.54   33.40
   3   0   8  677.83   35.90
  -4   0  -8    1.40    3.00
  -4   0  -8    2.20    2.80
   4   0   8   -0.40    2.70
   4   0   8    2.20    2.10
   4   0   8    2.60    2.80
   8  -1  -8   61.79    6.90
   8  -1  -8   65.69    8.70
  -8   1   8   72.29    8.00
  -8   1   8   76.79    8.00
   7  -1  -8 1182.18   56.79
   7  -1  -8 1052.29   57.39
   7  -1  -8 1116.29   55.79
  -7   1   8  979.70   55.39
  -7   1   8 1082.79   55.19
   6  -1  -8   83.89    9.80
   6  -1  -8   88.09    8.60
   6  -1  -8   76.29    7.30
  -6   1   8   84.19    7.10
  -6   1   8   86.79    7.50
   5  -1  -8  940.81   50.89
   5  -1  -8  915.31   49.20
   5  -1  -8  942.51   48.20
  -5   1   8  863.11   47.50
  -5   1   8  970.40   47.60
   4  -1  -8   75.09    9.30
   4  -1  -8   60.49    6.40
   4  -1  -8   60.09    6.20
  -4   1   8   76.79    6.40
  -4   1   8   55.79    5.80
   3  -1  -8 2291.87  110.79
   3  -1  -8 2306.27  110.59
   3  -1  -8 2133.79  112.39
  -3   1   8 2250.67  110.29
  -3   1   8 2159.68  109.99
   2  -1  -8  286.77   17.30
   2  -1  -8  292.47   16.90
   2  -1  -8  286.47   19.10
   2  -1  -8  307.07   17.00
  -2   1   8  281.47   17.00
  -2   1   8  296.17   17.70
  -2   1   8  287.57   17.00
   1  -1  -8 2001.90  108.49
   1  -1  -8 2234.18  110.79
  -1   1   8 2233.98  108.89
  -1   1   8 2299.07  109.19
  -1   1   8 2221.18  109.09
   0  -1  -8   95.39    9.40
   0  -1  -8   89.89    8.20
   0   1   8   90.69    7.80
   0   1   8   98.19    8.00
   0   1   8  119.69    9.30
   0   1   8   93.09    7.90
  -1  -1  -8 1805.22   94.59
  -1  -1  -8 1817.72   94.19
   1   1   8 1970.30   93.69
   1   1   8 1852.31   93.99
   1   1   8 1929.11   94.39
  -2  -1  -8  118.69    9.90
  -2  -1  -8  106.99    9.50
   2   1   8  106.79    8.50
   2   1   8  119.19    9.80
  -3  -1  -8  427.76   25.50
  -3  -1  -8  438.86   25.70
   3   1   8  451.95   24.50
   3   1   8  419.46   26.00
  -4  -1  -8   29.60    5.70
  -4  -1  -8   21.60    4.60
   4   1   8   18.70    5.30
   4   1   8   24.70    4.20
   8  -2  -8   23.20    5.10
   8  -2  -8   11.90    3.30
   8  -2  -8   15.20    4.90
  -8   2   8   23.10    4.50
   7  -2  -8  420.86   24.00
   7  -2  -8  402.86   25.20
   7  -2  -8  416.46   25.30
  -7   2   8  425.46   24.10
   6  -2  -8    8.00    3.30
   6  -2  -8    5.40    2.70
   6  -2  -8    7.00    3.60
  -6   2   8    8.40    2.70
  -6   2   8    8.60    3.20
   5  -2  -8  271.57   17.00
   5  -2  -8  251.47   16.40
   5  -2  -8  267.17   18.90
  -5   2   8  270.47   15.50
  -5   2   8  249.08   15.80
   4  -2  -8  267.27   16.40
   4  -2  -8  261.17   18.40
   4  -2  -8  272.47   16.50
  -4   2   8  264.57   15.50
  -4   2   8  237.08   15.70
   3  -2  -8  134.39   11.50
   3  -2  -8  141.99   10.00
   3  -2  -8  139.69    9.60
  -3   2   8  128.29    9.70
  -3   2   8  119.19    9.00
   2  -2  -8  569.14   33.10
   2  -2  -8  550.04   30.80
  -2   2   8  626.64   31.90
  -2   2   8  556.14   30.60
  -2   2   8  580.14   31.70
   1  -2  -8   36.20    6.50
   1  -2  -8   38.80    5.60
  -1   2   8   47.90    6.50
  -1   2   8   39.60    5.30
  -1   2   8   31.70    4.90
   0  -2  -8  678.33   40.00
   0  -2  -8  744.03   41.10
   0   2   8  727.43   39.80
   0   2   8  753.72   39.90
   0   2   8  853.01   41.30
  -1  -2  -8  182.38   13.00
  -1  -2  -8  164.88   12.60
   1   2   8  180.98   12.30
   1   2   8  163.18   12.40
  -2  -2  -8  590.24   33.20
  -2  -2  -8  600.84   33.70
   2   2   8  606.64   33.70
   2   2   8  584.54   32.40
  -3  -2  -8  159.58   12.10
  -3  -2  -8  158.28   12.50
   3   2   8  147.99   12.70
   3   2   8  146.89   11.00
  -4  -2  -8  773.82   43.40
  -4  -2  -8  810.72   42.90
   4   2   8  787.62   42.20
   4   2   8  827.82   45.30
   8  -3  -8  529.55   30.60
   8  -3  -8  530.15   28.80
   8  -3  -8  489.75   30.40
  -8   3   8  519.45   29.30
   7  -3  -8  267.87   15.90
   7  -3  -8  257.87   16.90
   7  -3  -8  218.28   17.00
  -7   3   8  224.78   15.40
   6  -3  -8  761.22   41.00
   6  -3  -8  786.22   42.60
   6  -3  -8  784.22   40.50
  -6   3   8  690.63   39.70
   5  -3  -8   29.30    5.00
   5  -3  -8   22.10    4.20
   5  -3  -8   19.80    5.20
  -5   3   8   18.30    3.50
  -5   3   8   14.90    3.80
   4  -3  -8 1377.26   69.59
   4  -3  -8 1291.17   71.69
  -4   3   8 1380.86   69.39
  -4   3   8 1391.56   68.19
   3  -3  -8  276.27   19.50
   3  -3  -8  292.47   17.00
  -3   3   8  291.27   16.90
  -3   3   8  308.77   18.20
   2  -3  -8 1701.73   86.79
  -2   3   8 1805.42   87.69
  -2   3   8 1684.73   86.09
   1  -3  -8   73.89    8.20
   1  -3  -8   66.19    8.60
  -1   3   8   59.09    7.30
  -1   3   8   77.59    6.90
  -1   3   8   87.59    9.40
   0  -3  -8 1380.06   69.79
   0  -3  -8 1297.37   68.99
   0   3   8 1358.96   68.59
   0   3   8 1310.57   68.59
   0   3   8 1353.66   69.49
  -1  -3  -8   91.99    9.20
  -1  -3  -8   72.79    8.90
   1   3   8  108.59    9.50
   1   3   8   74.79    8.70
   1   3   8   80.39    7.80
  -2  -3  -8  397.36   24.30
  -2  -3  -8  411.66   24.00
   2   3   8  401.86   24.40
   2   3   8  372.86   23.00
  -3  -3  -8    4.50    3.60
  -3  -3  -8    3.10    3.30
   3   3   8    1.20    3.80
   3   3   8    0.30    2.40
   8  -4  -8  295.37   18.40
   8  -4  -8  338.67   20.50
   8  -4  -8  265.57   19.90
  -8   4   8  297.77   18.70
   7  -4  -8    8.70    3.90
   7  -4  -8    2.00    2.40
   7  -4  -8    2.20    3.00
  -7   4   8    1.50    2.80
   6  -4  -8  180.28   13.10
   6  -4  -8  201.78   14.90
   6  -4  -8  189.78   13.60
  -6   4   8  181.78   13.20
   5  -4  -8  216.48   15.00
   5  -4  -8  223.18   16.40
   5  -4  -8  222.18   14.90
  -5   4   8  203.08   14.30
   4  -4  -8   42.70    5.40
   4  -4  -8   47.00    6.30
   4  -4  -8   41.00    7.40
  -4   4   8   42.50    4.90
  -4   4   8   29.10    5.20
   3  -4  -8  253.57   17.80
  -3   4   8  244.58   14.60
  -3   4   8  230.88   15.80
   2  -4  -8   23.40    5.20
   2  -4  -8   21.10    5.50
  -2   4   8   38.30    6.40
  -2   4   8   22.50    4.20
   1  -4  -8  783.72   43.30
   1  -4  -8  717.53   43.70
  -1   4   8  797.12   42.20
  -1   4   8  772.82   43.00
  -1   4   8  933.41   44.70
   0  -4  -8   11.10    4.70
   0  -4  -8   11.20    4.20
   0   4   8    9.90    3.60
   0   4   8    7.60    3.40
   0   4   8   18.40    4.70
  -1  -4  -8  289.57   19.00
  -1  -4  -8  292.27   19.40
   1   4   8  290.07   18.70
   1   4   8  298.77   19.00
   1   4   8  264.37   18.20
  -2  -4  -8    4.30    4.20
  -2  -4  -8    8.20    3.80
   2   4   8    7.40    4.10
   2   4   8    2.40    3.30
   8  -5  -8    4.50    2.90
   8  -5  -8    9.20    4.30
   8  -5  -8    3.10    3.90
  -8   5   8    4.30    3.60
   7  -5  -8  432.76   25.70
   7  -5  -8  390.16   25.90
   7  -5  -8  451.05   25.30
  -7   5   8  415.46   25.00
   6  -5  -8  129.19   10.70
   6  -5  -8  148.69   12.40
   6  -5  -8  127.69   10.90
  -6   5   8  125.89   10.60
   5  -5  -8  768.32   41.60
   5  -5  -8  756.92   40.60
   5  -5  -8  803.72   43.10
  -5   5   8  724.83   40.90
   4  -5  -8   18.80    5.80
  -4   5   8   14.50    4.20
   3  -5  -8  918.31   50.09
  -3   5   8  884.81   48.50
   2  -5  -8  500.15   29.40
  -2   5   8  508.45   29.00
  -2   5   8  437.46   26.20
   1  -5  -8 1057.29   59.49
   1  -5  -8 1170.98   60.29
  -1   5   8 1214.28   59.89
  -1   5   8 1059.79   57.99
   0  -5  -8   12.90    4.80
   0  -5  -8   16.00    5.00
   0   5   8   22.80    5.30
   0   5   8   15.00    4.70
   0   5   8   17.10    4.40
  -1  -5  -8  272.47   19.00
  -1  -5  -8  290.07   19.90
   1   5   8  273.07   18.90
   1   5   8  253.97   18.60
   1   5   8  339.87   19.60
   7  -6  -8  166.58   13.50
   7  -6  -8  169.28   12.80
   7  -6  -8  149.79   12.50
  -7   6   8  153.18   12.10
  -7   6   8  154.18   12.20
   6  -6  -8  161.88   12.80
   6  -6  -8  177.88   17.70
   6  -6  -8  151.78   12.30
  -6   6   8  132.99   11.10
  -6   6   8  138.19   11.60
   5  -6  -8   46.10    7.50
  -5   6   8   38.00    6.10
   4  -6  -8  233.48   16.60
  -4   6   8  207.18   15.60
   3  -6  -8    3.00    4.20
  -3   6   8    4.60    3.70
   2  -6  -8  290.77   19.50
  -2   6   8  247.28   18.40
   1  -6  -8   42.30    7.60
   1  -6  -8   47.10    7.60
  -1   6   8   49.50    7.40
   0  -6  -8  450.25   28.10
   0  -6  -8  454.65   28.90
   0   6   8  511.85   28.00
   0   6   8  433.56   27.20
   5  -7  -8   23.00    5.50
  -5   7   8   22.70    5.30
   4  -7  -8  454.35   27.90
  -4   7   8  459.85   28.00
   3  -7  -8   19.10    5.60
  -3   7   8   39.80    7.40
   2  -7  -8  800.52   44.90
  -2   7   8  792.72   44.20
   1   9  -9   49.50    9.00
  -1  -9   9   37.10    6.50
   0   9  -9  287.17   20.50
   0  -9   9  278.77   18.70
  -1   9  -9   23.80    6.30
   1  -9   9   20.90    5.30
   3   8  -9   12.60    5.50
  -3  -8   9   16.30    4.70
   2   8  -9  371.56   25.40
  -2  -8   9  353.76   22.50
  -2  -8   9  378.56   22.50
   1   8  -9    4.20    4.10
  -1  -8   9    7.70    3.30
  -1  -8   9    6.60    4.00
   0   8  -9  285.77   20.30
   0  -8   9  251.47   17.10
  -1   8  -9   48.60    8.80
   1  -8   9   32.50    5.60
  -2   8  -9  400.26   26.20
  -2   8  -9  370.26   24.50
   2  -8   9  415.86   23.80
   2  -8   9  377.26   23.40
  -3   8  -9    5.80    4.50
  -3   8  -9    2.30    3.80
   3  -8   9    3.50    2.90
   3  -8   9    4.60    3.40
   5   7  -9  207.08   18.00
   5   7  -9  234.48   15.10
   5   7  -9  217.28   15.40
  -5  -7   9  205.88   15.90
   4   7  -9    3.10    4.30
  -4  -7   9    0.50    3.30
   3   7  -9  309.57   22.90
  -3  -7   9  311.57   20.00
   2   7  -9    3.30    3.80
  -2  -7   9    3.70    3.50
  -2  -7   9    4.80    3.10
   1   7  -9  996.50   55.29
  -1  -7   9 1045.30   52.49
  -1  -7   9  919.61   50.89
   0   7  -9  174.48   15.50
   0  -7   9  205.28   14.30
   0  -7   9  195.08   13.30
  -1   7  -9  924.51   52.59
  -1   7  -9  951.80   50.69
   1  -7   9  936.51   49.40
   1  -7   9  924.61   49.00
  -2   7  -9   52.39    8.80
  -2   7  -9   78.69    9.70
   2  -7   9   51.19    6.80
   2  -7   9   68.19    7.90
  -3   7  -9  802.42   48.20
  -3   7  -9  885.61   47.90
   3  -7   9  852.81   45.30
   3  -7   9  886.91   46.20
  -4   7  -9   32.10    6.90
  -4   7  -9   28.90    7.10
   4  -7   9   36.00    5.30
   4  -7   9   26.30    5.40
   6   6  -9  188.38   16.00
   6   6  -9  163.88   12.20
   6   6  -9  168.68   12.50
  -6  -6   9  139.89   13.00
   5   6  -9  373.56   22.70
   5   6  -9  416.46   23.60
   5   6  -9  411.56   26.90
  -5  -6   9  370.36   24.20
   4   6  -9    8.60    3.50
   4   6  -9    7.80    4.40
   4   6  -9    1.70    2.60
  -4  -6   9    3.50    3.50
   3   6  -9 1128.19   58.79
  -3  -6   9  976.50   54.79
   2   6  -9   15.10    5.40
  -2  -6   9    3.70    3.10
  -2  -6   9   12.10    3.20
   1   6  -9  293.07   20.70
  -1  -6   9  273.97   16.90
  -1  -6   9  286.67   18.30
   0   6  -9   22.70    5.40
   0   6  -9   13.40    5.00
   0  -6   9   26.10    4.40
   0  -6   9   34.10    6.00
   0  -6   9   20.70    4.50
  -1   6  -9  696.43   39.20
  -1   6  -9  638.44   37.10
   1  -6   9  643.24   35.70
   1  -6   9  614.94   35.20
   1  -6   9  700.83   36.30
  -2   6  -9   44.50    8.00
  -2   6  -9   37.50    7.00
   2  -6   9    7.10    3.10
   2  -6   9   11.60    3.40
   2  -6   9    8.00    3.40
  -3   6  -9  114.39   11.60
  -3   6  -9  122.29   11.40
   3  -6   9  108.89    9.10
   3  -6   9  108.29    9.80
  -4   6  -9   85.99   10.50
  -4   6  -9   79.39   11.70
   4  -6   9  101.29    9.10
   4  -6   9   79.09    7.70
   6   5  -9  196.98   16.30
   6   5  -9  182.38   13.10
   6   5  -9  185.38   13.10
  -6  -5   9  194.38   14.90
   5   5  -9    7.90    2.90
   5   5  -9   12.40    3.70
   5   5  -9    2.60    3.50
  -5  -5   9    7.50    3.70
   4   5  -9  666.83   38.10
   4   5  -9  615.14   33.30
   4   5  -9  628.14   34.50
  -4  -5   9  626.34   35.30
   3   5  -9    4.20    3.90
  -3  -5   9    2.80    3.10
   2   5  -9  738.13   40.30
  -2  -5   9  670.93   36.00
  -2  -5   9  675.73   37.50
   1   5  -9  321.57   21.30
   1   5  -9  313.37   19.90
  -1  -5   9  301.07   19.10
  -1  -5   9  302.37   17.80
   0   5  -9 2669.13  135.99
   0   5  -9 2716.53  137.09
   0  -5   9 2687.93  134.09
   0  -5   9 2923.51  135.69
   0  -5   9 2622.64  134.89
  -1   5  -9   45.00    7.50
  -1   5  -9   60.99    8.40
   1  -5   9   48.10    6.60
   1  -5   9   45.60    6.10
   1  -5   9   56.99    7.10
  -2   5  -9  640.74   37.80
  -2   5  -9  701.83   38.90
   2  -5   9  692.63   36.60
   2  -5   9  657.33   36.00
   2  -5   9  662.43   36.30
  -3   5  -9  154.58   13.10
  -3   5  -9  135.89   12.40
   3  -5   9  145.19   11.50
   3  -5   9  156.68   10.80
   3  -5   9  146.99   11.70
  -4   5  -9 1023.00   55.69
   4  -5   9 1050.79   54.59
   4  -5   9 1021.70   52.99
   7   4  -9   38.50    7.20
   7   4  -9   24.00    4.50
   7   4  -9   33.20    5.50
  -7  -4   9   29.00    6.10
   6   4  -9  988.10   53.59
   6   4  -9  940.81   49.70
   6   4  -9  946.91   49.90
  -6  -4   9  955.30   51.19
   5   4  -9  113.69   11.70
   5   4  -9  113.89    8.50
   5   4  -9  102.99    8.80
  -5  -4   9   99.89    9.40
   4   4  -9  690.53   38.10
   4   4  -9  638.64   33.70
   4   4  -9  639.34   34.90
  -4  -4   9  655.03   35.40
  -4  -4   9  615.94   33.90
   3   4  -9   24.80    3.60
   3   4  -9   33.80    5.20
   3   4  -9   26.70    6.10
  -3  -4   9   26.70    3.80
  -3  -4   9   21.20    4.40
   2   4  -9  882.71   45.70
   2   4  -9  840.42   44.50
  -2  -4   9  787.32   41.90
  -2  -4   9  789.22   43.50
   1   4  -9   48.20    6.90
   1   4  -9   34.90    6.10
  -1  -4   9   44.70    6.10
  -1  -4   9   31.90    5.20
  -1  -4   9   30.70    4.40
   0   4  -9  439.26   27.10
   0   4  -9  458.95   27.00
   0  -4   9  452.25   25.20
   0  -4   9  440.76   26.10
   0  -4   9  479.25   26.20
  -1   4  -9  101.19   10.20
  -1   4  -9  109.89   10.20
   1  -4   9  118.89    9.30
   1  -4   9  111.99    9.30
   1  -4   9  118.19    9.10
  -2   4  -9  431.36   26.60
  -2   4  -9  397.46   26.50
   2  -4   9  448.66   25.40
   2  -4   9  458.55   25.50
   2  -4   9  462.35   25.10
  -3   4  -9   57.09    8.10
   3  -4   9   76.49    7.60
   3  -4   9   68.79    8.10
   3  -4   9   64.69    6.40
  -4   4  -9   23.40    5.80
   4  -4   9   32.50    4.50
   4  -4   9   25.40    5.20
   4  -4   9   27.70    5.40
   7   3  -9  163.38   11.80
   7   3  -9  165.88   14.20
   7   3  -9  158.28   11.50
  -7  -3   9  178.08   13.10
  -7  -3   9  151.68   11.80
   6   3  -9   10.40    3.20
   6   3  -9   11.30    3.30
   6   3  -9   12.10    4.30
  -6  -3   9   11.50    4.10
  -6  -3   9   17.80    4.00
   5   3  -9  509.45   30.10
   5   3  -9  482.05   26.60
   5   3  -9  510.95   27.50
  -5  -3   9  494.45   27.00
  -5  -3   9  459.15   27.60
   4   3  -9    7.00    2.70
   4   3  -9   11.90    4.30
   4   3  -9    9.30    2.40
  -4  -3   9    6.60    3.30
  -4  -3   9   11.20    2.90
   3   3  -9 1227.58   69.99
   3   3  -9 1445.76   69.19
   3   3  -9 1517.35   71.49
  -3  -3   9 1276.47   67.49
  -3  -3   9 1361.96   69.29
   2   3  -9  232.58   16.20
   2   3  -9  235.28   15.80
  -2  -3   9  213.48   14.80
  -2  -3   9  243.08   13.70
   1   3  -9 2059.69  100.99
   1   3  -9 1901.21  100.19
  -1  -3   9 2024.10   99.99
  -1  -3   9 2021.40   98.59
  -1  -3   9 1963.80   99.89
   0   3  -9  196.48   13.70
   0   3  -9  182.98   14.10
   0  -3   9  188.48   13.10
   0  -3   9  210.08   13.50
   0  -3   9  189.88   12.50
  -1   3  -9 1855.11   96.39
  -1   3  -9 1880.81   97.59
   1  -3   9 1980.30   96.39
   1  -3   9 1920.51   95.99
   1  -3   9 1967.20   96.19
  -2   3  -9   98.39   10.20
   2  -3   9  109.59    8.80
   2  -3   9  104.39    9.10
   2  -3   9  107.79    8.50
  -3   3  -9  596.94   35.20
   3  -3   9  590.04   32.50
   3  -3   9  628.04   34.40
   3  -3   9  644.44   34.00
  -4   3  -9   85.39   10.10
   4  -3   9   92.39    8.40
   4  -3   9   69.89    8.90
   4  -3   9   74.89    6.40
   8   2  -9   10.20    4.70
   8   2  -9   19.50    4.10
  -8  -2   9   25.80    5.30
  -8  -2   9   19.10    4.60
   7   2  -9  450.85   27.10
   7   2  -9  404.46   23.80
  -7  -2   9  401.26   24.40
  -7  -2   9  426.46   24.40
   6   2  -9  116.89   11.10
   6   2  -9  119.79    9.40
  -6  -2   9  129.69    9.90
  -6  -2   9  123.69    9.60
   5   2  -9 1313.57   69.29
   5   2  -9 1354.56   66.99
  -5  -2   9 1287.07   67.09
  -5  -2   9 1316.77   66.49
   4   2  -9   10.00    2.90
   4   2  -9    9.50    4.20
   4   2  -9    3.70    2.90
  -4  -2   9    5.70    3.00
  -4  -2   9    5.90    2.30
   3   2  -9  244.28   17.00
   3   2  -9  235.38   15.20
   3   2  -9  258.57   16.70
  -3  -2   9  257.77   15.70
  -3  -2   9  249.97   14.30
   2   2  -9    0.40    3.10
   2   2  -9    4.60    2.80
  -2  -2   9    2.40    1.70
  -2  -2   9    2.90    1.80
  -2  -2   9    7.50    3.20
   1   2  -9 1441.16   72.99
   1   2  -9 1468.35   74.19
  -1  -2   9 1458.05   73.09
  -1  -2   9 1417.76   73.19
  -1  -2   9 1415.46   71.99
   0   2  -9   57.39    7.70
   0   2  -9   54.29    6.30
   0  -2   9   50.29    6.50
   0  -2   9   56.19    5.70
   0  -2   9   64.49    6.90
  -1   2  -9  207.38   15.20
   1  -2   9  247.28   14.40
   1  -2   9  198.98   13.50
   1  -2   9  211.58   14.10
  -2   2  -9  103.99   10.20
   2  -2   9  131.59   10.20
   2  -2   9  120.09    8.90
   2  -2   9  124.69    9.60
  -3   2  -9  120.19   10.90
   3  -2   9  120.39    9.80
   3  -2   9  124.79   10.40
   3  -2   9  121.39    8.60
  -4   2  -9  450.15   26.90
   4  -2   9  452.75   23.90
   4  -2   9  414.96   26.40
   4  -2   9  427.76   25.40
   8   1  -9  356.96   24.20
   8   1  -9  389.26   21.80
  -8  -1   9  353.66   22.00
  -8  -1   9  373.56   22.10
   7   1  -9   26.80    5.90
   7   1  -9   31.30    4.90
  -7  -1   9   30.20    5.10
  -7  -1   9   24.60    4.60
   6   1  -9  231.08   14.40
   6   1  -9  224.58   16.30
  -6  -1   9  215.58   14.10
  -6  -1   9  206.98   14.00
   5   1  -9    3.40    3.20
   5   1  -9   13.60    3.30
   5   1  -9   12.20    4.10
  -5  -1   9    1.40    2.50
  -5  -1   9    4.30    2.40
   4   1  -9 1562.54   80.09
   4   1  -9 1552.54   80.69
   4   1  -9 1601.84   78.89
  -4  -1   9 1566.14   78.69
  -4  -1   9 1540.75   77.89
   3   1  -9  149.39   12.00
   3   1  -9  144.99   11.10
   3   1  -9  138.59   10.20
  -3  -1   9  150.88   10.60
  -3  -1   9  146.69    9.60
   2   1  -9 1562.24   77.19
   2   1  -9 1534.65   78.99
  -2  -1   9 1554.14   76.49
  -2  -1   9 1489.15   77.19
  -2  -1   9 1504.55   75.89
   1   1  -9  196.08   12.50
   1   1  -9  189.68   14.00
  -1  -1   9  191.48   12.00
  -1  -1   9  199.28   12.90
  -1  -1   9  185.68   12.90
   0   1  -9 2252.97  122.19
   0  -1   9 2540.25  121.59
   0  -1   9 2539.15  121.09
   0  -1   9 2460.95  120.99
  -1   1  -9  155.78   12.40
   1  -1   9  164.08   11.00
   1  -1   9  179.58   12.10
   1  -1   9  155.78   11.30
  -2   1  -9  729.33   43.80
   2  -1   9  845.62   43.10
   2  -1   9  827.52   42.30
   2  -1   9  846.12   43.80
  -3   1  -9   38.90    6.50
   3  -1   9   55.79    6.90
   3  -1   9   46.10    7.00
   3  -1   9   51.49    5.20
  -4   1  -9  965.70   51.79
  -4   1  -9  914.11   50.89
   4  -1   9  983.50   52.39
   4  -1   9 1014.40   51.09
   4  -1   9  949.21   49.20
   8   0  -9  587.14   35.70
   8   0  -9  654.53   33.70
  -8   0   9  619.24   34.00
  -8   0   9  595.94   33.30
   7   0  -9   63.89    8.90
   7   0  -9   71.79    6.90
  -7   0   9   70.19    6.90
  -7   0   9   65.59    7.30
   6   0  -9  457.55   28.40
   6   0  -9  507.95   27.40
   6   0  -9  451.25   28.70
  -6   0   9  501.35   27.10
  -6   0   9  512.45   27.10
   5   0  -9    1.90    2.10
   5   0  -9    1.10    2.40
   5   0  -9    0.40    2.60
  -5   0   9    5.60    2.60
  -5   0   9    7.30    2.80
   4   0  -9 1035.30   54.79
   4   0  -9 1060.19   55.89
   4   0  -9 1077.29   57.39
  -4   0   9 1096.29   54.89
  -4   0   9 1074.29   54.39
   3   0  -9   55.59    6.30
   3   0  -9   22.60    5.70
   3   0  -9   30.70    4.70
  -3   0   9   27.60    4.20
  -3   0   9   32.50    4.90
   2   0  -9  267.27   16.20
   2   0  -9  257.37   16.50
   2   0  -9  289.17   19.00
  -2   0   9  293.77   17.30
  -2   0   9  285.47   16.50
  -2   0   9  289.97   17.00
   1   0  -9    4.40    3.40
  -1   0   9    8.70    2.60
  -1   0   9    2.90    2.40
  -1   0   9   18.80    4.10
   0   0  -9 1212.38   62.49
   0   0   9 1228.78   61.09
   0   0   9 1165.98   60.79
   0   0   9 1178.48   61.19
  -1   0  -9  224.48   16.30
  -1   0  -9  237.48   15.70
   1   0   9  250.77   15.30
   1   0   9  251.47   15.50
   1   0   9  264.57   16.30
  -2   0  -9    7.30    3.50
  -2   0  -9   25.70    4.90
   2   0   9   11.90    3.10
   2   0   9   14.30    3.80
   2   0   9   20.50    4.40
  -3   0  -9  344.57   21.90
  -3   0  -9  343.57   22.30
   3   0   9  386.06   22.20
   3   0   9  367.46   20.70
   3   0   9  379.46   23.00
  -4   0  -9  117.59   10.30
  -4   0  -9  107.19   10.00
   4   0   9  108.89    8.50
   4   0   9  102.89   10.30
   4   0   9  110.79    9.80
   8  -1  -9   18.00    4.40
   8  -1  -9   22.10    5.40
  -8   1   9   10.40    4.00
   7  -1  -9  250.17   15.70
   7  -1  -9  264.07   17.50
   7  -1  -9  217.48   16.10
  -7   1   9  242.28   15.00
  -7   1   9  233.98   15.40
   6  -1  -9   86.89   10.20
   6  -1  -9   87.39    7.70
   6  -1  -9   74.59    9.10
  -6   1   9   70.59    7.20
  -6   1   9   73.59    7.00
   5  -1  -9  925.31   54.39
   5  -1  -9 1049.99   52.19
   5  -1  -9 1027.30   53.09
  -5   1   9 1055.49   51.49
  -5   1   9  932.21   51.29
   4  -1  -9  266.37   17.80
   4  -1  -9  227.78   15.00
   4  -1  -9  241.18   15.60
  -4   1   9  258.67   15.10
  -4   1   9  207.58   14.40
   3  -1  -9 1544.25   78.79
   3  -1  -9 1577.34   79.79
   3  -1  -9 1630.64   81.59
  -3   1   9 1553.74   78.69
  -3   1   9 1531.25   78.49
   2  -1  -9   91.99   10.40
   2  -1  -9   81.69    7.80
  -2   1   9   89.49    7.40
  -2   1   9   89.09    7.70
   1  -1  -9 1786.42   96.19
   1  -1  -9 1940.21   98.39
  -1   1   9 1881.01   96.49
  -1   1   9 2174.38   97.49
  -1   1   9 1901.11   96.49
   0  -1  -9  161.08   12.20
   0  -1  -9  181.88   13.40
   0   1   9  184.08   12.30
   0   1   9  180.98   12.50
  -1  -1  -9  879.31   47.20
  -1  -1  -9  895.71   47.80
   1   1   9  867.71   47.10
   1   1   9  915.81   46.60
  -2  -1  -9   97.49    9.20
  -2  -1  -9   91.19    8.60
   2   1   9   87.09    7.80
   2   1   9   85.39    9.50
  -3  -1  -9  910.31   48.40
  -3  -1  -9  857.41   47.90
   3   1   9  942.91   49.40
   3   1   9  909.51   47.10
   8  -2  -9   24.10    4.60
   8  -2  -9   29.10    6.00
  -8   2   9   26.80    5.10
   7  -2  -9  348.97   23.00
   7  -2  -9  355.46   22.80
   7  -2  -9  373.16   21.70
  -7   2   9  367.16   21.60
   6  -2  -9    1.10    2.40
   6  -2  -9    3.80    2.80
   6  -2  -9    3.30    3.70
  -6   2   9    0.10    2.60
  -6   2   9    5.30    2.60
   5  -2  -9  563.64   33.20
   5  -2  -9  557.54   30.30
   5  -2  -9  541.35   30.60
  -5   2   9  551.34   29.30
  -5   2   9  503.15   29.50
   4  -2  -9    4.70    3.80
   4  -2  -9    3.80    2.50
   4  -2  -9    1.90    2.50
  -4   2   9    8.20    2.90
  -4   2   9    2.30    2.60
   3  -2  -9  577.54   32.80
   3  -2  -9  537.05   29.40
  -3   2   9  545.45   29.40
  -3   2   9  527.75   29.80
   2  -2  -9   53.89    8.20
  -2   2   9   57.59    7.00
  -2   2   9   51.89    6.10
   1  -2  -9  559.24   34.80
   1  -2  -9  563.34   33.40
  -1   2   9  737.63   35.40
  -1   2   9  611.84   33.80
  -1   2   9  631.84   33.50
   0  -2  -9   64.89    8.50
   0  -2  -9   75.29    7.80
   0   2   9   76.99    7.60
   0   2   9   80.49    7.70
  -1  -2  -9   77.89    8.90
  -1  -2  -9   58.39    8.00
   1   2   9   80.09    7.60
   1   2   9   84.09    7.90
  -2  -2  -9  408.76   25.50
  -2  -2  -9  439.46   26.00
   2   2   9  438.96   26.10
   2   2   9  446.86   24.90
  -3  -2  -9    8.50    3.50
  -3  -2  -9    2.10    3.30
   3   2   9    2.10    3.20
   3   2   9    0.90    2.40
   8  -3  -9  175.58   14.10
   8  -3  -9  177.38   12.70
  -8   3   9  186.08   13.20
   7  -3  -9   35.80    6.80
   7  -3  -9   25.30    4.80
   7  -3  -9   36.40    6.40
  -7   3   9   30.90    5.50
   6  -3  -9  659.13   34.70
   6  -3  -9  564.54   32.10
   6  -3  -9  564.44   31.70
  -6   3   9  505.15   31.10
   5  -3  -9   41.70    6.10
   5  -3  -9   36.10    7.10
   5  -3  -9   38.40    5.70
  -5   3   9   26.80    5.00
  -5   3   9   26.90    4.20
   4  -3  -9 1125.29   56.89
   4  -3  -9 1157.68   60.59
  -4   3   9 1106.59   56.29
  -4   3   9 1054.29   57.19
   3  -3  -9  620.44   36.80
  -3   3   9  630.74   34.70
  -3   3   9  641.14   33.60
   2  -3  -9 1184.48   64.09
  -2   3   9 1173.98   61.19
  -2   3   9 1254.37   62.89
   1  -3  -9   15.10    5.30
   1  -3  -9   13.70    4.10
  -1   3   9   17.30    4.90
  -1   3   9   14.20    3.80
  -1   3   9   15.50    4.40
   0  -3  -9  910.61   49.30
   0  -3  -9  881.81   48.60
   0   3   9  903.71   48.10
   0   3   9  952.20   48.60
   0   3   9  908.21   50.69
  -1  -3  -9  218.58   15.30
  -1  -3  -9  205.48   15.20
   1   3   9  226.88   15.20
   1   3   9  205.78   14.50
  -2  -3  -9  730.13   40.00
  -2  -3  -9  715.03   39.60
   2   3   9  702.73   40.10
   2   3   9  720.83   38.90
   8  -4  -9  347.97   21.40
   8  -4  -9  335.97   20.00
   8  -4  -9  271.87   20.60
  -8   4   9  314.37   20.00
   7  -4  -9    1.00    2.80
   7  -4  -9    5.40    3.60
   7  -4  -9    1.40    2.70
  -7   4   9    4.90    3.40
   6  -4  -9  341.17   21.30
   6  -4  -9  298.57   19.00
   6  -4  -9  299.77   19.00
  -6   4   9  266.17   18.50
   5  -4  -9   10.70    4.60
   5  -4  -9    9.30    3.40
   5  -4  -9    6.80    3.40
  -5   4   9   20.70    4.60
   4  -4  -9  395.46   26.80
  -4   4   9  442.76   23.90
  -4   4   9  405.06   24.50
   3  -4  -9    8.00    4.50
  -3   4   9    1.00    2.90
  -3   4   9    7.10    2.80
   2  -4  -9  433.56   27.70
  -2   4   9  428.46   24.90
  -2   4   9  475.05   27.10
   1  -4  -9  172.28   13.50
   1  -4  -9  155.98   12.40
  -1   4   9  143.99   12.50
  -1   4   9  141.79   11.10
   0  -4  -9   34.50    6.50
   0  -4  -9   47.60    7.60
   0   4   9   32.90    5.80
   0   4   9   59.19    7.50
   0   4   9   52.99    7.40
  -1  -4  -9  109.79   10.60
  -1  -4  -9   95.19   10.90
   1   4   9  116.29   10.10
   1   4   9   99.89    9.90
   7  -5  -9  309.37   19.20
   7  -5  -9  298.77   20.30
   7  -5  -9  291.17   19.00
  -7   5   9  254.27   18.20
   6  -5  -9   13.10    4.90
   6  -5  -9    8.70    3.60
   6  -5  -9   11.50    4.40
  -6   5   9    7.90    3.80
   5  -5  -9  674.83   36.80
  -5   5   9  567.54   34.00
   4  -5  -9   64.09    9.70
  -4   5   9   54.39    7.50
   3  -5  -9  881.41   51.09
  -3   5   9  953.90   49.99
   2  -5  -9   90.49   11.00
  -2   5   9   83.69   10.00
  -2   5   9   75.69    8.20
   1  -5  -9  535.85   31.50
  -1   5   9  546.75   30.80
  -1   5   9  489.55   29.30
   0  -5  -9    6.70    4.10
   0  -5  -9    6.50    4.30
   0   5   9    8.70    3.90
   0   5   9    3.80    3.40
   6  -6  -9  108.99   10.60
  -6   6   9   74.39    9.30
   5  -6  -9  220.28   17.20
  -5   6   9  236.38   16.20
   4  -6  -9   18.50    5.70
  -4   6   9   16.30    5.20
   3  -6  -9  267.07   19.60
   2  -6  -9  170.98   14.90
  -2   6   9  164.68   13.60
   3   8 -10   47.00    9.20
  -3  -8  10   57.79    8.10
   2   8 -10  389.56   25.70
  -2  -8  10  358.26   22.70
  -2  -8  10  351.66   21.80
   1   8 -10   44.40    8.50
  -1  -8  10   51.29    6.80
  -1  -8  10   59.49    8.00
   0   8 -10  945.21   52.49
   0  -8  10  917.51   49.20
  -1   8 -10   43.90    8.30
   1  -8  10   46.40    6.90
  -2   8 -10  389.96   25.40
  -2   8 -10  373.26   23.90
   2  -8  10  344.77   21.90
   2  -8  10  334.67   21.80
   4   7 -10  197.48   16.00
  -4  -7  10  134.99   12.20
   3   7 -10  129.19   12.80
  -3  -7  10   94.79   10.60
   2   7 -10   29.00    6.70
  -2  -7  10   25.60    5.60
  -2  -7  10   30.80    5.10
   1   7 -10  675.83   39.10
  -1  -7  10  617.44   34.90
  -1  -7  10  656.63   36.60
   0   7 -10   32.20    7.10
   0  -7  10   39.10    6.70
   0  -7  10   38.50    5.80
  -1   7 -10  233.38   17.90
  -1   7 -10  247.08   19.00
   1  -7  10  302.57   17.10
   1  -7  10  234.08   16.70
  -2   7 -10   19.50    6.20
  -2   7 -10   19.40    5.80
   2  -7  10   24.20    4.70
   2  -7  10   25.20    5.10
  -3   7 -10  651.03   38.10
  -3   7 -10  641.24   38.60
   3  -7  10  663.83   36.40
   3  -7  10  638.34   35.40
   5   6 -10  344.87   21.00
   5   6 -10  368.66   24.80
  -5  -6  10  303.87   21.30
   4   6 -10   16.80    6.10
  -4  -6  10    8.10    3.80
   3   6 -10 1254.57   65.09
  -3  -6  10 1122.89   61.79
   2   6 -10  302.57   20.70
  -2  -6  10  271.67   18.40
  -2  -6  10  270.87   16.90
   1   6 -10  777.82   41.60
  -1  -6  10  669.33   37.20
  -1  -6  10  687.23   39.00
   0   6 -10   16.60    5.30
   0   6 -10   19.10    5.40
   0  -6  10   23.50    4.30
   0  -6  10   20.00    4.80
  -1   6 -10 1089.89   58.09
  -1   6 -10 1091.59   58.89
   1  -6  10 1128.99   56.99
   1  -6  10 1035.00   56.19
   1  -6  10 1060.29   55.99
  -2   6 -10   34.50    7.40
  -2   6 -10   31.90    6.70
   2  -6  10   38.00    5.70
   2  -6  10   31.20    5.40
   2  -6  10   40.80    6.40
  -3   6 -10  249.08   17.80
  -3   6 -10  225.38   17.70
   3  -6  10  224.58   15.00
   3  -6  10  222.78   15.90
   6   5 -10    9.90    3.60
   6   5 -10   12.50    3.80
   6   5 -10   11.40    5.60
  -6  -5  10   17.50    5.00
   5   5 -10  160.08   12.20
   5   5 -10  158.58   11.40
   5   5 -10  204.98   16.10
  -5  -5  10  168.28   13.40
   4   5 -10  321.57   21.50
  -4  -5  10  265.77   18.50
   3   5 -10    1.90    3.80
  -3  -5  10    9.00    3.90
   2   5 -10  489.15   29.90
  -2  -5  10  482.95   30.20
  -2  -5  10  482.65   28.10
   1   5 -10    0.40    2.90
   1   5 -10    4.60    3.50
  -1  -5  10    6.90    2.80
  -1  -5  10    0.50    2.90
   0   5 -10  777.92   43.80
   0   5 -10  771.92   43.10
   0  -5  10  794.02   42.70
   0  -5  10  756.82   41.10
   0  -5  10  808.82   42.30
  -1   5 -10    2.10    3.20
  -1   5 -10    3.00    3.40
   1  -5  10    0.50    2.40
   1  -5  10    1.60    2.70
   1  -5  10    5.00    2.90
  -2   5 -10  379.86   24.60
  -2   5 -10  369.96   24.60
   2  -5  10  391.16   23.20
   2  -5  10  413.56   23.40
   2  -5  10  380.26   22.80
  -3   5 -10  119.89   11.40
   3  -5  10  114.89    9.60
   3  -5  10  126.39   10.50
   3  -5  10  117.69   10.40
   6   4 -10  813.72   44.80
   6   4 -10  759.72   40.40
   6   4 -10  786.42   41.10
  -6  -4  10  701.53   40.40
  -6  -4  10  780.32   42.20
   5   4 -10   17.00    3.50
   5   4 -10   20.40    6.00
   5   4 -10   13.50    4.00
  -5  -4  10   19.80    4.90
  -5  -4  10   14.00    3.60
   4   4 -10  519.55   29.40
   4   4 -10  589.84   32.50
  -4  -4  10  510.75   29.70
  -4  -4  10  502.65   29.00
   3   4 -10  283.47   18.40
  -3  -4  10  238.58   16.50
   2   4 -10 1907.01   99.29
   2   4 -10 2063.79   99.39
  -2  -4  10 1881.81   98.09
   1   4 -10   44.10    7.00
   1   4 -10   52.89    7.60
  -1  -4  10   41.70    6.50
  -1  -4  10   67.89    6.00
   0   4 -10  978.00   52.49
   0   4 -10  970.30   52.79
   0  -4  10  973.40   50.99
   0  -4  10  995.10   51.99
   0  -4  10 1007.40   51.99
  -1   4 -10   17.20    4.80
  -1   4 -10   20.70    5.00
   1  -4  10   27.40    5.00
   1  -4  10   11.60    3.70
   1  -4  10   25.40    4.70
  -2   4 -10  531.95   32.70
   2  -4  10  584.94   31.20
   2  -4  10  583.84   31.70
   2  -4  10  545.15   31.30
  -3   4 -10   32.60    6.60
   3  -4  10   19.70    4.70
   3  -4  10   34.60    5.00
   3  -4  10   33.60    5.60
  -4   4 -10  211.08   16.10
   4  -4  10  209.78   15.50
   4  -4  10  201.18   14.70
   4  -4  10  208.88   13.20
   7   3 -10    0.80    2.50
   7   3 -10    3.10    4.20
  -7  -3  10    1.20    2.40
  -7  -3  10    8.80    3.80
   6   3 -10   52.59    6.30
   6   3 -10   43.80    7.50
  -6  -3  10   45.30    5.90
  -6  -3  10   45.70    6.60
   5   3 -10  467.05   27.30
   5   3 -10  427.46   24.50
  -5  -3  10  395.56   23.50
  -5  -3  10  426.36   24.80
   4   3 -10   67.09    8.90
   4   3 -10   70.29    7.50
  -4  -3  10   61.69    5.80
  -4  -3  10   68.79    7.90
   3   3 -10  396.16   23.60
   3   3 -10  393.36   24.00
  -3  -3  10  341.47   22.00
   2   3 -10   14.40    4.40
   2   3 -10   27.20    5.60
  -2  -3  10   16.10    4.20
   1   3 -10  965.20   50.49
   1   3 -10  935.91   49.50
  -1  -3  10  870.81   49.40
  -1  -3  10 1007.20   49.99
  -1  -3  10  912.71   48.30
   0   3 -10   -0.40    2.80
   0   3 -10    0.40    2.50
   0  -3  10    1.60    2.40
   0  -3  10    1.50    2.30
   0  -3  10    0.40    2.50
  -1   3 -10  644.94   37.40
   1  -3  10  699.63   36.40
   1  -3  10  642.44   35.70
   1  -3  10  663.03   35.80
  -2   3 -10   69.99    9.00
   2  -3  10   71.19    8.20
   2  -3  10   57.69    6.60
   2  -3  10   61.29    7.40
  -3   3 -10 1120.29   59.39
   3  -3  10 1062.69   56.39
   3  -3  10 1150.28   58.49
   3  -3  10 1114.49   57.99
  -4   3 -10   94.99   11.00
   4  -3  10  116.59    9.60
   4  -3  10  102.09    8.10
   4  -3  10  114.19   10.60
   7   2 -10  385.66   24.60
   7   2 -10  359.86   21.80
  -7  -2  10  363.96   22.10
  -7  -2  10  367.06   21.80
   6   2 -10   46.90    7.50
   6   2 -10   56.49    6.70
  -6  -2  10   54.59    7.00
  -6  -2  10   47.60    6.10
   5   2 -10 1347.17   66.39
   5   2 -10 1248.18   63.89
  -5  -2  10 1218.78   62.89
  -5  -2  10 1179.68   63.69
   4   2 -10   39.10    6.60
   4   2 -10   47.90    7.10
  -4  -2  10   37.80    5.80
  -4  -2  10   46.80    5.20
   3   2 -10  935.51   50.39
   3   2 -10  948.41   49.20
  -3  -2  10  883.21   48.30
   2   2 -10  306.57   18.70
   2   2 -10  299.07   20.00
  -2  -2  10  295.97   18.70
   1   2 -10 2369.36  115.49
   1   2 -10 2195.68  113.59
  -1  -2  10 2305.97  113.29
  -1  -2  10 2368.26  114.29
  -1  -2  10 2232.78  114.29
   0   2 -10    3.50    3.40
   0  -2  10    9.30    3.20
   0  -2  10    7.70    3.00
   0  -2  10    6.60    2.70
  -1   2 -10  181.18   14.50
   1  -2  10  185.08   12.80
   1  -2  10  199.38   13.10
   1  -2  10  214.78   13.80
  -2   2 -10   -0.70    2.70
   2  -2  10    1.60    2.10
   2  -2  10    4.70    2.90
   2  -2  10    0.90    2.30
  -3   2 -10  738.73   40.20
   3  -2  10  687.13   37.30
   3  -2  10  674.93   38.40
   3  -2  10  759.52   39.60
   8   1 -10   10.70    3.40
   8   1 -10   11.50    4.50
  -8  -1  10   10.30    3.80
  -8  -1  10   12.50    4.00
   7   1 -10  205.08   16.60
   7   1 -10  246.48   15.10
  -7  -1  10  228.68   14.90
  -7  -1  10  216.98   14.80
   6   1 -10  193.18   15.20
   6   1 -10  214.68   13.70
  -6  -1  10  200.18   13.50
  -6  -1  10  191.08   13.20
   5   1 -10    5.00    2.80
   5   1 -10    4.40    3.30
   5   1 -10    8.20    3.80
  -5  -1  10    4.20    2.50
  -5  -1  10   12.90    3.80
   4   1 -10  495.55   27.20
   4   1 -10  489.15   29.60
   4   1 -10  462.65   28.00
  -4  -1  10  495.15   27.30
  -4  -1  10  483.95   26.30
   3   1 -10   25.00    5.80
   3   1 -10   19.70    4.20
  -3  -1  10   20.60    4.60
  -3  -1  10   24.90    4.00
   2   1 -10  779.02   41.80
   2   1 -10  824.12   44.20
  -2  -1  10  786.02   42.30
   1   1 -10   14.00    4.60
  -1  -1  10   14.00    3.20
  -1  -1  10    2.80    2.50
  -1  -1  10    2.90    2.70
   0   1 -10  776.92   41.50
   0  -1  10  737.63   40.30
   0  -1  10  769.92   39.80
   0  -1  10  734.63   39.80
  -1   1 -10   76.89    9.10
   1  -1  10   76.69    8.60
   1  -1  10   75.79    7.20
   1  -1  10   74.59    7.00
  -2   1 -10 1099.09   56.99
   2  -1  10 1047.90   55.59
   2  -1  10 1088.39   54.89
   2  -1  10 1049.89   56.19
  -3   1 -10   59.69    8.40
  -3   1 -10   63.39    7.70
   3  -1  10   56.29    6.20
   3  -1  10   75.89    8.90
   3  -1  10   59.19    7.30
   8   0 -10  313.07   21.60
   8   0 -10  323.97   19.40
  -8   0  10  319.57   19.20
  -8   0  10  305.37   19.40
   7   0 -10   44.80    7.30
   7   0 -10   44.70    5.90
  -7   0  10   44.50    6.10
  -7   0  10   44.10    6.00
   6   0 -10  752.42   42.20
   6   0 -10  679.23   42.00
   6   0 -10  785.32   40.60
  -6   0  10  778.12   40.30
  -6   0  10  786.42   40.30
   5   0 -10   46.70    7.80
   5   0 -10   30.30    6.00
   5   0 -10   34.20    5.90
  -5   0  10   33.80    5.30
  -5   0  10   40.60    5.30
   4   0 -10 1262.97   65.69
   4   0 -10 1296.17   63.59
   4   0 -10 1159.58   62.39
  -4   0  10 1209.78   61.99
  -4   0  10 1200.28   62.49
   3   0 -10  216.28   15.90
   3   0 -10  204.58   13.60
  -3   0  10  200.58   13.80
  -3   0  10  197.08   13.10
   2   0 -10 1552.54   74.39
   2   0 -10 1311.67   71.49
  -2   0  10 1389.46   71.49
   1   0 -10    9.20    3.70
   1   0 -10    3.50    2.50
  -1   0  10    5.90    2.80
  -1   0  10    2.70    2.30
  -1   0  10    8.50    3.10
   0   0 -10  677.43   39.30
   0   0 -10  782.32   41.30
   0   0  10  755.32   39.50
   0   0  10  748.53   39.60
   0   0  10  760.72   40.00
  -1   0 -10   14.20    4.60
  -1   0 -10   16.80    4.20
   1   0  10   17.00    4.10
   1   0  10   11.80    3.20
   1   0  10   15.00    3.90
  -2   0 -10  237.38   16.20
  -2   0 -10  246.18   16.90
   2   0  10  233.68   15.30
   2   0  10  276.77   17.20
   2   0  10  255.67   16.40
  -3   0 -10    3.80    3.30
  -3   0 -10    4.20    3.40
   3   0  10    5.30    2.60
   3   0  10    7.90    3.70
   3   0  10    0.70    3.10
   8  -1 -10   23.90    5.80
   8  -1 -10   21.60    4.50
  -8   1  10   18.80    4.40
   7  -1 -10  106.19    9.00
   7  -1 -10   93.09    9.70
   7  -1 -10   81.59   10.10
  -7   1  10  105.39    8.50
  -7   1  10  102.49    8.70
   6  -1 -10  179.48   13.80
   6  -1 -10  169.58   12.50
   6  -1 -10  162.48   14.40
  -6   1  10  188.88   12.30
  -6   1  10  179.58   12.50
   5  -1 -10  529.15   32.60
   5  -1 -10  525.85   29.50
   5  -1 -10  563.74   30.60
  -5   1  10  516.45   29.10
  -5   1  10  514.95   29.00
   4  -1 -10  109.69    9.20
   4  -1 -10  110.49   11.30
  -4   1  10  103.39    8.80
  -4   1  10  109.39    9.00
   3  -1 -10  432.66   24.20
   3  -1 -10  409.46   26.80
  -3   1  10  412.56   24.10
  -3   1  10  452.35   24.40
   2  -1 -10  107.99   10.50
  -2   1  10  118.59    9.30
  -2   1  10  100.49    8.60
   1  -1 -10  828.12   45.70
   1  -1 -10  910.51   48.00
  -1   1  10  914.31   46.30
  -1   1  10  850.01   45.70
   0  -1 -10  161.38   12.20
   0  -1 -10  160.48   13.10
   0   1  10  186.78   12.80
   0   1  10  180.68   12.40
  -1  -1 -10  837.02   46.50
  -1  -1 -10  875.71   47.40
   1   1  10  861.51   46.00
   1   1  10  942.11   47.20
  -2  -1 -10   25.70    5.30
  -2  -1 -10   23.70    5.00
   2   1  10   20.70    4.90
   2   1  10   28.40    4.70
   8  -2 -10    9.20    3.40
   8  -2 -10   10.00    4.10
  -8   2  10    7.10    3.60
   7  -2 -10  438.56   23.80
   7  -2 -10  338.87   24.30
  -7   2  10  397.76   23.30
   6  -2 -10   22.80    5.90
   6  -2 -10   16.90    4.50
   6  -2 -10   22.20    4.70
  -6   2  10   27.20    4.50
  -6   2  10   18.70    4.20
   5  -2 -10 1285.67   62.49
   5  -2 -10 1067.49   57.99
   5  -2 -10 1088.19   58.19
  -5   2  10 1126.59   57.99
  -5   2  10 1072.69   57.29
   4  -2 -10  153.48   13.30
   4  -2 -10  138.89   10.40
  -4   2  10  130.99    9.80
  -4   2  10  137.39   10.50
   3  -2 -10 1106.99   59.99
  -3   2  10 1112.59   56.59
  -3   2  10 1096.59   57.29
   2  -2 -10    4.00    4.10
  -2   2  10    3.00    3.10
  -2   2  10    2.90    2.40
   1  -2 -10  504.15   30.20
   1  -2 -10  503.05   29.70
  -1   2  10  502.65   28.60
  -1   2  10  535.15   30.10
   0  -2 -10   15.60    4.90
   0  -2 -10   19.10    4.50
   0   2  10   15.10    4.20
   0   2  10   10.90    3.60
  -1  -2 -10  308.37   20.10
  -1  -2 -10  309.67   19.70
   1   2  10  325.37   19.90
   1   2  10  303.17   19.20
  -2  -2 -10   55.59    7.50
  -2  -2 -10   51.09    7.50
   2   2  10   57.89    8.00
   2   2  10   55.39    6.70
   7  -3 -10   10.50    4.40
   7  -3 -10    8.00    3.60
   7  -3 -10   13.40    4.60
  -7   3  10   10.90    3.60
   6  -3 -10  251.67   16.70
   6  -3 -10  238.88   16.50
   6  -3 -10  277.87   19.10
  -6   3  10  237.98   16.20
   5  -3 -10   12.50    3.70
   5  -3 -10   17.30    6.00
  -5   3  10   13.70    4.00
  -5   3  10    8.80    3.00
   4  -3 -10  413.56   26.40
  -4   3  10  395.96   22.10
  -4   3  10  371.76   23.00
   3  -3 -10    6.70    4.80
  -3   3  10    7.60    3.50
  -3   3  10    3.50    2.50
   2  -3 -10  642.74   36.50
  -2   3  10  572.14   33.00
  -2   3  10  638.04   35.00
   1  -3 -10   11.60    5.00
  -1   3  10   15.20    4.00
   0  -3 -10  811.82   42.80
   0  -3 -10  738.43   41.70
   0   3  10  805.42   41.60
   0   3  10  716.43   41.20
  -1  -3 -10  201.28   15.20
  -1  -3 -10  210.98   15.60
   1   3  10  220.18   15.40
   1   3  10  216.18   14.80
   7  -4 -10    5.50    3.30
   7  -4 -10    6.20    3.90
   7  -4 -10    8.00    4.40
  -7   4  10    3.70    3.30
   6  -4 -10  662.03   38.60
   6  -4 -10  732.43   40.00
   6  -4 -10  755.32   41.40
  -6   4  10  681.53   38.50
   5  -4 -10  154.48   14.00
  -5   4  10  139.69   11.40
   4  -4 -10  615.14   36.90
  -4   4  10  602.54   34.10
   3  -4 -10   -0.60    3.90
  -3   4  10    1.90    2.50
  -3   4  10   -1.10    3.10
   2  -4 -10  538.95   32.30
  -2   4  10  491.95   29.00
  -2   4  10  563.64   31.60
   1  -4 -10   12.40    4.90
  -1   4  10   -0.20    2.50
  -1   4  10    0.60    4.90
   0  -4 -10  151.08   13.20
   0  -4 -10  183.08   14.40
   0   4  10  177.58   13.00
   6  -5 -10    1.60    3.60
  -6   5  10    0.80    3.10
   5  -5 -10  143.69   13.60
  -5   5  10  125.69   11.10
   4  -5 -10   18.40    6.20
  -4   5  10   17.50    4.70
   3  -5 -10  534.75   34.00
  -3   5  10  579.74   33.00
   2  -5 -10    9.50    4.90
  -2   5  10    5.20    3.10
  -2   5  10   11.00    4.40
   3   7 -11    2.60    4.70
  -3  -7  11   -2.60    3.30
   2   7 -11  216.08   17.70
  -2  -7  11  214.28   15.90
   1   7 -11   71.59   10.00
  -1  -7  11   66.99    8.90
  -1  -7  11   58.89    7.10
   0   7 -11  231.08   17.80
   0  -7  11  220.98   16.20
   0  -7  11  203.08   14.40
  -1   7 -11   45.40    7.80
  -1   7 -11   59.99    9.40
   1  -7  11   37.90    6.20
   4   6 -11  126.09   12.50
  -4  -6  11   98.29   11.10
   3   6 -11 1139.39   58.89
  -3  -6  11  987.50   55.99
   2   6 -11  100.09   11.90
  -2  -6  11   79.19    9.40
   1   6 -11  877.01   47.30
  -1  -6  11  778.12   43.70
  -1  -6  11  876.01   46.20
   0   6 -11   47.10    7.80
   0   6 -11   54.69    8.50
   0  -6  11   46.60    6.30
   0  -6  11   62.19    8.30
  -1   6 -11  821.52   45.00
  -1   6 -11  798.52   44.90
   1  -6  11  861.31   44.00
   1  -6  11  768.62   42.70
   1  -6  11  751.32   42.90
  -2   6 -11   28.30    6.60
  -2   6 -11   34.10    7.00
   2  -6  11   37.10    6.20
   2  -6  11   35.20    5.60
   5   5 -11  472.65   28.80
  -5  -5  11  385.76   25.40
   4   5 -11    5.50    4.50
  -4  -5  11    5.60    3.80
   3   5 -11  143.39   12.70
  -3  -5  11  124.69   11.10
   2   5 -11   23.40    5.90
  -2  -5  11   23.10    5.40
   1   5 -11  319.87   20.20
   1   5 -11  302.77   20.30
  -1  -5  11  290.37   19.50
  -1  -5  11  285.47   17.90
   0   5 -11  151.88   13.10
   0   5 -11  161.18   13.10
   0  -5  11  154.48   12.90
   0  -5  11  156.38   11.50
   0  -5  11  162.88   12.60
  -1   5 -11    3.60    3.90
  -1   5 -11    4.90    3.80
   1  -5  11    6.40    3.60
   1  -5  11    3.50    3.20
   1  -5  11    3.40    2.70
  -2   5 -11  390.86   25.20
   2  -5  11  380.86   23.20
   2  -5  11  397.86   23.70
   2  -5  11  386.16   23.40
   6   4 -11  589.24   32.20
   6   4 -11  640.34   36.00
  -6  -4  11  563.54   32.90
  -6  -4  11  525.55   31.10
   5   4 -11   27.00    5.20
   5   4 -11   22.40    6.00
  -5  -4  11   27.20    5.40
   4   4 -11  735.73   39.30
  -4  -4  11  623.54   36.90
   3   4 -11  263.97   17.20
  -3  -4  11  204.48   15.30
   2   4 -11 2079.29   99.49
   2   4 -11 1839.72   98.39
  -2  -4  11 1910.21   98.19
   1   4 -11   12.00    4.10
   1   4 -11   10.20    4.40
  -1  -4  11   14.00    3.60
  -1  -4  11   15.60    4.50
   0   4 -11  458.95   27.90
   0   4 -11  432.96   26.80
   0  -4  11  488.95   27.20
   0  -4  11  457.25   27.00
   0  -4  11  465.85   26.20
  -1   4 -11  178.08   14.70
   1  -4  11  191.28   13.60
   1  -4  11  201.68   13.90
   1  -4  11  184.78   13.30
  -2   4 -11 1291.77   68.99
   2  -4  11 1276.27   67.39
   2  -4  11 1333.07   66.99
   2  -4  11 1326.67   67.89
  -3   4 -11   15.70    5.30
   3  -4  11   26.40    5.30
   3  -4  11   26.90    5.20
   3  -4  11   27.60    4.70
   6   3 -11  132.99   10.80
   6   3 -11  150.58   13.10
  -6  -3  11  136.49   11.40
  -6  -3  11  143.39   10.50
   5   3 -11   18.30    4.10
   5   3 -11   23.30    5.70
  -5  -3  11   18.50    3.80
  -5  -3  11   16.90    4.50
   4   3 -11  379.76   22.90
  -4  -3  11  328.87   21.20
   3   3 -11    4.80    4.10
   3   3 -11   11.80    4.20
  -3  -3  11   10.90    3.70
   2   3 -11  225.58   15.50
   2   3 -11  251.17   17.30
  -2  -3  11  228.98   15.80
   1   3 -11  272.37   17.10
   1   3 -11  259.77   18.10
  -1  -3  11  260.37   17.30
  -1  -3  11  276.57   19.40
   0   3 -11   32.90    6.10
   0  -3  11   37.50    5.50
   0  -3  11   34.20    5.80
   0  -3  11   26.90    5.30
  -1   3 -11  364.96   23.00
   1  -3  11  370.46   22.00
   1  -3  11  343.17   21.40
   1  -3  11  367.96   21.50
  -2   3 -11    5.80    4.10
   2  -3  11    1.10    2.80
   2  -3  11    9.30    3.60
  -3   3 -11  486.35   30.50
   3  -3  11  527.95   30.10
   3  -3  11  535.65   29.60
   3  -3  11  500.85   27.90
   7   2 -11  357.06   24.00
   7   2 -11  407.76   22.20
  -7  -2  11  320.47   21.30
  -7  -2  11  355.36   21.30
   6   2 -11   10.60    3.50
   6   2 -11   11.30    4.40
  -6  -2  11   11.80    3.50
  -6  -2  11    9.60    3.50
   5   2 -11 1051.99   54.49
   5   2 -11  978.40   52.49
  -5  -2  11  973.70   51.39
  -5  -2  11 1015.90   52.59
   4   2 -11  188.98   15.50
   4   2 -11  210.68   14.80
  -4  -2  11  206.28   14.10
   3   2 -11 1115.89   57.69
   3   2 -11 1116.59   59.49
  -3  -2  11 1069.69   57.39
   2   2 -11   55.19    8.20
   2   2 -11   46.30    6.20
  -2  -2  11   45.00    6.60
   1   2 -11 1393.86   69.99
  -1  -2  11 1280.17   68.49
   0   2 -11   66.49    8.60
   0  -2  11   84.19    7.50
   0  -2  11   80.49    7.70
   0  -2  11   73.89    8.50
  -1   2 -11  751.62   40.90
   1  -2  11  693.43   38.70
   1  -2  11  730.03   39.20
   1  -2  11  749.73   39.80
  -2   2 -11  127.99   11.70
   2  -2  11  122.39   10.20
   2  -2  11  140.09   11.10
   2  -2  11  120.29    9.60
   7   1 -11  397.36   25.20
   7   1 -11  390.56   22.80
  -7  -1  11  374.56   22.60
  -7  -1  11  375.16   22.50
   6   1 -11   48.50    6.50
   6   1 -11   45.90    7.60
  -6  -1  11   41.80    6.00
  -6  -1  11   45.80    5.80
   5   1 -11  104.69    9.10
   5   1 -11  113.49   10.30
   5   1 -11  109.29   12.30
  -5  -1  11  112.39    8.80
  -5  -1  11   97.39    9.00
   4   1 -11    6.70    3.30
   4   1 -11    2.10    3.50
  -4  -1  11    2.80    2.60
  -4  -1  11    3.80    2.60
   3   1 -11  533.25   30.80
   3   1 -11  624.24   33.90
  -3  -1  11  528.75   31.00
   2   1 -11  266.57   17.10
   2   1 -11  179.38   14.20
  -2  -1  11  229.78   14.90
   1   1 -11    5.00    3.60
  -1  -1  11    6.50    3.10
  -1  -1  11    4.10    3.10
   0   1 -11  330.47   22.70
   0  -1  11  376.26   21.90
   0  -1  11  389.06   22.40
   0  -1  11  389.86   21.70
  -1   1 -11   14.40    4.50
   1  -1  11   14.80    3.80
   1  -1  11   15.40    3.80
   1  -1  11   14.10    4.00
  -2   1 -11  576.74   34.10
  -2   1 -11  519.85   32.80
   2  -1  11  636.94   33.50
   2  -1  11  635.84   34.10
   2  -1  11  636.14   32.60
   7   0 -11   15.80    5.00
   7   0 -11   11.20    3.60
  -7   0  11   18.50    4.30
  -7   0  11   13.10    3.80
   6   0 -11  852.71   46.60
   6   0 -11  881.31   49.50
   6   0 -11  906.51   48.40
  -6   0  11  881.61   46.50
  -6   0  11  899.11   46.50
   5   0 -11  156.28   12.30
   5   0 -11  152.98   11.50
   5   0 -11  180.78   14.90
  -5   0  11  153.58   11.30
  -5   0  11  142.79   11.10
   4   0 -11  932.81   48.80
   4   0 -11  922.31   51.59
  -4   0  11  916.81   48.50
  -4   0  11  912.11   47.90
   3   0 -11   11.80    3.40
   3   0 -11   17.20    5.60
  -3   0  11   10.10    3.60
   2   0 -11 1228.88   61.89
  -2   0  11 1085.89   59.29
   1   0 -11  196.78   14.40
  -1   0  11  169.48   12.60
   0   0 -11  865.51   46.10
   0   0 -11  763.62   44.20
   0   0  11  867.81   45.10
   0   0  11  829.62   44.40
   0   0  11  896.51   44.70
  -1   0 -11   41.00    6.00
  -1   0 -11   31.20    6.00
   1   0  11   35.60    5.90
   1   0  11   30.10    4.80
   1   0  11   32.50    5.40
  -2   0 -11  767.92   43.10
  -2   0 -11  719.53   42.10
   2   0  11  860.91   43.50
   2   0  11  767.42   41.50
   2   0  11  832.12   42.70
   7  -1 -11    9.20    4.10
   7  -1 -11    4.60    3.10
  -7   1  11    3.20    3.10
  -7   1  11    8.00    3.50
   6  -1 -11  376.56   25.60
   6  -1 -11  392.66   23.80
   6  -1 -11  370.86   22.60
  -6   1  11  394.66   22.40
  -6   1  11  371.36   22.40
   5  -1 -11   25.30    7.00
   5  -1 -11   27.60    5.30
  -5   1  11   23.40    4.70
  -5   1  11   21.20    4.30
   4  -1 -11   72.49    7.30
   4  -1 -11   70.99   10.10
  -4   1  11   70.29    7.80
  -4   1  11   68.49    7.50
   3  -1 -11  102.79   11.90
  -3   1  11  103.49    8.90
   2  -1 -11  319.87   21.20
  -2   1  11  301.97   18.60
   1  -1 -11  475.65   29.00
  -1   1  11  482.65   27.20
   0  -1 -11   62.99    8.40
   0  -1 -11   67.69    8.00
   0   1  11   68.39    8.20
   0   1  11   77.89    7.60
  -1  -1 -11  421.46   25.40
  -1  -1 -11  426.16   26.00
   1   1  11  438.66   24.90
   1   1  11  445.06   25.70
   7  -2 -11  654.33   38.70
   7  -2 -11  688.43   37.80
   7  -2 -11  688.23   36.80
  -7   2  11  627.34   36.30
   6  -2 -11  146.09   13.70
   6  -2 -11  118.29   10.40
   6  -2 -11  124.19   10.90
  -6   2  11  134.39   10.80
  -6   2  11  138.19   10.50
   5  -2 -11  708.73   39.70
   5  -2 -11  632.94   35.20
  -5   2  11  614.74   34.30
  -5   2  11  630.74   35.20
   4  -2 -11   28.00    6.70
  -4   2  11   36.80    5.40
  -4   2  11   27.00    5.10
   3  -2 -11  849.32   46.90
  -3   2  11  776.72   43.00
  -3   2  11  850.51   44.20
   2  -2 -11   40.50    7.60
  -2   2  11   43.50    6.10
   1  -2 -11  739.73   41.70
  -1   2  11  744.03   40.00
   0  -2 -11  107.49    9.90
   0  -2 -11  112.19   10.60
   0   2  11  117.29   10.10
   0   2  11  116.29   10.00
   6  -3 -11    1.40    4.00
   6  -3 -11    7.10    4.90
  -6   3  11    1.40    3.00
   5  -3 -11  295.77   20.70
  -5   3  11  230.98   16.00
  -5   3  11  233.48   15.70
   4  -3 -11  207.28   16.60
  -4   3  11  186.38   12.50
  -4   3  11  184.08   13.60
   3  -3 -11   78.99   10.90
  -3   3  11   63.29    7.10
  -3   3  11   76.19    9.00
   2  -3 -11  164.38   14.50
  -2   3  11  144.09   11.20
   1  -3 -11    1.80    3.90
  -1   3  11    2.80    2.90
   0  -3 -11  495.05   30.30
   0   3  11  531.15   29.50
   5  -4 -11  191.58   16.40
  -5   4  11  153.78   12.60
   4  -4 -11  481.05   31.20
  -4   4  11  487.55   28.60
   3  -4 -11   10.50    5.70
  -3   4  11   12.50    3.70
  -3   4  11   22.80    5.70
   2  -4 -11  553.74   32.70
  -2   4  11  507.35   29.20
   3   6 -12  660.93   37.40
  -3  -6  12  590.54   35.60
   2   6 -12   23.20    5.90
  -2  -6  12   17.80    5.10
   1   6 -12  300.47   20.80
  -1  -6  12  295.57   20.40
   0   6 -12  149.88   13.10
   0   6 -12  144.89   13.00
   0  -6  12  153.88   12.70
   0  -6  12  141.99   11.30
   4   5 -12  143.09   12.80
  -4  -5  12  129.29   11.80
   3   5 -12  518.65   29.80
  -3  -5  12  447.46   28.40
   2   5 -12   13.20    4.80
  -2  -5  12   20.20    5.60
   1   5 -12  444.26   25.90
   1   5 -12  371.56   24.90
  -1  -5  12  420.76   25.40
   0   5 -12    6.90    3.90
   0   5 -12    6.50    3.70
   0  -5  12    1.10    3.30
   0  -5  12    6.40    3.20
  -1   5 -12  213.68   16.50
   1  -5  12  218.58   15.30
   1  -5  12  225.58   15.60
   1  -5  12  229.58   15.80
   5   4 -12   -2.20    3.30
  -5  -4  12    1.80    3.80
   4   4 -12  279.87   18.90
  -4  -4  12  244.18   17.40
   3   4 -12   15.00    4.80
  -3  -4  12    3.90    3.30
   2   4 -12  784.82   44.30
   2   4 -12  870.61   45.90
  -2  -4  12  806.22   44.80
   1   4 -12   29.70    5.60
   1   4 -12   32.50    6.50
  -1  -4  12   26.20    5.50
   0   4 -12  641.74   36.60
   0  -4  12  676.53   36.10
   0  -4  12  604.34   34.80
  -1   4 -12  179.88   15.20
   1  -4  12  213.38   14.40
   1  -4  12  211.48   14.50
   1  -4  12  201.88   14.70
   6   3 -12  322.27   22.00
   6   3 -12  330.17   20.50
  -6  -3  12  303.37   19.90
   5   3 -12  120.09   11.20
  -5  -3  12  113.09   10.00
   4   3 -12 1017.20   51.49
  -4  -3  12  871.81   49.80
   3   3 -12    4.00    4.20
   3   3 -12   11.40    4.20
  -3  -3  12   11.10    4.10
   2   3 -12  303.97   20.00
   2   3 -12  279.47   18.40
  -2  -3  12  279.47   18.90
   1   3 -12    8.90    4.30
  -1  -3  12    4.90    3.20
   0   3 -12  301.67   20.50
   0  -3  12  314.07   19.70
   0  -3  12  316.27   19.80
   0  -3  12  316.07   19.20
  -1   3 -12   53.89    8.30
   1  -3  12   55.09    7.00
   1  -3  12   52.39    6.80
   1  -3  12   49.10    7.30
   6   2 -12    1.50    3.10
   6   2 -12   -1.00    2.40
  -6  -2  12    0.40    3.20
  -6  -2  12    0.00    2.80
   5   2 -12  264.77   18.10
  -5  -2  12  263.07   17.30
   4   2 -12    1.40    2.90
   4   2 -12   -2.50    3.30
  -4  -2  12    3.50    3.20
   3   2 -12  723.13   39.90
   3   2 -12  798.22   42.70
  -3  -2  12  692.33   40.00
   2   2 -12  105.49   10.60
  -2  -2  12   90.59    9.00
   1   2 -12  837.52   46.40
  -1  -2  12  850.01   45.40
   0   2 -12   89.09   10.30
   0  -2  12   99.79    9.20
   0  -2  12  106.99   13.30
   0  -2  12   92.09    8.60
  -1   2 -12 1053.89   56.79
   1  -2  12 1037.70   55.39
   1  -2  12 1109.99   56.39
   1  -2  12 1058.19   55.19
   6   1 -12   24.10    5.70
   6   1 -12   13.70    4.10
  -6  -1  12   19.80    4.80
  -6  -1  12   13.80    3.70
   5   1 -12  252.57   17.00
   5   1 -12  247.08   18.90
  -5  -1  12  245.38   16.30
   4   1 -12   37.80    7.70
   4   1 -12   38.60    6.10
  -4  -1  12   44.70    6.50
   3   1 -12  748.43   46.70
   3   1 -12  959.30   49.00
  -3  -1  12  892.51   46.10
   2   1 -12   82.29   10.30
  -2  -1  12  105.39    9.20
   1   1 -12   84.39   10.10
  -1  -1  12   71.69    8.40
   0   1 -12    9.40    4.20
   0  -1  12    6.40    3.20
   0  -1  12    7.80    3.30
  -1   1 -12  420.36   26.70
  -1   1 -12  467.85   28.30
   1  -1  12  498.55   27.90
   1  -1  12  479.45   27.10
   1  -1  12  496.15   26.80
   6   0 -12  276.17   18.70
   6   0 -12  311.87   25.80
  -6   0  12  285.57   17.60
  -6   0  12  244.78   17.00
   5   0 -12    2.80    4.20
   5   0 -12    5.70    3.40
  -5   0  12   10.50    3.80
  -5   0  12   11.60    4.00
   4   0 -12  463.65   28.00
   4   0 -12  507.35   31.00
  -4   0  12  477.75   27.50
   3   0 -12   35.00    7.30
  -3   0  12   34.20    5.70
   2   0 -12  851.81   46.50
  -2   0  12  816.22   44.30
   1   0 -12  201.68   15.30
  -1   0  12  195.18   13.80
   0   0 -12  948.11   52.49
   0   0  12  951.50   50.99
   0   0  12 1030.60   51.99
   6  -1 -12  506.85   31.90
   6  -1 -12  480.95   28.60
  -6   1  12  486.25   27.70
  -6   1  12  477.45   27.80
   5  -1 -12    4.00    4.10
   5  -1 -12    2.40    3.40
  -5   1  12    4.00    3.10
  -5   1  12    1.10    2.60
   4  -1 -12  404.66   27.20
  -4   1  12  406.36   23.60
   3  -1 -12    2.20    3.70
  -3   1  12    2.70    3.60
   2  -1 -12  263.67   18.30
  -2   1  12  231.08   15.70
   1  -1 -12   66.69    8.80
  -1   1  12   57.89    7.60
   0  -1 -12  156.48   13.40
   0   1  12  164.58   12.50
   0   1  12  161.88   12.30
   6  -2 -12   58.99    9.90
  -6   2  12   49.99    6.60
  -6   2  12   55.29    7.50
   5  -2 -12  290.97   21.00
  -5   2  12  239.58   16.10
  -5   2  12  263.17   17.10
   4  -2 -12   33.40    7.70
  -4   2  12   28.30    4.70
   3  -2 -12  881.31   47.30
  -3   2  12  777.32   43.20
   2  -2 -12  244.98   18.00
  -2   2  12  233.98   15.50
   1  -2 -12  751.42   42.00
  -1   2  12  731.33   40.00
   5  -3 -12  282.17   20.50
  -5   3  12  214.08   15.90
   4  -3 -12   75.49   11.10
  -4   3  12   73.79    7.80
  -4   3  12   80.79   10.00
   3  -3 -12  175.08   15.60
  -3   3  12  170.78   12.20
   2   5 -13   52.79    7.80
  -2  -5  13   64.69    9.00
   1   5 -13  713.73   39.30
   1   5 -13  664.13   38.40
  -1  -5  13  688.73   39.00
   4   4 -13  106.89   10.70
  -4  -4  13   98.29   10.90
   3   4 -13   18.70    4.90
  -3  -4  13   23.30    5.60
   2   4 -13  364.06   22.90
   2   4 -13  308.67   20.90
  -2  -4  13  347.67   22.00
   1   4 -13    0.40    3.50
  -1  -4  13    4.60    3.30
   4   3 -13  855.91   46.90
  -4  -3  13  871.41   46.80
   3   3 -13    4.00    3.40
   3   3 -13    5.00    4.30
  -3  -3  13    2.80    3.60
   2   3 -13  405.06   24.90
  -2  -3  13  358.36   23.10
   1   3 -13  195.18   14.50
  -1  -3  13  161.78   13.30
   0   3 -13  989.30   54.59
   0  -3  13 1039.90   54.09
   5   2 -13   74.99    9.20
  -5  -2  13   59.99    7.80
   4   2 -13   16.10    6.00
   4   2 -13   19.50    4.90
  -4  -2  13   19.40    5.10
  -3  -2  13  362.26   22.40
   2   2 -13   17.10    5.40
  -2  -2  13   12.50    4.40
   1   2 -13  395.06   25.00
  -1  -2  13  395.56   23.90
   5   1 -13  482.95   28.30
   5   1 -13  500.85   34.50
  -5  -1  13  463.95   27.80
   4   1 -13   21.80    6.70
  -4  -1  13   26.00    5.20
   3   1 -13  771.92   43.00
  -3  -1  13  712.53   40.20
   2   1 -13   43.80    7.60
  -2  -1  13   40.00    6.30
   1   1 -13  523.15   31.30
  -1  -1  13  532.55   30.10
   5   0 -13  103.09   13.20
  -5   0  13   88.49    8.70
   4   0 -13  486.05   29.70
  -4   0  13  416.46   25.70
   3   0 -13   15.50    5.40
  -3   0  13   21.70    4.60
   2   0 -13  349.07   22.70
  -2   0  13  332.07   20.90
   4  -1 -13  526.75   32.70
  -4   1  13  501.05   28.90
   3  -1 -13  141.99   13.40
  -3   1  13  136.09   10.90

_computing_structure_solution     'SHELXT 2014/4 (Sheldrick, 2014)'
;
_shelx_hkl_checksum              40038
loop_
_space_group_symop_operation_xyz
'x, y, z'
'-x, -y, -z'
loop_
_atom_site_type_symbol
_atom_site_label
_atom_site_fract_x
_atom_site_fract_y
_atom_site_fract_z
_atom_site_U_iso_or_equiv
_atom_site_adp_type
_atom_site_calc_flag
_atom_site_refinement_flags_adp
_atom_site_refinement_flags_occupancy
_atom_site_refinement_flags_posn
_atom_site_occupancy
_atom_site_disorder_assembly
_atom_site_disorder_group
Hg Hg1 1.0 0.5 0.5 0.01763(6) Uani d . P S 1 . .
Hg Hg2 0.51991(2) 0.75789(2) 0.41421(2) 0.02079(6) Uani d . . . 1 . .
Cl Cl1 0.36150(12) 0.69271(11) 0.15833(9) 0.01998(15) Uani d . . . 1 . .
Cl Cl2 0.22963(11) 0.88414(10) 0.49894(9) 0.01827(15) Uani d . . . 1 . .
Cl Cl3 0.72657(12) 0.68930(10) 0.62255(8) 0.01791(15) Uani d . . . 1 . .
Cl Cl4 0.76239(12) 0.44583(11) 0.26685(8) 0.01921(15) Uani d . . . 1 . .
N N1 0.7388(4) 0.7458(4) -0.0368(3) 0.0197(6) Uani d . . . 1 . .
H H1N 0.6851 0.6501 -0.1125 0.024 Uiso calc U . R 1 . .
N N2 0.9119(5) 0.9179(5) 0.1785(3) 0.0276(7) Uani d . . . 1 . .
H H2N 0.9932 0.957 0.2714 0.033 Uiso calc U . R 1 . .
C C1 0.7044(5) 0.9104(5) -0.0370(4) 0.0216(7) Uani d . . . 1 . .
H H1C 0.6195 0.9413 -0.1174 0.026 Uiso calc U . R 1 . .
C C2 0.8651(5) 0.7538(5) 0.0946(4) 0.0236(7) Uani d . . . 1 . .
H H2C 0.9134 0.6583 0.1235 0.028 Uiso calc U . R 1 . .
C C3 0.8142(6) 1.0186(5) 0.0984(5) 0.0276(8) Uani d . . . 1 . .
H H3C 0.8227 1.1414 0.1324 0.033 Uiso calc U . R 1 . .
loop_
_atom_site_aniso_label
_atom_site_aniso_U_11
_atom_site_aniso_U_22
_atom_site_aniso_U_33
_atom_site_aniso_U_12
_atom_site_aniso_U_13
_atom_site_aniso_U_23
Hg1 0.01878(9) 0.01815(10) 0.01384(9) 0.00495(6) 0.00367(6) 0.00355(7)
Hg2 0.02090(8) 0.02166(9) 0.01608(8) 0.00333(5) 0.00316(5) 0.00562(5)
Cl1 0.0255(4) 0.0166(4) 0.0152(3) 0.0064(3) 0.0039(3) 0.0033(3)
Cl2 0.0195(3) 0.0131(3) 0.0210(4) 0.0020(3) 0.0078(3) 0.0041(3)
Cl3 0.0201(3) 0.0172(4) 0.0138(3) 0.0039(3) 0.0043(3) 0.0029(3)
Cl4 0.0205(3) 0.0178(4) 0.0151(3) 0.0037(3) 0.0022(3) 0.0041(3)
N1 0.0218(13) 0.0142(13) 0.0176(13) 0.0014(10) 0.0052(10) -0.0009(10)
N2 0.0197(13) 0.0368(18) 0.0151(14) -0.0009(12) 0.0004(11) 0.0013(12)
C1 0.0205(15) 0.0192(16) 0.0263(17) 0.0077(12) 0.0080(13) 0.0074(13)
C2 0.0214(15) 0.0243(17) 0.0298(19) 0.0069(13) 0.0103(13) 0.0155(15)
C3 0.0243(17) 0.0173(17) 0.036(2) 0.0023(13) 0.0111(15) -0.0008(15)
loop_
_atom_type_symbol
_atom_type_description
_atom_type_scat_dispersion_real
_atom_type_scat_dispersion_imag
_atom_type_scat_source
C C 0.0033 0.0016 'International Tables Vol C Tables 4.2.6.8 and 6.1.1.4'
H H 0.0000 0.0000 'International Tables Vol C Tables 4.2.6.8 and 6.1.1.4'
N N 0.0061 0.0033 'International Tables Vol C Tables 4.2.6.8 and 6.1.1.4'
Cl Cl 0.1484 0.1585 'International Tables Vol C Tables 4.2.6.8 and 6.1.1.4'
Hg Hg -2.3894 9.2266 'International Tables Vol C Tables 4.2.6.8 and 6.1.1.4'
loop_
_geom_angle_atom_site_label_1
_geom_angle_atom_site_label_2
_geom_angle_atom_site_label_3
_geom_angle_site_symmetry_1
_geom_angle_site_symmetry_3
_geom_angle
Cl4 Hg1 Cl4 2_766 . 180.0
Cl1 Hg2 Cl3 . . 149.86(3)
Cl1 Hg2 Cl2 . . 100.38(3)
Cl3 Hg2 Cl2 . . 104.65(3)
Cl1 Hg2 Cl2 . 2_676 104.34(3)
Cl3 Hg2 Cl2 . 2_676 93.64(3)
Cl2 Hg2 Cl2 . 2_676 86.83(2)
Hg2 Cl2 Hg2 . 2_676 93.17(2)
C2 N1 C1 . . 109.4(3)
C2 N1 H1N . . 125.3
C1 N1 H1N . . 125.3
C2 N2 C3 . . 109.4(3)
C2 N2 H2N . . 125.3
C3 N2 H2N . . 125.3
C3 C1 N1 . . 106.5(3)
C3 C1 H1C . . 126.7
N1 C1 H1C . . 126.7
N2 C2 N1 . . 107.7(3)
N2 C2 H2C . . 126.1
N1 C2 H2C . . 126.1
C1 C3 N2 . . 106.9(3)
C1 C3 H3C . . 126.6
N2 C3 H3C . . 126.5
loop_
_geom_bond_atom_site_label_1
_geom_bond_atom_site_label_2
_geom_bond_site_symmetry_2
_geom_bond_distance
Hg1 Cl4 2_766 2.3059(8)
Hg1 Cl4 . 2.3059(8)
Hg2 Cl1 . 2.3576(8)
Hg2 Cl3 . 2.3759(8)
Hg2 Cl2 . 2.7029(8)
Hg2 Cl2 2_676 2.7953(8)
Cl2 Hg2 2_676 2.7953(8)
N1 C2 . 1.321(4)
N1 C1 . 1.375(4)
N1 H1N . 0.88
N2 C2 . 1.317(5)
N2 C3 . 1.372(5)
N2 H2N . 0.88
C1 C3 . 1.340(5)
C1 H1C . 0.95
C2 H2C . 0.95
C3 H3C . 0.95
