#------------------------------------------------------------------------------
#$Date: 2021-03-17 11:35:53 +0200 (Wed, 17 Mar 2021) $
#$Revision: 263083 $
#$URL: file:///home/coder/svn-repositories/cod/cif/1/56/10/1561068.cif $
#------------------------------------------------------------------------------
#
# This file is available in the Crystallography Open Database (COD),
# http://www.crystallography.net/
#
# All data on this site have been placed in the public domain by the
# contributors.
#
data_1561068
loop_
_publ_author_name
'Dolyniuk, Juli-Anna'
'Lee, Shannon'
'Tran, Nhon'
'Wang, Jian'
'Wang, Lin-Lin'
'Kovnir, Kirill'
_publ_section_title
;
 Eu2P7X and Ba2As7X (X&#x202F;=&#x202F;Br, I): Chiral double-Zintl salts
 containing heptapnictotricyclane clusters
;
_journal_name_full               'Journal of Solid State Chemistry'
_journal_page_first              195
_journal_page_last               202
_journal_paper_doi               10.1016/j.jssc.2018.04.026
_journal_volume                  263
_journal_year                    2018
_chemical_formula_sum            'Br Eu2 P7'
_chemical_formula_weight         600.62
_space_group_crystal_system      cubic
_space_group_IT_number           198
_space_group_name_Hall           'P 2ac 2ab 3'
_space_group_name_H-M_alt        'P 21 3'
_atom_sites_solution_hydrogens   .
_cell_angle_alpha                90
_cell_angle_beta                 90
_cell_angle_gamma                90
_cell_formula_units_Z            4
_cell_length_a                   9.7013(7)
_cell_length_b                   9.7013(7)
_cell_length_c                   9.7013(7)
_cell_measurement_reflns_used    14793
_cell_measurement_temperature    90(2)
_cell_measurement_theta_max      30.678
_cell_measurement_theta_min      2.969
_cell_volume                     913.04(11)
_computing_structure_refinement  'SHELXL-2016/6 (Sheldrick, 2016)'
_diffrn_ambient_temperature      90(2)
_diffrn_measured_fraction_theta_full 1.000
_diffrn_measured_fraction_theta_max 1.000
_diffrn_measurement_device_type  'Bruker APEX II CCD area-detector'
_diffrn_measurement_method       'profile data from \w scans'
_diffrn_radiation_type           MoK\a
_diffrn_radiation_wavelength     0.71073
_diffrn_reflns_av_R_equivalents  0.0450
_diffrn_reflns_av_unetI/netI     0.0200
_diffrn_reflns_Laue_measured_fraction_full 1.000
_diffrn_reflns_Laue_measured_fraction_max 1.000
_diffrn_reflns_limit_h_max       13
_diffrn_reflns_limit_h_min       -13
_diffrn_reflns_limit_k_max       13
_diffrn_reflns_limit_k_min       -13
_diffrn_reflns_limit_l_max       13
_diffrn_reflns_limit_l_min       -13
_diffrn_reflns_number            14793
_diffrn_reflns_point_group_measured_fraction_full 1.000
_diffrn_reflns_point_group_measured_fraction_max 0.998
_diffrn_reflns_theta_full        25.242
_diffrn_reflns_theta_max         30.678
_diffrn_reflns_theta_min         2.969
_diffrn_source                   'fine-focus sealed tube'
_exptl_absorpt_coefficient_mu    19.132
_exptl_absorpt_correction_T_max  0.62
_exptl_absorpt_correction_T_min  0.45
_exptl_absorpt_correction_type   multi-scan
_exptl_absorpt_process_details   'SADABS v2.03 (Bruker, 2003)'
_exptl_crystal_colour            black
_exptl_crystal_density_diffrn    4.369
_exptl_crystal_description       block
_exptl_crystal_F_000             1064
_exptl_crystal_size_max          0.050
_exptl_crystal_size_mid          0.040
_exptl_crystal_size_min          0.030
_refine_diff_density_max         0.464
_refine_diff_density_min         -0.473
_refine_diff_density_rms         0.114
_refine_ls_abs_structure_details
;
 Flack x determined using 392 quotients [(I+)-(I-)]/[(I+)+(I-)]
 (Parsons, Flack and Wagner, Acta Cryst. B69 (2013) 249-259).
;
_refine_ls_abs_structure_Flack   0.017(7)
_refine_ls_extinction_coef       0.00042(8)
_refine_ls_extinction_expression Fc^*^=kFc[1+0.001xFc^2^\l^3^/sin(2\q)]^-1/4^
_refine_ls_extinction_method     'SHELXL-2016/6 (Sheldrick 2016)'
_refine_ls_goodness_of_fit_ref   1.170
_refine_ls_hydrogen_treatment    undef
_refine_ls_matrix_type           full
_refine_ls_number_parameters     32
_refine_ls_number_reflns         955
_refine_ls_number_restraints     0
_refine_ls_restrained_S_all      1.170
_refine_ls_R_factor_all          0.0136
_refine_ls_R_factor_gt           0.0128
_refine_ls_shift/su_max          0.002
_refine_ls_shift/su_mean         0.000
_refine_ls_structure_factor_coef Fsqd
_refine_ls_weighting_details
'w=1/[\s^2^(Fo^2^)+(0.0014P)^2^+0.0860P] where P=(Fo^2^+2Fc^2^)/3'
_refine_ls_weighting_scheme      calc
_refine_ls_wR_factor_gt          0.0220
_refine_ls_wR_factor_ref         0.0222
_reflns_Friedel_coverage         0.733
_reflns_Friedel_fraction_full    1.000
_reflns_Friedel_fraction_max     0.995
_reflns_number_gt                933
_reflns_number_total             955
_reflns_threshold_expression     'I > 2\s(I)'
_cod_data_source_file            JSSC-2018-263-195.cif
_cod_data_source_block           5
_cod_original_cell_volume        913.0(2)
_cod_database_code               1561068
_shelx_space_group_comment
;
The symmetry employed for this shelxl refinement is uniquely defined
by the following loop, which should always be used as a source of
symmetry information in preference to the above space-group names.
They are only intended as comments.
;
_shelx_estimated_absorpt_t_min   0.448
_shelx_estimated_absorpt_t_max   0.598
_shelx_res_file
;

TITL xx in P2(1)3
    shelx.res
    created by SHELXL-2016/6 at 12:27:00 on 23-Jan-2018
CELL 0.71073   9.70130   9.70130   9.70130  90.0000  90.0000  90.0000
ZERR    4.00   0.00070   0.00070   0.00070   0.0000   0.0000   0.0000
LATT -1
SYMM 0.5-X, -Y, 0.5+Z
SYMM -X, 0.5+Y, 0.5-Z
SYMM 0.5+X, 0.5-Y, -Z
SYMM Z, X, Y
SYMM 0.5+Z, 0.5-X, -Y
SYMM 0.5-Z, -X, 0.5+Y
SYMM -Z, 0.5+X, 0.5-Y
SYMM Y, Z, X
SYMM -Y, 0.5+Z, 0.5-X
SYMM 0.5+Y, 0.5-Z, -X
SYMM 0.5-Y, -Z, 0.5+X
SFAC P BR EU
UNIT 28 4 8
TEMP -183.000
SIZE 0.03 0.04 0.05

L.S. 14
BOND
acta
FMAP 2
PLAN -25
WGHT    0.001400    0.086000
EXTI    0.000419
FVAR       0.09091
EU1   3    0.837817    0.337817    0.162183    10.33333    0.00518    0.00518 =
         0.00518    0.00011    0.00011   -0.00011
EU2   3    1.102590    0.602590   -0.102590    10.33333    0.00853    0.00853 =
         0.00853    0.00196    0.00196   -0.00196
BR1   2    0.653935    0.153935    0.346065    10.33333    0.00981    0.00981 =
         0.00981    0.00240    0.00240   -0.00240
P1    1    0.517095    0.362649    0.052507    11.00000    0.00603    0.00543 =
         0.00538   -0.00025    0.00067   -0.00009
P2    1    1.131524    0.309659    0.030011    11.00000    0.00600    0.00438 =
         0.00713    0.00042    0.00028   -0.00018
P3    1    1.284949    0.784949   -0.284949    10.33333    0.00613    0.00613 =
         0.00613    0.00047    0.00047   -0.00047
HKLF 4




REM  xx in P2(1)3
REM R1 =  0.0128 for     933 Fo > 4sig(Fo)  and  0.0136 for all     955 data
REM     32 parameters refined using      0 restraints

END

WGHT      0.0014      0.0860

REM Highest difference peak  0.464,  deepest hole -0.473,  1-sigma level  0.114
Q1    1   0.4983  0.4219  0.2321  11.00000  0.05    0.46
Q2    1   1.1839  0.6956 -0.0919  11.00000  0.05    0.45
Q3    1   0.8266  0.4416  0.2441  11.00000  0.05    0.43
Q4    1   0.7806  0.2807  0.2193  10.33333  0.05    0.42
Q5    1   0.8694  0.6578  0.2308  11.00000  0.05    0.41
Q6    1   1.1340  0.7036 -0.0166  11.00000  0.05    0.39
Q7    1   1.0569  0.5606 -0.1872  11.00000  0.05    0.38
Q8    1   0.7662  0.4319  0.3142  11.00000  0.05    0.38
Q9    1   0.8236  0.2456  0.1684  11.00000  0.05    0.38
Q10   1   1.1227  0.6766 -0.0016  11.00000  0.05    0.37
Q11   1   0.6422  0.2763  0.3127  11.00000  0.05    0.36
Q12   1   0.9560  0.1032  0.1655  11.00000  0.05    0.35
Q13   1   0.8494  0.3519  0.0213  11.00000  0.05    0.35
Q14   1   0.7482  0.4151  0.2240  11.00000  0.05    0.35
Q15   1   0.7915  0.2612  0.3930  11.00000  0.05    0.34
Q16   1   0.6789  0.0627  0.1784  11.00000  0.05    0.34
Q17   1   0.6834  0.6201  0.1766  11.00000  0.05    0.34
Q18   1   1.1238  0.1238  0.1238  10.33333  0.05    0.34
Q19   1   0.7816  0.5656  0.3298  11.00000  0.05    0.33
Q20   1   1.0940  0.4850 -0.0539  11.00000  0.05    0.33
Q21   1   1.0363  0.5765  0.2442  11.00000  0.05    0.33
Q22   1   0.9592  0.1157  0.0079  11.00000  0.05    0.33
Q23   1   1.0263  0.3612 -0.0590  11.00000  0.05    0.33
Q24   1   0.5992  0.4994  0.2778  11.00000  0.05    0.33
Q25   1   0.6129  0.3697  0.1705  11.00000  0.05    0.33
;
_shelx_res_checksum              13249
_shelx_hkl_file
;
  -1   0   0    2.24    0.55
  -1   0   0    0.06    0.18
   0  -1   0    0.12    0.17
   0  -1   0    0.81    0.31
   0   0  -1    0.48    0.29
   0   0  -1    0.43    0.25
   0   0  -1    0.24    0.32
   0   0  -1    0.17    0.21
   0   1   0    0.05    0.23
   0   1   0    0.30    0.29
   1   0   0    0.36    0.21
   1   0   0    0.77    0.28
  -1  -1   0    1.13    0.58
  -1   0  -1    1.89    0.47
  -1   0  -1    1.85    0.46
  -1   0   1    2.62    0.79
  -1   1   0    2.80    0.61
  -1   1   0    2.70    0.49
   0  -1  -1    4.05    0.77
   0  -1  -1    2.09    0.70
   0  -1   1    2.08    0.38
   0   1  -1    2.01    0.60
   0   1  -1    1.61    0.40
   0   1  -1    1.67    0.45
   0   1   1    1.74    0.51
   1  -1   0    1.94    0.47
   1  -1   0    2.30    0.42
   1   0  -1    2.39    0.54
   1   0  -1    2.56    0.55
   1   0  -1    2.02    0.28
   1   0   1    1.89    0.36
   1   0   1    2.43    0.54
   1   1   0    3.72    0.81
   1   1   0    3.61    0.63
   1   1   0    2.29    0.34
  -1  -1  -1  132.05    4.07
  -1  -1  -1  132.52    4.35
  -1  -1  -1  132.14    4.91
   1   1  -1  127.61    4.36
   1   1  -1  130.91    3.93
   1  -1   1  129.84    4.26
  -1   1   1  132.16    4.39
   1   1  -1  126.75    4.96
   1  -1  -1  124.22    4.10
  -1   1  -1  125.31    4.25
   1  -1  -1  129.23    4.47
  -1  -1   1  126.68    4.19
  -1   1  -1  133.01    4.58
   1   1   1  127.54    4.45
  -2   0   0   16.92    1.52
  -2   0   0   18.05    1.05
   0  -2   0   16.46    0.99
   0  -2   0   14.93    1.28
   0   0  -2   16.15    1.26
   0   0  -2   13.29    1.08
   0   0  -2   21.24    1.59
   0   0  -2   16.50    1.18
   0   2   0   14.52    1.23
   0   2   0   15.36    1.25
   2   0   0   16.61    1.10
   2   0   0   16.89    1.18
   0   2  -1  178.61    6.25
   0   2  -1  175.51    5.63
   0   2   1  174.32    5.38
   1   0  -2  174.51    6.38
   1   0  -2  179.50    6.24
   1   0  -2  176.17    5.37
   1   0   2  179.99    5.51
   2  -1   0  178.43    5.51
   2  -1   0  177.70    5.86
   2   1   0  171.92    5.81
   2   1   0  175.98    5.48
   0  -2  -1  167.89    6.20
   0  -2   1  180.26    5.17
   0  -2   1  178.58    5.90
  -1   0  -2  178.42    5.96
   0  -2  -1  169.76    5.95
  -1   0  -2  173.40    5.92
  -2   1   0  178.67    5.30
  -1   0  -2  180.10    5.65
  -2  -1   0  169.03    6.19
  -2   1   0  170.25    6.17
  -2  -1   0  168.94    6.47
   2   0   1   36.75    1.99
   2   0  -1   36.86    1.91
   2   0   1   37.79    1.62
   1   2   0   36.75    2.07
   2   0  -1   37.47    2.00
   1   2   0   43.54    2.37
   0   1   2   37.18    2.12
   1  -2   0   38.75    1.88
   0   1  -2   35.15    1.82
   0   1  -2   38.24    1.92
   0   1   2   37.44    1.58
  -2   0  -1   39.86    2.16
  -2   0  -1   32.02    1.85
  -2   0   1   39.24    2.53
  -1  -2   0   39.08    1.51
  -1  -2   0   38.76    2.20
  -1   2   0   36.80    2.06
  -1   2   0   39.81    2.02
   0  -1  -2   38.04    2.45
   0  -1  -2   39.03    2.14
   0   1  -2   37.87    2.27
   0   1  -2   37.90    1.73
  -2  -1  -1  395.24   12.18
  -2  -1  -1  430.40   12.70
   1   1  -2  398.42   12.83
   1   1  -2  407.96   11.98
   1   1  -2  391.26   12.01
   1   1  -2  411.26   11.73
  -2   1   1  387.89   12.45
  -1  -2  -1  412.94   11.99
  -1  -2  -1  417.28   13.02
   1  -2   1  409.19   11.71
  -1  -1  -2  407.39   11.18
  -1  -1  -2  394.49   12.30
  -1  -1  -2  403.94   12.52
   1   2  -1  385.39   12.74
   2  -1   1  404.95   11.08
   2  -1   1  404.19   12.05
  -1   1   2  412.83   12.03
  -1   2   1  401.53   11.87
   2   1  -1  401.82   11.51
   1   2  -1  428.32   12.16
  -1   2  -1  399.34   12.40
   1  -2  -1  398.55   12.11
  -1   2  -1  396.95   11.46
  -1  -2   1  387.60   12.06
   1  -1  -2  406.68   12.23
   1  -1  -2  395.05   12.53
   1  -1  -2  406.13   11.65
  -2  -1   1  380.76   13.10
  -2  -1   1  403.81   11.76
  -2   1  -1  413.91   12.42
  -2   1  -1  402.73   11.81
   1   1   2  408.84   12.15
  -1   1  -2  403.36   12.24
  -1   2  -1  413.08   11.99
   1   2   1  377.35   11.76
   1   2   1  402.68   12.37
   2  -1  -1  398.11   11.98
   2  -1  -1  400.70   12.13
   2  -1  -1  394.24   10.99
  -1   1  -2  410.12   11.13
  -1   1  -2  395.36   12.05
   1  -2  -1  398.35   11.90
   2   1   1  417.33   12.00
   2   1   1  415.75   11.95
  -2  -2   0   97.66    4.35
  -2   0  -2   91.24    3.76
  -2   0  -2   92.99    3.91
  -2   0   2   95.52    4.55
  -2   2   0   92.19    4.09
  -2   2   0   94.84    3.58
   0  -2  -2   87.92    4.19
   0  -2  -2   84.60    4.21
   0  -2   2   93.27    3.27
   0   2  -2   96.42    4.28
   0   2  -2   89.53    3.40
   0   2  -2   97.94    3.83
   0   2   2   93.10    2.87
   0   2   2   88.64    4.11
   2  -2   0   91.16    3.76
   2  -2   0   91.14    3.41
   2   0  -2   93.97    3.90
   2   0  -2   90.89    3.80
   2   0  -2   95.13    2.95
   2   0   2   93.11    3.27
   2   0   2   94.49    3.90
   2   2   0   83.70    4.35
   2   2   0   89.85    3.87
   2   2   0   90.93    3.16
  -2  -2  -1   46.21    2.68
  -2  -2  -1   44.44    3.16
   2  -1   2   44.97    2.49
  -2  -1  -2   52.22    2.28
  -2  -1  -2   45.98    2.86
   2   1  -2   45.58    2.32
   2  -2   1   48.07    2.46
   1   2  -2   48.29    2.45
  -2   1   2   47.34    2.86
   2   2  -1   45.69    2.59
   2   2  -1   45.03    1.72
   2   1  -2   45.33    3.36
  -2   2   1   48.75    2.67
  -2   2   1   44.72    2.52
  -1  -2  -2   38.08    1.80
  -1  -2  -2   46.71    2.75
  -1  -2  -2   42.94    3.01
   1   2  -2   42.99    3.08
   2   1  -2   44.38    2.55
   1   2  -2   47.00    1.89
  -1   2   2   45.88    2.19
  -1   2   2   42.92    2.67
   2   2  -1   42.32    3.17
   1  -2   2   45.78    2.26
   1  -2  -2   52.33    2.77
  -1  -2   2   47.29    2.46
  -2   1  -2   53.65    2.64
  -1   2  -2   52.05    2.60
   1   2   2   48.37    2.81
   2  -2  -1   47.32    2.63
   2  -2  -1   48.98    2.10
  -2   1  -2   45.41    2.65
   2  -1  -2   49.61    2.67
   2  -1  -2   53.48    2.78
   2  -1  -2   48.71    1.72
  -2  -2   1   47.74    2.54
  -2   2  -1   49.30    2.37
  -1   2  -2   50.40    1.85
  -2  -1   2   50.90    2.17
   2   1   2   46.91    2.42
   2   1   2   49.34    2.68
   1  -2  -2   49.02    2.89
  -2   2  -1   49.04    2.83
  -2   2  -1   49.00    1.97
   2   2   1   48.32    2.70
   2   2   1   48.53    2.35
  -2  -2  -2  270.45    8.31
  -2  -2  -2  259.18    8.89
  -2  -2  -2  248.27    9.77
   2   2  -2  268.39   10.34
   2   2  -2  280.23    9.09
   2   2  -2  261.22    8.25
  -2   2   2  271.33    9.04
   2  -2   2  266.34    8.82
   2  -2  -2  269.66    9.20
   2  -2  -2  269.56    8.48
   2  -2  -2  280.83    9.22
  -2  -2   2  280.49    8.79
  -2   2  -2  275.63    9.44
  -2   2  -2  269.56    8.92
   2   2   2  282.60    9.25
  -3   0   0    0.52    0.76
  -3   0   0   -0.05    0.36
   0  -3   0    0.69    0.43
   0  -3   0   -0.25    0.54
   0   0  -3    0.88    0.69
   0   0  -3    0.01    0.44
   0   0  -3   -0.59    0.56
   0   0  -3   -0.60    0.39
   0   3   0    1.78    0.74
   0   3   0    0.65    0.65
   3   0   0    0.16    0.44
   3   0   0   -0.76    0.45
   0  -3   1  302.85    9.93
   0   3  -1  306.80   10.25
   0   3  -1  301.00    9.62
   0   3   1  312.58    9.42
   0   3   1  320.02   10.33
   1   0  -3  288.12   10.17
   1   0  -3  295.56    9.70
   1   0  -3  302.16   10.44
   1   0  -3  315.85    9.34
   1   0   3  304.83    9.39
   3  -1   0  309.87    9.33
   3  -1   0  294.12    9.72
   3   1   0  299.12    9.67
   3   1   0  309.58    9.43
   0  -3  -1  299.53    9.71
  -3  -1   0  292.53   10.62
  -3  -1   0  303.92   10.11
  -3   1   0  307.09   10.43
  -3   1   0  310.12    8.95
  -1   0  -3  311.87    9.51
  -1   0  -3  304.00   10.00
  -1   0  -3  292.45    9.82
   0  -3   1  315.41    8.83
   0  -3  -1  299.84   10.22
   0   3  -2  976.61   26.64
   3   2   0  988.42   26.36
   2   0  -3  907.65   27.49
   2   0  -3  983.70   26.08
  -3  -2   0  878.22   28.13
  -3  -2   0  903.91   27.91
  -3   2   0  916.51   27.66
  -3   2   0  968.56   26.24
  -2   0  -3  993.68   26.85
  -2   0  -3  987.38   27.42
  -2   0   3  913.12   28.10
   0  -3  -2  911.76   27.55
   0  -3  -2  880.80   27.81
   0  -3   2 1000.00   26.00
   0  -3   2  930.53   27.19
   0   3  -2  876.51   27.67
   2   0   3  954.48   27.38
   3  -2   0  956.88   26.52
   3  -2   0  914.92   27.07
   3   2   0  924.80   27.21
   2   0  -3  963.50   27.22
   2   0   3  970.84   26.41
   0   3   2  987.91   27.87
   0   3   2  976.43   26.03
  -1   3   0    1.92    0.84
  -1   3   0    1.85    0.88
  -1  -3   0    1.01    0.49
   0   1  -3    2.29    0.66
   0   1  -3    1.66    0.68
  -1  -3   0    2.86    0.97
  -3   0  -1    1.77    1.01
  -3   0  -1    1.83    0.65
  -3   0   1    1.09    0.93
  -3   0   1    1.44    0.46
   0   1  -3    1.75    0.68
   0   1   3    1.20    0.64
   1  -3   0    2.79    0.75
   1  -3   0    1.44    0.73
   1   3   0    1.60    0.90
   1   3   0    0.95    0.68
   3   0  -1    1.23    0.66
   3   0  -1    1.05    0.62
   3   0   1    3.35    0.70
   3   0   1    1.07    0.63
   0  -1  -3    1.09    0.95
   0  -1  -3    0.84    0.70
   0   1  -3    0.86    0.75
   0  -1  -3    1.84    0.68
   1   3  -1   92.32    4.58
  -3  -1  -1   93.97    4.36
   1   1  -3   93.33    4.69
   1  -3   1   92.54    4.00
   3  -1   1   94.89    3.28
  -3   1   1   90.06    4.54
  -3  -1  -1   85.51    4.28
   1   1  -3   90.81    3.90
   1   1  -3   90.96    4.17
   1   1  -3   85.27    3.65
  -1  -1  -3   94.17    4.48
  -1  -1  -3   88.47    4.19
  -1  -3  -1   89.40    4.60
   3  -1   1   93.90    4.07
   3   1  -1   88.58    3.99
  -1   1   3  100.11    4.06
  -1  -3  -1   87.72    3.81
   1  -3   1   93.27    3.55
  -1   3   1   95.01    3.90
  -1   3   1   87.30    4.22
   1  -1   3   95.46    4.07
  -1  -1  -3   92.22    3.26
   1   3  -1   94.45    4.09
   3   1  -1   95.14    3.67
  -1   3  -1   93.11    3.73
   1  -1  -3   99.10    3.76
   1  -3  -1   89.09    3.92
  -3  -1   1   94.65    5.09
   3   1   1  101.39    3.97
   1  -1  -3   98.48    4.25
  -1   3  -1   99.63    4.46
  -1   1  -3   99.98    4.28
   1  -1  -3   96.88    4.77
  -3   1  -1   95.74    4.48
   1   3   1  100.18    3.99
   1   3   1   93.83    4.36
   3  -1  -1   99.82    4.15
  -3   1  -1  102.06    3.80
  -1   1  -3   97.13    3.37
  -1   1  -3   93.47    4.06
   1   1   3   98.66    4.14
   3   1   1   90.50    3.82
  -1  -3   1   95.35    4.19
  -2  -1  -3  284.46    9.63
   2  -1   3  276.46    7.77
   2  -1   3  287.27    9.21
   2   1  -3  279.49    9.36
   2   1  -3  279.81    8.37
  -1  -3  -2  288.97   10.29
   1  -3   2  284.27    8.47
  -2   1   3  280.71    9.47
  -1  -3  -2  270.82    9.26
   3  -2   1  291.54    9.14
   3   2  -1  288.93    9.29
   3   2  -1  284.69    8.14
   1  -3   2  275.17    9.18
  -1   3   2  281.69    8.48
  -1   3   2  289.67    9.69
  -3   2   1  274.38    9.56
  -2  -1  -3  297.64    8.36
  -2  -1  -3  276.69    9.29
   2   1  -3  283.19    9.11
   1   3  -2  278.61   10.09
   1   3  -2  285.36    9.03
  -3  -2  -1  269.33   10.10
   2   1  -3  274.00   10.37
  -3  -2  -1  266.26    9.43
   3  -2  -1  260.67    9.14
  -3  -2   1  249.51   10.35
   3   2   1  257.58    9.03
  -3   2  -1  249.85    9.47
   3  -2  -1  257.88    7.88
   1   3   2  249.06    8.05
   1   3   2  263.37    9.56
   2  -1  -3  253.98    9.16
   2  -1  -3  261.95    9.57
   2  -1  -3  262.32    7.99
  -2   1  -3  253.10    9.10
  -2   1  -3  244.67    8.97
   3  -2  -1  256.81    8.81
  -3  -2   1  238.78    9.03
   2   1   3  248.49    8.78
  -1  -3   2  258.09    7.48
   1  -3  -2  249.91    9.27
   1  -3  -2  249.23    9.21
   3   2   1  250.62    8.58
  -1  -3   2  253.26    9.01
  -1   3  -2  240.67    9.45
  -1   3  -2  259.96    8.17
  -3   2  -1  237.68    8.46
   0   2   3  510.41   16.20
   0   2  -3  514.80   15.69
   0   2   3  527.42   14.32
  -3   0  -2  517.29   15.83
  -3   0   2  511.55   16.99
  -2   3   0  517.79   15.62
   0   2  -3  530.64   15.17
   0  -2  -3  508.75   16.15
   0  -2   3  530.72   15.28
   0   2  -3  530.72   16.59
   3   0  -2  514.63   15.69
   3   0   2  534.38   14.89
   3   0   2  540.82   15.99
  -3   0  -2  531.20   15.97
   0  -2  -3  527.45   16.80
   2  -3   0  518.21   15.63
   2  -3   0  537.09   15.50
   2   3   0  518.33   16.67
   2   3   0  530.29   16.14
   2   3   0  529.53   14.61
   3   0  -2  526.27   15.95
  -3   0   2  516.30   14.40
  -2  -3   0  461.18   16.26
  -2   3   0  506.06   16.05
   3  -1   2  856.48   24.75
   3   1  -2  833.23   24.82
   3   1  -2  840.11   24.16
   1   2  -3  815.65   25.78
  -3  -1  -2  846.04   24.52
   2   3  -1  854.23   24.92
   2  -3   1  851.41   24.32
   2  -3   1  831.80   24.43
  -2   3   1  853.15   24.79
  -2   3   1  869.15   24.89
   3  -1   2  861.17   23.08
   1   2  -3  866.53   24.45
   1   2  -3  861.58   24.06
   1   2  -3  826.79   24.35
  -2  -3  -1  817.13   25.85
  -1   2   3  866.52   23.94
  -3   1   2  880.00   25.71
  -1  -2  -3  832.15   25.31
  -1   2   3  884.85   25.19
  -1  -2  -3  837.93   25.48
   1  -2   3  833.23   24.26
  -2  -3  -1  841.77   23.97
  -3  -1  -2  825.82   25.17
  -1   2  -3  856.00   25.25
   2   3   1  896.90   25.27
   1  -2  -3  799.31   25.46
   1  -2  -3  873.80   24.60
   2  -3  -1  857.32   24.76
   2   3   1  774.98   24.80
   3   1   2  864.63   24.72
   1   2   3  864.50   25.12
  -3  -1   2  831.25   26.32
  -3  -1   2  872.41   23.85
  -3   1  -2  856.66   24.57
   2  -3  -1  846.91   24.17
  -1   2  -3  880.17   23.46
  -1   2  -3  902.28   24.89
  -2  -3   1  848.48   24.95
  -2   3  -1  809.60   25.13
  -2   3  -1  856.29   23.94
   3  -1  -2  880.16   24.85
   3  -1  -2  841.20   24.83
   3   1   2  895.65   24.37
  -3  -2  -2  111.59    4.73
  -3  -2  -2  110.57    5.72
   2   3  -2  106.04    3.38
   2  -2   3  109.32    4.80
   2   2  -3  110.15    5.98
  -3   2   2  104.93    5.13
  -2  -3  -2  108.05    4.40
  -2  -3  -2  102.46    4.70
  -2  -3  -2  105.24    5.85
   3   2  -2  114.51    5.08
  -2  -2  -3  110.63    3.81
  -2  -2  -3  108.62    5.08
  -2  -2  -3  110.09    5.61
   2  -3   2  110.27    4.64
   2   3  -2  112.62    6.00
   3  -2   2  109.49    4.91
  -2   2   3  107.98    4.78
   2   2  -3  103.92    4.63
   3   2  -2  108.59    4.18
   2   2  -3  112.36    4.93
  -2   3   2  109.17    4.75
  -2   3   2  102.95    5.09
   3   2  -2  105.15    6.14
   2   3  -2  109.66    4.95
  -2  -2   3  116.24    4.63
   2  -2  -3  117.90    5.21
   2  -2  -3  130.92    5.67
   2  -2  -3  127.07    4.47
  -3   2  -2  127.36    5.57
  -3   2  -2  121.62    4.85
  -2   3  -2  119.45    4.91
  -2   3  -2  118.92    5.53
   2   2   3  130.32    5.35
  -2   2  -3  127.41    5.49
   2  -3  -2  122.69    4.83
  -3  -2   2  124.62    4.77
   2   3   2  123.81    5.46
   3  -2  -2  125.58    5.18
   3  -2  -2  134.42    5.42
   3  -2  -2  123.71    3.99
  -2   2  -3  126.12    5.09
   2  -3  -2  120.73    5.21
  -2  -3   2  120.23    5.03
  -2   3  -2  122.82    3.88
   3   2   2  124.32    5.14
   3   2   2  120.69    4.96
  -3  -3   0   23.91    2.61
  -3  -3   0   23.37    2.38
  -3   0  -3   24.07    1.99
  -3   0  -3   27.66    2.28
  -3   0   3   27.13    2.77
  -3   0   3   25.39    1.27
  -3   3   0   22.86    2.27
  -3   3   0   25.76    1.89
   0  -3  -3   23.81    2.41
   0  -3  -3   24.10    2.43
   0  -3   3   24.69    1.56
   0  -3   3   22.46    2.01
   0   3  -3   25.71    2.51
   0   3  -3   21.67    1.63
   0   3  -3   24.52    1.98
   0   3   3   22.77    1.10
   0   3   3   19.77    2.13
   3  -3   0   23.18    1.96
   3  -3   0   24.38    1.70
   3   0  -3   25.26    2.13
   3   0  -3   23.35    2.10
   3   0   3   26.07    1.58
   3   0   3   23.84    2.12
   3   3   0   29.17    2.34
   3   3   0   24.80    1.49
  -3  -3  -1  178.36    7.26
  -3  -3  -1  179.76    7.98
   1   3  -3  179.42    7.91
  -3  -1  -3  178.14    6.40
  -3  -1  -3  174.32    7.25
   3   1  -3  181.65    6.97
   3   1  -3  180.80    6.76
   3  -3   1  181.48    6.74
  -1   3   3  181.66    5.93
  -3   1   3  193.73    7.74
   3   3  -1  171.54    6.98
   3   3  -1  181.25    5.46
   3  -1   3  192.02    7.10
  -3   3   1  172.59    7.11
  -3   3   1  177.16    6.77
  -1  -3  -3  176.94    7.31
  -1  -3  -3  169.72    7.64
   3   3  -1  172.86    8.25
   1  -3   3  177.66    6.23
  -1   3   3  166.92    7.26
   1   3  -3  178.21    6.56
   3  -1   3  183.01    5.18
  -1   3  -3  172.29    6.76
  -1   3  -3  165.22    7.35
   1  -3  -3  176.30    7.47
   1  -3  -3  175.10    7.10
  -1  -3   3  166.91    6.72
  -3  -3   1  168.69    7.04
  -1   3  -3  175.51    5.76
   1   3   3  173.42    7.31
   3  -3  -1  179.27    6.99
   3  -3  -1  180.05    6.03
  -3   1  -3  171.25    6.95
   3  -1  -3  176.44    6.98
   3  -1  -3  175.26    7.11
   3  -1  -3  176.26    5.16
  -3   1  -3  168.37    6.80
  -3   3  -1  178.56    6.40
  -3  -1   3  190.71    8.45
  -3  -1   3  179.64    5.93
   3   1   3  172.02    6.43
   3   1   3  186.73    7.11
  -1  -3   3  177.97    5.65
  -3   3  -1  165.40    7.22
  -3   3  -1  173.91    6.01
   3   3   1  182.69    7.17
   3   3   1  173.37    6.19
  -3  -3  -2   56.89    3.27
  -3  -3  -2   59.69    4.43
   2   3  -3   61.98    3.50
  -3  -2  -3   63.00    2.93
  -3  -2  -3   61.64    4.22
   3   2  -3   60.69    3.61
   3   2  -3   61.70    3.30
   3  -3   2   61.31    3.41
  -3   2   3   58.38    3.68
   3   3  -2   59.82    4.63
   3   3  -2   58.55    3.55
   3   3  -2   65.62    2.60
  -3   3   2   64.64    3.68
  -3   3   2   63.24    3.66
  -2  -3  -3   61.54    2.30
  -2  -3  -3   58.34    3.61
  -2  -3  -3   65.23    4.42
   3  -2   3   62.38    3.54
   3   2  -3   59.96    4.74
   2  -3   3   59.04    3.24
   2   3  -3   63.13    2.60
  -2   3   3   56.45    3.14
  -2   3   3   57.03    3.77
   2   3  -3   60.10    4.43
   2  -3  -3   66.66    3.51
  -2   3  -3   64.64    2.27
   2  -3  -3   66.73    4.01
  -3  -3   2   68.76    3.61
  -2   3  -3   69.48    3.69
   2   3   3   56.55    3.74
   3  -3  -2   67.60    3.83
   3  -3  -2   64.17    3.00
  -3   2  -3   72.45    3.72
   3  -2  -3   65.37    3.75
   3  -2  -3   63.35    3.83
   3  -2  -3   68.19    2.53
  -2  -3   3   68.24    3.56
  -2   3  -3   65.29    4.06
  -3  -2   3   66.49    3.19
  -3   2  -3   70.79    4.06
   3   2   3   63.17    3.60
   3   2   3   71.31    3.89
  -3   3  -2   65.81    4.05
  -3   3  -2   65.06    2.33
  -3   3  -2   68.13    3.47
   3   3   2   62.42    3.79
   3   3   2   63.05    3.43
  -3  -3  -3   97.31    3.68
  -3  -3  -3   92.70    4.50
  -3  -3  -3   94.03    5.56
   3   3  -3   93.27    5.98
   3   3  -3   97.23    4.70
   3   3  -3   90.71    3.79
  -3   3   3   99.02    4.61
  -3   3   3   95.39    4.88
   3  -3   3   91.53    4.38
   3  -3  -3   74.20    3.63
   3  -3  -3   68.79    4.41
  -3  -3   3   75.31    4.03
  -3   3  -3   70.33    4.60
  -3   3  -3   67.91    4.05
   3   3   3   68.34    4.34
  -4   0   0  914.86   28.28
  -4   0   0  944.57   26.27
   0  -4   0  949.15   26.36
   0  -4   0  914.86   27.40
   0   0  -4  960.57   27.20
   0   0  -4  950.72   26.90
   0   0  -4  918.70   27.89
   0   0  -4  954.00   27.03
   0   4   0  926.40   27.29
   0   4   0  922.65   27.40
   4   0   0  957.16   26.76
   4   0   0  936.56   26.97
  -1   0  -4    3.68    1.10
   0  -4  -1    4.50    1.12
   0  -4  -1    4.82    1.38
   0  -4   1    4.61    0.75
   0  -4   1    2.58    0.92
   0   4  -1    4.57    1.33
   0   4  -1    2.49    0.94
   0   4   1    5.39    1.18
   0   4   1    2.65    1.13
   1   0  -4    3.76    1.17
   1   0  -4    2.63    0.92
   1   0  -4    3.99    1.45
   1   0  -4    3.10    0.91
   1   0   4    4.82    1.03
   4  -1   0    4.15    0.92
   4  -1   0    2.60    0.91
   4   1   0    4.78    1.13
   4   1   0    4.15    1.00
  -4   1   0    5.31    0.87
  -1   0  -4    5.02    1.09
  -1   0  -4    2.71    1.01
  -4  -1   0    5.64    1.29
  -4   1   0    2.44    1.15
  -4  -1   0    4.00    1.50
   0   4   2    2.72    0.73
   0   4   2    1.31    0.85
   0   4  -2    3.99    1.04
   0  -4   2    1.22    0.86
   0   4  -2    2.70    1.19
   0  -4  -2    0.76    0.77
   0  -4  -2    1.74    1.14
   0  -4   2    3.76    0.67
   4  -2   0    2.05    0.73
   4  -2   0    1.85    0.98
   4   2   0    1.04    0.80
   4   2   0    2.08    0.73
  -2   0  -4    3.29    0.96
   2   0  -4    0.86    1.03
   2   0  -4    3.04    0.99
   2   0  -4    1.31    1.14
   2   0  -4    1.89    0.67
   2   0   4    2.27    0.79
   2   0   4    4.26    1.27
  -4  -2   0    2.82    1.43
  -4  -2   0    3.98    1.49
  -4   2   0    1.67    1.11
  -4   2   0    2.28    0.65
  -2   0   4    2.02    1.16
  -2   0  -4    2.35    0.94
   0   4   3    7.78    1.69
   0   4  -3    8.18    1.15
   0   4   3    9.00    0.87
   3   0  -4   10.58    2.04
   3   0  -4    7.46    0.88
   4  -3   0    6.14    0.96
   4   3   0    6.58    1.42
  -4  -3   0    6.61    1.90
  -4  -3   0    9.34    2.06
  -4   3   0    6.23    1.74
  -4   3   0    7.57    1.33
  -3   0  -4    9.15    1.58
  -3   0  -4   10.37    1.90
  -3   0   4    7.66    1.86
   0  -4  -3    6.78    1.73
   4   3   0    7.04    1.00
   0  -4  -3    8.19    1.99
   0  -4   3    6.37    0.82
   0  -4   3    8.72    1.77
   0   4  -3    9.14    2.22
   4  -3   0    7.50    1.58
   3   0  -4    6.30    1.42
   3   0   4   10.87    1.63
   3   0   4    8.05    1.08
   4   0  -1  288.40    9.81
   4   0  -1  300.08    9.98
   1   4   0  291.42   10.39
  -4   0  -1  294.02   10.72
  -4   0  -1  297.34    9.68
  -4   0   1  290.83    8.75
  -1  -4   0  296.02    9.10
  -1   4   0  309.33   10.30
  -1   4   0  294.37   10.17
   0  -1  -4  297.88    9.50
   0  -1  -4  295.02   10.93
   0  -1  -4  300.30   10.02
   0   1  -4  290.75   10.34
   0   1  -4  304.12    9.55
   4   0   1  296.69    9.36
   4   0   1  293.26    9.97
   0   1  -4  312.87    9.99
   0   1   4  300.81   10.14
   1  -4   0  291.20    9.52
   1  -4   0  290.41   10.05
   1   4   0  296.08   10.33
   0   1  -4  296.70   10.22
  -4  -1  -1   53.46    3.27
  -4  -1  -1   55.99    3.63
   1   1  -4   55.25    3.64
   1   1  -4   50.74    2.87
   1   1  -4   56.98    3.46
  -4   1   1   55.25    3.74
  -4   1   1   52.69    1.90
  -1  -4  -1   53.44    2.88
  -1  -4  -1   51.13    3.54
   4  -1   1   57.47    2.49
   4  -1   1   45.75    2.94
  -1  -1  -4   54.98    2.48
  -1  -1  -4   50.05    3.44
  -1  -1  -4   57.50    3.38
   4   1  -1   53.91    3.07
   1   1  -4   51.87    2.79
   1  -4   1   52.60    2.58
   1   4  -1   47.44    3.39
   1   4  -1   57.06    3.22
  -1   4   1   46.55    3.18
   1  -4   1   50.21    3.06
  -1   1   4   53.71    3.06
  -1   4   1   53.56    2.97
   4   1  -1   53.23    2.77
  -1  -4   1   52.22    1.95
  -1   1  -4   51.86    3.13
   1   1   4   47.92    2.93
  -4  -1   1   50.99    3.02
  -4   1  -1   47.44    3.33
   4  -1  -1   54.40    2.98
  -1  -4   1   52.32    3.25
   1   4   1   48.44    3.29
   1  -1  -4   53.44    3.19
   1  -1  -4   49.66    3.63
   1  -1  -4   51.22    2.77
   1  -4  -1   51.31    3.14
  -1   1  -4   52.02    2.52
  -1   1  -4   51.68    3.08
   1   4   1   53.54    3.01
   1  -4  -1   46.18    2.82
  -4  -1   1   49.90    3.96
  -1   4  -1   51.20    3.37
  -1   4  -1   54.84    2.95
  -1   1  -4   52.73    3.12
   4  -1  -1   54.52    3.12
   4   1   1   55.44    2.92
   4   1   1   56.52    3.05
  -4   1  -1   52.56    2.69
   1   4  -2  212.10    7.74
   1  -4   2  199.29    7.76
   1   4  -2  200.62    8.60
   1  -4   2  209.62    6.91
  -4  -2  -1  191.50    8.42
  -4   2   1  205.54    8.46
  -1  -4  -2  209.72    7.84
  -1  -4  -2  206.69    8.84
   4  -2   1  203.44    7.77
   4   2  -1  213.38    7.99
   4   2  -1  210.29    7.00
  -2  -1  -4  200.71    8.11
  -2  -1  -4  204.28    8.21
  -2   1   4  218.11    8.15
   2   1  -4  211.93    7.09
   4  -2   1  209.50    6.70
   2   1  -4  206.15    8.27
   2  -1   4  214.87    6.69
   2   1  -4  199.13    8.81
   2   1  -4  207.88    7.76
  -1   4   2  221.06    7.25
  -1   4   2  204.38    8.30
  -2  -1  -4  207.51    6.86
   2  -1   4  204.02    7.84
  -4  -2   1  200.90    9.27
  -2   1  -4  200.24    7.81
   1  -4  -2  205.40    8.10
  -1  -4   2  208.93    5.87
  -1  -4   2  208.69    7.97
  -1   4  -2  207.30    8.45
   4   2   1  210.89    7.80
   4  -2  -1  201.61    6.29
   1   4   2  241.01    8.76
   2  -1  -4  205.50    8.01
   2  -1  -4  213.90    8.73
   2  -1  -4  211.73    6.90
  -4  -2   1  204.38    8.11
  -2   1  -4  193.22    7.79
   4  -2  -1  205.46    7.88
   1  -4  -2  209.74    8.06
   2   1   4  199.29    7.54
   4  -2  -1  207.45    7.51
  -4   2  -1  204.60    8.45
  -4   2  -1  202.53    7.12
  -1   4  -2  208.28    7.08
   4   2   1  211.14    7.42
   1   4   2  203.53    7.02
   1   4  -3  445.68   13.79
   1   4  -3  434.68   15.45
  -4  -3  -1  430.59   15.54
  -1   4   3  448.14   14.98
  -1  -4  -3  448.22   14.57
  -1  -4  -3  452.07   15.55
   3  -1   4  432.62   12.24
   3  -1   4  429.31   14.22
   3   1  -4  425.68   15.70
  -4  -3  -1  429.88   14.80
   3   1  -4  420.17   14.42
  -3  -1  -4  454.02   13.31
  -3  -1  -4  426.05   14.72
   4   3  -1  446.00   12.66
   1  -4   3  432.57   14.25
   3   1  -4  435.75   14.24
  -1   4   3  442.95   12.89
  -4   3   1  431.09   14.72
  -3   1   4  435.60   14.77
   4  -3   1  449.57   14.15
   4   3  -1  433.12   14.37
   1  -4   3  433.14   13.07
  -4  -3   1  424.19   14.59
  -1   4  -3  422.72   12.91
   3  -1  -4  424.65   14.32
   4  -3  -1  438.38   14.32
  -3   1  -4  436.58   14.27
  -3   1  -4  410.87   14.15
  -1   4  -3  412.84   14.90
   3  -1  -4  428.98   14.82
   3  -1  -4  442.04   12.39
  -1  -4   3  433.24   12.13
  -1  -4   3  397.38   14.00
   1  -4  -3  405.13   14.44
  -4   3  -1  430.60   13.32
  -4  -3   1  391.10   15.64
   4  -3  -1  414.08   12.66
  -4   3  -1  420.00   14.83
  -4   3  -1  427.45   12.91
  -3  -1   4  434.93   12.95
   4   3   1  420.53   13.30
   3   1   4  411.06   13.54
   3   1   4  424.83   14.50
   1  -4  -3  408.58   14.60
   1   4   3  393.35   12.14
   1   4   3  408.52   14.77
   4  -3  -1  403.11   13.60
   4   3   1  433.84   14.32
  -3  -1   4  419.45   15.59
  -4   0   2   25.83    1.21
  -4   0   2   24.85    2.78
  -4   0  -2   24.04    2.29
  -4   0  -2   23.80    2.03
   0   2  -4   26.77    1.81
   0   2  -4   24.63    1.91
  -2  -4   0   26.11    1.37
   0   2   4   25.60    1.40
   0   2   4   25.43    2.28
   2  -4   0   25.62    1.99
   2  -4   0   22.09    1.93
   2   4   0   22.09    2.36
   0   2  -4   23.83    2.03
   4   0  -2   22.28    2.07
   4   0  -2   24.75    2.06
   4   0   2   26.16    1.66
   4   0   2   26.67    2.21
   2   4   0   23.33    2.22
  -2   4   0   24.30    2.27
  -2   4   0   26.39    2.15
   0  -2  -4   23.88    2.58
   0  -2  -4   25.80    2.27
   0   2  -4   28.22    2.59
  -2  -4   0   27.02    2.50
   2  -4   1   31.21    2.31
  -1  -2  -4   32.52    2.87
  -2   4   1   29.16    2.32
  -2   4   1   31.72    2.55
  -1  -2  -4   31.26    1.25
  -1  -2  -4   24.63    2.47
   1   2  -4   30.63    2.98
   1   2  -4   28.23    2.10
  -4  -1  -2   34.57    2.61
  -1   2   4   31.24    1.96
   4  -1   2   29.44    2.36
   4   1  -2   28.79    2.37
   4   1  -2   29.26    2.09
   2   4  -1   31.58    2.49
  -4   1   2   31.09    2.92
  -2  -4  -1   28.93    1.87
  -2  -4  -1   29.09    2.90
   1  -2   4   30.98    2.22
   4  -1   2   32.41    1.57
  -4  -1  -2   29.80    2.50
   1   2  -4   31.55    2.23
   1   2  -4   30.45    2.18
  -1   2   4   31.80    2.58
   2   4  -1   32.35    3.02
   2  -4   1   29.93    2.08
  -1   2  -4   30.09    1.72
   2  -4  -1   26.09    2.16
  -4   1  -2   27.57    2.15
   2   4   1   21.28    2.22
   2   4   1   29.18    2.59
   4  -1  -2   27.23    2.26
   4  -1  -2   26.13    2.23
   4   1   2   27.87    2.01
  -1   2  -4   25.35    2.22
  -2   4  -1   27.82    2.04
  -4  -1   2   27.13    1.97
   1   2   4   28.07    2.44
   1  -2  -4   30.72    2.94
   1  -2  -4   28.01    2.18
  -2   4  -1   28.69    2.56
  -4  -1   2   25.72    3.06
  -2  -4   1   26.89    2.44
  -4   1  -2   28.05    2.60
  -1   2  -4   26.74    2.51
   4   1   2   30.67    2.38
   2   2  -4  270.97    9.53
   2   4  -2  268.04   10.92
  -4   2   2  259.28   10.22
  -2  -4  -2  276.35   10.99
   2  -2   4  268.01    9.46
   2   2  -4  291.30   11.28
   2  -4   2  266.01    9.01
  -2  -2  -4  282.21    7.96
  -2  -2  -4  270.55   10.11
  -2  -2  -4  277.51   10.52
   4   2  -2  275.75    9.81
   4   2  -2  269.22    8.75
  -4  -2  -2  286.11    9.83
  -2   4   2  266.23    9.27
  -2   2   4  280.09    9.43
   2  -4   2  281.01    9.69
   4  -2   2  275.39    7.80
  -2   4   2  261.56    9.99
   2   2  -4  274.04    9.57
  -4  -2  -2  272.35   10.62
   4  -2   2  264.76    9.65
   2   4  -2  279.37    9.79
  -2  -4  -2  263.87    9.34
  -2   4  -2  263.56   10.25
   2   2   4  267.33    9.77
  -4  -2   2  264.99    9.30
   2   4   2  256.80    9.07
  -4   2  -2  264.64    9.21
  -2   2  -4  257.08    9.61
  -2  -2   4  268.90    9.18
  -2   2  -4  258.19    9.96
   4   2   2  254.52    9.37
   4   2   2  262.99    9.44
  -2   4  -2  262.53    8.47
   2  -2  -4  263.83    9.89
   2  -2  -4  256.30   10.37
   2  -2  -4  264.08    8.76
   4  -2  -2  267.54    9.62
   4  -2  -2  260.54    9.75
  -4   2  -2  264.80   10.21
   4  -2  -2  255.80    7.55
  -4  -2   2  258.96   11.32
  -2  -4   2  261.75    9.73
   2  -4  -2  266.64    9.46
   2  -4  -2  269.48    9.83
   2   4   2  260.80   10.15
  -4  -3  -2   74.87    4.20
  -3  -2  -4   69.50    3.15
  -4   3   2   75.22    4.52
   4   3  -2   73.84    4.31
   2   4  -3   69.93    4.04
  -2  -4  -3   73.77    2.95
   3   2  -4   70.60    4.13
   3   2  -4   75.70    4.27
   4  -3   2   70.40    4.05
  -2   4   3   74.21    3.70
  -2   4   3   70.52    4.48
  -3  -2  -4   78.04    4.92
  -4  -3  -2   70.94    5.01
   2  -4   3   75.93    3.78
   2   4  -3   70.56    5.05
   3  -2   4   76.20    4.21
   3   2  -4   73.90    5.46
   4   3  -2   72.75    3.15
  -3   2   4   72.82    4.31
  -2  -4  -3   75.62    5.13
  -2  -4  -3   75.60    4.31
  -4   3  -2   71.28    4.57
  -4  -3   2   82.00    4.30
   4  -3  -2   77.34    4.20
  -4   3  -2   78.69    3.93
   2  -4  -3   81.69    4.71
  -3  -2   4   80.33    3.73
  -3   2  -4   80.56    4.59
  -3   2  -4   74.72    4.21
  -4  -3   2   72.64    5.45
  -2  -4   3   80.26    4.30
   3  -2  -4   77.84    4.72
  -2   4  -3   81.00    3.08
  -2   4  -3   77.95    4.19
   2   4   3   79.38    4.79
   3  -2  -4   73.52    4.41
   4   3   2   72.33    4.28
   4   3   2   76.45    3.95
   3   2   4   79.17    4.26
   3   2   4   74.58    4.51
  -4   3  -2   78.74    2.84
  -2  -4   3   76.90    2.39
  -2   4  -3   79.06    4.84
   4  -3  -2   74.29    4.34
   4  -3  -2   77.45    3.17
   2  -4  -3   74.09    4.17
   3  -2  -4   82.09    3.13
   0   3   4  372.70   10.11
   0   3   4  362.40   12.98
   3  -4   0  366.87   12.24
  -4   0  -3  366.82   12.44
   4   0   3  371.60   12.61
  -3  -4   0  362.56   13.27
  -3   4   0  370.10   12.85
   0   3  -4  368.19   12.32
  -3   4   0  379.74   12.19
   0  -3  -4  364.38   13.41
   0  -3  -4  371.33   12.95
   3  -4   0  369.91   11.87
   3   4   0  346.07   13.44
   3   4   0  377.48   12.82
   3   4   0  368.34   10.83
   4   0  -3  361.37   12.49
   4   0  -3  368.21   12.35
   4   0   3  369.76   11.12
   0  -3   4  364.79   11.48
   0   3  -4  353.20   13.20
   0   3  -4  373.89   11.56
  -4   0  -3  357.56   12.46
  -4   0   3  352.04   13.67
  -4   0   3  370.44   10.49
   4   1  -3   20.20    2.05
   1  -3   4   17.58    1.67
  -4   1   3   22.72    2.69
  -3  -4  -1   15.96    2.16
  -3  -4  -1   20.25    2.67
   1   3  -4   25.86    2.84
   1   3  -4   17.79    1.73
   1   3  -4   20.58    1.53
  -4  -1  -3   20.35    1.95
   3  -4   1   18.02    1.79
   3  -4   1   19.60    1.84
   3   4  -1   17.26    2.57
   3   4  -1   22.51    2.29
   3   4  -1   17.36    0.87
  -3   4   1   20.70    2.17
  -3   4   1   19.97    2.05
  -1  -3  -4   18.56    2.27
  -1  -3  -4   18.73    2.39
   4  -1   3   19.38    1.06
   4  -1   3   18.99    1.99
   4   1  -3   18.50    1.80
  -4  -1  -3   16.98    2.13
  -1   3   4   20.07    1.42
  -1   3   4   19.17    2.25
   1  -3  -4   17.19    2.32
   1  -3  -4   14.01    1.88
  -1   3  -4   15.58    1.29
   4   1   3   18.87    1.69
   4   1   3   14.00    1.81
  -3  -4   1   21.12    2.28
  -3   4  -1   18.42    2.22
  -3   4  -1   17.67    1.63
  -1   3  -4   16.67    1.89
   3   4   1   17.78    1.53
   4  -1  -3   16.12    1.92
   4  -1  -3   16.78    1.94
  -1  -3   4   19.42    1.99
  -1   3  -4   17.29    2.19
  -4  -1   3   18.81    2.78
  -4  -1   3   19.75    1.44
  -4   1  -3   15.53    2.00
  -4   1  -3   15.25    1.77
   3  -4  -1   18.10    1.68
   3   4   1   17.82    2.09
   1   3   4   14.86    2.05
   3  -4  -1   14.79    1.82
  -3   4   2  109.79    5.38
  -3   4   2  108.35    5.59
   4   2  -3  116.62    5.67
   4   2  -3  118.24    4.98
  -4  -2  -3  116.94    5.07
   4  -2   3  113.37    5.51
   3   4  -2  108.43    5.53
  -3  -4  -2  118.93    5.30
  -3  -4  -2  106.84    4.86
  -3  -4  -2  121.25    6.76
   3  -4   2  113.28    5.13
  -4  -2  -3  116.81    6.27
   3   4  -2  112.79    6.80
   2   3  -4  110.36    5.27
   2   3  -4  114.69    4.62
  -2  -3  -4  108.06    5.75
  -4   2   3  106.06    5.83
   2  -3   4  110.50    5.10
  -2   3   4  108.83    5.75
   3  -4   2  118.64    5.42
   2   3  -4  116.90    6.66
  -2   3   4  115.46    4.89
  -2  -3  -4  129.01    6.59
  -3  -4   2  111.98    5.53
   4  -2  -3  124.24    5.86
   4   2   3  118.64    5.59
  -4   2  -3  116.92    5.38
   4   2   3  119.91    5.39
  -2  -3   4  118.44    5.25
  -2   3  -4  114.99    6.04
  -2   3  -4  114.59    3.81
  -2   3  -4  111.61    5.44
  -3   4  -2  115.03    6.08
  -3   4  -2  119.17    4.27
   2  -3  -4  121.61    6.21
   2  -3  -4  121.28    5.17
   3   4   2  116.49    5.94
  -3   4  -2  118.86    5.26
  -4  -2   3  120.69    4.90
  -4   2  -3  125.74    6.05
   2   3   4  122.71    5.95
   3  -4  -2  124.55    5.83
   3  -4  -2  123.74    5.09
   3   4   2  110.27    5.05
   4  -2  -3  119.45    5.69
  -4  -2   3  113.13    6.93
  -4  -3  -3    1.48    0.83
  -4  -3  -3    1.68    1.32
   3   4  -3    1.56    0.35
   3  -3   4    2.68    1.09
   3   3  -4    0.02    1.18
  -4   3   3    1.17    1.00
  -3  -4  -3    1.49    0.74
  -3  -4  -3    1.57    0.97
  -3  -4  -3    2.50    1.50
   4   3  -3    2.29    1.18
  -3  -3  -4    1.31    0.55
  -3  -3  -4    1.35    1.09
  -3  -3  -4    1.48    1.34
  -3   4   3    1.68    0.94
   3   4  -3   -0.44    1.20
   4  -3   3    0.89    0.75
  -3   3   4    1.38    0.94
  -3   3   4    2.63    1.20
   4   3  -3    1.12    0.76
   3   3  -4    5.92    1.56
   3   4  -3    2.10    1.03
   4   3  -3    1.06    1.48
  -3   4   3    2.05    1.18
   3   3  -4    0.78    0.75
   3  -4   3    1.26    0.81
   3  -4  -3    2.28    0.96
   3  -3  -4    1.11    1.00
  -3  -3   4    1.88    0.87
  -4   3  -3    4.35    1.59
  -4   3  -3    2.13    0.95
  -3   4  -3    2.18    0.48
   3  -4  -3    0.92    0.81
   3   3   4    2.52    1.17
  -3   3  -4    1.61    1.11
  -3   4  -3    1.71    0.90
  -4  -3   3    2.22    0.98
   3   4   3    1.18    1.04
   4  -3  -3    1.29    0.93
   4  -3  -3    2.96    1.41
   4  -3  -3    2.69    0.74
  -3   3  -4    1.79    1.03
   3  -3  -4    2.60    0.86
  -3  -4   3    2.34    1.03
  -3   4  -3    1.66    1.12
   4   3   3    3.13    1.21
   4   3   3    4.37    1.33
  -4  -4   0  299.64   12.26
  -4  -4   0  298.24   12.05
  -4   0  -4  302.99   10.78
  -4   0  -4  308.71   11.34
  -4   0   4  319.69   12.58
  -4   0   4  303.82    9.03
  -4   4   0  307.05   11.63
  -4   4   0  294.85   10.48
   0  -4  -4  285.87   11.71
   0  -4  -4  310.56   11.76
   0  -4   4  294.85    9.67
   0  -4   4  308.14   11.15
   0   4  -4  307.14   12.14
   0   4  -4  311.75   10.15
   0   4   4  299.80    8.56
   0   4   4  293.14   11.63
   4  -4   0  298.44   10.92
   4  -4   0  313.40   10.19
   4   0  -4  315.60   11.24
   4   0  -4  300.31   11.21
   4   0   4  304.49    9.63
   4   0   4  300.37   11.25
   4   4   0  309.47   11.42
   4   4   0  312.93    9.55
  -4  -4  -1  171.23    7.89
  -4  -4  -1  170.93    8.49
   1   4  -4  169.81    8.44
  -4  -1  -4  172.68    6.78
  -4  -1  -4  173.16    7.86
   4   1  -4  169.68    7.43
   4   1  -4  169.01    7.30
   4  -4   1  169.83    7.14
   4  -4   1  162.01    6.64
  -4   1   4  171.46    8.15
  -4   1   4  171.76    5.05
   4   4  -1  163.82    5.49
   4  -1   4  160.46    7.30
  -4   4   1  165.79    7.60
  -4   4   1  169.28    7.13
  -1  -4  -4  158.37    7.60
  -1  -4  -4  166.87    8.08
   4   4  -1  157.65    8.60
   4   4  -1  165.49    7.49
   4  -1   4  166.65    5.26
   1   4  -4  171.12    6.82
  -1   4   4  167.21    7.85
  -1   4   4  169.56    5.81
   1  -4   4  177.82    6.49
  -1   4  -4  169.11    7.24
  -1   4  -4  174.02    8.09
   1  -4  -4  173.31    8.07
  -4  -4   1  188.74    8.05
  -1   4  -4  174.12    6.06
   1   4   4  169.04    7.87
   4  -4  -1  179.31    7.50
   4  -4  -1  171.68    6.30
  -4   1  -4  168.18    7.38
  -4   1  -4  175.95    7.46
   4  -1  -4  180.84    7.59
   4  -1  -4  171.48    7.65
   1  -4  -4  175.58    7.60
  -4   4  -1  176.34    6.44
  -4  -1   4  175.20    8.80
  -4  -1   4  172.75    5.98
   4   1   4  167.54    6.62
   4   1   4  179.29    7.66
  -1  -4   4  178.70    5.81
  -1  -4   4  182.75    7.42
  -4   4  -1  176.66    7.97
   4   4   1  169.48    7.56
   4   4   1  170.16    6.38
  -4  -4  -2   28.47    2.56
  -4  -4  -2   25.07    3.21
   2   4  -4   27.06    3.37
  -4  -2  -4   27.14    2.10
  -4  -2  -4   24.80    2.93
   4   2  -4   28.70    2.55
   4   4  -2   23.15    2.52
   4  -4   2   25.63    2.39
   4   4  -2   28.21    3.54
  -4   2   4   26.84    2.80
   4   4  -2   27.81    1.51
   4  -2   4   28.73    2.66
   4   2  -4   22.21    2.42
  -4   4   2   26.83    2.68
  -4   4   2   31.69    2.78
  -2  -4  -4   26.20    2.73
  -2  -4  -4   28.42    3.24
   2   4  -4   26.89    2.39
   2  -4   4   27.86    2.26
  -2   4   4   27.10    2.83
  -2   4   4   24.28    1.98
  -2   4  -4   24.45    2.44
  -2   4  -4   27.81    1.57
  -2   4  -4   28.85    3.02
   2  -4  -4   30.07    2.99
   2  -4  -4   29.35    2.58
  -2  -4   4   27.28    2.49
  -4  -4   2   28.11    2.67
  -4  -2   4   25.96    2.05
   2   4   4   27.83    2.85
   4  -4  -2   26.63    2.65
   4  -4  -2   28.40    2.05
  -4   2  -4   28.93    2.79
   4  -2  -4   25.70    2.65
   4  -2  -4   27.32    2.77
   4  -2  -4   28.85    1.25
  -4   4  -2   28.50    1.70
  -4   4  -2   26.85    2.31
  -4  -2   4   30.95    3.62
   4   2   4   27.71    2.44
   4   2   4   28.11    2.74
  -4   2  -4   28.20    2.61
  -2  -4   4   29.36    1.59
  -4   4  -2   31.76    3.16
   4   4   2   26.53    2.72
   4   4   2   25.89    2.21
  -4  -4  -3  204.75    7.73
  -4  -4  -3  203.52    9.93
   4   3  -4  230.95   11.25
  -4  -3  -4  199.56    7.22
  -4  -3  -4  212.17   10.02
   4  -4   3  198.44    8.28
   3   4  -4  191.39    8.40
   4   4  -3  192.69   10.58
  -4   3   4  203.71    8.72
   4   4  -3  194.67    6.92
   3   4  -4  212.58   10.67
  -4   4   3  203.20    8.58
  -4   4   3  214.03    8.99
  -3  -4  -4  212.33    6.39
  -3  -4  -4  204.22    8.67
  -3  -4  -4  201.25    9.79
   4   4  -3  209.33    8.86
   4   3  -4  204.15    8.78
   4   3  -4  207.02    8.13
  -3   4   4  201.57    7.99
  -3   4   4  212.49    9.27
   4  -3   4  205.34    8.57
   3   4  -4  208.89    6.69
   3  -4   4  209.63    8.29
   3  -4  -4  209.06    9.38
  -4   3  -4  215.35    9.46
   3  -4  -4  209.26    7.92
   3   4   4  205.53    9.06
  -4   4  -3  223.81    8.55
   4  -4  -3  213.22    7.60
  -4  -3   4  215.90    8.05
   4  -3  -4  213.71    9.00
   4  -3  -4  220.30    9.41
   4  -3  -4  212.53    6.69
   4  -4  -3  203.15    8.89
  -4  -4   3  209.33    8.55
  -3   4  -4  212.69    9.50
  -3   4  -4  210.48    8.61
   4   3   4  219.86    8.88
   4   3   4  208.30    8.87
  -4   3  -4  210.83    8.60
  -3  -4   4  213.61    8.47
  -4   4  -3  218.75    9.62
   4   4   3  202.33    8.98
   4   4   3  205.98    8.44
  -4  -4  -4  323.28   10.13
  -4  -4  -4  312.38   13.53
   4   4  -4  331.71   14.75
   4   4  -4  315.74   12.04
   4   4  -4  315.14   10.26
  -4   4   4  331.80   11.92
  -4   4   4  326.77   12.57
   4  -4   4  336.08   11.92
   4  -4  -4  315.79   10.42
   4  -4  -4  294.15   12.45
  -4  -4   4  313.15   11.61
  -4   4  -4  320.67   12.98
  -4   4  -4  309.16   11.85
   4   4   4  300.92   12.24
   4   4   4  317.68   12.20
  -5   0   0   -0.57    0.66
  -5   0   0    0.21    0.42
   0  -5   0   -0.04    0.46
   0  -5   0    0.58    0.73
   0   0  -5    0.24    0.69
   0   0  -5   -0.20    0.49
   0   0  -5   -0.51    0.69
   0   0  -5    0.93    0.69
   0   5   0   -0.05    0.61
   0   5   0   -0.02    0.62
   5   0   0   -0.39    0.40
   5   0   0   -0.56    0.49
   0  -5  -1   25.69    2.63
   0  -5   1   27.34    1.66
   0  -5   1   24.34    2.34
   0   5  -1   23.20    2.44
   0   5  -1   25.07    2.30
   0   5   1   25.69    2.17
   0   5   1   30.39    2.79
   1   0  -5   26.97    2.55
   1   0  -5   26.39    2.29
   1   0  -5   25.66    2.74
   1   0  -5   27.30    2.12
   1   0   5   25.83    2.09
   5  -1   0   21.20    1.85
   5  -1   0   24.69    2.24
   5   1   0   28.19    2.22
   5   1   0   27.12    2.19
  -5  -1   0   21.48    2.75
  -5  -1   0   26.67    2.21
  -5   1   0   23.76    2.73
  -5   1   0   26.72    1.67
  -1   0  -5   27.86    2.18
  -1   0  -5   27.11    2.61
  -1   0  -5   25.20    2.35
   0  -5  -1   20.74    1.96
   0   5  -2  233.96    8.58
   0   5   2  237.52    8.17
   0   5   2  226.92    9.58
   2   0  -5  241.51    9.74
   2   0  -5  231.43    8.97
   2   0  -5  243.97   10.06
   2   0  -5  238.42    8.09
   2   0   5  241.03    8.35
   2   0   5  240.75    9.51
   5  -2   0  234.58    8.18
   5  -2   0  232.54    8.98
   5   2   0  222.67    8.78
   5   2   0  233.24    8.30
  -5  -2   0  230.69    9.46
  -5   2   0  236.16    9.91
  -5   2   0  250.08    7.72
   0  -5   2  231.85    9.20
   0   5  -2  233.78    9.65
   0  -5   2  237.29    7.38
  -5  -2   0  219.95   10.17
   0  -5  -2  242.38    9.75
   0  -5  -2  238.60    9.07
  -2   0  -5  233.95    9.22
  -2   0  -5  234.95    9.24
  -2   0  -5  228.84    8.42
   0  -5   3   22.39    1.50
   0  -5  -3   21.44    2.68
   0  -5  -3   24.84    2.60
  -3   0   5   31.19    3.14
   5   3   0   24.27    2.49
   5   3   0   25.14    1.97
   3   0  -5   26.35    1.76
   3   0   5   25.99    2.67
   5  -3   0   23.62    1.99
  -3   0  -5   28.50    2.68
   0  -5   3   23.37    2.43
   0   5  -3   20.88    2.66
   0   5  -3   26.62    2.17
   0   5   3   24.36    1.69
   0   5   3   22.23    2.63
   3   0  -5   23.67    2.39
   5  -3   0   22.44    2.36
   5  -3   0   24.12    1.78
  -5  -3   0   18.98    2.79
   3   0  -5   27.61    2.95
   3   0   5   23.99    1.93
  -5   3   0   22.62    2.68
  -3   0  -5   24.81    2.17
  -5  -3   0   22.84    2.84
   0   5  -4   60.68    4.76
   4   0  -5   61.77    4.25
   4   0   5   63.85    4.37
   5  -4   0   72.71    4.40
   5  -4   0   69.99    3.51
   5   4   0   70.14    4.50
  -5  -4   0   67.28    5.15
  -5  -4   0   67.83    5.02
  -5   4   0   62.93    4.69
  -5   4   0   67.90    3.83
  -4   0  -5   69.11    4.04
  -4   0  -5   59.67    4.29
  -4   0   5   59.30    4.78
  -4   0   5   63.30    2.89
   4   0  -5   58.05    4.34
   4   0   5   69.54    3.35
   0   5   4   68.38    2.66
   0   5   4   67.27    4.81
   0  -5  -4   71.09    4.93
   0  -5   4   68.43    3.09
   0  -5   4   69.09    4.35
   5   4   0   67.90    3.32
   0  -5  -4   70.89    4.77
   0   5  -4   67.44    3.67
   0   1  -5  227.10    8.97
   5   0  -1  242.68    8.58
   1   5   0  222.01    8.82
  -5   0  -1  232.46    9.55
  -5   0  -1  222.96    8.00
   0  -1  -5  227.70    8.51
  -5   0   1  228.32    7.13
  -1  -5   0  228.87    7.52
  -1   5   0  225.04    8.78
  -1   5   0  230.80    8.84
   0  -1  -5  229.44    8.05
   0  -1  -5  232.18    9.65
   0   1  -5  228.76    8.08
   5   0   1  221.64    7.83
   5   0   1  227.46    8.54
   0   1  -5  231.12    8.93
  -5   0   1  230.01   10.13
   0   1  -5  223.85    8.42
   5   0  -1  220.13    8.33
   1  -5   0  223.60    7.94
   1  -5   0  229.62    8.76
   0   1   5  213.42    8.47
   1   5   0  227.11    9.03
  -1   5   1  387.14   12.96
  -1   5   1  396.21   13.78
  -5   1   1  397.88   14.60
  -5   1   1  416.00   11.28
  -1  -5  -1  386.64   12.62
  -1  -5  -1  386.97   14.03
  -1  -1  -5  408.60   14.27
  -1   1   5  416.85   13.13
  -1  -1  -5  408.43   12.28
   1   1  -5  386.34   13.93
  -1  -1  -5  394.86   13.43
   1   1  -5  402.76   13.87
   1   1  -5  409.27   12.86
   1   1  -5  409.21   12.99
   5  -1   1  388.88   12.10
   5  -1   1  388.69   13.21
   5   1  -1  393.80   13.14
   5   1  -1  379.59   12.64
   1  -5   1  404.05   12.27
   1  -5   1  399.36   13.42
   1   5  -1  405.97   14.04
  -5  -1  -1  374.18   14.06
  -5  -1  -1  408.64   13.32
   1   5  -1  398.56   13.46
   5  -1  -1  380.48   13.14
  -1  -5   1  388.20   11.38
   5  -1  -1  396.96   12.94
   1   1   5  392.70   13.19
   1  -1  -5  394.46   13.32
  -5  -1   1  372.55   14.86
  -1   1  -5  375.54   13.28
  -1   1  -5  395.82   13.27
  -1  -5   1  387.07   13.61
  -5   1  -1  396.50   14.22
  -5   1  -1  393.69   12.38
   1  -5  -1  385.36   12.91
   1  -5  -1  381.45   13.39
   5   1   1  403.89   12.79
   5   1   1  399.07   13.03
  -1   5  -1  384.62   13.73
  -5  -1   1  387.98   12.61
   1   5   1  400.31   13.07
   1   5   1  396.62   13.92
  -1   5  -1  385.89   12.94
   1  -1  -5  393.94   12.74
  -1   1  -5  393.23   13.34
   1  -1  -5  369.63   14.31
  -1   1  -5  387.28   12.25
   2   1  -5  108.61    5.70
   1  -5   2   98.39    4.99
   1   5  -2  110.05    5.92
  -5  -2  -1   94.13    5.36
   2   1  -5  105.00    4.41
   5  -2   1  101.48    3.97
   2   1  -5   98.96    4.81
   2  -1   5   92.50    4.96
   2   1  -5  108.42    6.00
   1   5  -2   98.13    4.85
  -2  -1  -5  105.08    5.45
   5   2  -1  101.79    4.34
  -2  -1  -5  102.11    4.11
  -1   5   2  101.00    4.46
  -1   5   2  102.40    5.51
  -5   2   1  111.85    5.93
   2  -1   5  103.18    4.06
   5  -2   1  103.31    5.02
   5   2  -1   92.76    4.86
  -1  -5  -2   97.28    4.78
  -1  -5  -2  100.63    5.81
   1  -5   2  108.27    4.12
  -2  -1  -5  105.31    5.38
  -2   1   5  100.87    5.05
  -5  -2  -1  111.43    6.00
   1  -5  -2   92.25    5.10
   2   1   5   90.68    4.58
   5  -2  -1   91.54    4.50
   1   5   2   86.71    4.20
  -1  -5   2   92.94    5.04
   2  -1  -5   89.56    4.07
   1   5   2   79.13    5.08
   2  -1  -5   87.60    4.88
   2  -1  -5   86.72    5.46
   1  -5  -2   90.49    4.90
   5   2   1   83.27    4.35
   5  -2  -1   89.12    3.33
  -2   1  -5   88.09    4.75
  -2   1  -5   86.47    4.83
   5   2   1   87.15    4.63
  -1  -5   2   88.19    2.98
  -5  -2   1   85.14    5.91
  -5  -2   1   88.97    5.06
  -5   2  -1   89.87    5.43
  -5   2  -1   92.77    4.11
  -1   5  -2   88.94    4.30
   5  -2  -1   84.30    4.75
  -1   5  -2   80.41    5.12
  -5  -3  -1   55.79    4.47
   1  -5   3   62.31    3.92
   1   5  -3   60.22    4.59
   1   5  -3   63.23    3.73
   1  -5   3   62.86    3.03
  -1   5   3   67.06    4.47
  -5  -3  -1   63.16    4.51
   3   1  -5   64.46    4.38
   3   1  -5   57.64    3.02
   3  -1   5   60.05    2.74
   3  -1   5   58.07    3.89
   3   1  -5   61.15    4.79
   5   3  -1   58.56    2.97
  -3  -1  -5   61.91    3.20
  -3  -1  -5   63.06    4.28
  -1   5   3   63.83    3.14
  -1  -5  -3   63.23    4.70
  -1  -5  -3   66.15    4.10
   3   1  -5   62.62    3.89
  -3   1   5   61.30    4.20
  -5   3   1   66.93    4.49
   5  -3   1   60.24    3.84
   5   3  -1   61.62    3.97
  -1  -5   3   54.80    2.12
   3   1   5   54.70    4.04
  -5  -3   1   56.49    4.89
  -5  -3   1   55.02    4.20
  -1   5  -3   55.13    4.29
  -1   5  -3   57.90    3.11
   3  -1  -5   59.47    2.82
   1  -5  -3   52.90    4.02
  -1  -5   3   53.06    3.78
   5   3   1   57.80    3.31
   3   1   5   58.11    3.48
   5  -3  -1   54.56    2.61
   5  -3  -1   57.17    3.48
   5  -3  -1   60.99    3.96
   1  -5  -3   56.30    4.03
   5   3   1   56.64    3.80
   1   5   3   53.29    4.12
   3  -1  -5   60.38    4.00
   3  -1  -5   55.77    4.33
  -5   3  -1   59.81    3.02
  -3   1  -5   58.15    3.75
  -3   1  -5   55.03    3.81
  -5   3  -1   56.61    3.13
   1   5   3   56.17    2.78
  -5   3  -1   55.00    4.24
   1  -5   4  140.39    5.72
  -5   4   1  144.03    7.45
  -1  -5  -4  142.19    7.76
   5   4  -1  148.22    7.19
  -1  -5  -4  141.93    7.15
  -5  -4  -1  143.44    7.47
  -5  -4  -1  149.80    8.16
  -1   5   4  136.45    7.37
   1   5  -4  139.86    6.36
   4   1  -5  136.95    6.88
   5   4  -1  140.07    5.32
  -5   4   1  148.03    6.60
   1  -5   4  138.69    6.87
   1   5  -4  147.94    8.06
  -4  -1  -5  142.70    7.35
   5  -4   1  139.94    6.75
   5  -4   1  145.73    6.18
  -1   5   4  143.81    5.40
  -4  -1  -5  148.52    6.17
   4  -1   5  149.67    7.17
  -4   1   5  154.17    7.59
   4   1  -5  146.80    7.29
  -5   4  -1  153.56    7.73
   4   1   5  151.18    7.32
   4  -1  -5  155.22    4.98
  -4  -1   5  157.70    5.67
   1   5   4  152.01    7.73
   4  -1  -5  158.08    7.29
  -1  -5   4  150.66    5.00
  -5   4  -1  146.30    5.88
   5   4   1  154.26    7.28
   4  -1  -5  145.31    7.46
  -5  -4   1  136.99    8.15
   4   1   5  153.77    6.32
  -1   5  -4  150.56    5.80
   1  -5  -4  156.07    7.48
   5  -4  -1  153.62    5.70
  -1  -5   4  154.44    7.10
   5  -4  -1  154.65    7.10
  -5  -4   1  148.32    7.58
  -4  -1   5  145.47    8.10
   5   4   1  146.42    5.99
  -4   1  -5  154.30    7.05
  -4   1  -5  156.61    7.23
   1  -5  -4  156.15    7.66
  -1   5  -4  151.14    7.78
   0   2   5   -0.14    0.67
   0   2   5    0.86    0.55
   0  -2  -5    0.69    1.04
   5   0   2    0.79    0.83
   2  -5   0    0.31    0.63
   2  -5   0    1.09    0.79
   2   5   0    1.23    1.02
   2   5   0    1.42    0.98
   0  -2  -5    0.34    0.70
   0   2  -5   -0.03    0.82
   0   2  -5    1.07    0.65
   0   2  -5    1.66    0.91
   0   2  -5    0.40    0.75
  -5   0  -2    0.55    0.92
  -5   0  -2   -0.22    0.50
  -5   0   2   -0.88    0.77
  -5   0   2    0.80    0.32
  -2  -5   0    1.28    0.53
  -2  -5   0   -0.31    0.76
  -2   5   0    1.41    1.07
  -2   5   0    0.98    0.85
   5   0  -2   -0.13    0.55
   5   0   2    0.71    0.56
   5   0  -2    0.61    0.74
  -5  -1  -2   35.64    3.06
  -5  -1  -2   35.12    2.88
  -2  -5  -1   32.07    2.17
  -2  -5  -1   31.65    3.22
  -1  -2  -5   33.68    3.19
   5   1  -2   36.46    2.82
   5   1  -2   33.68    2.45
   5  -1   2   35.04    1.95
  -2   5   1   37.79    3.04
   1   2  -5   36.28    2.73
   1   2  -5   35.03    2.51
   1   2  -5   36.83    2.63
   1   2  -5   32.48    3.24
   5  -1   2   33.94    2.75
  -1  -2  -5   36.88    1.77
  -5   1   2   33.27    3.34
  -1  -2  -5   33.55    2.96
   2   5  -1   38.70    3.43
   1  -2   5   31.00    2.56
   2  -5   1   36.10    2.79
  -1   2   5   33.23    2.22
  -1   2   5   38.38    3.04
   2  -5   1   35.01    2.41
  -2   5   1   33.90    2.71
   2   5  -1   37.07    2.93
  -2   5  -1   29.44    2.37
  -1   2  -5   31.51    2.66
   1  -2  -5   33.61    2.56
   2   5   1   33.38    2.79
  -5   1  -2   31.61    3.04
  -5   1  -2   33.51    2.48
   2  -5  -1   31.90    2.66
   1  -2  -5   32.25    3.28
   5   1   2   34.29    2.71
   2   5   1   32.17    2.94
  -5  -1   2   33.33    3.68
  -5  -1   2   31.79    2.39
  -2  -5   1   33.70    2.95
   2  -5  -1   34.67    2.70
  -1   2  -5   32.99    2.06
   1   2   5   32.63    2.82
   5  -1  -2   35.60    2.73
  -1   2  -5   36.08    3.02
  -2   5  -1   32.54    2.94
   5   1   2   33.25    2.37
   5  -1  -2   33.84    2.75
  -2  -2  -5   46.99    3.64
   2  -2   5   44.21    2.19
   5  -2   2   44.46    2.07
   5  -2   2   43.72    3.23
  -5   2   2   42.96    3.70
  -2  -5  -2   41.28    2.86
   2   2  -5   43.98    3.99
   2   2  -5   42.63    3.04
   2   2  -5   37.45    3.05
  -5  -2  -2   41.39    3.62
  -2  -2  -5   42.11    3.56
   2  -5   2   40.76    3.11
   2   5  -2   42.78    3.20
  -2   5   2   43.60    2.95
  -2   5   2   41.35    3.41
  -2   2   5   43.46    3.42
   2   5  -2   40.34    3.78
  -2  -5  -2   44.74    4.00
   2  -5   2   43.56    2.68
  -5  -2  -2   41.50    3.30
   5   2  -2   42.13    2.64
   2  -2   5   44.18    3.14
  -2  -2  -5   39.94    1.99
   5   2  -2   41.15    3.15
  -2   2   5   39.39    2.86
   2   2  -5   45.01    2.85
  -2   2  -5   43.34    3.22
  -2   2  -5   44.42    3.39
   2  -5  -2   45.93    3.28
   2  -2  -5   50.99    3.57
  -2  -5   2   42.96    3.36
   2   5   2   47.79    3.05
   2   5   2   45.20    3.68
   5  -2  -2   47.13    3.22
   5  -2  -2   47.75    3.39
   2  -2  -5   42.89    3.78
   2  -2  -5   43.56    2.66
  -5   2  -2   47.00    3.76
  -5   2  -2   46.16    2.89
   5   2   2   46.37    3.10
   5   2   2   45.16    3.09
  -5  -2   2   47.05    3.29
   2  -5  -2   41.51    3.20
   2   2   5   41.76    3.19
  -2   5  -2   40.34    3.49
  -2   5  -2   45.11    2.64
  -5  -2   2   49.10    4.56
   3  -2   5  289.46    8.47
   5   3  -2  296.54    9.58
   5   3  -2  307.48   11.24
   2  -5   3  299.00    9.98
   2  -5   3  293.84   10.98
   2   5  -3  309.44   12.73
   2   5  -3  291.33   10.82
  -5  -3  -2  300.01   11.24
  -5   3   2  291.23   11.65
   3  -2   5  302.59   11.05
   3   2  -5  298.80   12.84
  -2  -5  -3  294.14   10.86
  -2  -5  -3  286.91   12.26
  -2  -5  -3  300.74    9.45
  -3  -2  -5  299.05    9.21
  -3  -2  -5  293.50   11.32
  -3  -2  -5  292.91   11.85
  -2   5   3  288.18   11.56
   3   2  -5  284.68   11.18
  -5  -3  -2  290.46   12.19
  -3   2   5  263.89   10.67
   3   2  -5  293.02   10.94
  -2   5   3  293.29   10.05
   5  -3   2  285.74   10.81
   2   5   3  289.45   11.63
   3   2   5  283.26   10.76
  -2   5  -3  276.83   11.68
  -5   3  -2  281.91   11.68
   5  -3  -2  290.00   10.77
   5   3   2  295.18   10.96
   3  -2  -5  283.27   11.24
  -2  -5   3  274.03   10.90
   2  -5  -3  299.54   11.49
   2  -5  -3  290.14   11.07
   3  -2  -5  296.79   11.94
   5  -3  -2  292.62   11.18
   5  -3  -2  270.66    8.69
  -5  -3   2  273.56   12.73
  -3   2  -5  296.10   11.08
  -5   3  -2  291.19    8.92
  -5   3  -2  294.61   10.30
   3  -2  -5  299.84    9.40
  -3  -2   5  284.14    9.99
  -2   5  -3  302.62    9.45
   5   3   2  289.58   10.45
  -3   2  -5  295.82   11.30
  -5  -3   2  283.44   10.96
   4   2  -5   25.90    2.82
  -5  -4  -2   24.61    3.20
  -2  -5  -4   21.92    2.97
   2   5  -4   20.73    2.29
   4  -2   5   21.10    2.48
   2   5  -4   21.85    3.12
  -4  -2  -5   18.94    1.77
  -4  -2  -5   23.04    2.89
   5   4  -2   19.98    2.50
   5  -4   2   19.00    2.34
   4   2  -5   20.07    2.43
  -5  -4  -2   20.26    2.57
  -2   5   4   21.60    1.92
  -2   5   4   23.14    2.81
  -4   2   5   19.12    2.48
  -5   4   2   23.90    2.82
  -2  -5  -4   16.73    2.36
   5   4  -2   22.24    1.59
   2  -5   4   19.32    2.43
  -5   4   2   15.79    2.10
   2  -5   4   17.22    1.90
  -2   5  -4   20.24    2.75
   5  -4  -2   24.26    1.78
  -5  -4   2   21.55    2.63
   5  -4  -2   23.78    2.63
   2  -5  -4   20.44    2.63
  -2  -5   4   21.28    2.47
  -5   4  -2   21.51    1.59
  -5   4  -2   24.22    2.25
  -5   4  -2   26.87    3.04
   5   4   2   27.82    2.42
  -4   2  -5   28.00    2.90
  -5  -4   2   23.50    3.52
  -4  -2   5   20.96    3.19
   4   2   5   21.12    2.32
  -4   2  -5   22.09    2.54
  -2   5  -4   24.50    1.67
   2  -5  -4   24.78    2.73
  -4  -2   5   22.74    1.98
   4  -2  -5   22.67    2.64
   4  -2  -5   27.63    3.06
   4  -2  -5   23.19    1.40
   4   2   5   23.47    2.76
   5   4   2   24.56    2.71
   2   5   4   24.13    2.91
  -5   0  -3   41.48    3.14
  -5   0   3   41.44    4.08
  -3  -5   0   46.43    3.80
  -3   5   0   42.17    3.41
  -3   5   0   40.33    2.99
   0  -3  -5   40.92    3.68
   0  -3  -5   40.93    3.30
  -5   0  -3   45.89    3.41
   3   5   0   45.50    3.79
   3   5   0   41.24    3.38
   3   5   0   39.15    1.96
   5   0  -3   40.33    3.12
   5   0  -3   42.92    3.09
   5   0   3   40.00    2.32
   0  -3   5   40.02    2.67
   5   0   3   40.63    3.15
   0   3   5   45.45    3.51
   3  -5   0   41.56    2.96
   3  -5   0   43.14    2.97
   0   3  -5   41.20    2.59
   0   3  -5   38.59    2.95
   0   3   5   42.62    1.60
   0   3  -5   38.56    3.54
  -5  -1  -3    8.02    1.74
  -3   5   1   10.15    1.99
  -1  -3  -5    6.78    1.92
   3  -5   1    7.53    1.54
  -5   1   3    8.28    2.42
  -3  -5  -1    5.14    1.85
   5  -1   3    7.86    1.67
   3  -5   1    7.37    1.52
   1   3  -5    7.67    1.52
   3   5  -1   11.84    2.72
  -1  -3  -5   13.00    2.45
   5   1  -3    8.80    1.67
  -5  -1  -3    9.02    1.94
   5   1  -3    9.12    1.76
  -1   3   5    6.24    0.94
  -1   3   5    7.19    2.02
   5  -1   3    7.92    0.85
   1  -3   5    8.12    1.52
   1   3  -5    8.61    2.30
   1   3  -5    9.14    1.28
   3   5  -1    6.37    1.65
   1   3  -5    8.66    1.70
  -3   5   1    8.52    1.90
  -3  -5   1    8.13    1.99
  -1   3  -5    7.06    1.57
  -5   1  -3    9.21    1.80
  -5  -1   3    7.66    2.33
   1  -3  -5   12.17    2.56
   5   1   3   10.67    1.99
   5  -1  -3    7.20    1.70
  -3   5  -1    8.69    1.56
  -1   3  -5    6.68    0.99
   3  -5  -1    8.46    1.57
   3   5   1    5.59    1.62
   3   5   1    8.24    1.35
   1  -3  -5    8.19    1.77
  -5  -1   3    7.11    1.28
  -3   5  -1    8.50    1.94
  -5   1  -3   10.26    2.14
   5  -1  -3   10.45    1.99
   3   5   1    9.98    2.27
   1   3   5    8.14    2.01
   3  -5  -1    5.86    1.48
   5   1   3    8.87    1.28
  -1   3  -5   11.50    2.28
  -2   3   5  720.12   22.58
   3  -5   2  666.82   21.48
  -5   2   3  725.24   23.07
   5  -2   3  666.17   18.73
   5  -2   3  695.00   21.91
   3   5  -2  705.86   22.12
   3   5  -2  691.39   23.81
  -3  -5  -2  702.70   20.81
   2   3  -5  693.96   23.67
   2   3  -5  674.60   21.36
   2   3  -5  689.13   20.79
  -5  -2  -3  658.29   22.69
  -2  -3  -5  674.03   22.88
   5   2  -3  677.66   21.97
   3  -5   2  676.96   20.95
  -5  -2  -3  688.95   21.42
  -3  -5  -2  690.44   23.50
  -2   3   5  702.56   20.62
  -3   5   2  690.22   22.23
  -2  -3  -5  685.11   22.59
  -3   5   2  704.09   21.65
   5   2  -3  676.10   20.82
   2  -3   5  690.50   21.34
  -3  -5  -2  701.28   21.43
   5   2   3  695.42   21.26
   5  -2  -3  691.83   22.07
   5  -2  -3  702.30   21.90
  -3   5  -2  695.20   20.19
   3  -5  -2  672.76   21.15
   3   5   2  703.63   22.76
   2  -3  -5  678.87   23.04
   3  -5  -2  672.80   21.79
  -5  -2   3  690.53   21.01
   5   2   3  695.65   21.78
  -2   3  -5  703.56   19.48
  -2   3  -5  720.76   22.06
   2   3   5  728.96   22.41
  -3   5  -2  658.85   22.52
  -2  -3   5  690.16   21.32
  -2   3  -5  695.02   22.59
  -5  -2   3  649.65   24.10
   2  -3  -5  683.95   20.95
  -3  -5   2  656.73   22.05
  -5   2  -3  697.91   21.46
  -5   2  -3  700.04   22.63
  -3   5   3   14.75    1.93
   5  -3   3   15.89    2.08
   5   3  -3   21.02    2.37
  -3  -5  -3   18.48    2.11
   3   5  -3   17.16    3.76
   5   3  -3   17.21    1.70
  -5  -3  -3   17.62    2.12
   3  -5   3   18.36    2.23
  -3  -3  -5   18.79    3.31
  -5   3   3   17.96    2.50
   3  -3   5   14.00    1.88
   3   3  -5   16.53    3.37
  -5  -3  -3   18.35    3.35
  -3   5   3   16.90    2.31
  -3  -3  -5   15.43    1.10
  -3  -3  -5   18.67    2.44
   3  -5   3   16.08    1.89
  -3   3   5   14.12    1.89
  -3   3   5   18.76    2.39
  -3  -5  -3   11.58    2.67
   3   3  -5   12.12    1.91
   3   3  -5   19.10    2.09
  -3  -5  -3   17.95    1.71
   3   5  -3   21.77    2.44
  -3   5  -3   17.52    2.49
   3   3   5   16.12    2.27
  -3   3  -5   13.70    2.54
   3  -3  -5   17.58    2.62
   3  -3  -5   16.19    1.63
  -3  -3   5   19.23    2.03
  -3   5  -3   15.95    1.29
   5   3   3   19.52    2.28
   5  -3  -3   21.91    2.52
   3  -5  -3   22.95    2.62
   3  -5  -3   17.93    2.17
  -3   3  -5   14.89    2.10
   3   5   3   17.38    2.51
   5  -3  -3   22.68    2.48
  -5  -3   3   16.37    3.43
   5   3   3   20.71    2.31
  -5   3  -3   16.31    2.40
  -5   3  -3   18.22    2.07
  -3  -5   3   17.05    2.26
  -5  -3   3   24.39    2.38
   5  -4   3  281.52   11.02
  -4   3   5  296.48   11.19
  -5  -4  -3  299.50   10.64
  -3  -5  -4  295.79   12.76
   5   4  -3  292.42   11.56
   5   4  -3  294.81    9.64
   4   3  -5  295.52   11.42
  -3   5   4  284.36   10.36
  -3  -5  -4  295.28   11.20
  -5   4   3  293.33   11.44
   4   3  -5  276.80   10.86
   3  -5   4  312.54   10.74
   3   5  -4  308.80   13.59
   3   5  -4  329.14   11.55
  -5   4   3  280.89   11.42
  -4  -3  -5  288.76   12.62
  -5  -4  -3  278.75   12.68
  -3   5   4  304.43   12.15
   4  -3   5  293.77   11.17
   4   3  -5  288.26   13.65
  -4  -3  -5  266.50    9.31
   4  -3  -5  263.05    9.25
  -3   5  -4  284.77   11.10
   4  -3  -5  280.80   11.56
   5  -4  -3  274.42   11.53
  -4   3  -5  280.20   11.20
  -5  -4   3  280.76   13.49
   3  -5  -4  273.52   10.65
  -5   4  -3  280.69   12.13
  -5   4  -3  281.84   10.71
  -3   5  -4  301.15   12.48
   5   4   3  268.19   11.31
   5   4   3  280.81   10.78
   3   5   4  272.89   11.78
   3  -5  -4  277.98   11.89
  -4   3  -5  293.77   11.94
   4   3   5  277.35   11.65
  -3  -5   4  276.83   11.06
  -5  -4   3  286.96   11.09
   4   3   5  275.26   11.14
  -4  -3   5  284.63   10.34
   4  -3  -5  282.92   12.09
   0   4  -5   50.93    4.35
  -4   5   0   45.43    3.83
  -4   5   0   54.07    3.52
   4  -5   0   55.91    3.74
   4   5   0   49.23    3.86
   0  -4   5   53.17    2.98
   0   4  -5   57.62    3.19
   0   4  -5   47.48    3.50
   5   0   4   52.92    2.72
   5   0   4   55.12    3.94
   0   4   5   55.33    4.23
  -5   0  -4   48.39    3.58
  -5   0  -4   51.50    3.84
  -5   0   4   55.42    4.67
  -4  -5   0   47.14    4.15
   4  -5   0   53.95    3.36
   4   5   0   60.15    4.74
   0  -4  -5   51.22    4.17
   0  -4  -5   51.83    4.02
   5   0  -4   57.37    3.90
   5   0  -4   51.89    3.73
   4   5   0   55.32    2.55
  -1  -4  -5  148.42    7.69
   5   1  -4  149.76    7.20
   5   1  -4  151.49    6.93
   5  -1   4  142.00    7.07
   4   5  -1  145.38    4.74
  -5  -1  -4  154.08    7.57
  -1   4   5  156.32    5.28
  -1   4   5  148.29    7.57
  -4   5   1  148.72    7.31
  -4   5   1  140.56    6.84
  -5   1   4  152.63    8.09
  -4  -5  -1  156.14    7.61
  -4  -5  -1  156.85    8.33
   4   5  -1  139.08    7.14
   5  -1   4  149.52    4.92
  -5  -1  -4  146.82    6.69
   1   4  -5  142.76    8.08
   1   4  -5  148.68    6.46
   4   5  -1  151.74    8.62
  -1  -4  -5  146.92    7.72
   1  -4   5  158.28    6.35
   4  -5   1  151.20    6.79
   4  -5   1  144.58    6.50
  -1  -4   5  153.37    5.76
  -1   4  -5  156.99    7.14
  -4   5  -1  153.02    7.71
  -5  -1   4  159.68    5.68
  -5   1  -4  163.28    7.46
  -5   1  -4  159.98    7.21
  -1   4  -5  159.79    5.78
  -5  -1   4  157.02    8.71
   5  -1  -4  156.58    7.28
   5  -1  -4  162.76    7.38
   4  -5  -1  163.72    7.27
   4  -5  -1  159.04    6.40
  -1  -4   5  158.06    7.10
  -1   4  -5  158.06    7.92
   1   4   5  156.46    7.72
  -4  -5   1  163.61    7.84
   5   1   4  161.82    6.28
   4   5   1  147.70    7.40
   4   5   1  166.78    6.03
   1  -4  -5  158.92    8.04
   1  -4  -5  157.45    7.27
   5   1   4  163.31    7.47
  -4   5  -1  154.16    6.31
  -4   5   2  388.16   14.13
  -4   5   2  381.14   13.93
  -5  -2  -4  384.55   13.04
  -2   4   5  378.18   12.23
  -2   4   5  372.14   14.40
  -2  -4  -5  394.71   14.59
  -2  -4  -5  364.30   14.84
   5  -2   4  392.11   13.99
   5   2  -4  383.03   14.03
   5   2  -4  386.83   13.35
  -4  -5  -2  372.82   15.39
  -5   2   4  388.79   14.72
   4   5  -2  382.49   14.14
   4  -5   2  371.55   13.21
   4  -5   2  387.06   13.42
   4   5  -2  371.58   15.90
   2   4  -5  390.88   15.73
  -5  -2  -4  376.77   14.80
   2  -4   5  373.83   13.01
  -4  -5  -2  371.85   13.49
   2   4  -5  387.89   13.49
  -5  -2   4  372.13   15.88
   5   2   4  384.77   13.97
  -5  -2   4  398.45   12.63
   5   2   4  392.30   13.29
  -4  -5   2  386.58   14.18
   4  -5  -2  391.52   12.86
  -4   5  -2  389.73   14.79
  -5   2  -4  396.34   14.52
  -4   5  -2  393.87   12.00
   5  -2  -4  384.52   14.09
   5  -2  -4  383.26   14.16
  -2  -4   5  408.16   13.76
  -2   4  -5  393.41   14.88
  -2   4  -5  394.51   11.53
  -2   4  -5  392.51   13.88
   4   5   2  382.14   14.43
   4   5   2  382.98   12.84
   2  -4  -5  398.16   15.10
   2  -4  -5  387.87   13.39
  -5   2  -4  385.20   13.68
   4  -5  -2  388.50   14.07
   2   4   5  385.44   14.48
   4  -5   3   31.42    2.99
  -5  -3  -4   39.14    4.07
   5   3  -4   40.51    3.04
   4  -5   3   41.31    3.12
   3   4  -5   40.00    4.45
   4   5  -3   41.25    4.61
   4   5  -3   35.83    3.30
  -3   4   5   42.46    2.97
  -3   4   5   34.08    3.52
  -3  -4  -5   36.68    3.98
  -4  -5  -3   45.74    4.46
   5  -3   4   36.91    3.27
   5   3  -4   37.45    3.32
  -5  -3  -4   37.41    2.67
   3   4  -5   36.95    2.26
  -4   5   3   34.85    3.30
  -3  -4  -5   32.90    3.21
   3  -4   5   36.60    2.98
   3   4  -5   35.71    3.16
  -5   3   4   40.18    3.69
  -4  -5  -3   38.20    2.72
  -4   5   3   32.92    3.05
  -4  -5   3   29.46    3.01
  -4   5  -3   33.05    3.59
   5   3   4   29.81    3.03
   5  -3  -4   34.24    3.34
  -5  -3   4   33.66    4.24
  -5  -3   4   31.28    2.67
   5  -3  -4   34.26    3.31
  -3  -4   5   29.68    2.79
  -3   4  -5   34.54    3.63
  -3   4  -5   28.50    2.94
   4   5   3   31.98    3.38
   4   5   3   33.65    2.98
   3  -4  -5   28.43    3.24
   3  -4  -5   31.26    2.58
  -5   3  -4   24.57    3.12
  -5   3  -4   30.42    2.90
  -4   5  -3   31.61    2.83
   5   3   4   33.61    3.08
   3   4   5   35.03    3.42
   4  -5  -3   29.23    3.12
   4  -5  -3   32.52    2.71
  -5  -4  -4   15.48    1.78
  -5  -4  -4   13.71    3.26
   5   4  -4   15.85    2.83
   4   5  -4   13.16    3.51
   4   5  -4   13.73    2.14
   4   4  -5    9.70    2.93
  -5   4   4   14.54    2.80
  -5   4   4   14.70    2.70
  -4  -5  -4   17.34    3.38
   5   4  -4   15.17    3.92
  -4  -4  -5   13.63    3.10
   4   4  -5   14.81    2.26
   4  -4   5   11.74    2.16
   4  -5   4   14.85    2.06
  -4   4   5   15.45    2.15
  -4   4   5   18.02    3.15
   5  -4   4   16.09    2.69
  -4   5   4   13.69    2.78
  -4   5   4   13.56    2.01
  -4   5  -4   14.42    2.14
   4  -5  -4   12.64    2.66
  -4   4  -5   16.42    2.31
  -4   5  -4   17.42    3.30
  -4   4  -5   13.85    3.06
  -5   4  -4   15.06    2.70
  -4  -4   5   14.60    2.05
   4   4   5   15.91    2.47
   4   4   5   12.06    2.51
  -5  -4   4   14.63    2.08
  -5   4  -4   18.19    3.38
   4   5   4   14.12    2.82
   4   5   4   15.09    2.28
   5  -4  -4   16.16    3.19
   4  -4  -5   15.53    3.27
  -4  -5   4   15.59    2.68
  -5  -4   4   13.79    3.48
   5   4   4   11.24    2.41
   5   4   4   14.19    2.57
  -5  -5   0   42.11    4.19
  -5  -5   0   36.82    3.91
  -5   0  -5   45.36    3.45
  -5   0  -5   40.27    3.59
  -5   0   5   44.61    4.28
  -5   5   0   39.06    3.71
  -5   5   0   45.17    3.26
   0  -5  -5   36.49    3.64
   0  -5  -5   38.34    3.67
   0  -5   5   39.88    2.49
   0  -5   5   38.30    3.37
   0   5  -5   37.98    3.95
   0   5  -5   42.25    2.84
   0   5   5   43.97    3.96
   5  -5   0   41.80    3.43
   5  -5   0   38.45    2.81
   5   0  -5   38.68    3.42
   5   0  -5   40.00    3.63
   5   0   5   39.54    2.40
   5   0   5   38.67    3.57
   5   5   0   38.80    3.59
   5   5   0   41.04    2.40
  -5  -5  -1  477.55   16.98
  -5  -5  -1  468.68   17.86
   5  -1   5  459.60   16.34
   5   1  -5  459.41   16.27
  -5  -1  -5  475.67   15.33
  -5  -1  -5  461.49   16.77
   5  -5   1  462.41   15.89
   5   5  -1  454.95   16.53
   1   5  -5  455.94   15.16
  -1  -5  -5  451.71   16.67
  -5   1   5  459.74   17.24
   1  -5   5  455.24   16.28
   5   1  -5  461.55   16.34
  -5   5   1  451.15   16.63
  -5   5   1  463.29   15.83
  -1   5   5  436.08   16.83
  -1  -5  -5  437.51   16.91
   1   5  -5  467.78   17.96
   5  -5   1  453.00   15.03
   1  -5   5  457.97   14.61
  -1  -5   5  473.53   13.83
  -1   5  -5  433.92   17.10
   1  -5  -5  457.43   17.06
   1  -5  -5  451.67   16.27
  -5   1  -5  434.40   16.06
  -5   5  -1  453.86   16.95
  -1   5  -5  463.00   14.34
  -5   1  -5  468.37   16.24
   1   5   5  452.07   16.95
   5  -5  -1  455.78   16.16
   5  -5  -1  463.68   14.69
  -5  -1   5  468.22   18.20
  -1  -5   5  451.10   16.05
   5  -1  -5  448.71   16.28
   5  -1  -5  434.87   16.46
  -5  -5   1  451.59   17.98
  -5  -5   1  477.42   17.18
  -5   5  -1  452.32   14.72
   5   1   5  459.03   14.80
   5   1   5  437.61   16.31
  -5  -1   5  442.93   13.89
   5   5   1  465.23   16.67
   5   5   1  513.60   14.74
  -5  -5  -2   25.52    2.77
  -5  -5  -2   24.19    3.51
   5   2  -5   24.30    2.72
  -2  -5  -5   23.17    2.96
  -5  -2  -5   26.63    2.33
  -5  -2  -5   19.29    2.83
   2   5  -5   21.92    2.39
  -2  -5  -5   28.41    3.49
   5  -2   5   23.65    2.76
   5   2  -5   19.95    2.62
  -5   2   5   23.76    3.01
   5  -5   2   19.26    2.31
  -5   5   2   21.24    2.80
  -5   5   2   24.55    2.75
  -2   5   5   23.09    3.04
   2  -5   5   19.57    2.11
   2   5  -5   18.37    3.56
   5   5  -2   22.26    2.79
   5  -5   2   22.50    2.51
  -2   5   5   19.46    1.86
  -5  -5   2   28.75    3.19
  -2   5  -5   25.76    3.31
   2  -5  -5   23.99    2.71
  -5  -2   5   23.70    2.07
  -2  -5   5   24.62    2.73
  -5  -2   5   22.53    3.41
   2   5   5   26.59    3.19
   2  -5  -5   27.67    3.37
   5  -5  -2   26.76    2.22
  -2   5  -5   26.94    2.78
  -5   5  -2   25.60    3.25
   5  -2  -5   21.42    2.75
   5  -2  -5   26.87    3.16
  -5   2  -5   27.26    3.05
  -5   2  -5   25.23    2.79
  -5  -5   2   23.72    3.67
   5   2   5   24.79    2.51
   5   2   5   28.19    3.11
   5  -5  -2   26.96    2.97
   5   5   2   24.60    2.94
   5   5   2   23.67    2.34
  -5  -5  -3   46.10    3.40
  -5  -5  -3   48.66    4.86
   5   5  -3   55.29    5.57
  -5  -3  -5   49.24    4.62
   3   5  -5   42.56    4.80
   5  -3   5   42.40    3.70
   5   3  -5   43.48    3.79
   5   3  -5   46.68    3.74
  -5   3   5   48.19    4.04
   5   5  -3   42.62    3.83
   3   5  -5   46.35    3.69
  -5   5   3   44.01    3.85
  -5   5   3   44.65    3.92
  -3  -5  -5   43.83    3.83
  -3  -5  -5   45.83    4.49
  -3   5   5   47.20    4.30
   5  -5   3   44.76    3.64
   3  -5   5   51.99    3.56
  -3   5   5   42.81    3.09
  -5   5  -3   42.02    4.19
   3  -5  -5   40.39    4.04
   3  -5  -5   41.97    3.28
  -3  -5   5   47.23    3.75
  -5  -3   5   46.26    5.10
  -5   5  -3   43.15    3.43
   3   5   5   41.46    3.95
   5  -5  -3   49.52    4.14
  -3   5  -5   39.34    4.17
   5  -3  -5   44.11    3.93
   5  -3  -5   36.98    3.89
  -5  -3   5   42.86    3.15
  -5   3  -5   45.36    4.20
  -5   3  -5   43.56    3.69
   5   3   5   39.41    3.51
   5   3   5   42.32    3.89
  -5  -5   3   38.80    3.65
  -3   5  -5   46.57    3.79
   5   5   3   45.35    4.01
   5   5   3   40.46    3.31
  -5  -5  -4   85.86    6.59
   4   5  -5   89.40    7.35
  -5  -4  -5   85.82    6.62
   5   4  -5   95.79    7.73
   5   4  -5   86.24    5.62
   4  -5   5   95.08    5.38
  -5   4   5   90.34    5.56
  -5   4   5   87.37    5.81
   5   5  -4   77.36    5.43
  -4   5   5   90.53    6.05
  -5   5   4   97.96    5.72
  -5   5   4   89.14    5.92
  -4  -5  -5   88.56    6.60
   5   5  -4   93.53    7.59
   5  -5   4   91.24    5.42
   4   5  -5   80.97    5.39
  -4   5   5   91.90    5.14
   5  -4   5   91.69    5.53
   4  -5  -5   80.21    6.02
  -5   5  -4   80.80    5.17
  -5  -5   4   82.73    5.30
  -4   5  -5   77.13    5.20
   4   5   5   85.77    5.93
   4   5   5   80.19    5.56
   5  -5  -4   83.14    5.94
  -4   5  -5   84.63    6.26
   5  -4  -5   84.48    6.07
  -5   4  -5   85.45    5.38
  -5  -4   5   80.98    4.89
  -5   4  -5   83.88    6.08
   5   4   5   85.24    5.64
   5   4   5   88.59    5.74
  -4  -5   5   89.95    5.35
  -5   5  -4   77.93    5.94
   5   5   4   76.59    5.56
   5   5   4   85.68    5.35
  -5  -5  -5  633.92   24.36
   5   5  -5  655.46   22.73
   5   5  -5  654.43   26.16
   5  -5   5  672.32   22.14
  -5   5   5  682.89   22.04
  -5   5   5  647.08   23.20
   5  -5  -5  670.94   23.69
  -5   5  -5  651.97   22.23
  -5   5  -5  642.16   23.70
  -5  -5   5  654.00   21.87
   5   5   5  670.80   23.19
   5   5   5  668.18   22.59
  -6   0   0  273.48   11.81
  -6   0   0  256.87    9.01
   0  -6   0  279.50    9.44
   0  -6   0  275.55   10.92
   0   0  -6  276.14   10.27
   0   0  -6  276.93   10.05
   0   0  -6  277.20   11.37
   0   0  -6  278.42   10.23
   0   6   0  280.89   10.60
   0   6   0  277.15   10.79
   6   0   0  281.76    9.96
   6   0   0  280.75   10.27
   1   0   6   75.07    4.13
   6  -1   0   72.50    3.91
   6  -1   0   76.87    4.39
   6   1   0   79.81    4.30
   6   1   0   76.81    4.23
   0   6   1   77.83    4.29
   0   6   1   73.37    4.79
   1   0  -6   78.42    4.68
   1   0  -6   77.59    4.38
   1   0  -6   73.41    5.13
   1   0  -6   81.96    4.21
  -6  -1   0   68.50    5.26
  -6  -1   0   75.59    4.05
  -6   1   0   76.46    5.36
  -6   1   0   81.25    3.46
  -1   0  -6   70.21    4.07
  -1   0  -6   73.97    4.84
  -1   0  -6   68.80    4.39
   0  -6  -1   75.40    4.10
   0  -6  -1   69.69    4.75
   0  -6   1   81.70    3.46
   0  -6   1   74.12    4.69
   0   6  -1   77.64    4.80
   0   6  -1   77.88    4.54
   0   6   2  135.37    6.82
   2   0  -6  115.92    6.39
   2   0  -6  118.01    5.91
   2   0  -6  114.64    6.76
   2   0  -6  118.71    5.17
   2   0   6  109.60    5.20
   6  -2   0  117.98    5.19
   6  -2   0  117.96    5.92
   6   2   0  117.04    5.78
   6   2   0  122.29    5.43
   0   6  -2  116.55    6.55
   0   6  -2  118.09    5.64
   0   6   2  115.09    5.21
  -6   2   0  116.72    4.58
  -2   0  -6  114.86    5.32
  -2   0  -6  111.71    6.16
  -2   0  -6  120.94    6.21
   0  -6  -2  116.85    5.81
   0  -6  -2  113.32    6.44
   0  -6   2  118.37    4.38
   0  -6   2  117.27    6.13
  -6  -2   0  116.03    6.06
  -6   2   0  101.80    6.44
  -6  -2   0  110.34    6.98
   6   3   0   95.48    5.35
   6  -3   0   96.29    4.61
   6  -3   0   97.21    5.44
   0  -6  -3  101.35    5.61
  -6  -3   0   99.90    6.62
   0  -6   3   95.18    3.76
  -6  -3   0  104.11    6.24
  -6   3   0   84.51    5.82
  -3   0  -6   92.99    4.85
   3   0   6   90.09    4.51
   3   0   6   93.25    5.69
  -6   3   0   99.79    4.16
   0  -6  -3  104.17    6.27
   0   6  -3   93.27    6.07
   3   0  -6   89.52    5.31
   3   0  -6   97.57    6.18
   3   0  -6   94.31    4.31
   0  -6   3  102.86    5.74
   0   6   3   87.87    5.80
   6   3   0  102.30    4.72
  -3   0  -6   99.59    5.73
  -3   0   6   96.15    5.91
   0   6  -3  101.08    4.99
   0   6   3   92.90    4.23
  -4   0   6   57.12    4.72
  -6   4   0   55.04    4.58
  -6   4   0   54.34    3.47
  -4   0  -6   54.97    3.69
   4   0   6   53.51    3.12
   4   0   6   49.90    4.14
   6  -4   0   59.31    4.24
  -4   0  -6   50.26    4.15
  -6  -4   0   53.89    4.76
   4   0  -6   51.50    3.97
   0  -6  -4   52.31    4.24
   0  -6  -4   63.98    4.88
   0  -6   4   50.82    2.62
  -6  -4   0   46.45    4.58
   6   4   0   51.94    4.11
   4   0  -6   51.92    4.45
   4   0  -6   51.57    2.77
   0   6  -4   53.88    4.74
   0   6  -4   52.31    3.40
   6  -4   0   53.17    3.05
   0  -6   4   56.85    4.19
   0   6   4   59.88    4.74
   6   4   0   49.35    3.08
   5   0  -6    0.58    1.02
  -5   0  -6    2.77    1.37
   6  -5   0    0.67    0.93
   6  -5   0    4.33    1.28
   0   6  -5    4.59    1.35
   5   0  -6    2.73    1.58
  -5   0  -6    2.96    1.60
   6   5   0    3.37    1.02
  -6   5   0    0.86    1.22
   0  -6  -5    2.69    1.67
   0   6   5    4.73    1.95
   0   6  -5    0.70    1.21
   5   0   6    3.97    1.78
  -5   0   6    3.64    1.82
   0  -6  -5    2.14    1.56
  -6   5   0    2.46    1.14
   0  -6   5    2.25    1.34
   6   5   0    1.96    1.36
  -6  -5   0    1.23    1.62
  -6  -5   0    3.04    1.91
   1  -6   0  157.46    7.08
   1  -6   0  146.84    5.94
  -1   6   0  145.02    6.80
  -6   0  -1  146.38    7.66
   6   0   1  151.14    6.04
   6   0   1  143.93    6.55
  -1   6   0  148.68    6.91
  -6   0   1  138.08    7.92
   0  -1  -6  146.77    6.11
   0  -1  -6  148.03    7.72
   0   1  -6  148.69    6.54
   0   1   6  134.97    6.49
   1   6   0  139.08    6.98
   6   0  -1  142.74    6.40
   0   1  -6  141.50    6.95
  -6   0  -1  143.72    5.94
   0  -1  -6  139.25    6.50
  -1  -6   0  147.44    5.55
  -1  -6   0  135.52    7.02
   0   1  -6  145.19    7.01
   6   0  -1  142.25    6.43
   1   6   0  152.53    7.02
  -6   0   1  148.38    5.13
   0   1  -6  149.29    6.20
   1   6  -1  193.92    8.40
  -6  -1  -1  192.22    7.90
  -1  -1  -6  195.99    7.29
  -1  -1  -6  188.15    8.99
  -6  -1  -1  190.67    9.14
   6   1  -1  178.25    7.58
   1  -6   1  197.88    7.19
   1   1  -6  198.04    8.82
   6  -1   1  197.03    7.22
  -1  -1  -6  204.50    8.52
   1   1  -6  198.75    8.94
   1   1  -6  191.98    7.74
  -6   1   1  199.06    6.21
   1   1  -6  198.66    7.91
  -1  -6  -1  200.88    7.55
  -1  -6  -1  197.27    9.02
  -1   6   1  197.13    8.07
  -1   6   1  190.43    8.62
   1   6  -1  190.85    8.75
  -6   1   1  193.57    9.46
   6  -1   1  198.15    8.23
   1  -6   1  195.93    8.35
   6   1  -1  200.07    8.20
   1  -1   6  205.19    7.54
   1  -6  -1  194.78    7.82
   6   1   1  196.15    7.72
   6  -1  -1  205.20    8.30
   1   1   6  199.19    8.14
  -1   1  -6  189.95    8.15
  -1   6  -1  196.90    8.04
  -1  -6   1  200.16    6.43
  -1  -6   1  194.51    8.63
   1   6   1  201.99    8.12
   1   6   1  201.25    8.93
  -1   6  -1  202.17    8.81
   6   1   1  187.26    7.90
   1  -1  -6  202.68    8.33
  -1   1  -6  196.67    8.48
   1  -1  -6  185.74    9.18
   1  -1  -6  189.93    7.73
  -6  -1   1  187.88    9.79
  -6  -1   1  198.60    7.35
  -6   1  -1  200.22    9.27
  -6   1  -1  204.39    7.34
   1  -6  -1  201.00    8.55
  -1   1  -6  196.66    8.23
   6  -1  -1  203.14    7.92
  -6  -2  -1   62.57    4.30
  -2  -1  -6   54.17    4.05
   2  -1   6   51.06    3.02
  -6   2   1   48.95    4.30
   1  -6   2   50.42    2.86
   1  -6   2   48.24    3.75
   6  -2   1   54.72    2.97
   6   2  -1   50.57    3.19
  -2  -1  -6   51.52    2.99
   2   1  -6   55.68    4.46
  -2   1   6   55.05    3.79
  -1  -6  -2   55.33    3.59
  -1  -6  -2   58.28    4.54
  -6  -2  -1   53.38    4.44
   2  -1   6   58.14    4.12
   1   6  -2   54.57    3.74
   6  -2   1   54.96    3.85
   6   2  -1   48.80    3.64
  -6   2   1   52.26    2.30
  -1   6   2   53.77    3.41
  -2  -1  -6   48.94    3.99
   2   1  -6   53.64    4.26
   2   1  -6   55.53    3.32
   1   6  -2   51.30    4.25
   2   1  -6   51.30    3.59
  -1   6   2   59.00    4.36
   6  -2  -1   53.91    3.84
   2   1   6   56.54    3.65
  -6   2  -1   55.47    3.08
   2  -1  -6   54.92    3.93
  -2   1  -6   57.54    3.75
  -2   1  -6   58.46    4.02
  -6  -2   1   58.46    5.16
   6   2   1   61.39    3.77
   6  -2  -1   54.71    3.46
  -1  -6   2   49.75    3.86
  -1   6  -2   62.08    4.52
   1   6   2   53.26    3.37
   1   6   2   57.66    4.35
   6   2   1   61.45    3.70
   1  -6  -2   53.09    3.76
  -6  -2   1   55.23    3.91
  -6   2  -1   58.28    4.57
  -1   6  -2   53.88    3.47
   2  -1  -6   49.05    4.34
  -1  -6   2   51.87    2.07
   2  -1  -6   59.29    3.30
   1  -6  -2   54.60    4.09
   3  -1   6   66.00    4.40
  -6  -3  -1   60.89    4.80
   6  -3   1   60.77    3.15
   6   3  -1   63.25    3.38
   3   1  -6   63.85    3.39
   3  -1   6   64.15    3.14
  -3   1   6   67.80    4.49
  -1  -6  -3   63.84    4.15
  -6  -3  -1   70.50    5.16
   1  -6   3   67.78    3.18
   1  -6   3   66.13    4.34
   6  -3   1   62.60    4.12
   3   1  -6   75.37    5.44
   3   1  -6   70.89    4.35
  -3  -1  -6   71.81    4.76
  -1  -6  -3   66.29    5.02
  -3  -1  -6   62.08    3.36
   1   6  -3   58.18    4.81
  -6   3   1   73.74    5.08
  -1   6   3   67.92    3.51
  -1   6   3   76.10    5.10
   6   3  -1   64.38    4.29
   3   1  -6   64.64    4.84
   1   6  -3   64.41    4.01
  -1  -6   3   50.04    4.00
   1  -6  -3   53.48    4.12
  -6   3  -1   48.30    3.08
   1   6   3   49.15    3.00
   6  -3  -1   48.57    3.86
   6  -3  -1   48.83    2.52
   6   3   1   51.76    3.42
   3  -1  -6   44.21    4.23
  -3   1  -6   47.07    3.65
   1  -6  -3   47.60    4.14
  -1   6  -3   47.00    4.19
   6   3   1   47.98    3.76
  -6   3  -1   50.48    4.41
  -1   6  -3   48.03    3.20
   3  -1  -6   50.69    3.96
   1   6   3   52.72    4.39
   3   1   6   51.19    3.53
  -3   1  -6   49.89    3.90
   6  -3  -1   49.03    3.42
   3   1   6   50.55    4.23
  -6  -3   1   50.41    4.85
  -6  -3   1   49.03    4.23
   3  -1  -6   52.70    2.98
   1   6  -4  109.43    7.11
  -6   4   1   94.79    6.34
   4   1  -6  105.02    6.46
  -1  -6  -4  109.10    6.86
  -6  -4  -1   97.69    6.72
  -1  -6  -4   94.18    5.78
   4   1  -6  103.58    5.87
  -1   6   4   96.82    4.50
   6  -4   1   99.25    5.76
   6   4  -1  104.33    6.02
  -4  -1  -6  104.62    5.02
   1  -6   4  100.58    4.56
   1  -6   4   98.27    5.88
  -1   6   4   98.27    6.36
  -4  -1  -6   97.40    6.20
   6   4  -1  105.39    4.61
   4  -1   6  105.68    6.12
  -6  -4  -1  107.46    6.74
  -6   4   1  106.97    5.54
   1   6  -4   99.44    5.35
  -4   1   6  105.18    6.30
   4  -1  -6  110.47    6.24
   1   6   4  110.18    6.74
  -1   6  -4  113.80    6.94
   6   4   1  106.13    6.04
  -1  -6   4  118.89    6.37
  -6   4  -1  109.16    6.77
  -6  -4   1  111.02    6.71
   1  -6  -4  105.62    6.36
   4  -1  -6  110.98    4.43
  -1   6  -4  106.34    4.89
   4   1   6  110.86    5.31
   4   1   6  107.05    6.39
   6  -4  -1  122.34    6.38
   6  -4  -1  108.94    4.47
  -6   4  -1  114.29    5.00
  -6   4  -1  115.53    5.10
  -4  -1   6  118.77    7.28
  -4  -1   6  112.05    4.79
  -4   1  -6  112.47    5.92
  -4   1  -6  114.68    6.32
   4  -1  -6  106.50    6.68
  -6  -4   1  115.27    7.62
   1  -6  -4  107.31    6.40
   6   4   1  105.77    5.14
   1   6  -5   44.36    3.43
   5  -1   6   42.56    3.91
  -5   1   6   44.68    4.37
  -6   5   1   53.08    4.65
  -6   5   1   48.28    3.73
  -5  -1  -6   48.20    3.45
  -1  -6  -5   47.40    4.19
  -1  -6  -5   45.88    4.43
   6  -5   1   48.20    3.93
   1  -6   5   45.97    3.99
   1   6  -5   45.89    4.78
   1  -6   5   45.93    2.96
  -6  -5  -1   47.48    4.45
  -6  -5  -1   42.78    4.65
  -5  -1  -6   41.37    4.14
   6  -5   1   43.93    3.25
  -1   6   5   37.82    4.11
   5   1  -6   46.82    4.27
   6   5  -1   47.29    4.18
   5   1  -6   44.69    3.85
  -6  -5   1   50.61    5.15
  -1   6  -5   48.84    4.79
   1   6   5   45.55    4.39
  -5   1  -6   49.19    4.11
   5   1   6   56.18    3.53
   1  -6  -5   51.21    4.52
   1  -6  -5   43.46    4.04
  -5   1  -6   49.79    3.97
  -5  -1   6   55.17    5.20
  -1   6  -5   59.43    3.30
  -6   5  -1   60.67    4.94
   6  -5  -1   47.31    4.07
   6  -5  -1   50.86    3.06
  -1  -6   5   47.56    3.97
  -6  -5   1   51.16    4.70
   5  -1  -6   50.01    4.50
   6   5   1   48.19    4.18
   5  -1  -6   51.68    4.26
   5   1   6   46.37    4.23
   6   5   1   47.60    3.18
   6   0  -2   74.20    4.46
   0  -2  -6   73.74    5.23
  -2  -6   0   75.53    3.10
   0  -2  -6   72.77    4.45
   0   2  -6   68.09    4.78
   0   2  -6   73.56    3.83
   0   2  -6   74.84    4.40
   0   2  -6   70.41    4.29
   0   2   6   70.49    3.37
  -6   0  -2   68.99    4.05
  -2  -6   0   74.99    5.01
  -2   6   0   75.25    4.66
  -2   6   0   66.42    4.33
  -6   0  -2   70.67    4.86
   2   6   0   76.54    4.88
  -6   0   2   70.85    2.60
   6   0  -2   75.37    4.33
   6   0   2   71.34    3.60
   0   2   6   74.72    4.64
   2  -6   0   75.63    4.11
   2  -6   0   68.56    4.35
   6   0   2   72.14    4.43
  -6   0   2   74.51    5.72
   2   6   0   70.67    4.77
   2   6  -1  372.64   13.90
  -6  -1  -2  385.78   13.74
   1  -2   6  366.49   13.53
  -1  -2  -6  369.05   14.76
   2  -6   1  377.33   13.67
  -6  -1  -2  373.93   14.28
   6  -1   2  379.55   12.04
   6  -1   2  369.28   13.65
  -1  -2  -6  376.86   14.06
   6   1  -2  363.09   13.05
   2   6  -1  377.88   14.74
  -6   1   2  350.78   15.05
  -2   6   1  377.03   13.55
   6   1  -2  380.70   13.70
   1   2  -6  375.77   13.66
   1   2  -6  381.71   13.07
  -2   6   1  372.81   13.98
   2  -6   1  382.85   12.79
   1   2  -6  370.82   13.16
   1   2  -6  374.19   14.64
  -1   2   6  374.60   12.50
  -2  -6  -1  375.32   12.32
  -2  -6  -1  379.13   14.81
  -1  -2  -6  378.96   11.72
  -1   2   6  385.55   14.03
   2   6   1  398.26   14.65
   2  -6  -1  401.52   13.39
   2  -6  -1  416.17   13.95
  -2  -6   1  405.67   14.51
  -1   2  -6  399.94   14.27
   6   1   2  379.59   13.55
  -2   6  -1  404.28   13.40
  -6   1  -2  409.20   13.14
  -1   2  -6  412.43   12.49
   6  -1  -2  399.25   13.58
   6  -1  -2  400.99   13.78
   1  -2  -6  393.62   15.11
   1  -2  -6  408.87   13.37
  -2   6  -1  418.37   14.63
  -6  -1   2  406.08   12.36
  -6   1  -2  399.32   14.77
  -6  -1   2  408.17   16.23
   1   2   6  403.63   14.02
   2   6   1  392.49   13.82
  -1   2  -6  409.39   13.86
   6   1   2  389.58   12.86
  -6  -2  -2   61.69    4.44
   2   2  -6   58.88    4.82
  -2  -2  -6   58.60    2.69
  -2  -2  -6   53.54    4.35
   2  -2   6   55.78    3.92
  -2  -6  -2   54.09    3.46
  -2  -6  -2   56.33    4.71
  -2   2   6   53.36    3.47
  -2   2   6   54.61    4.11
  -6  -2  -2   61.28    4.51
   2  -2   6   53.86    2.87
  -2   6   2   57.88    3.72
  -2   6   2   56.87    4.27
   6  -2   2   60.74    4.08
   2   6  -2   59.14    4.87
   2  -6   2   49.76    3.15
   2   2  -6   54.18    3.65
  -6   2   2   56.88    4.70
  -2  -2  -6   58.50    4.43
   2   2  -6   54.93    4.10
   2   2  -6   60.23    3.60
   2  -6   2   57.79    4.04
   6   2  -2   60.56    4.13
   2   6  -2   54.84    3.97
   6   2  -2   58.55    3.50
   6  -2   2   57.91    2.76
   6  -2  -2   64.56    4.30
  -2   6  -2   54.23    4.34
   2   6   2   57.56    3.68
  -2  -6   2   53.31    4.11
   6   2   2   59.33    3.78
   2   6   2   60.18    4.59
   2  -6  -2   53.34    3.89
  -2   2  -6   56.38    4.00
  -6  -2   2   54.19    5.09
  -2   6  -2   54.99    3.38
   6   2   2   62.44    3.95
   6  -2  -2   60.52    3.89
  -2   2  -6   59.23    4.21
   2  -6  -2   56.79    4.07
   2   2   6   63.61    4.15
  -6   2  -2   60.94    3.55
   2  -2  -6   58.75    3.44
  -6  -2   2   55.77    3.89
   2  -2  -6   65.32    5.03
  -6   2  -2   61.75    4.72
  -2  -6  -3  657.45   23.11
  -2  -6  -3  630.59   20.88
   6  -3   2  638.74   21.34
   6   3  -2  628.88   19.75
  -2   6   3  646.77   22.21
   2   6  -3  641.05   23.28
   2   6  -3  639.28   21.23
  -3  -2  -6  652.24   22.46
   6   3  -2  629.04   21.48
  -6  -3  -2  630.94   21.76
  -6  -3  -2  627.62   22.63
  -3   2   6  650.50   21.05
   3  -2   6  619.54   21.18
   3   2  -6  653.79   23.53
   3   2  -6  641.13   21.18
   3   2  -6  618.77   21.59
  -3  -2  -6  649.10   19.07
  -3  -2  -6  603.88   21.77
  -6   3   2  631.61   22.43
   2  -6   3  649.83   19.86
   2  -6   3  625.85   21.27
  -2   6   3  651.86   20.31
  -6   3  -2  670.00   22.73
   2  -6  -3  667.80   21.95
   2  -6  -3  670.81   21.76
  -2   6  -3  654.16   22.59
  -2   6  -3  679.61   19.81
  -6   3  -2  647.61   19.01
  -6   3  -2  693.03   20.52
  -2  -6   3  692.25   21.94
   3   2   6  697.69   21.38
   3  -2  -6  685.50   21.97
   2   6   3  673.32   19.92
  -3  -2   6  681.76   20.46
  -3   2  -6  690.26   21.90
  -3   2  -6  634.44   21.44
   3  -2  -6  693.04   19.70
  -6  -3   2  678.02   21.91
   6  -3  -2  693.33   21.24
   6  -3  -2  663.03   21.73
   6   3   2  676.74   21.36
   2   6   3  661.53   22.48
  -6  -3   2  670.37   24.29
   3  -2  -6  658.30   22.85
   6   3   2  680.88   20.89
   4   2  -6   52.31    4.10
   6  -4   2   59.50    4.29
   2  -6   4   58.39    3.47
  -2  -6  -4   53.80    4.15
  -6  -4  -2   58.16    4.53
  -6  -4  -2   52.37    4.90
  -2   6   4   52.34    3.25
  -6   4   2   55.57    4.64
  -6   4   2   52.21    4.01
  -4  -2  -6   53.15    4.72
   2   6  -4   55.55    4.03
   6   4  -2   52.49    4.24
   6   4  -2   54.95    3.10
  -2   6   4   56.65    4.66
   4  -2   6   54.58    4.24
   4   2  -6   60.58    5.45
  -2  -6  -4   56.50    5.06
   4   2  -6   57.12    4.60
   2  -6   4   48.43    4.05
   2   6  -4   52.59    5.13
  -4   2   6   54.65    4.26
   6   4   2   55.64    4.27
   4   2   6   59.75    4.04
  -6   4  -2   56.39    4.79
  -6  -4   2   67.25    5.97
  -4  -2   6   72.49    5.75
  -4  -2   6   62.18    3.57
  -4   2  -6   55.41    4.34
   4  -2  -6   65.38    4.73
  -2   6  -4   57.91    4.88
  -2   6  -4   58.47    3.12
  -6   4  -2   58.40    3.69
  -4   2  -6   61.93    4.50
   2  -6  -4   65.64    4.91
   4  -2  -6   57.31    4.89
   6   4   2   59.73    3.86
  -6  -4   2   64.71    4.81
   4   2   6   64.12    4.92
   2  -6  -4   63.02    4.55
  -2  -6   4   60.70    4.47
   2   6   4   54.15    4.69
   6  -4  -2   58.93    4.40
   5   2  -6   25.21    3.23
   2  -6   5   24.02    2.35
   5   2  -6   22.39    2.87
  -5   2   6   21.53    2.99
  -2   6   5   26.94    3.45
   6  -5   2   24.02    2.86
  -5  -2  -6   21.52    3.27
  -6  -5  -2   25.51    3.82
  -2  -6  -5   24.54    3.03
  -2  -6  -5   27.08    3.51
   2   6  -5   24.71    4.46
   6  -5   2   22.58    2.51
   6   5  -2   24.35    3.09
   2   6  -5   17.54    2.40
  -6   5   2   25.07    3.27
   5  -2   6   22.52    2.82
  -6   5   2   24.36    2.90
   2  -6   5   22.08    2.82
  -6  -5  -2   21.59    2.99
   5   2   6   29.40    2.84
   2   6   5   26.05    3.44
  -6   5  -2   27.16    3.53
   5   2   6   29.79    3.44
   6  -5  -2   22.04    2.91
   5  -2  -6   24.48    3.00
  -6  -5   2   31.76    4.33
  -5   2  -6   24.29    2.93
  -5   2  -6   28.28    3.22
  -2  -6   5   27.40    3.14
   6   5   2   27.41    3.24
   2  -6  -5   34.38    3.78
   2  -6  -5   28.62    3.10
  -5  -2   6   24.64    4.45
   5  -2  -6   28.89    3.58
   6   5   2   27.89    2.59
  -2   6  -5   29.87    3.73
  -6  -5   2   26.34    3.31
   0  -3  -6    2.12    1.29
   0  -3  -6    1.61    1.10
   0   3  -6    3.91    1.11
   3   6   0    4.16    0.77
   0   3   6    3.75    1.42
   3   6   0    4.24    1.54
   6   0   3    4.79    1.09
   6   0   3    3.43    1.27
  -3  -6   0    2.94    1.54
  -3   6   0    2.08    1.23
   0  -3   6    2.44    0.95
   0   3  -6    2.41    1.61
  -6   0  -3    3.15    1.41
   3  -6   0    3.04    1.17
   3  -6   0    1.94    1.08
  -6   0   3    2.77    1.76
   6   0  -3    3.86    1.34
   6   0  -3    3.49    1.29
   3   6   0    3.12    1.63
  -6   0  -3    3.74    1.42
   0   3  -6    4.44    1.40
  -3   6   0    1.38    1.05
   6   1  -3  204.54    8.84
  -3   6   1  203.59    8.95
   3  -6   1  208.97    8.29
   1   3  -6  211.32   10.10
   1   3  -6  205.40    8.11
   3   6  -1  199.96    9.10
   1   3  -6  197.18    8.38
   1   3  -6  204.46    8.07
   3  -6   1  201.87    8.58
   3   6  -1  195.91    9.82
   1  -3   6  191.23    8.13
  -3   6   1  195.45    8.70
  -6  -1  -3  192.57    8.77
  -6  -1  -3  201.36    9.00
  -1   3   6  207.63    7.09
  -1   3   6  170.57    8.73
  -1  -3  -6  194.55    9.65
   6  -1   3  200.86    6.86
   6  -1   3  204.84    8.93
   6   1  -3  201.21    8.32
  -6   1   3  192.68   10.01
  -3  -6  -1  210.30   10.04
  -1  -3  -6  190.61    9.08
   1  -3  -6  213.49   10.11
  -3   6  -1  211.09    8.25
   3  -6  -1  214.91    8.65
   1  -3  -6  216.11    8.70
   6  -1  -3  214.43    8.94
  -3  -6   1  204.62    9.42
  -3   6  -1  210.42    9.44
  -1   3  -6  208.90    7.38
  -1   3  -6  203.42    8.73
   1   3   6  217.89    9.33
   3  -6  -1  214.34    8.71
  -1   3  -6  223.49    9.75
   6   1   3  218.92    7.98
   6   1   3  215.99    8.94
  -6   1  -3  212.62    9.45
  -6   1  -3  208.85    8.48
  -6  -1   3  211.49    7.38
   6  -1  -3  213.43    8.91
   3   6   1  213.21    7.43
   3   6   1  206.10    9.44
   3   6   1  227.02    9.44
  -6  -1   3  213.91   10.81
   6   2  -3  116.04    5.46
   3   6  -2  127.23    6.50
  -3  -6  -2  123.97    5.34
   3  -6   2  128.35    6.21
  -3   6   2  117.43    6.42
   3  -6   2  117.20    5.50
  -3   6   2  130.67    6.18
  -6  -2  -3  117.16    6.11
   6   2  -3  120.44    6.35
   2  -3   6  131.74    6.07
   2   3  -6  127.29    5.79
  -2  -3  -6  122.26    6.91
   2   3  -6  124.39    7.45
  -3  -6  -2  128.30    7.50
  -6  -2  -3  129.10    7.00
   2   3  -6  115.72    5.78
  -2   3   6  121.64    5.21
  -2  -3  -6  124.56    6.89
   6  -2   3  122.94    6.37
  -6   2   3  123.61    7.17
  -2   3   6  135.39    6.91
   3   6  -2  113.54    7.22
   6  -2  -3  104.13    6.06
  -2  -3   6  114.31    5.80
  -2   3  -6  100.33    6.21
  -2   3  -6  105.39    4.36
   6  -2  -3  103.25    5.86
   6   2   3  111.73    5.58
  -3  -6   2   98.67    6.13
   2  -3  -6  108.31    6.84
   2  -3  -6  103.36    5.33
   3   6   2  108.91    5.80
   3  -6  -2  103.72    5.66
  -6  -2   3  106.34    7.62
  -6  -2   3  104.21    5.53
   2   3   6  107.87    6.17
   6   2   3  107.45    5.90
  -6   2  -3  113.92    6.68
  -3   6  -2  101.21    6.41
  -3   6  -2  107.01    5.00
  -2   3  -6  111.88    6.17
  -6   2  -3  113.69    5.69
   3  -6  -2  111.64    6.05
   3   6   2   99.94    6.35
  -3   3   6   22.33    2.33
  -3   6   3   21.21    2.38
   6  -3   3   19.73    2.55
  -3  -6  -3   20.77    3.23
   6   3  -3   20.62    2.07
   3  -6   3   22.40    2.61
  -6   3   3   26.69    3.28
  -3  -3  -6   24.48    3.23
   3  -6   3   21.01    2.16
  -3  -3  -6   21.66    2.81
   3   3  -6   21.87    2.49
  -6  -3  -3   25.54    2.76
  -3   3   6   18.63    2.60
   3  -3   6   22.95    2.58
   3   3  -6   23.20    4.22
  -3   6   3   20.56    2.78
   3   3  -6   23.09    2.53
   6   3  -3   24.57    2.78
   3   6  -3   21.48    2.64
  -3  -6  -3   21.09    2.61
  -6  -3  -3   19.89    3.09
  -3  -6  -3   20.19    2.32
   3   6  -3   23.58    3.51
   6  -3  -3   23.40    2.77
   3  -3  -6   22.86    3.12
  -6   3  -3   26.46    2.53
   3   3   6   22.26    2.73
  -3   6  -3   22.88    3.14
  -3   6  -3   26.54    1.92
   6   3   3   23.59    2.59
  -6  -3   3   20.62    4.18
   6  -3  -3   24.04    2.73
   3  -3  -6   23.09    2.07
   3   6   3   25.48    3.20
   3  -6  -3   25.90    2.97
   3  -6  -3   21.63    2.61
  -6  -3   3   21.65    2.57
  -3   3  -6   25.98    2.83
  -3  -6   3   24.32    2.81
   6   3   3   22.78    2.54
  -6   3  -3   27.62    3.34
  -3  -3   6   27.39    2.52
  -3   3  -6   23.02    2.95
  -3   6   4   22.56    2.39
  -3   6   4   25.25    3.20
   3  -6   4   22.18    2.39
   3  -6   4   25.78    2.90
   3   6  -4   24.37    3.71
   3   6  -4   27.10    2.89
   4   3  -6   34.40    4.41
  -4   3   6   26.50    2.86
  -4   3   6   27.74    3.28
  -3  -6  -4   25.41    2.78
  -3  -6  -4   23.83    4.32
  -6   4   3   23.10    2.82
  -4  -3  -6   22.55    3.27
  -6   4   3   25.80    3.15
  -6  -4  -3   22.77    2.63
   4  -3   6   22.47    2.70
  -6  -4  -3   22.31    3.33
   4   3  -6   24.19    2.86
   4   3  -6   22.17    2.78
   6   4  -3   22.75    2.88
   6  -4   3   26.01    2.92
  -6   4  -3   30.73    3.70
  -3  -6   4   22.82    2.87
  -3   6  -4   31.68    3.76
  -4  -3   6   27.14    2.54
  -4   3  -6   25.99    2.93
   4   3   6   29.98    3.56
   6  -4  -3   26.84    3.08
  -6   4  -3   35.64    3.01
   6   4   3   26.61    2.98
  -4   3  -6   28.13    3.34
  -6  -4   3   27.03    4.86
   3  -6  -4   29.36    3.43
   4  -3  -6   25.87    3.43
   3  -6  -4   25.74    2.92
  -6  -4   3   24.65    2.99
   6   4   3   30.48    2.91
   3   6   4   27.83    3.38
   4   3   6   25.32    2.92
  -3  -6  -5   50.91    5.00
  -6  -5  -3   55.71    4.00
   3   6  -5   48.58    4.03
   5   3  -6   46.20    4.16
  -6  -5  -3   47.89    4.95
  -3  -6  -5   54.08    4.31
   3  -6   5   50.74    4.32
   6  -5   3   49.14    4.05
   6   5  -3   48.77    4.29
   5  -3   6   47.16    4.12
   5   3  -6   47.91    4.16
   3  -6   5   51.32    3.64
  -6   5   3   46.40    4.14
  -5  -3  -6   45.59    4.83
  -5   3   6   48.87    4.21
  -3   6   5   45.47    4.53
   3   6  -5   49.08    5.39
  -6   5   3   53.30    4.59
   6  -5  -3   56.07    4.66
   5   3   6   50.93    4.58
   6   5   3   44.19    4.11
   6   5   3   50.35    3.88
  -5  -3   6   43.14    5.18
  -5  -3   6   47.15    3.42
  -5   3  -6   49.66    4.54
  -5   3  -6   50.07    4.24
   5  -3  -6   53.10    4.47
  -6  -5   3   52.86    5.73
   5  -3  -6   46.84    4.55
  -6  -5   3   49.53    4.36
  -6   5  -3   56.04    5.05
  -6   5  -3   54.05    3.89
   5   3   6   54.66    4.20
   3   6   5   52.25    4.75
   3  -6  -5   50.40    4.74
   3  -6  -5   52.21    3.99
  -3  -6   5   49.10    4.18
  -3   6  -5   50.51    4.96
   0  -4   6   14.08    1.71
  -4   6   0   16.61    2.42
   4  -6   0   11.49    2.04
   4   6   0   12.04    2.93
   4   6   0    9.12    2.18
   6   0  -4    9.99    2.20
   6   0  -4   12.57    2.38
   6   0   4   12.02    1.36
  -4  -6   0    8.53    2.25
   0   4   6   12.80    2.60
  -4   6   0   11.52    2.23
   0  -4  -6    9.49    2.53
   0   4  -6   21.30    3.70
   4  -6   0   14.10    2.43
  -6   0   4    7.07    2.32
   6   0   4    8.87    2.06
   0   4  -6   11.78    1.60
   0   4  -6    8.40    1.87
  -6   0  -4   14.35    2.64
   0  -4  -6   12.77    2.58
  -6   0  -4   12.67    2.51
  -4   6   1   19.65    2.53
   1  -4   6   24.90    2.32
  -1   4   6   18.24    2.59
  -1  -4  -6   17.41    3.13
  -6  -1  -4   19.52    2.47
   6   1  -4   17.47    2.48
   4   6  -1   21.71    2.81
  -4  -6  -1   15.95    3.23
   4   6  -1   21.86    3.34
  -6   1   4   22.50    3.32
   6   1  -4   20.86    2.40
  -4   6   1   18.14    2.52
   4  -6   1   20.39    2.31
  -6  -1  -4   18.61    2.64
   1   4  -6   25.40    4.51
   1   4  -6   18.40    2.08
   4  -6   1   17.18    2.16
  -4  -6  -1   21.23    2.84
   6  -1   4   22.07    2.64
  -1  -4  -6   22.33    3.03
  -4  -6   1   24.05    3.13
  -4   6  -1   20.85    2.21
   4  -6  -1   17.70    2.13
   1   4   6   17.10    2.62
  -4   6  -1   20.09    2.74
   1  -4  -6   19.43    2.48
  -1  -4   6   15.71    1.78
   4   6   1   17.59    2.63
  -1   4  -6   20.31    2.89
   6   1   4   21.26    2.62
  -1   4  -6   18.18    2.39
  -6  -1   4   21.88    3.93
  -6   1  -4   17.81    2.54
  -6   1  -4   21.77    2.54
  -1   4  -6   21.99    1.86
   6  -1  -4   18.15    2.45
  -1  -4   6   23.89    2.67
   4   6   1   20.18    1.79
   4  -6  -1   20.46    2.52
   6   1   4   18.62    1.93
   6  -1  -4   18.10    2.45
   1  -4  -6   19.89    3.59
   6   2  -4  106.52    5.49
   4   6  -2  108.97    7.47
   6   2  -4   99.45    5.91
  -6  -2  -4  104.49    6.62
   4   6  -2   99.11    6.06
   6  -2   4   97.90    5.87
  -4   6   2  113.43    6.07
  -4   6   2   96.63    5.94
  -2  -4  -6  107.96    6.56
  -2  -4  -6  109.27    6.82
  -4  -6  -2   99.83    6.96
   2   4  -6  100.18    4.60
  -6   2   4  117.90    7.04
  -2   4   6  110.86    6.56
   2   4  -6  102.45    5.45
   4  -6   2  103.89    5.44
   2  -4   6  108.29    5.45
   2   4  -6  110.03    7.25
   4  -6   2  101.52    5.58
  -6  -2  -4  110.58    5.66
  -4  -6  -2  109.09    5.76
   2  -4  -6  101.76    6.63
   4  -6  -2   99.95    5.31
   2  -4  -6   93.45    5.28
   2   4   6   97.65    6.15
  -6  -2   4   86.49    5.61
  -6   2  -4   87.56    5.90
  -2   4  -6   98.93    6.37
   6   2   4  101.72    5.91
  -2  -4   6  100.74    5.62
  -4   6  -2  100.32    4.64
  -4   6  -2  108.33    6.64
   4  -6  -2   98.68    5.86
   6  -2  -4   97.38    5.85
   6  -2  -4  101.20    5.98
   6   2   4   91.72    5.11
  -6   2  -4  105.57    5.70
  -2   4  -6   88.68    5.57
  -6  -2   4   95.55    7.32
   4   6   2  104.34    5.00
   4   6   2   94.36    6.19
  -4  -6   2   97.58    6.13
   6   3  -4  130.94    7.15
   6  -3   4  137.34    7.15
  -3  -4  -6  135.56    7.45
  -3  -4  -6  134.25    8.06
  -3   4   6  131.73    7.53
   6   3  -4  143.01    6.41
   4   6  -3  143.37    7.37
   3  -4   6  113.39    6.25
   3   4  -6  149.61    9.12
   3   4  -6  140.29    6.92
   3   4  -6  138.81    7.68
  -4  -6  -3  138.06    8.35
  -6  -3  -4  152.38    6.56
  -4   6   3  139.00    6.85
   4  -6   3  135.90    6.44
   4  -6   3  133.77    6.85
   4   6  -3  138.41    8.87
  -3   4   6  136.17    6.01
  -6  -3  -4  136.78    8.19
  -4   6   3  133.70    7.39
  -6   3   4  137.98    7.70
   6  -3  -4  126.20    7.02
  -4  -6   3  131.11    7.22
  -4   6  -3  121.12    7.52
  -3  -4   6  125.99    6.48
   6   3   4  135.96    6.78
   6   3   4  130.28    6.95
   4  -6  -3  128.01    7.23
   3  -4  -6  132.07    5.98
   4   6   3  119.61    7.38
   3  -4  -6  135.92    7.99
  -6  -3   4  130.93    8.81
  -6  -3   4  130.34    6.44
   4   6   3  128.50    6.43
  -6   3  -4  126.40    6.61
   6  -3  -4  127.96    7.18
   3   4   6  141.06    7.46
  -3   4  -6  123.69    7.49
  -3   4  -6  117.14    6.73
   4  -6  -3  130.43    6.43
  -6   3  -4  121.08    7.42
   4   4  -6   16.74    2.95
   4  -4   6   17.64    2.42
   4   6  -4   18.26    2.66
   4  -6   4   17.07    2.57
  -4   4   6   13.94    2.44
  -6   4   4   17.91    3.15
   4   4  -6    9.94    3.32
   6   4  -4   14.89    2.89
  -4  -4  -6   10.70    2.92
  -4  -6  -4   17.78    3.62
  -4   6   4   10.82    2.56
  -6  -4  -4   15.06    3.53
   4   6  -4   14.33    3.63
  -6  -4  -4   15.11    2.21
  -6   4   4   19.04    2.80
  -4   6   4   14.54    2.17
   4  -6   4   14.53    2.12
   6  -4   4   16.56    3.08
  -4   4   6   12.83    2.93
   6   4   4   16.34    3.01
   4   6   4   13.60    3.08
   4  -4  -6   16.42    3.21
   4   4   6   11.64    2.72
   4   6   4   14.65    2.63
   4  -6  -4   15.13    2.26
   4  -6  -4   13.46    2.95
  -4   6  -4   15.47    3.34
   6  -4  -4    9.68    2.64
  -6   4  -4   14.07    3.07
  -4   4  -6   14.63    2.79
  -6  -4   4    9.49    3.04
  -6  -4   4   11.94    2.38
  -4  -6   4   12.06    2.62
   4   4   6   10.95    2.59
  -6   4  -4   15.95    2.75
  -4  -4   6   11.88    2.28
  -4   4  -6   14.42    3.10
   6   4   4   16.15    2.91
  -5   4   6   91.17    5.77
  -6   5   4   92.76    6.18
   6   5  -4   88.85    6.04
   5  -4   6   87.04    5.75
   4  -6   5   84.98    5.33
  -6   5   4   91.44    6.25
  -5  -4  -6   92.92    7.09
  -4  -6  -5   94.73    7.08
  -5   4   6   86.43    6.17
   5   4  -6   85.68    5.91
  -4   6   5   94.12    5.41
  -4   6   5   87.82    6.39
   5   4  -6   83.67    7.64
  -6  -5  -4   92.84    7.20
   4   6  -5   87.37    7.62
   6  -5   4   89.25    5.82
  -4  -6  -5   89.36    5.76
   4  -6   5   89.59    6.11
   4   6  -5   87.27    5.86
  -4  -6   5  103.87    6.28
  -5  -4   6  104.00    5.64
  -6  -5   4  108.31    6.32
  -6   5  -4  109.36    6.08
   4  -6  -5  104.98    7.00
  -6   5  -4  114.81    7.50
   6   5   4  103.83    6.51
  -5   4  -6  103.38    6.96
  -5   4  -6  114.53    6.60
  -4   6  -5  102.29    7.17
   6   5   4  100.85    6.03
   5   4   6   99.34    6.55
   6  -5  -4   96.85    6.53
   5  -4  -6  100.01    6.92
  -6  -5   4  107.37    8.34
   5   4   6  106.99    6.42
   4   6   5  104.33    6.89
   6   0   5   65.78    4.83
  -5   6   0   63.95    4.32
   0  -5  -6   60.98    5.03
   0  -5  -6   68.84    5.09
   0  -5   6   71.80    3.80
   0  -5   6   73.50    4.97
   0   5  -6   61.96    5.43
   0   5  -6   65.60    3.89
   0   5   6   68.31    5.22
   5  -6   0   71.31    4.74
   5  -6   0   72.32    4.30
  -5  -6   0   69.77    5.52
  -5  -6   0   76.63    5.91
  -5   6   0   59.14    4.85
   5   6   0   65.99    5.07
   6   0  -5   65.41    4.79
  -6   0  -5   71.36    4.73
  -6   0  -5   73.68    5.16
  -6   0   5   72.44    5.96
   6   0  -5   73.70    5.00
   5  -6   1   40.91    3.27
  -1  -5  -6   43.85    4.24
   1   5  -6   46.28    4.85
  -6   1   5   34.98    4.13
  -1   5   6   43.25    4.16
  -5  -6  -1   44.85    4.63
  -1  -5  -6   44.17    4.20
  -6  -1  -5   39.84    3.40
  -6  -1  -5   41.04    4.05
   5  -6   1   43.10    3.59
  -5  -6  -1   46.02    4.11
   5   6  -1   39.23    3.86
   1  -5   6   40.47    3.78
   1  -5   6   40.84    2.99
   6  -1   5   45.43    3.96
   6   1  -5   35.61    3.53
   6   1  -5   41.93    3.72
   1   5  -6   44.81    3.31
  -5   6   1   42.75    3.65
  -5   6   1   43.71    4.01
  -1   5  -6   42.22    4.45
  -5   6  -1   39.77    4.03
   6  -1  -5   40.59    3.83
  -6  -1   5   45.55    4.91
   1  -5  -6   40.29    4.27
   5   6   1   40.26    3.97
   6  -1  -5   38.80    3.69
  -1   5  -6   40.46    2.67
  -1   5  -6   38.15    3.49
   6   1   5   41.78    3.88
   5  -6  -1   45.62    3.80
   5  -6  -1   39.68    3.08
   1  -5  -6   42.20    3.80
  -1  -5   6   44.47    3.81
  -6   1  -5   39.65    3.74
  -6   1  -5   40.94    3.66
   6   1   5   42.60    2.98
   1   5   6   47.35    4.34
  -5  -6   1   39.45    4.55
  -5  -6   1   40.33    4.16
  -5   6  -1   39.54    3.09
   6   2  -5    4.26    1.65
  -5   6   2    3.60    1.71
  -5   6   2    6.23    1.96
  -2  -5  -6    4.28    1.79
  -2  -5  -6    2.45    1.66
   2   5  -6    3.24    1.34
   6   2  -5    5.15    1.79
   5   6  -2    3.76    1.64
  -5  -6  -2    3.94    1.65
  -5  -6  -2    1.70    1.69
   5  -6   2    4.58    1.58
   5  -6   2    5.59    1.71
   5   6  -2    5.67    2.65
  -6   2   5    1.94    1.45
  -2   5   6    5.30    2.09
   2   5  -6    4.31    2.25
  -6  -2  -5    4.87    1.55
  -6  -2  -5    4.42    2.00
   2  -5   6    4.59    1.42
   6  -2   5    3.55    1.68
  -6  -2   5    2.50    1.92
   6   2   5    4.58    1.65
   5   6   2    3.64    1.57
  -6   2  -5    5.10    1.96
  -5  -6   2    3.35    1.76
  -5   6  -2    3.62    1.70
   6   2   5    4.06    1.39
   2  -5  -6    5.58    1.75
  -6   2  -5    2.13    1.29
   5   6   2    2.94    1.22
  -2  -5   6    0.90    1.16
   2   5   6    2.88    1.80
   5  -6  -2    2.16    1.44
   5  -6  -2    2.14    1.17
   6  -2  -5    4.37    1.60
  -2   5  -6    2.89    1.28
   6  -2  -5    3.34    1.51
   2  -5  -6    2.12    1.69
  -2   5  -6    4.83    1.92
  -6  -3  -5  102.25    7.23
   5  -6   3  105.03    5.85
   5  -6   3  106.05    6.04
   5   6  -3  111.73    8.35
   5   6  -3  103.76    6.48
   3   5  -6  104.26    7.87
   3   5  -6  101.35    5.95
  -5   6   3  120.24    6.55
  -5   6   3  103.24    6.45
   6  -3   5  108.32    6.40
   6   3  -5  105.80    6.46
   6   3  -5  107.24    6.00
  -5  -6  -3  121.54    7.93
  -3  -5  -6  117.62    6.84
  -3   5   6  109.38    6.96
   3  -5   6  111.26    5.83
  -6   3   5  107.37    6.67
  -3  -5  -6  101.92    7.18
   6   3   5   97.84    6.30
  -6  -3   5   98.90    7.73
  -6   3  -5   90.02    6.40
  -6   3  -5   91.74    5.80
   5   6   3  106.63    6.80
   6   3   5  103.11    5.92
  -5  -6   3  100.55    6.41
  -5   6  -3   93.52    6.77
   6  -3  -5   96.38    6.31
   6  -3  -5   96.43    6.53
   5   6   3   94.52    5.40
   3   5   6  101.10    6.62
  -3  -5   6   87.83    5.70
  -3   5  -6   99.27    6.86
  -3   5  -6   99.66    6.14
   5  -6  -3  100.65    6.39
   3  -5  -6   90.34    6.65
   3  -5  -6   98.94    5.43
   5  -6   4   42.48    3.98
   5   6  -4   37.48    5.26
  -6  -4  -5   40.73    4.75
  -4   5   6   40.77    4.27
  -6   4   5   35.20    3.82
  -6   4   5   36.67    4.00
  -5  -6  -4   39.66    4.65
   6   4  -5   41.33    4.09
   5   6  -4   36.15    3.90
  -5   6   4   39.39    3.79
  -5   6   4   40.71    4.24
  -4  -5  -6   40.06    3.99
  -4  -5  -6   38.48    4.55
   5  -6   4   40.46    3.71
   4   5  -6   44.91    5.49
   4   5  -6   37.99    3.78
  -4   5   6   35.87    4.12
   6  -4   5   38.01    3.85
   4  -5   6   38.51    3.58
   4  -5  -6   49.23    4.90
  -4   5  -6   55.23    5.13
  -4   5  -6   55.93    4.44
   4   5   6   50.54    4.56
   5  -6  -4   59.03    5.00
  -4  -5   6   43.59    3.85
  -6  -4   5   44.17    5.40
  -6  -4   5   49.26    3.86
  -5   6  -4   60.17    5.38
   5   6   4   49.31    4.68
   5   6   4   51.25    4.12
   6  -4  -5   45.00    4.44
  -6   4  -5   45.66    4.01
  -5  -6   4   45.83    4.20
   6   4   5   47.25    4.16
   6   4   5   50.03    4.33
  -6   4  -5   47.23    4.79
  -6  -5  -5   64.67    6.18
   5  -6   5   60.47    4.56
   5   6  -5   53.00    6.29
   5   6  -5   62.18    5.01
   5   5  -6   63.59    6.72
  -6   5   5   65.36    5.03
  -6   5   5   59.49    5.17
  -5  -6  -5   64.31    6.00
   6   5  -5   55.09    4.89
  -5  -5  -6   66.75    6.12
   5   5  -6   59.68    4.93
   5  -5   6   65.84    4.85
  -5   6   5   62.96    5.40
  -5   5   6   60.31    4.45
  -5   5   6   58.26    5.23
   6  -5   5   61.28    4.79
  -5   6   5   64.91    4.65
  -5   6  -5   52.42    4.49
  -5   5  -6   56.68    4.74
   5  -6  -5   57.50    5.31
  -6  -5   5   56.92    6.27
  -5   6  -5   60.90    5.66
  -5   5  -6   56.70    5.48
  -6   5  -5   58.87    4.66
  -5  -5   6   57.67    4.46
   5   5   6   60.46    5.12
   5   5   6   63.53    5.29
  -6  -5   5   55.82    4.54
  -6   5  -5   51.26    5.18
   5   6   5   51.50    4.98
   5   6   5   59.05    4.88
   6  -5  -5   50.96    5.05
   5  -5  -6   58.05    5.48
  -5  -6   5   52.85    4.55
   6   5   5   54.77    4.88
   6   5   5   52.68    4.61
  -6  -6   0  609.44   22.34
  -6  -6   0  594.58   22.33
  -6   0  -6  554.38   19.95
  -6   0  -6  590.60   21.36
  -6   0   6  603.36   22.49
  -6   6   0  579.43   21.59
  -6   6   0  609.50   19.95
   0  -6  -6  608.18   21.68
   0  -6  -6  613.65   21.47
   0  -6   6  621.52   21.10
   0   6  -6  605.50   22.72
   0   6  -6  615.92   19.27
   0   6   6  632.85   22.25
   6  -6   0  592.88   20.68
   6  -6   0  604.85   19.27
   6   0  -6  586.09   21.01
   6   0  -6  592.61   21.34
   6   0   6  596.76   21.30
   6   6   0  616.72   21.54
  -6  -6  -1   59.09    5.04
  -6  -6  -1   55.25    5.35
   6  -6   1   47.43    3.61
   1   6  -6   58.40    5.68
  -6  -1  -6   50.19    3.81
  -6  -1  -6   52.07    4.84
   6   1  -6   50.28    4.31
   6   1  -6   58.58    4.78
   6  -1   6   51.42    4.44
  -6   1   6   49.80    4.96
   1  -6   6   50.24    4.41
  -6   6   1   51.24    4.68
  -6   6   1   57.30    4.34
  -1  -6  -6   54.34    4.70
  -1  -6  -6   51.62    4.73
   6   6  -1   52.19    4.64
   1  -6   6   48.71    3.56
  -1   6   6   47.12    4.60
   6  -6   1   55.64    4.36
   1   6  -6   55.51    3.94
  -6   1  -6   47.69    4.29
  -6   6  -1   45.69    4.68
  -6  -6   1   58.74    5.32
   1  -6  -6   48.09    4.31
   1   6   6   50.12    4.72
   6  -6  -1   52.02    4.34
   1  -6  -6   59.09    5.14
  -6  -6   1   47.26    5.07
   6  -1  -6   43.91    4.14
   6  -1  -6   46.41    4.55
  -1   6  -6   54.07    5.29
  -6  -1   6   52.04    5.33
  -6   1  -6   49.81    4.29
   6   1   6   43.73    4.27
  -1  -6   6   50.56    4.31
   6   6   1   47.50    4.46
  -6  -6  -2   38.51    3.85
  -6  -6  -2   49.86    5.21
   2   6  -6   38.78    4.81
   2   6  -6   43.23    3.70
  -6  -2  -6   42.97    4.63
   6   2  -6   36.40    3.82
   6   2  -6   46.72    4.36
   6  -6   2   43.77    3.55
  -6   2   6   36.46    4.19
   6   6  -2   41.43    4.09
  -6   6   2   38.20    4.05
  -6   6   2   44.88    4.07
  -2  -6  -6   41.84    4.19
  -2  -6  -6   43.10    4.61
   6  -6   2   39.79    3.75
   6  -2   6   43.65    4.06
  -2   6   6   33.56    4.10
   2  -6   6   39.48    3.96
   2  -6   6   38.60    3.15
   2  -6  -6   49.00    4.08
   2  -6  -6   42.61    4.43
  -6  -6   2   46.14    5.28
  -6  -6   2   44.28    4.45
   2   6   6   46.92    4.65
   6  -6  -2   42.47    4.07
  -2  -6   6   44.21    4.07
  -6   2  -6   40.89    3.97
   6  -2  -6   47.07    4.29
   6  -2  -6   42.29    4.38
  -2   6  -6   40.64    4.54
  -6  -2   6   44.20    5.25
  -6   2  -6   45.04    4.31
   6   2   6   42.29    3.45
   6   2   6   45.81    4.43
  -6   6  -2   40.03    4.46
   6   6   2   36.99    4.08
   6   6   2   45.50    3.67
  -6  -6  -3   29.37    5.08
   3   6  -6   21.51    4.61
   3   6  -6   29.78    3.30
  -6  -3  -6   28.67    3.99
   6   3  -6   29.62    3.54
   6  -6   3   27.76    3.14
   6  -6   3   25.66    3.01
  -6   3   6   27.24    3.46
   3  -6   6   26.12    3.31
  -6   6   3   26.25    3.43
  -6   6   3   26.98    3.44
  -3  -6  -6   29.14    3.47
  -3  -6  -6   32.44    4.09
   6   6  -3   31.03    3.64
   6  -3   6   24.32    3.19
  -3   6   6   29.29    3.84
   3  -6   6   26.32    2.85
   3  -6  -6   27.27    3.03
   3  -6  -6   27.54    3.83
  -6   6  -3   25.43    3.67
  -6  -6   3   20.91    4.37
  -6  -6   3   27.16    3.58
   3   6   6   27.86    3.72
   6  -6  -3   28.71    3.49
  -6   3  -6   30.24    3.78
  -6   3  -6   31.92    3.47
   6  -3  -6   28.81    3.51
   6  -3  -6   24.90    3.67
  -3   6  -6   31.89    4.20
  -6  -3   6   29.55    4.51
   6   3   6   25.89    3.06
   6   3   6   34.04    3.85
  -3  -6   6   30.67    3.43
   6   6   3   32.54    3.75
   6   6   3   28.31    2.98
  -6  -6  -4  223.74   12.09
   4   6  -6  227.56   13.12
   6  -4   6  230.30   10.61
  -6  -4  -6  233.40   12.33
  -4  -6  -6  219.07   10.48
   6  -6   4  213.60   10.12
   6   6  -4  228.07   11.00
  -6   4   6  224.01   10.54
  -6   4   6  225.92   11.17
   6   4  -6  225.54   10.79
  -6   6   4  230.74   10.66
  -6   6   4  233.37   11.11
   4   6  -6  224.38   10.59
  -4  -6  -6  219.97   11.85
   6  -6   4  222.59   10.38
  -4   6   6  246.93   11.74
   4  -6   6  235.76   10.04
  -6  -4   6  226.88   13.04
   4  -6  -6  228.46   11.81
  -4   6  -6  230.56   10.68
  -6  -6   4  224.18   12.96
  -4   6  -6  223.65   11.86
   4   6   6  224.44   11.37
   6  -6  -4  229.59   11.34
  -6   4  -6  217.76   11.34
  -4  -6   6  227.34   10.37
   6  -4  -6  242.14   11.94
  -6  -6   4  221.73   10.67
  -6   6  -4  226.76   11.82
   6   4   6  211.73   10.38
   6   4   6  229.24   11.05
  -6   4  -6  227.89   10.63
   6   6   4  225.76   11.13
   6   6   4  224.93   10.02
  -6  -6  -5   28.64    5.21
   5   6  -6   19.60    4.99
   6  -5   6   21.18    2.99
  -6  -5  -6   22.09    4.34
  -6   6   5   19.63    3.83
   5  -6   6   22.53    3.02
   6   6  -5   18.36    3.46
  -6   5   6   26.18    3.25
  -6   5   6   21.29    3.87
   6   5  -6   21.12    3.82
   5   6  -6   17.70    3.40
  -6   6   5   20.02    3.07
   6  -6   5   20.14    2.95
  -5  -6  -6   28.32    4.20
  -5   6   6   19.61    3.84
  -6  -5   6    9.19    3.08
  -5   6  -6   22.83    3.17
  -5   6  -6   21.27    4.26
   5  -6  -6   21.57    4.31
  -6   5  -6   22.16    4.15
  -6  -6   5   19.63    4.77
  -6   6  -5   20.32    2.94
   5   6   6   27.14    3.75
   5   6   6   19.65    3.67
   6  -6  -5   15.31    3.53
  -5  -6   6   20.03    3.41
   6  -5  -6   19.71    3.90
  -6  -6   5   21.73    3.11
  -6   6  -5   24.86    4.57
   6   5   6   18.93    3.66
   6   5   6   26.44    4.29
  -6   5  -6   17.49    3.39
   6   6   5   23.03    3.44
   6   6   5   22.57    3.19
  -6  -6  -6  265.91   13.54
   6   6  -6  243.98   11.65
   6   6  -6  243.26   14.46
   6  -6   6  251.15   11.06
  -6   6   6  270.11   12.63
  -6   6  -6  217.33   10.78
   6  -6  -6  201.70   11.76
  -6   6  -6  206.54   12.07
  -6  -6   6  200.53   10.30
  -6  -6   6  204.46   13.04
   6   6   6  203.83   11.21
   6   6   6  204.29   10.77
  -7   0   0    0.87    1.30
  -7   0   0    0.00    0.52
   0  -7   0    0.52    0.70
   0  -7   0   -0.02    0.88
   0   0  -7   -0.27    0.81
   0   0  -7   -1.07    0.59
   0   0  -7   -0.18    0.76
   0   0   7   -0.02    0.67
   0   7   0   -0.37    0.72
   0   7   0   -0.26    0.69
   7   0   0   -0.04    0.61
   7   0   0   -0.64    0.53
   0  -7  -1  309.26   11.08
   0  -7  -1  308.78   12.54
   0  -7   1  294.04    9.99
   0  -7   1  297.61   12.14
   0   7  -1  308.71   12.43
   0   7  -1  321.71   12.04
   0   7   1  295.55   11.41
   0   7   1  293.66   12.27
   1   0  -7  295.81   11.81
   1   0  -7  293.49   11.49
   1   0  -7  306.51   13.03
   1   0  -7  305.42   11.19
   1   0   7  315.63   11.32
   7  -1   0  304.02   10.91
   7  -1   0  299.86   11.67
   7   1   0  308.14   11.36
   7   1   0  296.96   11.26
  -1   0  -7  296.02   12.50
  -1   0  -7  318.77   11.92
  -1   0  -7  316.43   11.39
  -7   1   0  301.08    9.88
  -7   1   0  305.81   13.29
  -7  -1   0  300.90   10.71
  -7  -1   0  303.76   13.58
   0  -7  -2  338.75   13.60
   0  -7  -2  323.46   12.14
  -2   0  -7  335.56   12.94
  -2   0  -7  328.01   13.20
  -7   2   0  344.82   10.66
  -2   0  -7  335.98   11.80
   2   0  -7  329.61   11.59
   2   0   7  332.46   11.76
   7  -2   0  322.49   11.48
   7  -2   0  326.70   12.58
   7   2   0  315.08   12.21
   7   2   0  328.28   11.86
   0   7   2  333.94   13.48
   2   0  -7  327.75   13.02
   2   0  -7  322.38   12.43
   2   0  -7  331.82   13.82
   0   7  -2  316.55   13.41
   0   7   2  329.73   11.77
  -7   2   0  320.15   13.96
   0  -7   2  325.98   12.88
  -7  -2   0  321.57   14.48
  -7  -2   0  336.63   12.51
   3   0  -7  276.63   11.15
   3   0  -7  264.59   12.18
   0   7   3  272.90    9.64
   0   7   3  255.06   11.75
   7  -3   0  273.25    9.89
   7  -3   0  265.77   11.04
   7   3   0  281.19   11.14
   7   3   0  256.17    9.89
   0  -7  -3  269.20   12.02
   0  -7   3  260.60   11.23
   0   7  -3  267.88   12.14
   0   7  -3  270.40   10.42
  -3   0   7  267.08   11.50
  -7   3   0  265.44   12.25
  -7  -3   0  253.65   12.52
  -7  -3   0  243.86   11.23
   3   0  -7  259.01    9.53
   3   0   7  262.88    9.83
   3   0   7  270.90   11.73
  -3   0  -7  271.48   11.43
  -7   3   0  267.33    8.97
   0  -7  -3  275.68   11.01
  -3   0  -7  268.64   10.11
   4   0  -7  116.19    7.39
   7  -4   0  114.57    6.63
   7   4   0  122.83    6.82
   7   4   0  123.22    5.61
   4   0  -7  114.94    6.62
   0   7   4  119.45    7.38
   4   0   7  126.21    7.22
   0   7  -4  127.56    6.07
   0  -7   4   91.12    6.23
   0   7  -4  118.87    7.63
  -7  -4   0  130.44    8.21
  -7  -4   0  123.85    7.61
  -7   4   0  124.68    7.74
  -7   4   0  114.50    5.72
  -4   0  -7  122.60    6.07
  -4   0  -7  113.25    6.94
  -4   0   7  107.89    7.00
   0  -7  -4  108.10    6.61
   0  -7  -4  103.96    7.00
   0   7  -5   95.15    7.01
   0   7  -5   92.91    5.10
   0  -7   5   77.38    5.66
   0   7   5   92.89    6.70
   5   0  -7   85.87    5.94
  -7  -5   0   94.26    6.88
  -7   5   0   99.62    6.94
  -7   5   0   92.07    5.21
  -5   0  -7   91.33    5.37
  -5   0  -7   88.50    6.28
  -5   0   7   84.44    6.46
   0  -7  -5   84.51    5.96
  -7  -5   0  102.91    7.22
   5   0  -7  100.21    6.83
   5   0   7   97.39    6.40
   7  -5   0   91.29    5.91
   7   5   0   91.71    6.16
   0  -7  -5   88.12    6.37
   0   7   6    6.68    2.37
   6   0  -7    6.73    2.22
  -7   6   0    8.43    2.68
   7   6   0    6.45    2.23
  -6   0   7    8.83    2.80
   6   0  -7    4.87    2.22
   6   0   7    5.11    2.10
   7  -6   0    5.31    1.84
  -7  -6   0   10.80    3.18
   0   7  -6    8.36    2.81
  -6   0  -7    6.39    2.02
   0  -7  -6    8.90    2.62
   0  -7  -6    7.24    2.33
   0  -7   6    6.26    2.14
  -7  -6   0    8.27    2.72
  -6   0  -7   11.66    3.00
   1  -7   0    5.32    1.78
  -1  -7   0    3.78    1.05
   1   7   0    2.90    1.42
  -7   0   1    2.72    1.87
  -7   0  -1    4.93    2.13
  -7   0  -1    4.16    1.21
   1   7   0    6.90    1.95
   0  -1  -7    8.36    1.95
   7   0   1    4.91    1.42
   0   1  -7    7.02    1.93
   0   1  -7    7.17    1.69
   0   1  -7    5.80    1.59
   0   1   7    6.66    1.76
   1  -7   0    6.57    1.57
  -1  -7   0    6.39    2.15
  -1   7   0    5.35    1.72
  -1   7   0    6.34    1.79
   0  -1  -7    5.95    1.56
   7   0   1    6.25    1.66
   0   1  -7    6.94    2.07
   7   0  -1    5.70    1.52
   7   0  -1    4.60    1.56
  -7   0   1    5.07    0.98
   0  -1  -7    3.42    1.90
  -1   1   7  185.39    8.55
   1  -7   1  200.11    7.46
  -1  -7  -1  199.78    7.72
   1   7  -1  191.72    8.82
   7   1  -1  184.43    8.04
   1   1  -7  208.97    8.34
   7  -1   1  202.48    7.64
  -7   1   1  194.65   10.15
   1   1  -7  203.47    9.53
  -1  -7  -1  201.82    9.57
   7   1  -1  201.61    8.54
  -1  -1  -7  201.00    7.63
  -1  -1  -7  205.17    9.71
  -1  -1  -7  198.43    8.86
  -1   7   1  194.56    9.12
  -7  -1  -1  199.76    9.85
   1   7  -1  206.94    9.41
   1   1  -7  212.09    9.41
  -1   1   7  203.36    8.25
  -7  -1  -1  206.30    8.25
   1   1  -7  197.72    8.27
   1  -7   1  198.20    8.94
  -1   7   1  195.63    8.46
   7  -1   1  195.44    8.62
   1  -1   7  201.78    7.82
   7   1   1  183.79    8.19
   1  -1  -7  186.86    9.69
  -7   1  -1  173.16    9.39
   1  -1  -7  189.25    8.09
  -7  -1   1  190.40    7.26
   1  -7  -1  187.77    8.90
  -7   1  -1  184.56    7.29
  -1   1  -7  179.63    8.78
  -1   1  -7  176.51    8.36
   1   1   7  181.99    8.32
  -1   1  -7  186.18    8.53
  -7  -1   1  198.74   10.66
   1   7   1  189.67    8.40
   1   7   1  186.97    9.11
   7  -1  -1  188.76    8.13
   7  -1  -1  198.33    8.63
  -1   7  -1  192.16    8.52
   7   1   1  197.29    8.04
  -1  -7   1  194.94    9.25
   1  -7  -1  184.43    8.02
  -1   7  -1  194.45    9.12
   7   2  -1    0.36    0.75
   1   7  -2    1.72    1.17
   2  -1   7    1.22    1.10
  -2   1   7    0.39    0.92
   7   2  -1    1.98    1.04
   2   1  -7    1.30    0.98
  -1   7   2    0.44    0.82
  -7  -2  -1    2.21    1.56
   2   1  -7   -0.51    1.20
  -1   7   2    2.49    1.53
  -7   2   1    1.02    1.23
  -2  -1  -7    1.96    0.96
  -2  -1  -7    1.95    1.55
  -2  -1  -7    9.01    2.20
   1   7  -2    1.37    1.35
   2  -1   7    1.93    0.96
   1  -7   2    2.06    0.84
   2   1  -7    2.90    1.52
  -7  -2  -1    0.95    1.16
   7  -2   1    1.89    0.97
   7  -2   1    0.60    0.84
  -1  -7  -2    2.21    1.11
  -1  -7  -2    0.68    1.33
   1  -7   2    3.34    1.46
   2   1  -7    1.38    0.95
  -1   7  -2    1.91    1.12
   1   7   2    2.73    1.18
  -7   2  -1    1.92    0.84
   1  -7  -2    2.77    1.29
   7  -2  -1    2.15    1.08
   7  -2  -1    1.46    1.14
  -1  -7   2    3.26    1.43
  -1   7  -2    1.63    1.32
  -7   2  -1    2.13    1.48
  -7  -2   1    1.66    1.11
   2   1   7    2.73    1.29
   2  -1  -7    2.11    1.09
   7   2   1    2.62    1.15
  -7  -2   1    5.38    2.54
   2  -1  -7    2.68    1.83
   1  -7  -2    1.19    1.26
   1   7   2    3.63    1.63
   7   2   1    3.21    1.27
  -2   1  -7    2.69    1.42
   2  -1  -7    2.98    1.33
  -2   1  -7    2.60    1.26
  -1   7   3   56.19    4.71
  -3   1   7   53.09    4.19
   1  -7   3   59.03    3.09
   7  -3   1   53.99    3.16
   7   3  -1   58.22    4.34
   1  -7   3   51.10    4.19
  -1   7   3   56.87    3.53
   3   1  -7   58.31    3.51
   3   1  -7   53.20    4.06
  -7  -3  -1   57.35    5.02
  -1  -7  -3   53.54    3.94
  -1  -7  -3   64.12    5.23
   3   1  -7   46.89    4.61
   1   7  -3   56.40    4.01
   3   1  -7   55.00    4.81
  -7  -3  -1   57.22    4.78
   7   3  -1   59.18    3.60
   3  -1   7   52.11    4.33
  -7   3   1   59.06    5.01
  -3  -1  -7   61.81    3.46
  -3  -1  -7   56.61    4.58
   1   7  -3   64.93    5.33
   7  -3   1   57.17    4.21
   1   7   3   52.04    4.59
   7   3   1   51.09    3.66
   3   1   7   47.88    4.46
  -7  -3   1   52.79    4.45
   7  -3  -1   45.89    4.00
   1  -7  -3   53.09    4.56
  -3   1  -7   54.12    3.97
  -1   7  -3   48.12    3.45
  -3   1  -7   51.76    4.25
  -1   7  -3   51.65    4.62
   1  -7  -3   44.14    3.94
   3  -1  -7   49.77    4.73
  -7   3  -1   50.06    4.80
  -7   3  -1   47.41    3.11
  -1  -7   3   49.08    4.14
   3   1   7   49.19    3.66
  -7  -3   1   47.63    5.05
   7   3   1   44.32    3.73
   7  -3  -1   45.85    3.54
   3  -1  -7   42.21    3.86
   3  -1  -7   47.18    3.09
  -7   4   1  132.40    8.02
   1   7  -4  134.98    6.71
  -4   1   7  136.31    7.40
  -1   7   4  143.65    8.12
  -7  -4  -1  130.29    8.02
   7   4  -1  137.80    7.41
   7   4  -1  143.95    5.97
   4   1  -7  140.21    7.29
   4   1  -7  151.51    8.40
  -1  -7  -4  148.51    7.36
  -1  -7  -4  140.17    8.20
  -7  -4  -1  144.34    8.29
   7  -4   1  138.76    7.28
   1   7  -4  135.85    8.46
   4  -1   7  139.23    7.58
  -4  -1  -7  143.49    7.93
   1  -7   4  126.55    7.17
   1  -7  -4  133.85    7.70
   1  -7  -4  134.92    7.49
  -1   7  -4  124.97    5.99
  -7  -4   1  121.69    8.39
   1   7   4  124.17    7.80
   7  -4  -1  128.54    6.40
   4  -1  -7  120.43    7.10
   4  -1  -7  132.07    8.03
  -4   1  -7  125.67    6.77
   7   4   1  129.67    7.16
   7   4   1  132.33    6.28
   4   1   7  128.21    6.32
   4   1   7  117.84    7.42
  -1  -7   4  133.18    7.41
  -4  -1   7  127.95    5.79
  -4   1  -7  122.44    7.23
  -4  -1   7  131.80    8.11
  -1   7  -4  118.74    7.79
  -7   4  -1  135.59    5.92
  -7  -4   1  124.14    7.65
  -7   4  -1  140.26    8.32
   7  -4  -1  127.46    7.19
  -1   7   5  142.39    8.37
  -1  -7  -5  134.92    8.22
   5   1  -7  147.43    7.80
  -7   5   1  139.87    8.30
  -1  -7  -5  156.34    8.00
  -5  -1  -7  144.48    8.32
   5   1  -7  152.16    8.46
   7  -5   1  145.77    6.45
   7   5  -1  143.01    7.85
   1   7  -5  138.76    6.88
  -7  -5  -1  156.13    9.06
  -7   5   1  142.74    7.16
   1  -7   5  133.50    7.60
  -5   1   7  149.15    8.20
   5  -1   7  144.34    7.98
   7  -5   1  145.81    7.63
   1   7  -5  140.20    9.00
  -7  -5  -1  138.72    8.25
  -5   1  -7  134.72    7.22
  -1  -7   5  115.96    7.26
  -1   7  -5  117.85    8.25
   1  -7  -5  127.64    7.74
   7  -5  -1  124.80    7.36
   1   7   5  135.97    8.34
  -7   5  -1  125.67    8.17
  -7  -5   1  134.75    8.29
   5   1   7  125.72    7.82
   5  -1  -7  130.52    8.17
   7   5   1  125.98    6.19
   5  -1  -7  131.44    7.62
  -7  -5   1  122.78    8.70
   1  -7  -5  127.22    7.69
  -5  -1   7  129.32    8.46
  -5   1  -7  126.73    7.60
   7   5   1  125.25    7.50
   1   7  -6   36.20    3.27
   6  -1   7   35.48    3.94
  -7  -6  -1   37.73    4.74
  -1   7   6   31.12    4.01
   6   1  -7   37.02    4.00
   7  -6   1   38.07    3.83
   7  -6   1   35.26    3.18
   7   6  -1   35.14    3.93
  -7   6   1   38.67    3.69
  -6  -1  -7   33.06    4.15
  -6   1   7   38.26    4.48
  -7   6   1   26.56    3.82
   1   7  -6   34.14    4.79
   1  -7   6   31.83    3.75
  -1  -7  -6   38.44    4.35
  -1  -7  -6   37.64    4.08
  -7  -6  -1   37.44    4.22
   6   1  -7   28.24    3.94
  -7   6  -1   29.23    4.03
  -6   1  -7   45.94    4.47
   1  -7  -6   38.73    4.28
  -1   7  -6   38.48    4.72
   7   6   1   32.78    3.83
   6   1   7   33.72    3.99
  -6  -1   7   29.52    4.32
  -6   1  -7   31.56    3.48
   6  -1  -7   32.84    3.85
   6  -1  -7   30.57    4.05
  -7  -6   1   36.59    4.78
  -7  -6   1   40.80    4.61
   1   7   6   35.86    4.32
  -1  -7   6   36.19    3.94
   7  -6  -1   33.67    3.83
   1  -7  -6   34.95    3.98
  -7   0  -2   11.78    2.78
   7   0  -2   12.34    2.34
   7   0  -2   13.31    2.53
   0   2  -7   11.29    2.53
   0   2  -7    9.15    1.79
  -7   0   2   11.98    3.34
   2  -7   0   13.40    1.89
   2  -7   0   12.40    2.45
   2   7   0   12.95    2.75
  -2  -7   0    7.96    2.20
  -2   7   0   15.23    2.80
  -2   7   0   14.48    2.62
   0  -2  -7   12.08    2.79
   0  -2  -7   11.32    2.29
  -7   0  -2   13.71    2.30
   0   2   7   10.12    2.29
   0   2  -7   12.68    2.41
   0   2  -7   12.53    2.35
   7   0   2   11.49    1.57
   2   7   0   10.41    2.34
   7   0   2   10.55    2.26
  -7  -1  -2   68.21    4.52
  -1   2   7   67.01    3.84
  -1   2   7   71.72    4.91
   2   7  -1   71.67    4.94
   2  -7   1   73.48    4.10
   1   2  -7   71.45    4.29
   1   2  -7   78.48    5.00
   2  -7   1   66.58    4.62
  -2   7   1   69.07    4.64
  -7   1   2   70.67    5.79
  -2  -7  -1   71.42    3.71
  -2  -7  -1   76.57    5.66
   7   1  -2   66.11    4.32
   2   7  -1   72.16    5.42
   7   1  -2   68.57    4.62
  -2   7   1   59.29    4.65
  -1  -2  -7   78.53    5.75
   7  -1   2   70.87    3.61
   1   2  -7   73.96    5.40
  -1  -2  -7   67.81    4.79
   7  -1   2   69.04    4.70
   1   2  -7   69.51    4.36
   1  -2   7   65.47    4.65
  -7  -1  -2   69.98    5.27
  -7  -1   2   77.39    6.33
  -1   2  -7   70.01    3.89
  -7   1  -2   68.42    5.35
   1   2   7   68.92    4.74
   7   1   2   76.46    4.81
   1  -2  -7   77.40    5.74
  -2  -7   1   70.39    5.21
  -2   7  -1   78.66    5.33
  -2   7  -1   72.34    4.56
  -7   1  -2   74.05    4.20
   1  -2  -7   76.17    4.53
   7  -1  -2   81.50    4.77
   2  -7  -1   80.28    4.73
  -1   2  -7   62.43    4.71
  -1   2  -7   74.60    4.82
   2   7   1   69.13    4.74
   7   1   2   72.93    4.17
   2   7   1   78.01    5.45
   7  -1  -2   77.22    4.87
   2  -7  -1   68.99    4.78
   7  -2   2   66.87    4.70
  -7   2   2   71.37    5.79
  -2   7   2   70.70    4.45
  -2   7   2   77.43    5.38
  -2   2   7   72.83    4.98
  -2   2   7   68.68    4.15
  -2  -7  -2   68.42    4.12
   7   2  -2   71.00    4.28
   2  -2   7   62.73    4.58
   2  -7   2   67.70    3.87
   2  -7   2   66.48    4.68
  -7  -2  -2   74.87    5.42
   2   7  -2   66.16    5.51
   2   7  -2   72.67    4.90
   2   2  -7   66.94    4.19
   2  -2   7   67.09    3.66
  -2  -2  -7   71.66    5.17
   2   2  -7   63.20    5.34
   7   2  -2   74.98    4.99
   2   2  -7   75.76    5.19
  -2  -2  -7   68.47    5.32
  -7  -2  -2   70.44    5.04
   2   2  -7   63.82    4.37
  -2  -7  -2   63.92    5.43
  -2   7  -2   80.37    5.61
  -2   2  -7   78.28    5.14
   2   2   7   68.51    4.66
  -2   7  -2   76.43    4.37
   2   7   2   67.45    4.38
   2  -7  -2   75.00    4.85
   2  -7  -2   78.51    5.18
   2  -2  -7   72.42    4.22
   2  -2  -7   73.27    5.75
  -2  -7   2   73.78    5.25
   7   2   2   67.12    4.32
   7  -2  -2   70.20    4.51
   7  -2  -2   73.78    4.92
  -2   2  -7   72.38    4.91
  -7  -2   2   75.31    4.47
  -7   2  -2   71.70    5.57
   2   7   2   74.97    5.48
  -7  -2   2   69.58    6.25
  -7   2  -2   77.50    4.21
   7   2   2   67.18    4.49
   2  -7   3    4.52    1.29
   2  -7   3    2.42    1.35
  -3   2   7    4.09    1.56
   7   3  -2    3.76    1.27
   3   2  -7    2.59    1.13
  -7  -3  -2    3.50    1.92
  -3  -2  -7    2.68    1.59
   7  -3   2    1.75    1.26
   3   2  -7    0.37    1.25
  -2   7   3    5.01    1.43
   2   7  -3    2.65    1.82
   2   7  -3    2.52    1.33
   3   2  -7    4.10    1.51
   3  -2   7    2.03    1.45
  -2  -7  -3    3.31    1.36
   7   3  -2    2.84    1.39
  -7   3   2    3.14    1.98
  -7  -3  -2    1.76    1.48
  -2  -7  -3    2.73    1.77
   3   2  -7    3.92    2.13
  -2   7   3    5.49    2.02
  -3  -2  -7    3.26    1.68
   3  -2  -7    4.03    1.98
  -2   7  -3    1.85    1.52
  -2  -7   3    3.26    1.45
   7   3   2    2.98    1.35
  -7  -3   2    0.63    1.31
   3   2   7    1.69    1.19
  -3   2  -7    1.66    1.21
  -7   3  -2    3.36    1.83
   2  -7  -3    1.22    1.23
  -7   3  -2    3.07    1.16
   7   3   2    2.64    1.34
  -3   2  -7    1.04    1.19
   3  -2  -7    3.27    1.08
  -2   7  -3    2.96    1.15
  -7  -3   2    1.82    1.80
   2   7   3    2.85    1.55
   3  -2  -7    2.12    1.41
   7  -3  -2    1.20    1.20
   2  -7  -3    4.25    1.83
   7  -3  -2    2.01    1.15
  -2  -7  -4   60.72    5.54
   2   7  -4   65.20    5.91
   2   7  -4   65.79    4.65
  -4  -2  -7   76.34    5.74
   4   2  -7   67.59    4.79
  -7  -4  -2   68.73    5.79
   7   4  -2   73.19    5.21
  -7   4   2   76.52    5.81
   7  -4   2   67.97    4.89
  -2  -7  -4   75.41    4.93
  -2   7   4   71.16    5.52
   4  -2   7   72.35    5.20
   2  -7   4   72.68    5.09
   4   2  -7   75.62    5.56
   2  -7   4   71.40    3.90
  -7  -4  -2   78.11    5.49
  -4   2   7   73.90    5.06
   2   7   4   65.87    5.36
   2  -7  -4   68.49    5.12
  -7   4  -2   65.76    5.53
  -7   4  -2   59.16    3.93
  -7  -4   2   64.73    5.18
   4   2   7   71.22    5.58
   7  -4  -2   61.20    4.43
   7  -4  -2   60.34    4.86
  -4   2  -7   58.55    4.72
   7   4   2   58.23    4.60
   4  -2  -7   53.64    5.09
  -2   7  -4   58.97    5.36
   4  -2  -7   56.76    4.81
  -2  -7   4   71.49    5.15
  -7  -4   2   65.51    6.40
  -4  -2   7   61.04    3.88
  -4   2  -7   58.74    4.72
   7   4   2   69.10    4.45
   4   2   7   62.20    4.51
   2  -7  -4   65.85    5.24
  -4  -2   7   56.96    5.57
   5   2  -7  118.19    7.60
   5  -2   7  121.30    7.30
  -5  -2  -7  129.80    8.11
  -7  -5  -2  122.97    8.28
   2  -7   5  131.79    7.45
   2   7  -5  124.28    8.74
  -7  -5  -2  144.13    7.91
  -5   2   7  128.00    7.42
  -2  -7  -5  138.82    8.40
  -7   5   2  123.36    6.95
  -2   7   5  128.23    7.96
   5   2  -7  121.63    7.10
   7  -5   2  128.98    7.22
   7  -5   2  127.90    6.47
   7   5  -2  130.35    7.58
  -2  -7  -5  120.62    7.09
   2   7  -5  130.02    6.86
  -7   5   2  121.80    7.80
   7  -5  -2  115.27    7.20
  -2  -7   5  128.26    7.46
  -5   2  -7  121.24    7.34
   2  -7  -5  133.51    7.98
   5   2   7  118.32    6.48
   5   2   7  124.61    7.74
  -5  -2   7  132.98    8.74
  -5   2  -7  128.64    7.39
  -7  -5   2  135.67    9.24
   7   5   2  130.41    6.46
   5  -2  -7  121.81    7.46
   5  -2  -7  120.61    7.95
  -7   5  -2  122.40    8.04
   2   7   5  131.50    8.15
   7   5   2  118.01    7.23
   2  -7  -5  128.74    7.40
  -2   7  -5  127.29    8.23
  -7  -5   2  141.39    8.20
  -7   6   2  236.07   10.64
  -2   7   6  238.01   11.87
   7  -6   2  233.34    9.82
   6  -2   7  221.02   10.89
   2   7  -6  238.56   13.00
   2   7  -6  228.36   10.06
  -7  -6  -2  242.49   12.40
  -6  -2  -7  236.45   12.12
   2  -7   6  235.45   11.17
   7  -6   2  237.55   10.78
  -7  -6  -2  245.79   11.03
   7   6  -2  224.38   11.14
   6   2  -7  216.54   10.62
  -2  -7  -6  243.34   11.21
  -6   2   7  232.92   11.34
  -7   6   2  231.45   11.54
  -2  -7  -6  237.91   11.85
   6   2  -7  222.44   11.10
   7   6   2  224.88   11.22
   2  -7  -6  224.16   11.51
  -6   2  -7  219.17   10.73
  -6  -2   7  230.16   12.70
  -7  -6   2  235.30   11.78
  -7   6  -2  206.29   11.56
   6   2   7  218.67   11.23
   7  -6  -2  221.77   10.97
   6  -2  -7  245.34   11.98
  -2  -7   6  242.00   11.14
  -2   7  -6  217.65   11.94
  -6   2  -7  218.70   10.82
   6  -2  -7  201.96   10.67
   2  -7  -6  225.73   10.53
  -7  -6   2  236.86   12.95
   2   7   6  239.52   11.97
   7   0  -3   15.13    2.22
   0   3  -7   18.55    3.56
   0   3  -7   15.42    1.88
  -7   0  -3   16.62    2.79
   0   3   7   17.10    3.07
   3  -7   0   13.15    2.42
   7   0  -3   16.78    2.33
   3   7   0   16.87    3.37
   3   7   0   13.71    2.91
  -7   0  -3   19.40    2.80
   0  -3   7   15.85    2.10
  -7   0   3   13.54    3.70
   7   0   3   13.80    2.55
  -3   7   0   15.89    2.94
   0   3  -7   14.23    2.17
  -3  -7   0   11.66    2.77
   0  -3  -7   11.93    2.97
   0  -3  -7   17.40    3.03
  -3   7   0   16.00    2.35
   7   0   3   12.30    1.59
   3  -7   0   14.92    2.65
   3   7  -1  142.32    8.10
   7   1  -3  129.11    6.47
   7   1  -3  140.54    7.09
  -3   7   1  140.90    7.10
  -7   1   3  142.04    8.63
   7  -1   3  139.59    7.22
   3  -7   1  133.64    6.32
   3   7  -1  133.20    7.33
  -3  -7  -1  144.56    8.25
  -7  -1  -3  147.03    7.50
   1   3  -7  142.63    6.76
  -1  -3  -7  152.32    8.31
   3  -7   1  139.27    6.94
  -7  -1  -3  133.81    7.04
   1   3  -7  143.96    6.61
  -1   3   7  132.16    7.31
   1   3  -7  135.91    6.31
  -1  -3  -7  139.65    7.51
  -3   7   1  132.56    7.15
   1   3  -7  136.27    7.99
   1  -3   7  134.23    6.59
   7   1   3  122.34    6.75
   1  -3  -7  123.63    7.69
   3   7   1  123.05    6.99
  -1   3  -7  127.16    6.83
  -3   7  -1  126.80    7.31
  -7   1  -3  122.66    7.40
   3   7   1  121.72    7.30
   7  -1  -3  130.39    6.91
  -1   3  -7  119.49    7.19
   3  -7  -1  130.35    6.77
   7  -1  -3  122.25    6.68
  -3   7  -1  130.74    6.43
  -7  -1   3  118.23    8.34
   1  -3  -7  125.92    6.53
  -3  -7   1  122.87    7.45
   7   1   3  129.59    5.91
  -7   1  -3  122.01    6.30
  -1   3  -7  126.19    5.56
   3  -7  -1  125.62    6.55
   1   3   7  123.81    7.01
   3  -7   2   20.06    2.21
  -7  -2  -3   17.01    3.13
  -2  -3  -7   17.81    3.28
  -2  -3  -7   18.84    2.90
  -7   2   3   16.39    3.45
   7  -2   3   14.86    2.70
  -3  -7  -2   13.64    1.78
   7   2  -3   18.82    2.22
  -3  -7  -2   24.06    3.51
   2  -3   7   17.76    2.37
   2   3  -7   16.77    3.69
   2   3  -7   17.96    2.22
   2   3  -7   17.93    2.32
   3  -7   2   14.93    2.32
   3   7  -2   17.62    3.70
  -3   7   2   18.43    3.24
   3   7  -2   13.41    2.60
  -7  -2  -3   18.05    2.69
   2   3  -7   17.86    2.25
  -3   7   2   16.52    2.34
   7   2  -3   18.33    2.60
  -2   3   7   17.92    2.78
  -7   2  -3   12.20    2.90
  -7  -2   3    9.73    2.90
  -7   2  -3    9.97    2.02
   3   7   2   17.92    2.96
  -2   3  -7   12.59    2.71
   7  -2  -3   12.22    2.48
   7  -2  -3   15.88    3.00
  -3   7  -2   14.88    3.10
  -3   7  -2   11.13    1.73
  -3  -7   2   13.92    2.83
   2  -3  -7   22.73    4.13
  -2   3  -7   11.25    2.54
   3   7   2    6.99    2.27
   2   3   7   13.72    2.70
   3  -7  -2   14.70    2.77
   7   2   3   14.08    2.43
   7   2   3   13.53    2.67
   3  -7  -2    9.07    2.20
   2  -3  -7   14.33    2.34
  -3   3   7  137.00    6.43
   3   7  -3  133.49    7.30
   3  -7   3  131.13    6.19
   3  -7   3  126.86    7.00
   3  -3   7  132.00    7.01
  -3   7   3  127.67    7.51
   7  -3   3  127.70    7.06
   7   3  -3  140.12    7.57
   7   3  -3  133.57    6.14
  -3  -7  -3  137.27    8.47
  -3   3   7  136.21    7.56
  -3  -7  -3  134.10    6.41
  -3  -3  -7  130.64    7.97
  -7  -3  -3  138.94    7.29
  -3   7   3  134.97    6.64
  -7   3   3  131.64    7.96
   3   7  -3  121.95    8.23
  -7  -3  -3  119.70    7.75
  -3  -3  -7  132.69    7.72
   3   3  -7  126.39    8.50
   3   3  -7  126.95    6.81
   3   3  -7  141.65    7.10
  -7  -3   3  129.93    7.50
   7  -3  -3  135.78    7.47
  -7   3  -3  137.72    8.13
   3  -3  -7  136.56    6.00
   3   7   3  127.61    7.73
  -3   3  -7  132.27    7.26
   7   3   3  135.38    6.85
   3  -7  -3  118.27    6.83
   3   3   7  130.87    7.18
   3  -7  -3  134.19    7.45
  -3  -3   7  132.57    6.54
  -3   3  -7  129.09    7.48
   3  -3  -7  123.55    7.90
   7   3   3  129.67    6.86
  -7   3  -3  132.65    6.48
   7  -3  -3  123.79    6.88
  -7  -3   3  139.21    9.34
  -3   7  -3  139.02    8.18
  -3  -7   3  127.95    7.39
  -4  -3  -7  107.20    7.32
   4   3  -7  110.86    8.18
  -7   4   3  106.19    6.93
  -4   3   7  102.78    6.66
  -3  -7  -4  102.66    5.83
  -3  -7  -4  103.09    7.36
   7   4  -3  108.32    6.57
   7  -4   3  101.14    6.21
   4   3  -7   99.86    6.12
   4   3  -7  101.00    6.15
  -7  -4  -3  104.94    6.13
  -7  -4  -3   95.34    7.23
   3  -7   4  100.08    5.20
   3  -7   4   97.25    6.22
   4  -3   7   94.27    5.99
   3   7  -4  105.04    6.29
  -4   3   7  108.67    5.97
   3   7  -4  111.25    7.97
  -3   7   4  109.41    6.98
  -3   7   4  109.01    5.52
   3  -7  -4  106.83    6.81
  -7  -4   3   98.26    6.36
   4   3   7   96.75    6.86
   7  -4  -3   92.64    6.23
   3  -7  -4   97.90    6.07
   4   3   7   93.73    5.99
   3   7   4   98.41    6.90
   4  -3  -7   83.20    6.57
  -7   4  -3   96.16    6.90
   7   4   3   95.92    5.75
  -4   3  -7   88.21    6.26
  -7  -4   3  102.68    8.05
   7  -4  -3   95.56    5.98
   7   4   3   97.97    6.13
  -4  -3   7   94.05    5.31
  -4   3  -7   92.67    6.16
  -3  -7   4  104.59    6.52
  -3   7  -4   90.66    6.78
  -7   4  -3   89.51    5.36
   5  -3   7   41.16    4.02
   3   7  -5   38.79    3.77
   3  -7   5   32.00    3.71
   5   3  -7   37.12    3.83
  -7  -5  -3   30.38    4.37
  -7   5   3   38.50    4.26
   3   7  -5   33.55    4.82
  -5   3   7   37.71    3.77
  -3  -7  -5   29.34    3.35
  -3   7   5   34.04    4.06
  -7  -5  -3   35.35    3.60
  -5  -3  -7   42.79    4.83
  -7   5   3   36.18    3.78
   7  -5   3   42.79    4.02
   7   5  -3   36.17    3.95
   3  -7   5   39.17    3.27
  -3  -7  -5   37.21    4.36
  -7  -5   3   33.10    4.79
  -3  -7   5   31.67    3.68
  -3   7  -5   28.62    4.00
   5  -3  -7   32.05    3.81
   3  -7  -5   33.76    4.06
   3  -7  -5   37.96    3.75
  -7   5  -3   28.38    3.03
   7  -5  -3   32.72    3.75
  -5   3  -7   28.84    3.53
   5  -3  -7   37.75    4.43
  -5   3  -7   36.21    4.09
  -7  -5   3   35.28    4.01
   5   3   7   36.00    3.66
   5   3   7   35.76    4.14
   3   7   5   31.85    4.06
  -5  -3   7   30.38    4.55
  -7   5  -3   32.18    4.24
   7   5   3   43.90    4.16
   7   5   3   29.95    3.21
   3   7  -6   10.22    3.39
  -6   3   7    5.13    2.06
   7  -6   3    9.12    2.35
   7  -6   3    7.06    2.13
   7   6  -3    2.70    1.75
  -3  -7  -6    8.26    2.99
   6   3  -7    8.44    2.45
  -7   6   3   10.25    2.66
  -6  -3  -7   12.16    3.20
   3  -7   6    6.36    1.76
   3  -7   6    9.96    2.64
  -7   6   3    8.73    2.79
  -3  -7  -6   10.25    2.63
  -3   7   6    6.32    2.38
   3   7  -6    6.28    2.06
  -7  -6  -3    9.96    3.10
   6  -3   7    8.18    2.53
   3  -7  -6   10.20    3.00
   7  -6  -3   10.69    2.74
   6   3   7    6.75    2.56
   6  -3  -7    8.28    2.69
   3   7   6   12.70    3.21
  -7  -6   3   15.62    4.12
   6   3   7   13.79    3.04
  -6   3  -7   12.53    3.21
  -3  -7   6   11.51    2.80
   7   6   3    6.10    2.30
   6  -3  -7    8.27    2.44
  -6  -3   7   12.22    3.66
  -6   3  -7   10.32    2.64
  -3   7  -6   11.81    3.32
   7   6   3    7.89    2.30
  -7   6  -3   14.30    3.36
  -7  -6   3    8.89    2.71
   4   7   0  139.32    8.08
   4   7   0  165.86    9.12
   4  -7   0  152.21    7.47
   0   4  -7  150.97    8.86
   0  -4   7  164.23    7.07
   0   4  -7  159.83    6.77
   0   4   7  152.75    8.36
   4  -7   0  158.74    7.58
   7   0  -4  166.72    8.10
  -4   7   0  153.12    7.62
   0  -4  -7  163.29    8.98
  -4   7   0  159.75    8.41
  -7   0  -4  168.94    8.40
  -7   0  -4  155.94    7.91
  -7   0   4  162.21    9.74
   0   4  -7  158.15    7.80
   7   0  -4  167.32    8.01
   0  -4  -7  172.27    8.37
  -4  -7   0  160.01    8.94
   7   0   4  147.57    7.90
  -4   7   1  165.45    8.26
  -7  -1  -4  166.32    8.36
   4  -7   1  162.27    7.70
  -4   7   1  171.24    8.24
   7   1  -4  159.44    8.14
  -1  -4  -7  160.63    8.53
   1   4  -7  168.61    9.52
   1   4  -7  166.11    7.28
   1   4  -7  150.90    7.55
   4  -7   1  167.83    7.59
  -1  -4  -7  174.56    9.24
   4   7  -1  157.81    9.22
   4   7  -1  161.76    8.54
   1  -4   7  158.56    7.20
  -1   4   7  173.05    8.78
   7  -1   4  161.37    8.23
  -7   1   4  174.47    9.76
  -4  -7  -1  179.70    9.71
   7   1  -4  162.58    7.68
  -7  -1  -4  173.99    8.25
  -1   4  -7  158.04    8.77
   7   1   4  153.26    7.97
   4   7   1  153.34    8.48
   1  -4  -7  151.80    8.82
   4   7   1  158.84    8.48
  -4   7  -1  154.98    8.50
  -4   7  -1  163.82    7.36
  -7  -1   4  148.61    9.69
  -7   1  -4  161.62    7.76
   7  -1  -4  155.24    8.04
   7  -1  -4  148.91    7.92
  -7   1  -4  148.28    8.23
   1   4   7  155.41    8.42
   4  -7  -1  160.56    7.85
   7   1   4  151.66    6.66
  -4  -7   1  157.21    8.75
  -1   4  -7  158.05    7.94
   4  -7  -1  158.69    7.61
   1  -4  -7  144.62    7.58
  -1  -4   7  152.80    6.84
  -1  -4   7  158.06    7.93
   2  -4   7   65.38    4.35
   4  -7   2   63.23    4.25
   4  -7   2   58.91    4.39
  -2  -4  -7   60.41    5.17
  -4   7   2   57.17    4.52
   7   2  -4   51.93    4.45
   7   2  -4   59.00    4.11
   4   7  -2   58.46    4.77
   2   4  -7   70.35    6.06
  -7   2   4   54.11    5.18
  -4  -7  -2   62.15    4.51
  -2   4   7   69.59    5.36
  -4   7   2   55.21    4.67
   2   4  -7   63.76    3.84
   7  -2   4   51.85    4.44
   2   4  -7   59.47    4.20
  -2  -4  -7   71.35    5.45
  -7  -2  -4   62.01    4.52
  -4  -7  -2   61.32    5.56
  -7  -2  -4   56.80    5.03
   4   7  -2   67.39    6.04
  -7   2  -4   59.38    5.11
   2   4   7   65.38    5.08
   7   2   4   60.37    4.04
   7  -2  -4   54.18    4.63
  -4   7  -2   62.06    5.20
   2  -4  -7   70.07    4.49
  -7   2  -4   61.04    4.38
  -7  -2   4   56.83    5.82
   4  -7  -2   63.50    4.67
   4   7   2   56.86    4.94
   7  -2  -4   60.30    4.63
  -2  -4   7   64.05    4.54
  -2   4  -7   63.30    5.23
  -2   4  -7   68.03    4.91
   4  -7  -2   69.43    4.61
   7   2   4   63.47    4.72
  -4  -7   2   65.20    5.22
   2  -4  -7   64.80    5.54
  -3   4   7   65.12    5.24
  -3  -4  -7   67.12    5.25
   3   4  -7   66.62    6.17
   3  -4   7   58.28    4.30
   4   7  -3   61.25    6.00
   4   7  -3   61.96    4.87
   7  -3   4   57.55    4.65
   7   3  -4   60.52    4.87
   7   3  -4   57.26    4.57
  -7  -3  -4   72.04    4.61
  -7  -3  -4   57.03    5.37
  -4   7   3   78.08    5.61
   4  -7   3   60.56    4.13
  -4   7   3   59.12    4.39
  -7   3   4   62.84    5.44
  -4  -7  -3   57.57    5.58
  -3  -4  -7   71.36    5.80
   4  -7   3   61.59    4.64
   3   4  -7   71.59    4.81
   7   3   4   58.06    4.53
   4  -7  -3   51.54    4.20
  -4   7  -3   58.67    5.33
   7  -3  -4   45.90    4.44
  -7   3  -4   53.69    4.18
   3   4   7   62.52    5.02
  -7  -3   4   58.82    6.13
  -7   3  -4   56.90    5.08
   4  -7  -3   52.60    4.65
  -3  -4   7   52.39    4.11
  -3   4  -7   48.69    4.80
  -3   4  -7   54.63    4.57
   4   7   3   48.29    4.80
   3  -4  -7   54.93    5.19
  -4  -7   3   56.19    4.83
   4   7   3   58.06    4.11
   7  -3  -4   62.98    4.83
   7   3   4   58.60    4.35
  -4  -7  -4  102.34    5.76
  -4  -7  -4   88.57    7.11
  -4   7   4   99.96    5.77
  -7  -4  -4   93.78    7.37
   7   4  -4   97.22    6.55
  -7   4   4  103.54    6.98
   7  -4   4   94.81    6.20
  -4  -4  -7   97.56    7.32
   4  -4   7   91.44    5.90
   4   4  -7   91.30    7.91
   4   7  -4   93.54    7.87
   4   7  -4   87.25    6.14
   4  -7   4   99.75    6.33
   4  -7   4  108.03    5.76
  -4   4   7   99.49    6.81
  -4   7   4   97.68    6.78
   4   4  -7  101.53    6.34
  -4   7  -4  108.85    7.53
   4  -7  -4  103.78    6.97
   4   4   7   99.56    6.45
  -4   4  -7  107.74    7.21
   4  -4  -7   94.43    7.08
  -4  -4   7  115.99    6.14
   7   4   4  113.42    6.47
   7   4   4  102.42    6.36
  -4  -7   4   96.96    6.53
   4   7   4   90.99    6.79
  -7   4  -4  110.05    6.13
   7  -4  -4  112.42    6.72
   7  -4  -4  103.13    6.78
   4   7   4  113.51    6.31
  -7  -4   4  107.18    8.44
  -4   4  -7  110.73    6.74
  -7   4  -4   89.50    6.89
   4   4   7  107.94    7.26
  -4  -7  -5  165.65    9.95
  -7   5   4  166.31    8.92
   4  -7   5  162.68    7.81
  -7   5   4  151.82    8.84
  -4  -7  -5  176.39    8.47
   4   7  -5  148.66    8.37
   7   5  -4  168.94    9.08
  -5   4   7  158.53    8.05
  -4   7   5  167.04    9.50
   5   4  -7  166.69   11.10
  -7  -5  -4  159.85   10.10
   4  -7   5  177.90    9.04
   4   7  -5  156.27   10.67
  -5   4   7  167.30    9.26
   5  -4   7  165.83    8.56
   5   4  -7  169.75    8.89
   7  -5   4  170.18    8.69
  -5  -4  -7  161.87   10.05
   4  -7  -5  178.39    9.72
   5   4   7  159.31    9.22
   5  -4  -7  157.05    9.68
  -7  -5   4  165.99    8.75
   4   7   5  154.96    9.29
   7  -5  -4  158.18    8.97
  -7   5  -4  163.69    8.11
  -7   5  -4  155.59    9.50
  -5  -4   7  159.27    7.72
   7   5   4  166.88    8.41
  -5   4  -7  153.30    8.63
   7   5   4  153.95    8.68
   5   4   7  153.49    8.53
  -4  -7   5  167.30    8.87
  -4   7  -5  147.95    9.48
  -5   4  -7  160.63    9.36
  -7  -5   4  159.06   10.72
  -7   6   4   57.53    5.29
   4  -7   6   69.80    4.85
   4  -7   6   67.00    5.59
  -6   4   7   74.37    5.51
  -4  -7  -6   63.96    5.18
   7   6  -4   66.50    5.57
  -7   6   4   72.16    5.82
   4   7  -6   63.38    5.23
  -6   4   7   57.77    5.39
   7  -6   4   63.65    5.21
   7  -6   4   72.51    5.39
   4   7  -6   74.47    7.43
  -7  -6  -4   76.88    6.90
  -4   7   6   60.36    5.82
  -4  -7  -6   66.68    6.27
   6  -4   7   57.08    5.06
   6   4  -7   68.60    5.62
  -6  -4  -7   62.96    6.34
  -4   7  -6   68.48    6.41
  -6   4  -7   65.93    6.01
  -7   6  -4   65.88    6.36
   4   7   6   68.95    6.13
   6  -4  -7   61.62    5.94
   6   4   7   76.60    6.18
   7  -6  -4   72.22    5.91
   6   4   7   68.01    5.38
  -7  -6   4   72.25    7.28
   7   6   4   67.07    5.05
   7   6   4   68.69    5.67
  -6  -4   7   58.17    6.65
  -4  -7   6   78.13    5.91
  -6   4  -7   69.67    5.58
  -7  -6   4   63.87    5.61
   4  -7  -6   67.82    6.23
   7   0  -5    3.43    1.57
  -5  -7   0   10.44    2.95
  -7   0  -5    5.88    2.11
   0  -5  -7    4.48    1.92
   0  -5  -7    7.83    2.41
   0  -5   7    7.33    1.65
   7   0  -5    8.27    2.29
   0   5  -7    6.62    2.51
   0  -5   7    5.21    1.87
   0   5   7    6.56    2.30
   5  -7   0   10.73    2.43
   5  -7   0    8.18    2.01
   5   7   0    5.41    2.02
   0   5  -7    5.23    1.43
  -5   7   0    6.66    2.21
   7   0   5    6.24    2.04
  -5   7   0   10.26    2.36
  -7   0  -5    5.46    1.91
  -7   0   5    4.53    2.27
  -5  -7   0    6.54    2.53
  -5   7   1   64.99    4.85
  -1  -5  -7   65.21    5.44
  -5  -7  -1   69.29    5.23
   7  -1   5   65.11    5.03
  -7  -1  -5   64.65    5.22
   5   7  -1   66.88    6.10
   5   7  -1   62.11    5.14
   5  -7   1   64.25    4.47
   5  -7   1   65.21    4.67
   1   5  -7   66.90    6.12
  -5   7   1   59.04    4.93
  -7  -1  -5   60.49    4.57
   7   1  -5   66.35    5.09
  -5  -7  -1   59.17    5.50
  -1  -5  -7   62.79    5.28
   1   5  -7   63.84    4.26
   1  -5   7   65.11    4.12
  -1   5   7   67.20    5.44
   7   1  -5   59.15    4.70
  -5   7  -1   54.34    5.10
   7   1   5   64.92    5.10
   7  -1  -5   58.89    4.74
  -7   1  -5   63.34    4.80
   1  -5  -7   63.12    4.84
  -1   5  -7   62.84    4.79
  -5  -7   1   59.26    5.29
  -1   5  -7   60.53    5.50
  -1  -5   7   61.95    4.74
  -7   1  -5   57.34    4.86
   1   5   7   61.66    5.29
   7  -1  -5   55.58    4.80
   1  -5  -7   69.58    5.63
   5   7   1   65.48    5.34
   5  -7  -1   58.04    4.18
   5  -7  -1   62.96    4.81
  -7  -1   5   62.17    6.06
   5  -7   2  163.78    7.88
   5   7  -2  174.64    9.04
  -5   7   2  164.68    8.45
  -5  -7  -2  157.82    9.59
   2   5  -7  179.39   10.39
  -7  -2  -5  162.39    7.73
  -7  -2  -5  175.30    9.50
   2  -5   7  157.07    7.38
   7  -2   5  164.77    8.62
   7   2  -5  167.15    8.69
   7   2  -5  158.18    7.97
  -5   7   2  154.29    8.35
  -2   5   7  158.66    8.94
  -2  -5  -7  153.71    8.99
   5   7  -2  160.04   10.20
  -2  -5  -7  165.35    9.06
  -7   2   5  169.99    9.51
   5  -7   2  159.48    7.82
   2   5  -7  166.22    7.72
  -7   2  -5  150.29    8.61
   7  -2  -5  156.51    8.44
  -7  -2   5  141.66    9.80
   2  -5  -7  161.86    7.81
  -5   7  -2  150.59    8.87
   7   2   5  155.05    7.27
  -2   5  -7  168.10    9.46
   5   7   2  156.66    8.88
   2  -5  -7  142.79    8.95
  -2  -5   7  151.76    7.95
   7  -2  -5  152.63    8.56
   7   2   5  144.58    8.15
   5  -7  -2  155.75    8.30
  -2   5  -7  154.66    8.23
  -7   2  -5  152.68    8.00
   5  -7  -2  149.17    7.35
   2   5   7  141.78    8.50
  -5  -7   2  149.95    8.77
   5   7  -3   59.95    6.42
  -3  -5  -7   56.53    5.46
   3   5  -7   54.44    6.04
  -7  -3  -5   49.55    5.27
  -3   5   7   46.72    4.77
   3  -5   7   49.57    4.04
  -5  -7  -3   51.95    5.42
   5  -7   3   54.02    4.41
  -5   7   3   56.43    4.93
  -3  -5  -7   51.32    4.80
   7   3  -5   49.19    4.53
   5  -7   3   50.30    4.09
   7  -3   5   51.74    4.58
  -7   3   5   51.13    4.99
   5   7  -3   52.47    4.72
   3   5  -7   49.22    4.15
  -5   7   3   48.49    4.35
  -7   3  -5   57.68    4.52
   5  -7  -3   57.26    4.98
  -7  -3   5   56.41    6.21
   7   3   5   60.30    4.88
   3  -5  -7   53.23    5.31
   7  -3  -5   58.16    4.93
   7   3   5   55.73    4.30
  -3  -5   7   62.70    4.65
   5   7   3   49.69    4.97
  -3   5  -7   54.69    4.60
   3   5   7   45.05    4.60
   7  -3  -5   65.20    5.42
  -5  -7   3   70.37    5.56
  -5   7  -3   54.55    5.22
  -3   5  -7   57.63    5.36
  -7   3  -5   57.68    5.30
   5  -7   4   21.08    3.00
  -7  -4  -5   23.68    4.70
   5   7  -4   20.43    3.60
   7   4  -5   14.75    3.09
   5   7  -4   29.16    5.93
   4   5  -7   14.90    4.11
   4   5  -7   17.55    3.15
  -7   4   5   24.57    3.48
   7  -4   5   20.64    3.06
  -4   5   7   17.64    3.68
  -4  -5  -7   21.04    4.10
  -5   7   4   16.04    3.36
   4  -5   7   21.30    2.79
  -5   7   4   20.08    2.81
  -5  -7  -4   22.49    4.59
  -4  -5  -7   21.37    3.20
   5  -7   4   23.80    2.87
   5  -7  -4   18.80    3.80
   5   7   4   16.82    3.67
  -5  -7   4   15.18    3.23
  -5   7  -4   22.80    4.60
  -4   5  -7   17.02    3.41
  -7  -4   5   16.62    4.37
   5   7   4   18.72    3.09
  -7   4  -5   13.53    2.75
  -4  -5   7   15.47    2.88
  -4   5  -7   17.38    3.74
   7   4   5   14.09    3.04
   7  -4  -5   17.96    3.40
   7  -4  -5   18.22    3.92
   4  -5  -7   22.09    4.34
  -7   4  -5   13.68    3.29
   7   4   5   14.73    2.97
   4   5   7    9.91    2.78
   5   7  -5   57.86    5.17
   5   5  -7   81.24    7.84
  -7   5   5   65.00    5.54
  -7  -5  -5   44.68    5.43
   7   5  -5   51.99    5.03
  -5   7   5   63.05    5.64
   5   7  -5   57.18    6.77
  -5  -5  -7   58.06    5.98
   5  -7   5   55.71    4.53
   5  -7   5   52.90    4.93
   5   5  -7   56.90    4.90
   7  -5   5   62.83    5.09
  -5   5   7   59.88    5.64
   5  -5   7   53.92    4.72
  -7   5   5   53.12    4.98
  -5  -7  -5   68.47    6.28
   5   5   7   62.72    5.43
   5   7   5   60.40    4.96
   5  -5  -7   60.72    5.89
  -5  -5   7   69.96    4.97
  -7  -5   5   65.26    6.93
   7  -5  -5   60.97    5.58
   5   7   5   64.54    5.77
  -5   7  -5   69.87    6.37
  -5  -7   5   66.62    5.46
   7   5   5   55.11    4.92
  -7   5  -5   61.14    6.00
  -7   5  -5   59.69    4.87
   5  -7  -5   66.13    5.96
  -5   5  -7   67.70    5.39
   5   5   7   70.01    5.89
   7   5   5   61.73    5.26
  -5   5  -7   66.29    6.05
   6  -5   7   30.27    3.74
  -7  -6  -5   31.17    5.63
   5  -7   6   28.28    3.36
  -7   6   5   28.99    3.83
  -7   6   5   28.77    3.99
   5   7  -6   30.44    3.83
  -5  -7  -6   31.34    4.50
   6   5  -7   32.71    3.95
  -6  -5  -7   22.93    4.57
  -5   7   6   25.66    4.72
   5   7  -6   21.95    4.95
   7  -6   5   24.91    3.57
   7   6  -5   30.81    4.03
  -6   5   7   28.99    4.11
   5  -7   6   24.55    3.62
   7  -6  -5   26.56    4.77
  -5   7  -6   27.69    5.35
   5  -7  -6   26.69    4.01
   5   7   6   30.18    3.82
   7   6   5   27.22    3.88
   5   7   6   25.96    3.95
  -7  -6   5   22.16    4.85
  -6   5  -7   27.64    4.99
  -5  -7   6   27.84    3.66
   6   5   7   29.52    4.03
   7   6   5   20.97    3.73
   6  -5  -7   23.49    4.86
  -7   6  -5   22.21    4.35
   6   5   7   24.15    3.60
  -6   5  -7   28.32    3.65
  -6  -5   7   20.44    4.99
  -7   6  -5   23.99    3.29
  -7   0  -6  143.66    7.72
   0   6   7  150.96    8.93
   6  -7   0  147.17    7.95
   6  -7   0  158.54    7.27
  -6  -7   0  154.59    8.96
   7   0  -6  144.54    8.23
   7   0  -6  147.98    8.40
   7   0   6  128.94    8.01
   0  -6  -7  146.50    8.71
  -7   0  -6  153.55    8.63
  -7   0   6  148.58    9.48
   0  -6  -7  136.17    8.21
  -6  -7   0  141.38    9.02
  -6   7   0  141.17    8.59
   6   7   0  160.43    8.84
   0  -6   7  145.93    8.19
   0   6  -7  144.17    9.39
  -6  -7  -1   30.32    3.77
   7  -1   6   34.55    3.78
   6  -7   1   30.32    3.44
  -7   1   6   31.24    4.19
  -7  -1  -6   29.98    3.88
  -1  -6  -7   28.09    3.76
   7   1  -6   26.72    3.43
  -1  -6  -7   29.32    3.84
  -6   7   1   33.67    3.96
  -6   7   1   31.51    3.49
   1   6  -7   27.67    4.26
   6  -7   1   27.42    3.00
   6   7  -1   30.75    3.89
  -6  -7  -1   32.26    4.32
  -7  -1  -6   34.16    3.41
   7   1  -6   32.62    3.77
   1   6  -7   28.05    2.93
  -1   6   7   27.61    3.80
   1  -6   7   26.89    3.42
   1   6   7   23.91    3.65
  -7   1  -6   25.43    3.37
   7   1   6   30.15    3.72
  -7  -1   6   38.19    4.92
   1  -6  -7   27.00    4.53
   1  -6  -7   33.11    3.73
   7  -1  -6   28.59    3.57
   7  -1  -6   32.75    3.91
  -1  -6   7   26.93    3.41
  -1   6  -7   35.30    4.51
   6   7   1   30.15    3.80
  -6  -7   1   32.13    4.39
  -6  -7   1   33.21    4.34
  -6   7  -1   30.88    3.99
   6  -7  -1   30.82    3.59
  -7   1  -6   28.93    3.55
  -2  -6  -7  139.26    8.69
  -2   6   7  125.15    8.29
   2  -6   7  138.94    6.71
   2  -6   7  131.76    7.94
   2   6  -7  124.85    9.14
   7   2  -6  129.44    7.64
  -7  -2  -6  138.08    8.73
   6  -7   2  131.13    7.06
   7  -2   6  134.57    7.93
   7   2  -6  130.70    7.85
  -7   2   6  138.08    8.59
  -6  -7  -2  132.44    8.95
  -6   7   2  126.88    7.63
  -2  -6  -7  137.74    8.25
   6  -7   2  124.45    7.21
   6   7  -2  135.49    8.10
  -6   7   2  143.54    8.16
   2   6  -7  131.83    7.06
   2   6   7  125.48    8.17
  -2  -6   7  126.94    7.50
   2  -6  -7  136.63    8.69
  -7  -2   6  137.59    9.63
   6   7   2  134.29    8.28
  -6   7  -2  136.57    8.76
  -2   6  -7  131.50    8.87
  -6  -7   2  131.80    8.37
   2  -6  -7  136.44    7.42
   6  -7  -2  133.24    7.87
  -7   2  -6  134.82    7.74
   7  -2  -6  134.63    8.04
   7  -2  -6  144.58    8.52
   7   2   6  133.24    8.08
  -6  -7   2  135.38    9.27
  -7   2  -6  127.06    7.85
  -7  -3  -6   26.31    3.97
   7   3  -6   20.82    3.23
  -3  -6  -7   23.33    4.30
   3  -6   7   26.41    2.98
   3   6  -7   22.76    5.01
   3   6  -7   20.16    2.93
  -3   6   7   19.27    3.99
  -3  -6  -7   21.38    3.24
   6  -7   3   23.39    3.07
   6  -7   3   29.14    3.31
   6   7  -3   27.47    3.70
  -6   7   3   25.51    3.55
   7  -3   6   25.39    3.41
  -6   7   3   26.88    3.52
  -6  -7  -3   27.99    5.05
  -7   3   6   23.96    4.17
  -7   3  -6   26.73    3.25
  -7   3  -6   24.76    3.76
  -6  -7   3   27.40    5.29
  -6  -7   3   26.07    3.77
  -6   7  -3   29.16    4.11
   7  -3  -6   28.83    3.72
   7  -3  -6   30.61    4.10
  -7  -3   6   27.24    5.29
   7   3   6   21.25    3.86
   6   7   3   30.57    3.97
   6  -7  -3   29.08    3.70
   3  -6  -7   27.63    4.74
  -3  -6   7   25.82    3.38
  -3   6  -7   24.19    4.42
  -3   6  -7   24.66    3.31
   3   6   7   24.24    3.75
   7   3   6   27.90    5.57
   6  -7   4  131.71    7.41
  -7  -4  -6  125.24    9.13
   6   7  -4  124.73    9.98
  -7   4   6  116.96    7.61
  -7   4   6  126.55    8.17
  -6  -7  -4  138.96    9.24
   7  -4   6  120.94    7.63
   7   4  -6  120.69    7.75
  -6   7   4  129.69    7.66
   6  -7   4  126.13    7.49
  -4  -6  -7  118.81    7.67
  -4  -6  -7  135.80    9.10
  -6   7   4  126.22    8.11
   4  -6   7  119.82    6.98
   6   7  -4  127.19    8.07
  -4   6   7  120.67    8.22
   4   6  -7  114.35    7.33
   4   6  -7  131.01    9.95
  -4   6  -7  133.02    8.92
   7  -4  -6  132.93    8.67
  -4  -6   7  143.37    7.86
   7   4   6  141.60    8.37
   4  -6  -7  130.63    8.83
   4   6   7  145.59    8.73
   6  -7  -4  135.72    8.50
  -7  -4   6  127.38    9.75
  -7   4  -6  135.87    8.71
  -7   4  -6  128.95    7.68
  -4   6  -7  134.07    7.92
   6   7   4  138.55    8.56
   7   4   6  135.94    7.71
  -6   7  -4  126.54    8.78
  -6  -7   4  143.63    8.46
  -6  -7  -5   99.67    7.94
  -7   5   6  103.40    7.39
  -7   5   6   98.02    6.73
   5  -6   7  103.64    6.57
   5   6  -7  110.93    9.59
   5   6  -7  112.34    7.25
  -5   6   7   95.04    7.39
  -6   7   5  109.37    7.55
  -5  -6  -7   87.98    7.60
   6  -7   5  105.70    6.65
   6  -7   5   97.65    6.75
   6   7  -5  108.73    9.50
   6   7  -5  105.55    7.20
  -7  -5  -6  104.68    8.34
  -6   7   5  108.78    7.27
   7   5  -6  114.63    7.55
   7  -5   6   92.63    6.57
   5   6   7   96.47    7.17
   7   5   6   87.15    6.54
   6   7   5   86.40    6.99
   5   6   7  103.81    7.39
   5  -6  -7  100.10    7.88
   6  -7  -5   95.13    7.46
  -5  -6   7   94.98    6.44
  -5   6  -7   97.65    7.81
  -5   6  -7   98.37    6.86
  -6  -7   5   84.19    6.53
  -6   7  -5   98.50    7.96
   6   7   5   95.87    6.44
   7  -5  -6   99.40    7.66
   7   5   6   90.83    6.80
  -7  -5   6   90.52    8.38
  -7   5  -6   88.61    7.41
  -7   5  -6  101.91    6.75
  -7  -6  -6   12.03    3.74
   6   6  -7   16.07    3.52
   6  -7   6   19.69    3.55
   7  -6   6   14.76    3.20
  -7   6   6   14.04    3.15
  -7   6   6   12.48    3.27
  -6  -7  -6   15.36    3.85
   6   7  -6   15.22    3.55
  -6  -6  -7   15.92    4.03
   6   7  -6   14.76    4.64
   7   6  -6   11.26    3.10
   6  -6   7   10.27    2.73
  -6   6   7   15.10    3.75
   6  -7   6   15.90    3.47
  -6   7   6   12.70    3.59
   6  -7  -6   15.19    3.86
  -7   6  -6   19.20    4.32
  -6  -7   6   18.07    3.59
   6  -6  -7   23.02    4.63
  -6   6  -7   22.11    3.33
  -7  -6   6   17.54    4.57
   6   6   7   20.03    4.03
   6   6   7   18.38    3.77
  -6  -6   7   18.97    5.07
  -6   7  -6   20.29    4.34
   6   7   6   26.60    4.08
   6   7   6   15.27    3.32
   7  -6  -6   16.33    3.76
  -7   6  -6   19.09    3.57
  -6   6  -7   24.15    4.89
   7   6   6   19.66    3.85
   7   6   6   17.20    3.57
  -7  -7   0   19.51    4.00
  -7  -7   0   10.01    3.30
  -7   0  -7   15.12    3.01
  -7   0  -7   12.03    3.10
  -7   0   7   14.72    3.54
  -7   7   0   14.62    3.44
   0  -7  -7    7.56    2.68
   0  -7  -7   11.24    2.97
   0  -7   7   12.53    3.00
   0   7  -7   12.92    3.68
   0   7   7    8.12    2.72
   7  -7   0   11.33    2.85
   7   0  -7   14.15    3.07
   7   0  -7   11.65    3.11
   7   0   7    7.36    2.31
   7   7   0   20.52    3.95
  -7  -7  -1    0.33    1.64
  -7  -7  -1   -0.51    1.48
   7   1  -7    1.60    1.51
   7   1  -7    0.89    1.58
  -7  -1  -7    1.94    1.84
   7   7  -1    1.12    1.55
   1   7  -7    1.02    1.81
   7  -1   7    0.44    1.16
  -7   1   7    0.14    1.49
   7  -7   1    4.31    1.86
  -7   7   1    0.82    1.43
  -1  -7  -7   -0.21    1.28
  -1  -7  -7    1.10    1.49
   1   7  -7    1.00    1.66
   1  -7   7    1.25    1.37
  -1   7   7    0.49    1.35
   1  -7  -7    1.11    1.72
   1  -7  -7    2.94    1.78
  -1   7  -7    4.75    2.60
  -1  -7   7    1.42    1.42
  -7   1  -7    0.99    1.44
   1   7   7    1.05    1.49
   7  -7  -1   -0.32    0.98
  -7   7  -1    0.02    1.43
   7  -1  -7    0.50    1.35
   7  -1  -7    0.83    1.58
  -7   1  -7    0.72    1.34
  -7  -7   1    0.56    1.94
  -7  -7   1    1.45    1.68
   7   1   7    1.32    1.50
  -7  -1   7    1.28    1.81
   7   7   1   -1.12    1.02
  -7  -7  -2  108.74    8.12
   2   7  -7  109.33    6.44
   7  -2   7  105.69    7.12
  -7  -2  -7   99.64    7.75
   7  -7   2   93.92    6.48
   7   7  -2   99.16    7.10
   7   2  -7   93.54    6.73
  -7   2   7  102.59    7.34
   2   7  -7   89.12    8.07
  -7   7   2   99.78    7.21
  -7   7   2   99.07    6.74
  -2  -7  -7  113.08    7.39
  -2  -7  -7  102.28    7.52
   7  -7   2   98.24    6.06
   2  -7   7  103.08    7.09
  -2   7   7  108.13    7.75
   2  -7  -7  107.79    7.82
   2  -7  -7  106.56    6.76
  -7   2  -7  103.42    7.03
  -7   7  -2  106.11    7.86
  -7  -7   2   93.13    7.89
   2   7   7  100.54    7.49
   7  -7  -2   96.74    6.88
  -7  -2   7   99.72    8.32
  -2  -7   7  109.98    7.19
   7  -2  -7  114.35    7.49
   7  -2  -7  101.73    7.47
  -7  -7   2   97.71    7.53
  -2   7  -7   97.19    7.90
   7   2   7  107.84    7.53
  -7   2  -7  104.65    7.08
   7   7   2   96.93    7.18
  -7  -7  -3   96.42    7.69
   7  -3   7   89.20    6.48
   7   3  -7   74.13    6.11
  -7  -3  -7   91.74    7.56
   7   7  -3   81.63    6.48
   3   7  -7   77.95    5.79
   3  -7   7   90.40    6.67
  -7   3   7   84.89    6.47
   7  -7   3   85.48    6.12
  -7   7   3   90.22    6.62
  -7   7   3   81.33    6.25
  -3  -7  -7   80.97    6.19
  -3  -7  -7   90.53    7.25
   7  -7   3   83.84    5.68
   3   7  -7   73.11    7.46
  -3   7   7   83.81    6.88
   3  -7  -7   83.71    6.92
  -3  -7   7   91.80    6.50
  -3   7  -7   84.94    7.29
  -7   3  -7   84.28    6.64
   3   7   7   87.29    6.95
   7  -7  -3   87.02    6.54
  -7   7  -3   77.72    7.07
  -7   3  -7   83.29    6.24
   7  -3  -7   83.66    6.56
   7  -3  -7   86.30    7.03
  -7  -7   3   79.62    7.47
  -7  -7   3   86.93    6.85
   7   3   7   78.78    6.56
  -7  -3   7   81.01    7.61
   7   7   3   79.31    6.51
  -7  -7  -4   15.48    3.80
   4   7  -7   18.16    4.92
   7  -4   7   15.43    3.33
  -7  -4  -7   16.18    4.34
   4  -7   7   19.23    2.82
   7   7  -4   21.18    3.95
   7  -7   4   17.15    3.28
  -7   4   7   16.14    3.48
  -7   4   7   19.14    4.19
   7   4  -7   15.80    3.32
  -7   7   4   15.78    3.38
  -7   7   4   16.45    3.70
  -4  -7  -7   19.85    3.64
  -4  -7  -7   11.91    3.43
   7  -7   4   16.39    3.33
   4   7  -7   18.94    3.57
  -4   7   7   19.89    4.31
   4  -7   7   16.34    3.74
  -4  -7   7   18.34    3.34
   4  -7  -7   18.86    4.03
  -7  -7   4   17.04    4.54
  -4   7  -7   18.14    4.15
   4   7   7   28.48    4.22
   7  -7  -4   23.10    4.30
  -7  -4   7   14.13    3.91
  -7   4  -7   16.66    3.37
   7  -4  -7   19.67    4.35
  -7  -7   4   18.92    3.94
  -7   7  -4   20.24    4.34
   7   4   7   18.49    3.84
  -7   4  -7   17.93    4.01
   7   7   4   16.13    3.60
  -7  -7  -5   33.91    4.87
   7  -5   7   28.04    3.85
   7   5  -7   22.28    4.06
  -7  -5  -7   32.29    4.83
   7  -7   5   22.83    3.41
   7   7  -5   23.65    4.36
   5  -7   7   30.04    4.19
  -7   5   7   25.14    4.63
   5   7  -7   32.66    4.09
  -7   7   5   31.17    4.12
  -7   7   5   29.31    4.18
  -5  -7  -7   21.04    4.48
   5   7  -7   32.51    6.47
   7  -7   5   28.51    3.77
  -5   7   7   26.38    4.86
   5  -7   7   21.08    3.64
   5  -7  -7   24.23    4.81
  -7   5  -7   27.84    3.80
  -5  -7   7   27.65    3.75
  -7   7  -5   30.49    5.69
   5   7   7   27.83    4.15
   5   7   7   28.23    4.07
   7  -7  -5   28.25    4.15
  -7  -5   7   21.88    5.27
  -5   7  -7   30.07    5.67
   7  -5  -7   28.01    4.99
  -7  -7   5   26.49    5.75
  -7  -7   5   18.90    4.93
   7   5   7   31.81    4.13
   7   5   7   34.00    4.38
  -7   5  -7   21.23    4.58
   7   7   5   29.02    4.25
  -7  -7  -6   21.08    4.61
   7  -7   6   23.82    4.12
  -7  -6  -7   25.33    5.01
   6  -7   7   27.40    4.84
   7  -6   7   22.20    3.95
   7   6  -7   17.50    3.85
  -7   6   7   29.07    4.45
   7  -7   6   21.70    3.99
  -7   7   6   24.27    4.69
  -6  -7  -7   21.78    4.67
   6   7  -7   25.16    3.85
  -6   7   7   24.80    4.60
   6   7  -7   20.15    5.40
   6  -7   7   21.79    3.79
   7   7  -6   24.14    4.54
   6  -7  -7   24.87    5.00
  -7  -6   7   18.59    5.22
   6   7   7   25.13    4.83
   6   7   7   24.55    4.39
  -6   7  -7   26.56    5.19
  -7  -7   6   19.98    5.12
  -7   7  -6   27.08    5.30
   7  -6  -7   26.77    5.02
  -7   6  -7   23.63    4.94
  -7   6  -7   25.69    3.75
   7   6   7   23.55    4.30
   7   6   7   31.62    4.26
   7  -7  -6   31.15    5.81
   7   7   6   29.81    4.36
   7   7   6   35.21    4.24
  -7  -7  -7  187.86   12.30
   7   7  -7  181.48   10.96
   7  -7   7  196.42   11.19
  -7   7   7  199.56   11.93
   7  -7   7  182.11   10.25
   7  -7  -7  215.83   12.69
  -7   7  -7  202.71   12.72
  -7  -7   7  190.86   13.47
   7   7   7  204.95   11.74
   7   7   7  189.23   10.80
  -8   0   0   13.60    3.52
   0  -8   0   11.06    2.74
   0   0  -8   13.22    2.55
   0   0  -8   13.47    2.96
   0   0  -8   12.11    2.30
   0   0   8    6.43    1.75
   0   8   0   10.30    2.39
   0   8   0   11.79    2.70
   8   0   0   12.35    2.21
   8   0   0   11.64    2.33
   8   1   0    5.70    1.70
   1   0  -8    5.93    1.66
   1   0   8    7.54    1.82
   8  -1   0    6.83    1.72
  -8  -1   0    5.66    2.53
  -8  -1   0    4.76    1.40
  -8   1   0    5.39    2.20
  -1   0  -8   10.54    2.21
  -1   0  -8   10.83    2.58
  -1   0  -8    7.07    2.08
   0  -8  -1    6.82    1.77
   0  -8  -1    6.39    2.43
   0  -8   1    7.65    2.32
   0   8  -1    6.95    2.14
   0   8  -1    4.79    1.84
   0   8   1    7.27    2.06
   0   8   1    8.47    2.42
   1   0  -8    4.53    1.72
   1   0  -8    9.89    2.27
   1   0  -8    4.50    2.06
   8   1   0    4.76    1.56
   8  -1   0    8.05    1.99
   2   0   8    1.59    1.47
   2   0   8    1.51    1.06
   2   0  -8    2.51    1.22
   2   0  -8    3.02    1.96
   0  -8   2    3.03    1.53
   0   8  -2    0.98    1.48
   0   8  -2    2.20    1.31
   8  -2   0    2.31    1.16
   8  -2   0    3.76    1.71
   8   2   0    3.30    1.49
   8   2   0    1.26    1.09
  -2   0  -8    0.88    1.16
  -2   0  -8    3.47    1.71
   0   8   2    2.95    1.34
   0   8   2    3.58    1.81
   2   0  -8    4.41    1.84
   2   0  -8    1.27    1.29
   0  -8  -2    1.08    1.43
  -2   0  -8    2.44    1.20
   0  -8  -2    3.04    1.48
  -8   2   0    1.61    1.70
  -8  -2   0    4.00    2.37
  -8  -2   0    4.33    1.59
   3   0   8  164.56    9.24
   3   0  -8  177.21    9.77
   0  -8  -3  180.09    8.51
   0  -8  -3  164.79    9.38
   3   0  -8  174.47    7.39
   3   0  -8  169.15    8.53
  -8  -3   0  146.78    9.81
  -8  -3   0  152.90    8.46
  -8   3   0  173.31    9.93
   0  -8   3  178.68    8.94
   0   8  -3  163.57    9.33
   0   8  -3  169.79    8.07
   0   8   3  189.21    9.84
   8  -3   0  166.46    7.40
   8  -3   0  165.48    8.51
   8   3   0  177.79    8.56
   8   3   0  171.73    7.71
  -3   0  -8  169.63    7.71
  -3   0  -8  179.51    9.09
  -3   0   8  180.71    9.00
   8   4   0   49.48    4.46
   8   4   0   59.86    3.94
   0   8  -4   50.07    5.21
   0   8  -4   55.10    4.10
  -8  -4   0   52.54    4.99
  -8   4   0   57.75    5.52
  -4   0  -8   50.82    4.80
  -4   0   8   53.53    4.94
   0  -8  -4   54.09    4.60
   0  -8  -4   45.40    4.81
   0  -8   4   52.53    4.73
   0   8   4   51.20    4.95
   8  -4   0   46.28    4.35
   4   0   8   45.16    4.65
  -8  -4   0   52.48    5.56
   4   0  -8   48.04    4.39
   4   0  -8   54.37    5.36
   5   0   8    4.80    2.14
  -5   0   8    4.44    2.12
   8   5   0    5.08    1.98
   5   0  -8    7.62    2.66
   0  -8   5    5.26    1.97
   5   0  -8    7.46    2.33
   0   8  -5    7.08    1.90
   0   8   5    7.33    2.73
  -8  -5   0    5.57    2.58
   0  -8  -5    5.64    2.30
   0  -8  -5    7.14    2.29
   8  -5   0    6.01    2.22
  -8  -5   0    5.92    2.51
  -8   5   0    9.10    3.00
  -5   0  -8    5.12    2.17
   0   8  -5    5.66    2.42
  -8  -6   0   44.35    5.24
  -8  -6   0   52.80    5.63
   8   6   0   51.41    4.99
   0   8   6   60.66    5.71
  -6   0   8   46.15    5.09
   0  -8  -6   49.62    4.87
   0  -8  -6   52.84    5.13
   0  -8   6   48.21    4.77
  -8   6   0   48.94    5.31
   6   0  -8   51.00    4.84
   6   0  -8   54.41    5.48
   6   0   8   53.98    5.30
   8  -6   0   59.17    5.09
   0   8  -6   51.51    5.83
  -6   0  -8   46.06    4.92
   0   8  -7  244.57   14.03
   8  -7   0  258.45   12.27
   0   8   7  279.19   13.68
  -8  -7   0  259.82   13.20
   7   0  -8  266.82   13.24
   7   0   8  250.33   12.70
   8   7   0  236.62   12.41
  -8   7   0  248.32   13.03
  -7   0  -8  271.81   13.23
   7   0  -8  232.92   12.02
   0  -8  -7  246.26   12.31
   0  -8   7  246.16   12.35
  -7   0   8  232.89   12.93
   0  -8  -7  250.20   12.42
  -8  -7   0  253.58   13.43
   1  -8   0  300.95   12.64
   1   8   0  302.01   12.47
   0  -1  -8  302.15   13.65
  -8   0  -1  290.11   10.67
  -8   0   1  284.06   13.99
   0   1   8  296.05   12.00
  -1   8   0  286.40   12.12
  -1   8   0  301.77   12.43
   0  -1  -8  312.64   12.82
   1  -8   0  291.71   10.93
  -8   0  -1  275.02   13.31
   0  -1  -8  285.57   11.79
   0   1  -8  303.39   12.29
   0   1  -8  299.95   11.31
   0   1  -8  299.62   12.89
   0   1  -8  295.74   11.81
   1   8   0  287.70   12.58
   8   0  -1  308.88   11.96
   8   0   1  313.69   12.13
   8   0  -1  295.32   11.66
   8   0   1  289.15   11.01
  -1  -8   0  313.96   13.22
  -8  -1  -1   16.29    2.21
   1   1  -8   15.52    3.11
   1   1  -8   17.91    3.47
   8   1  -1   15.21    2.28
  -1  -1  -8   21.04    3.54
   1   8  -1   17.08    2.64
  -8  -1  -1   19.41    3.95
   1   8  -1   16.51    3.24
   1   1  -8   19.07    2.41
  -1   8   1   15.47    2.41
  -1   8   1   16.55    3.13
   1  -1   8   17.53    2.19
   8  -1   1   19.89    2.16
  -8   1   1   20.71    3.92
  -1  -1  -8   20.90    3.83
   8   1  -1   22.60    2.69
   1   1  -8   19.65    2.50
  -1  -8  -1   21.65    3.75
   1  -8   1   21.34    2.15
   1  -8   1   17.92    2.74
  -1   1   8   18.27    3.12
   8  -1   1   22.24    2.75
  -1   1   8   17.18    2.38
   8   1   1   15.46    2.17
   1  -1  -8   15.35    2.25
  -1   1  -8   23.15    3.88
  -1   8  -1   11.27    2.44
  -1   1  -8   15.24    2.88
   1   8   1   15.14    2.79
  -8  -1   1   16.54    3.98
  -8   1  -1   15.41    1.87
   1   8   1   13.30    2.89
  -1   8  -1   17.64    3.30
  -1  -8   1   18.72    3.37
   1  -1  -8   22.68    4.20
   1   1   8   14.59    2.70
   1  -8  -1   22.27    3.15
  -8   1  -1   24.63    3.54
   8   1   1   15.58    2.36
   8  -1  -1   18.33    2.31
  -1   1  -8   13.56    2.88
   1  -8  -1   18.05    2.36
   8  -1  -1   20.25    2.67
   1   8  -2    6.67    2.27
   8  -2   1    7.84    1.63
   2  -1   8    4.78    1.43
   2  -1   8    7.99    2.21
   2   1  -8    8.67    2.74
   2   1  -8    6.71    1.84
  -8  -2  -1    8.18    2.07
  -2   1   8    5.90    1.80
  -8  -2  -1   12.40    3.13
   8  -2   1   10.19    2.29
   2   1  -8   10.21    2.07
   1   8  -2    8.31    2.13
   2   1  -8    6.36    2.31
  -1  -8  -2    6.42    1.70
   8   2  -1    9.95    2.34
  -8   2   1    6.32    2.46
  -2  -1  -8    8.42    2.64
  -2  -1  -8   10.83    2.58
  -1   8   2    9.94    2.16
  -1  -8  -2    6.87    2.37
  -1   8   2    9.11    2.62
   1  -8   2    6.81    2.05
   8   2  -1   13.35    2.35
  -1   8  -2    8.86    2.48
   2   1   8    7.45    1.98
   2  -1  -8    4.62    1.75
   1   8   2    5.95    1.77
  -8   2  -1    7.08    1.49
   1  -8  -2    4.06    1.94
   8   2   1    6.21    1.75
   8   2   1    6.17    1.89
   8  -2  -1    6.97    2.08
   2  -1  -8    7.58    1.80
   8  -2  -1    5.19    1.65
   2  -1  -8    4.28    2.22
   1  -8  -2    5.93    1.87
  -2   1  -8    7.71    2.31
  -2   1  -8    4.16    1.65
  -8  -2   1    3.80    2.20
   1   8   2    6.67    2.36
  -1  -8   2    9.47    2.56
  -1   8  -2    5.67    1.75
  -8   2  -1    4.66    2.21
   8  -3   1  226.49   10.20
  -8  -3  -1  225.64   11.41
   8   3  -1  223.39   10.05
   3   1  -8  219.60   11.00
  -3  -1  -8  212.85   10.50
   3   1  -8  219.66   10.96
   1  -8   3  219.04   10.29
   3   1  -8  230.22   10.00
  -3   1   8  222.53    9.88
  -1  -8  -3  215.72    9.33
  -1  -8  -3  252.11   11.86
  -8   3   1  225.03   11.47
   8   3  -1  220.28    8.96
  -8  -3  -1  219.36   10.57
   1   8  -3  222.72    9.74
   3  -1   8  210.11   10.33
  -1   8   3  220.85   10.95
   3   1  -8  213.23    8.69
   1   8  -3  221.26   11.30
  -8  -3   1  221.27   12.19
  -1   8  -3  206.55   10.74
  -3   1  -8  198.84    9.97
  -1  -8   3  208.91   10.28
   8   3   1  212.88    9.15
   8  -3  -1  220.06   10.24
  -8  -3   1  201.89    9.68
   8  -3  -1  207.28    9.06
  -3  -1   8  216.94   10.77
   3  -1  -8  207.70    8.44
   1  -8  -3  209.22    9.86
   1  -8  -3  215.71   10.73
  -3   1  -8  199.48    9.33
  -1   8  -3  202.64    8.95
   1   8   3  215.06   10.85
   3  -1  -8  218.65   11.25
   8   3   1  215.84    9.75
   3   1   8  207.41   10.92
   3   1   8  211.03    9.18
   3  -1  -8  201.48    9.95
  -8   3  -1  204.14   11.16
   4   1  -8  180.72    9.91
   8  -4   1  176.29    8.93
  -4   1   8  186.09    9.04
   1  -8   4  184.74    9.33
  -8  -4  -1  179.36   10.05
   8   4  -1  168.88    8.92
  -1  -8  -4  169.40    8.48
  -8  -4  -1  177.39    9.76
  -4  -1  -8  178.54    9.68
   1   8  -4  176.80   10.36
   1   8  -4  194.42    8.68
   4  -1   8  175.54    9.29
   4   1  -8  169.87    8.78
  -8   4   1  168.97    9.99
  -1   8   4  163.80    9.56
  -1  -8  -4  163.86    9.72
  -1   8  -4  168.28    7.66
   4  -1  -8  174.08    9.09
   4  -1  -8  172.82   10.04
   1  -8  -4  170.80    8.97
   1  -8  -4  174.93    9.47
  -1   8  -4  165.52    9.95
  -8  -4   1  173.84   10.78
  -4   1  -8  171.34    9.12
   1   8   4  177.12    9.83
   8  -4  -1  165.49    8.86
   8   4   1  172.07    7.86
  -1  -8   4  165.99    8.93
  -8  -4   1  166.18    9.19
   4   1   8  166.90    9.47
   8  -4  -1  163.58    7.82
  -8   4  -1  180.49   10.31
  -4   1  -8  176.22    8.47
   8   4   1  169.99    8.77
  -4  -1   8  180.57    9.85
  -1   8   5   43.92    4.91
  -8   5   1   50.78    5.22
   1   8  -5   41.38    3.85
  -8  -5  -1   39.86    4.82
   5   1  -8   46.13    4.42
   5  -1   8   38.46    4.43
  -1  -8  -5   51.16    4.60
   1   8  -5   49.08    5.58
   8  -5   1   42.61    4.30
  -8  -5  -1   40.64    4.88
   8   5  -1   34.67    4.08
  -5  -1  -8   44.03    4.89
   1  -8   5   47.03    4.57
  -8   5   1   46.98    4.09
  -1  -8  -5   49.35    5.17
  -5   1   8   47.34    4.66
   5   1  -8   44.75    4.99
  -1   8  -5   55.17    5.68
   1  -8  -5   63.95    5.38
   1  -8  -5   66.50    5.54
  -8   5  -1   65.02    5.97
  -1  -8   5   59.66    5.09
  -5   1  -8   63.26    5.27
   5  -1  -8   55.51    5.37
   1   8   5   67.94    5.92
   5  -1  -8   66.41    5.26
  -5   1  -8   57.79    4.61
   8  -5  -1   70.24    5.43
  -5  -1   8   55.46    5.54
  -8  -5   1   56.19    5.93
  -8  -5   1   74.80    6.12
   8   5   1   65.07    5.25
   5   1   8   62.73    5.54
  -1   8   6   12.01    3.48
  -8   6   1    7.93    2.80
  -6  -1  -8    6.51    2.59
   1  -8   6    7.42    2.54
   1   8  -6    3.81    2.39
   6  -1   8    5.05    2.10
  -8  -6  -1    9.61    3.16
  -8  -6  -1    8.00    2.94
   8   6  -1    8.24    2.57
   6   1  -8   10.19    2.80
  -1  -8  -6    3.41    2.10
  -6   1   8   11.73    3.15
   8  -6   1    7.97    2.51
   1   8  -6   12.23    2.51
   6   1  -8    9.96    3.01
  -1  -8  -6   11.49    2.85
  -8  -6   1   14.41    4.03
  -1   8  -6   10.97    3.40
   8   6   1    7.72    2.48
  -6   1  -8   10.50    2.89
   1  -8  -6   11.63    3.10
   1  -8  -6   13.60    3.03
  -6  -1   8    8.10    2.91
  -6   1  -8   12.18    2.87
  -8   6  -1   14.23    3.65
   6  -1  -8   12.24    2.96
   6  -1  -8   11.03    3.22
   1   8   6   12.46    3.34
   6   1   8    8.28    2.74
   8  -6  -1    9.59    2.83
  -8  -6   1   19.68    4.16
  -1  -8   6    6.87    2.35
  -1  -8  -7  160.23    9.39
  -7  -1  -8  164.89   10.35
  -1  -8  -7  155.35    9.61
   8  -7   1  152.63    9.08
  -8  -7  -1  172.82    9.93
  -1   8   7  139.75    9.61
   1  -8   7  156.86    9.41
   7   1  -8  155.47    9.25
   1   8  -7  167.20   11.39
  -8  -7  -1  158.78   10.36
   7   1  -8  161.23    9.80
  -8   7   1  152.03    9.72
   7  -1   8  151.64    9.40
  -7   1   8  151.77    9.75
   8   7  -1  165.60    9.78
   7  -1  -8  173.23    9.80
   1  -8  -7  168.63    9.41
   7  -1  -8  173.72   10.37
  -1   8  -7  175.28   11.15
   8  -7  -1  156.13    9.24
   1   8   7  157.57   10.06
  -7  -1   8  159.50   10.42
   8   7   1  152.90    9.62
  -1  -8   7  171.71    9.79
  -8   7  -1  174.48   10.63
   1  -8  -7  171.41    9.95
   7   1   8  158.59    9.87
  -8  -7   1  190.32   11.25
  -7   1  -8  150.72    9.42
  -8  -7   1  182.88   10.75
   2  -8   0   81.08    4.80
  -2  -8   0   77.91    6.11
   0   2  -8   88.12    5.80
  -2   8   0   89.08    5.75
  -8   0   2   86.72    7.08
   0   2  -8   78.09    5.26
   2  -8   0   88.67    5.83
   2   8   0   88.28    5.98
   2   8   0   83.44    5.95
   8   0  -2   84.50    5.36
   8   0  -2   94.29    5.64
   8   0   2   81.22    4.54
   8   0   2   91.92    5.66
   0  -2  -8   87.45    5.57
   0   2  -8   81.92    5.89
   0   2  -8   86.67    4.90
  -8   0  -2   78.27    4.80
   0  -2  -8   87.23    6.55
   0   2   8   88.26    5.71
  -8   0  -2   86.88    6.39
  -2   8   0   81.58    5.67
   1   2  -8   41.25    4.06
   1  -2   8   41.49    3.24
  -2   8   1   44.55    4.23
  -1  -2  -8   40.37    4.43
  -1   2   8   43.12    4.09
  -2   8   1   36.52    3.69
   1   2  -8   35.47    3.40
  -8   1   2   40.29    4.74
  -2  -8  -1   46.28    4.73
   2  -8   1   44.17    3.32
   8  -1   2   48.19    4.14
   2   8  -1   38.33    4.27
   2   8  -1   39.01    3.94
   1   2  -8   41.17    3.49
  -1  -2  -8   39.24    3.92
   8   1  -2   43.45    3.69
   2  -8   1   41.41    3.97
   1  -2   8   39.29    3.91
  -8  -1  -2   41.38    4.38
  -8  -1  -2   41.49    3.65
   1   2  -8   43.76    4.45
   8   1  -2   39.32    3.71
  -8  -1   2   49.36    5.50
   2  -8  -1   50.92    3.92
  -2   8  -1   56.18    4.17
   8   1   2   58.55    4.36
   8   1   2   48.92    3.53
   1   2   8   46.24    4.06
   2   8   1   50.04    4.66
  -1   2  -8   61.99    4.86
  -1   2  -8   63.50    4.61
   1  -2  -8   52.66    5.03
   1  -2  -8   54.49    4.04
   2  -8  -1   52.71    4.40
   8  -1  -2   59.27    4.22
   8  -1  -2   53.12    4.19
  -8   1  -2   54.74    5.10
  -2   8  -1   52.04    4.62
   2   8   1   52.69    4.38
  -8   1  -2   58.05    3.71
  -2  -8   1   60.13    5.01
   2  -2   8  119.46    6.91
   8   2  -2  107.32    6.55
  -2  -2  -8  122.69    7.66
  -2  -2  -8  112.03    7.07
  -2  -8  -2  111.44    7.66
  -2   2   8  104.95    6.62
   8   2  -2  109.62    6.00
  -8  -2  -2  108.07    7.21
  -2   8   2  122.60    6.46
  -2   8   2  110.30    7.11
   2   8  -2  119.21    7.86
   2   2  -8  113.07    7.52
   2   2  -8  116.60    6.37
   2   2  -8  118.17    7.19
   2   2  -8  118.61    6.13
   8  -2   2  113.04    6.69
  -8  -2  -2  114.20    6.78
   2   8  -2  117.69    6.86
   2  -8   2  113.76    6.76
   2  -8   2  121.71    5.62
  -8   2   2  121.52    8.17
   8   2   2  111.32    6.06
  -2   8  -2  110.49    6.00
   2   8   2  104.82    7.11
   8  -2  -2  119.74    6.41
  -8  -2   2  110.44    8.51
  -2   2  -8  121.88    6.89
  -8   2  -2  108.02    5.55
  -2   8  -2  124.75    7.59
   2  -2  -8  114.00    5.94
   8   2   2  113.71    6.42
   8  -2  -2  111.48    6.70
   2  -2  -8  133.36    8.21
  -2  -8   2  110.72    7.10
   2   2   8  109.36    6.42
   2  -8  -2  109.19    6.48
  -2   2  -8  110.46    6.61
  -8   2  -2  112.19    7.68
   2  -8  -2  113.68    6.94
  -3  -2  -8   34.00    3.94
   2   8  -3   36.79    4.66
   3   2  -8   35.98    4.59
  -8  -3  -2   35.16    4.14
  -2  -8  -3   34.56    4.31
   3   2  -8   29.88    3.84
   3  -2   8   39.48    3.94
  -2  -8  -3   39.91    3.46
   3   2  -8   40.56    3.73
  -2   8   3   31.98    3.12
   8  -3   2   37.42    3.85
  -3   2   8   40.55    4.04
  -3  -2  -8   38.36    4.16
  -8  -3  -2   32.27    3.95
   3   2  -8   33.84    3.08
  -3   2   8   32.89    3.27
  -2   8   3   35.89    4.14
   8   3  -2   39.76    3.93
   8   3  -2   32.46    3.01
   2  -8   3   29.33    3.51
  -8   3   2   34.63    4.32
   2   8  -3   32.19    3.52
   8   3   2   44.15    3.80
   8  -3  -2   39.98    3.97
   8  -3  -2   43.12    3.72
   3   2   8   42.51    3.79
   8   3   2   45.58    3.84
  -2   8  -3   39.09    4.42
  -8  -3   2   42.15    5.26
  -8   3  -2   41.87    4.77
   3  -2  -8   46.23    4.94
  -2  -8   3   38.09    4.08
  -3   2  -8   41.75    4.02
   2   8   3   36.15    4.33
  -3   2  -8   39.67    3.86
  -2   8  -3   40.61    3.25
  -8   3  -2   41.85    3.22
   2  -8  -3   38.48    4.12
   2  -8  -3   48.08    4.27
  -8   4   2    6.14    2.41
  -8  -4  -2    8.93    2.94
  -2  -8  -4    7.85    2.15
  -8  -4  -2    3.61    1.88
  -4  -2  -8    5.08    2.08
   8   4  -2    6.30    2.07
   4  -2   8    3.44    1.61
   8  -4   2    4.85    1.88
   2  -8   4    6.91    2.36
  -4   2   8    8.08    2.21
   4   2  -8    7.92    2.61
  -2   8   4    3.65    1.90
  -2  -8  -4    5.39    2.41
   4   2  -8    6.56    2.13
   2   8  -4    9.54    3.21
   2   8  -4    4.55    1.84
   2   8   4    2.21    1.66
   4  -2  -8    4.73    2.29
  -8   4  -2    5.25    2.49
  -4   2  -8    4.99    1.91
   8  -4  -2    3.94    1.87
  -8  -4   2    1.15    1.85
   4   2   8    5.38    1.86
   4  -2  -8    4.91    1.99
  -2  -8   4    3.03    1.72
  -2   8  -4    7.13    2.51
  -8  -4   2    6.39    3.28
   8  -4  -2    6.77    2.00
   2  -8  -4    6.61    2.28
  -4  -2   8    5.03    2.43
  -4   2  -8    6.00    2.07
   8   4   2    8.54    2.37
   8   4   2    6.34    1.93
   2  -8  -4    9.19    2.68
   4   2   8    7.11    2.53
  -8   4  -2    5.87    1.63
   2  -8   5   61.14    5.20
  -2  -8  -5   60.78    5.82
  -8   5   2   62.36    5.80
  -8   5   2   58.63    4.74
  -5  -2  -8   58.69    5.63
   8   5  -2   63.71    5.39
  -5   2   8   62.50    5.13
  -2  -8  -5   61.46    4.92
   5  -2   8   53.73    5.04
   2   8  -5   60.15    6.31
   5   2  -8   60.30    5.07
   8  -5   2   60.31    4.68
   5   2  -8   57.24    5.40
  -8  -5  -2   70.75    5.69
  -8  -5  -2   73.64    6.44
  -2   8   5   63.83    5.80
   2   8  -5   60.13    4.75
   8  -5   2   64.76    5.21
  -5  -2   8   63.73    6.14
   5  -2  -8   57.43    5.23
   8   5   2   55.24    5.03
  -2   8  -5   58.87    5.78
   5  -2  -8   60.49    5.80
  -5   2  -8   57.41    5.12
  -5   2  -8   62.88    5.19
  -2  -8   5   60.61    5.20
  -8   5  -2   54.74    5.69
   2  -8  -5   58.23    5.36
   8   5   2   56.55    4.28
   2   8   5   56.88    5.44
   5   2   8   58.54    5.59
   8  -5  -2   62.12    5.23
  -8  -5   2   60.43    6.45
  -8  -5   2   59.34    5.55
   2  -8  -5   55.45    5.07
  -2   8   6   23.47    4.52
   8   6  -2   21.44    3.32
   8  -6   2   25.19    3.47
   2   8  -6   21.79    3.03
  -8  -6  -2   28.21    4.36
  -2  -8  -6   29.40    5.04
  -6   2   8   16.93    3.55
  -8   6   2   29.11    4.04
   2  -8   6   24.53    3.47
   6  -2   8   23.03    3.95
   6   2  -8   26.16    3.55
  -8  -6  -2   33.09    4.97
   2   8  -6   32.71    4.97
  -8   6   2   21.77    3.74
  -6  -2  -8   29.26    4.20
  -2  -8  -6   22.87    3.37
  -8  -6   2   20.21    4.55
  -8  -6   2   19.75    4.25
  -2   8  -6   17.65    4.05
  -6  -2   8   24.00    4.87
   8  -6  -2   18.50    3.65
  -2  -8   6   23.39    4.13
   6  -2  -8   25.43    4.61
   2  -8  -6   24.11    3.38
   8   6   2   23.15    3.55
   2   8   6   21.70    4.41
  -8   6  -2   25.10    4.90
  -6   2  -8   23.66    3.47
   2  -8  -6   20.88    4.02
   6  -2  -8   16.49    3.81
   6   2   8   15.07    3.56
  -6   2  -8   21.16    3.87
   7   2  -8    3.18    1.88
  -8   7   2    3.80    2.34
   8  -7   2    6.74    2.39
  -2  -8  -7    2.30    1.74
   2   8  -7    2.31    1.55
   2  -8   7    0.59    1.47
   2   8  -7    3.04    2.71
  -2   8   7    2.30    2.31
  -8  -7  -2    6.18    2.80
   7  -2   8    2.04    1.76
  -2  -8  -7    3.86    2.16
  -7  -2  -8    1.49    1.69
  -7   2   8    4.10    2.25
   8   7  -2    3.54    1.96
  -7   2  -8    3.91    2.09
   8  -7  -2    1.80    1.64
  -2   8  -7    7.79    3.19
  -8   7  -2    3.94    2.30
   2  -8  -7    6.77    2.66
  -7   2  -8    2.71    1.78
   2   8   7    3.14    2.36
  -2  -8   7    1.74    1.73
   7  -2  -8    2.75    2.12
  -8  -7   2   -1.19    1.71
  -8  -7   2    3.98    2.38
  -7  -2   8    0.37    1.99
   8   7   2    5.63    2.48
   7  -2  -8    1.98    1.69
   7   2   8    5.70    2.55
  -8   0   3  823.13   30.22
   3   8   0  843.70   28.15
  -3   8   0  823.26   27.00
   8   0  -3  824.91   26.84
   0   3  -8  853.07   25.73
   0   3  -8  826.57   26.97
  -3   8   0  844.90   27.79
   0   3  -8  839.54   28.62
   8   0  -3  843.33   27.20
  -3  -8   0  824.27   28.71
  -8   0  -3  835.12   28.26
  -8   0  -3  801.00   26.45
   3  -8   0  851.79   27.19
   0  -3  -8  846.33   27.29
   0  -3   8  835.13   26.81
   3   8   0  862.55   28.31
   8   0   3  842.99   27.40
   3  -8   0  853.23   26.43
   0   3   8  799.63   27.47
   0  -3  -8  839.12   29.05
   1   3  -8  115.89    7.73
  -8  -1  -3  117.83    7.33
  -8   1   3  129.30    8.61
   8   1  -3  113.41    6.88
   3   8  -1  117.28    7.26
   1   3  -8  124.75    6.70
  -1  -3  -8  111.16    7.63
   8  -1   3  119.24    6.97
   3  -8   1  126.34    7.02
   8   1  -3  115.50    6.41
   1  -3   8  118.22    6.61
   3  -8   1  127.87    6.30
   1   3  -8  113.79    6.07
  -8  -1  -3  117.71    6.74
   1   3  -8  107.61    6.32
  -1  -3  -8  122.42    7.24
  -1   3   8  121.03    7.25
   3   8  -1  122.89    7.83
  -3  -8  -1  122.95    8.10
  -3   8   1  123.28    7.01
  -3   8   1  115.43    7.07
  -1   3  -8  127.42    7.65
   3  -8  -1  128.39    6.71
  -3  -8   1  126.28    7.80
   8   1   3  110.30    5.70
   8  -1  -3  125.96    7.03
   1   3   8  127.69    7.31
  -8   1  -3  126.20    6.39
  -3   8  -1  118.59    7.45
  -3   8  -1  114.48    6.43
   3   8   1  135.74    7.46
  -1   3  -8  118.21    6.90
   3   8   1  119.95    7.56
  -8  -1   3  112.56    8.60
  -8   1  -3  116.89    7.64
   3  -8  -1  117.29    6.85
   8   1   3  130.01    7.15
   1  -3  -8  120.34    7.88
   1  -3  -8  123.72    6.68
   8  -1  -3  120.99    6.83
   2   3  -8   96.38    7.38
   3   8  -2   93.26    6.31
  -8  -2  -3   89.85    6.30
   3  -8   2   95.01    6.13
   3   8  -2  100.44    7.36
  -3   8   2   95.87    5.90
   2   3  -8   96.81    5.77
   8  -2   3   91.88    6.11
  -2  -3  -8   89.20    6.47
   2  -3   8   89.95    5.87
  -2  -3  -8   91.88    6.74
  -2   3   8   92.34    6.43
   3  -8   2   93.77    5.30
   2   3  -8   98.55    5.73
  -8   2   3   97.07    7.46
  -3  -8  -2   91.99    7.21
  -8  -2  -3  102.27    6.68
  -3   8   2   95.67    6.59
   8   2  -3   91.04    6.11
   2   3  -8  102.07    6.10
   8   2  -3   94.59    5.57
  -8   2  -3  112.71    7.44
   8   2   3   94.26    6.02
   2   3   8  115.37    6.74
  -3  -8   2   91.16    6.52
   2  -3  -8  101.17    5.63
  -2   3  -8  100.00    6.63
  -2   3  -8  100.79    6.45
  -3   8  -2  103.79    7.06
  -3   8  -2   98.60    5.46
   3   8   2  105.54    7.12
   8  -2  -3  102.55    6.22
   8   2   3  107.72    5.71
  -8   2  -3  109.71    5.77
   3  -8  -2  108.63    6.42
  -8  -2   3  108.59    8.40
   2  -3  -8   93.82    7.00
   8  -2  -3   98.43    6.37
   3  -8  -2  121.04    6.90
  -3  -3  -8    4.49    2.08
  -8  -3  -3    9.35    2.49
  -8  -3  -3    9.13    2.73
   3  -8   3    8.45    2.45
  -8   3   3   10.00    2.93
  -3  -3  -8   12.38    3.18
  -3   3   8    6.95    2.25
   3  -8   3    4.77    1.42
   3   3  -8    4.43    2.35
  -3   8   3    5.70    1.81
  -3   8   3    4.50    2.03
  -3  -8  -3    4.42    2.36
   8  -3   3    4.23    1.91
   3   3  -8    4.24    1.80
   8   3  -3    4.91    1.95
   3   8  -3    4.96    2.40
   3   8  -3    7.70    2.38
   3   3  -8    7.48    2.11
   3  -3   8    3.04    1.67
   3  -8  -3    8.18    2.43
  -3  -3   8    8.85    2.12
   3   3   8    8.75    2.39
  -3   8  -3    9.20    2.77
   3   8   3    6.03    2.12
  -3   3  -8   12.40    2.84
  -3  -8   3    5.82    2.10
   8  -3  -3    8.83    2.31
   8   3   3   10.51    2.35
  -8  -3   3   12.08    3.88
  -8   3  -3    8.91    2.85
  -8   3  -3    8.46    1.94
   3  -8  -3    9.75    2.56
   8  -3  -3    7.15    2.21
   3  -3  -8    9.27    2.93
   8   3   3    6.06    1.94
  -3   3  -8    4.61    1.80
   4   3  -8  232.84   12.93
   4   3  -8  221.13   10.35
  -3  -8  -4  251.89   12.56
   4  -3   8  217.07   10.56
  -8  -4  -3  211.86   11.77
   8   4  -3  222.34   10.99
  -4   3   8  228.19   11.17
   3   8  -4  218.96   10.50
   3  -8   4  223.60   10.76
  -3  -8  -4  225.28    9.80
  -8   4   3  207.87   11.31
  -4  -3  -8  213.20   11.57
   8  -4   3  220.94   10.67
  -8  -4  -3  224.68   10.59
   3   8  -4  234.99   12.81
  -3   8   4  233.21   11.63
  -3   8  -4  237.43   12.16
   3  -8  -4  239.15   11.36
   4   3   8  223.38   10.50
  -4   3  -8  222.96   11.01
   8  -4  -3  229.60   10.44
   8  -4  -3  228.46   11.07
   3   8   4  240.11   11.93
  -8   4  -3  229.88    9.69
  -8  -4   3  231.90   13.24
  -8   4  -3  236.66   12.14
   8   4   3  220.56   10.12
  -4  -3   8  219.02    9.56
   8   4   3  237.65   10.69
   3  -8  -4  253.45   11.12
  -3  -8   4  209.18   10.81
   4   3   8  253.93   12.39
   4  -3  -8  223.38   11.93
  -4   3  -8  224.81   10.87
   5  -3   8  147.56    8.21
  -3  -8  -5  144.96    9.26
  -5   3   8  156.19    9.01
  -8   5   3  139.15    7.98
  -3   8   5  136.54    8.82
   8  -5   3  148.92    8.24
  -8  -5  -3  134.52    9.28
   3   8  -5  132.16    7.77
   3   8  -5  132.19    9.65
   5   3  -8  139.70    8.00
   3  -8   5  132.74    8.12
  -8   5   3  142.16    8.94
   8   5  -3  134.63    8.19
  -5  -3  -8  148.24    9.45
  -3  -8  -5  144.40    7.76
   5   3   8  136.31    7.86
   3   8   5  144.68    9.12
   3  -8  -5  143.41    8.88
  -8   5  -3  154.75    7.45
  -8  -5   3  136.60   10.13
   3  -8  -5  137.94    7.92
  -3  -8   5  139.39    8.39
   8   5   3  136.52    7.42
   5  -3  -8  139.64    9.12
  -5  -3   8  141.13    9.74
  -3   8  -5  142.92    9.42
  -5   3  -8  144.25    8.42
   8   5   3  130.16    7.97
  -5   3  -8  142.25    8.52
   8  -5  -3  133.78    8.31
   5   3   8  139.31    8.88
  -8   5  -3  140.14    9.23
  -8  -6  -3  168.06   10.66
   6  -3   8  160.82    9.20
  -3  -8  -6  169.61   10.25
  -3   8   6  164.04    9.98
   3   8  -6  182.58    9.06
  -8   6   3  170.17    9.21
   8  -6   3  164.86    9.04
   8  -6   3  167.98    8.40
   8   6  -3  151.68    9.22
  -6  -3  -8  163.89   10.46
  -3  -8  -6  165.91    8.90
   3  -8   6  162.92    9.43
   3   8  -6  156.75   11.06
   6   3  -8  169.27    9.26
  -8   6   3  177.44   10.05
  -6   3   8  173.69    9.16
  -3   8  -6  162.33   10.40
  -3  -8   6  157.69    9.23
  -8   6  -3  162.49   10.41
  -8  -6   3  149.34   10.80
   8  -6  -3  154.17    9.31
  -6  -3   8  157.44   10.69
   6  -3  -8  149.15    9.20
   3  -8  -6  164.63    9.98
  -6   3  -8  147.11    8.96
   6   3   8  148.77    9.66
   8   6   3  160.49    9.36
   6  -3  -8  172.55   10.45
  -6   3  -8  162.93    9.51
  -8  -7  -3   21.24    4.41
  -7   3   8   14.41    3.39
  -8   7   3   18.39    3.99
  -3  -8  -7   21.20    4.20
   8  -7   3   22.25    3.85
  -3  -8  -7   25.75    3.70
   7   3  -8   22.67    4.12
  -8   7   3   21.26    3.98
   8  -7   3   22.29    3.07
   7  -3   8   22.07    4.13
   3  -8   7   15.16    3.44
   3   8  -7   23.98    5.50
   8   7  -3   20.20    3.80
   3   8  -7   22.24    3.34
  -3   8   7   18.23    4.04
  -7  -3  -8   22.77    4.76
  -3  -8   7   15.12    3.49
   3  -8  -7   17.86    4.10
   3   8   7   15.74    3.72
  -3   8  -7   12.37    3.98
  -8  -7   3   20.89    5.06
  -7   3  -8    8.44    2.93
  -7   3  -8   17.78    3.83
   8   7   3   12.04    3.30
   7   3   8   17.85    4.10
   7  -3  -8   12.04    3.26
   7  -3  -8   19.02    4.33
   8  -7  -3   16.43    3.67
  -7  -3   8   10.27    3.55
  -8  -7   3   12.53    3.49
  -8   7  -3   12.18    3.61
   4   8   0   32.30    4.11
   4   8   0   28.64    3.64
  -8   0  -4   24.58    3.17
  -8   0   4   29.12    4.48
   0   4   8   32.59    3.77
   0  -4  -8   29.81    4.01
   0  -4  -8   37.66    3.86
   8   0  -4   33.20    3.52
   8   0  -4   26.94    3.24
   4  -8   0   32.24    3.26
   0  -4   8   34.70    3.15
  -4   8   0   29.10    3.63
   0   4  -8   30.47    2.81
   0   4  -8   32.35    3.47
   0   4  -8   24.32    3.78
   4  -8   0   28.55    3.23
   8   0   4   27.82    3.39
  -8   0  -4   27.54    3.55
  -4   8   0   29.63    3.40
  -4  -8   0   30.66    4.11
   8  -1   4   14.64    2.96
  -1  -4  -8   15.72    3.24
   1   4  -8   16.63    2.32
   8   1  -4   13.68    2.74
  -4   8   1   21.65    3.66
   8   1  -4   17.72    3.03
  -4   8   1   17.09    3.18
   1   4  -8   20.40    4.24
   4   8  -1   21.63    3.77
   4  -8   1   20.71    2.77
   4  -8   1   16.74    2.42
  -1   4   8   15.37    3.12
  -8   1   4   18.70    4.04
  -8  -1  -4   18.60    3.46
   1  -4   8   17.60    2.37
   1   4  -8   19.78    2.70
  -8  -1  -4   19.18    2.96
  -4  -8  -1   15.56    3.50
  -1  -4  -8   18.90    3.67
   4   8  -1   16.27    3.59
  -4   8  -1   17.08    2.49
  -8   1  -4   20.95    3.92
   8  -1  -4   19.13    2.88
  -8   1  -4   16.08    2.95
  -4  -8   1   22.72    3.47
  -4   8  -1   20.07    3.70
  -8  -1   4   17.49    4.32
   1  -4  -8   22.29    2.90
   4  -8  -1   18.71    2.67
  -1   4  -8   12.28    2.65
   8  -1  -4   19.98    2.93
   4   8   1   17.97    3.51
  -1  -4   8   18.99    2.37
   4   8   1   20.99    3.23
  -1   4  -8   21.42    4.01
   1  -4  -8   17.67    3.59
   8   1   4   18.43    3.42
   1   4   8   20.13    3.66
   4  -8  -1   17.41    2.63
   2  -4   8    9.23    2.28
  -8  -2  -4    7.61    2.30
  -4   8   2    6.07    2.30
  -2   4   8    9.37    2.67
  -8   2   4   10.69    3.22
   8  -2   4    7.16    2.29
  -2  -4  -8    9.83    3.01
  -2  -4  -8    6.17    2.27
  -8  -2  -4    6.05    2.32
   2   4  -8    8.91    2.14
   2   4  -8    8.09    2.91
   8   2  -4    5.66    2.04
  -4  -8  -2    9.41    2.79
  -4   8   2    3.67    1.81
   4  -8   2    5.62    1.72
   4  -8   2    7.34    2.18
   4   8  -2    5.64    2.62
   4   8  -2    4.88    1.97
   8   2  -4    7.10    1.94
   8   2   4   10.78    2.22
   8  -2  -4    6.88    2.10
   8  -2  -4    9.59    2.70
  -4   8  -2   10.75    2.95
  -2  -4   8   11.73    2.65
  -4  -8   2   12.17    3.09
   2  -4  -8    6.83    1.94
   4  -8  -2   10.16    2.55
   4  -8  -2    7.88    2.27
   2   4   8    9.32    2.64
  -8  -2   4    7.20    2.79
  -8   2  -4    9.14    2.15
   2  -4  -8    7.21    2.43
   4   8   2    9.97    2.95
   8   2   4   10.91    2.75
  -2   4  -8    9.03    2.69
  -8   2  -4   10.33    3.12
  -2   4  -8    9.30    2.38
  -3  -4  -8   76.28    6.28
   4   8  -3   78.25    7.17
  -3   4   8   85.93    6.42
  -8  -3  -4   82.99    6.78
   3   4  -8   74.83    5.39
   4  -8   3   86.26    5.27
  -8   3   4   80.01    6.71
  -4  -8  -3   74.34    6.61
   3   4  -8   86.95    7.45
   8  -3   4   79.81    5.93
   3  -4   8   83.95    5.66
   4  -8   3   83.38    5.90
   8   3  -4   85.28    6.23
  -4   8   3   78.59    5.52
  -3  -4  -8   86.08    6.75
   4   8  -3   71.50    5.80
  -4   8   3   78.58    6.18
  -8  -3  -4   75.73    5.45
   3   4   8   93.09    6.38
  -3   4  -8   90.06    6.58
   4   8   3   97.75    7.11
   8   3   4   90.69    6.03
  -8   3  -4   95.91    5.74
  -3  -4   8   89.63    5.63
   4  -8  -3  101.66    6.27
  -3   4  -8   85.92    6.09
   3  -4  -8  102.14    7.45
   8  -3  -4   96.10    6.26
  -8  -3   4   81.99    7.59
   8  -3  -4   89.36    6.44
  -4  -8   3   98.76    6.79
   4  -8  -3   82.91    6.15
  -4   8  -3  102.54    7.38
   8   3   4  100.78    5.94
  -8   3  -4   90.55    6.91
   4   8  -4   61.00    5.30
  -4  -8  -4   70.25    6.36
   4   4  -8   62.44    5.08
   4  -8   4   55.38    4.95
   4   4  -8   75.76    7.25
   4  -4   8   61.50    4.90
  -4   8   4   53.91    5.33
   8  -4   4   61.70    5.15
  -8   4   4   64.81    5.89
  -4   4   8   66.82    5.77
   4   8  -4   62.21    6.63
  -4  -4  -8   57.65    5.88
  -8  -4  -4   64.75    6.26
   4  -8   4   62.33    4.48
   8   4  -4   55.79    5.20
  -4  -8   4   72.87    5.89
  -8   4  -4   69.86    6.28
   4   4   8   70.08    5.57
  -4  -4   8   60.95    4.63
  -4   4  -8   66.48    5.83
   8  -4  -4   68.11    5.36
  -4   8  -4   65.52    6.08
  -4   4  -8   75.50    5.75
   8   4   4   67.09    5.14
   8   4   4   68.23    5.21
   8  -4  -4   79.45    6.12
   4  -8  -4   66.26    5.77
   4   4   8   66.52    5.99
   4   8   4   66.70    5.97
  -8   4  -4   67.53    4.88
  -8  -4   4   64.76    7.03
   4  -4  -8   69.39    6.28
   4   8  -5   25.88    5.61
   5   4  -8   22.75    3.28
   4   8  -5   18.59    3.51
   5  -4   8   17.00    3.25
   4  -8   5   24.59    3.11
  -5  -4  -8   16.30    3.98
  -4  -8  -5   21.51    3.02
  -4  -8  -5   24.86    4.65
   8   5  -4   16.91    3.40
  -8   5   4   21.92    3.32
  -4   8   5   19.88    3.88
   5   4  -8   14.95    4.27
  -5   4   8   24.28    3.60
  -8  -5  -4   16.87    4.34
  -8   5   4   22.77    4.26
   8  -5   4   17.87    3.33
   4  -8   5   17.74    3.44
   8   5   4   20.48    3.03
   4   8   5   22.81    4.26
  -4  -8   5   23.11    4.16
  -8  -5   4   28.59    5.82
  -5   4  -8   28.51    4.00
   8  -5  -4   19.60    3.66
  -8   5  -4   27.91    4.21
   5  -4  -8   28.93    4.32
   5   4   8   25.30    3.55
  -4   8  -5   20.52    4.25
  -5   4  -8   16.31    3.32
   4  -8  -5   26.95    4.68
   5   4   8   26.79    4.65
  -5  -4   8   26.94    5.29
   8   5   4   26.49    3.61
  -8   5  -4   23.84    3.03
  -8   6   4   62.36    5.79
   8  -6   4   64.17    5.38
  -6  -4  -8   62.82    6.50
   4   8  -6   66.08    7.29
  -6   4   8   65.95    5.90
  -4  -8  -6   56.75    4.98
  -4  -8  -6   57.49    5.86
   6  -4   8   58.90    5.33
   4  -8   6   61.29    5.51
  -4   8   6   64.26    6.13
   8  -6   4   65.51    5.26
  -8  -6  -4   63.97    6.53
   6   4  -8   59.33    5.41
  -8   6   4   55.83    5.34
   8   6  -4   55.30    5.44
   4   8  -6   51.92    4.89
  -6   4  -8   57.60    5.34
  -4   8  -6   54.27    6.15
   4  -8  -6   61.89    6.16
   4   8   6   55.06    5.74
   6  -4  -8   56.27    5.93
  -4  -8   6   53.88    5.25
   8   6   4   52.89    5.32
  -6  -4   8   58.00    6.71
  -6   4  -8   54.04    5.61
   6   4   8   61.26    5.94
  -8  -6   4   62.98    7.03
  -8   6  -4   55.53    6.11
   8  -6  -4   51.55    5.35
   8  -7   4   89.26    6.72
  -4   8   7   96.08    7.76
   8  -7   4   94.65    6.58
   4   8  -7   88.20    8.73
   7   4  -8  105.09    7.52
   4  -8   7   89.36    7.07
  -8   7   4   92.72    7.21
  -8   7   4   94.22    7.28
  -7  -4  -8   96.14    8.40
  -4  -8  -7  101.13    6.94
   7  -4   8   86.63    6.81
  -8  -7  -4   90.52    8.06
  -7   4   8   94.58    7.46
   8   7  -4   87.55    7.03
  -4  -8  -7   85.06    7.54
   4   8  -7   94.41    6.83
  -8  -7   4  102.94    9.19
   7  -4  -8  100.66    8.15
   4  -8  -7   83.58    7.51
  -8   7  -4   97.90    8.33
   8  -7  -4   91.85    7.39
  -4  -8   7  103.21    7.39
  -7   4  -8   90.66    7.53
   7   4   8   93.29    7.58
  -4   8  -7   88.55    7.93
   4   8   7   92.20    7.68
  -7   4  -8   91.23    7.01
  -7  -4   8  105.47    9.06
   8   7   4   88.43    7.25
   0   5   8   12.62    3.10
  -5  -8   0    6.04    2.51
   0  -5   8    8.75    2.57
  -8   0  -5   10.23    2.56
   0  -5  -8    2.72    1.79
  -5   8   0    8.97    2.19
   0  -5  -8    5.94    2.20
  -5   8   0    7.91    2.69
   8   0  -5   10.51    2.67
   5  -8   0    8.04    2.16
  -8   0   5    2.97    1.89
  -5  -8   0    3.05    2.20
   8   0   5    9.22    2.67
   8   0  -5    4.91    1.84
   5   8   0    7.84    2.37
   5   8   0    8.44    2.89
   5  -8   0    8.27    2.22
   0   5  -8    6.07    2.63
  -8   0  -5    8.86    2.65
  -5   8   1   75.88    5.86
  -5  -8  -1   76.08    6.58
  -8  -1  -5   75.37    5.58
   1   5  -8   71.02    4.74
  -1  -5  -8   83.06    6.22
  -1  -5  -8   75.00    6.21
   8  -1   5   73.92    5.76
   8   1  -5   66.36    5.50
  -8   1   5   76.25    6.76
  -1   5   8   76.96    6.14
   5   8  -1   71.53    5.87
   5  -8   1   73.86    5.23
   1  -5   8   70.38    4.68
   1   5  -8   69.52    6.54
  -8  -1  -5   78.12    6.08
   8   1  -5   78.26    5.64
  -5   8   1   64.03    5.29
   5  -8   1   77.75    5.28
   5   8  -1   79.47    6.86
  -5  -8  -1   78.34    5.91
  -1   5  -8   69.90    5.43
  -8  -1   5   81.23    7.34
  -1  -5   8   75.93    5.59
   1   5   8   74.70    5.99
   5  -8  -1   80.58    5.31
  -5  -8   1   71.12    6.24
   8  -1  -5   72.60    5.61
  -1   5  -8   76.38    6.48
   5   8   1   79.52    6.27
   1  -5  -8   74.57    5.46
  -8   1  -5   76.51    5.92
  -8   1  -5   81.67    5.66
   1  -5  -8   77.36    6.33
  -5   8  -1   72.81    6.06
   8  -1  -5   76.99    5.70
   5  -8  -1   79.99    5.66
   8   1   5   71.76    5.63
  -2  -5  -8   90.04    6.67
   2   5  -8   86.57    7.43
   5   8  -2   89.69    7.74
  -5   8   2   86.51    6.08
  -5   8   2   82.31    6.13
  -8  -2  -5   84.06    5.64
   2  -5   8   89.83    5.41
   2   5  -8   85.19    5.49
   8   2  -5   83.47    6.15
   8   2  -5   82.30    5.68
  -8   2   5   85.44    6.95
  -5  -8  -2   81.76    6.99
   5  -8   2   81.24    5.66
   5  -8   2   83.70    5.59
   5   8  -2   87.09    6.54
   8  -2   5   85.02    6.19
  -8  -2  -5   95.46    6.93
  -2  -5  -8   80.51    6.50
  -2   5   8   68.22    6.04
   8   2   5   78.81    5.92
   8  -2  -5   83.83    6.23
   2  -5  -8   89.73    5.75
   2   5   8   85.21    6.41
  -5   8  -2   74.64    6.35
   5   8   2   90.86    6.77
  -8  -2   5   86.69    7.77
  -8   2  -5   84.83    6.48
  -8   2  -5   89.22    5.91
  -2   5  -8   83.37    6.00
   2  -5  -8   77.25    6.66
  -2   5  -8   90.71    7.05
   5  -8  -2   77.00    5.73
  -2  -5   8   80.23    5.71
   8  -2  -5   81.26    6.07
  -5  -8   2   87.80    6.83
   5   8  -3  357.25   17.68
   3   5  -8  366.07   14.37
  -5   8   3  364.36   15.50
  -3  -5  -8  378.12   15.85
  -3  -5  -8  367.95   16.30
   8   3  -5  369.60   15.29
   5  -8   3  376.85   14.21
   5  -8   3  368.84   14.74
  -5  -8  -3  335.34   16.30
  -8  -3  -5  347.34   16.34
  -8   3   5  356.31   16.06
   3   5  -8  343.63   17.32
   5   8  -3  342.87   15.16
   3  -5   8  374.72   14.21
   8  -3   5  346.39   14.97
  -5   8   3  365.05   14.69
   5  -8  -3  363.26   15.44
  -3   5  -8  370.07   15.21
  -3   5  -8  376.54   16.33
   5   8   3  359.88   16.11
   8  -3  -5  385.76   15.46
  -8   3  -5  363.04   14.45
  -8   3  -5  361.35   16.01
   3  -5  -8  362.45   16.51
   8   3   5  364.15   15.07
  -5   8  -3  352.86   16.19
   3   5   8  346.77   15.31
  -5  -8   3  390.33   16.16
   8  -3  -5  356.39   15.42
  -8  -3   5  364.08   17.82
  -3  -5   8  366.16   14.55
   5   8  -4   61.88    6.86
   5   8  -4   60.24    5.34
  -8   4   5   59.44    5.56
   4   5  -8   51.19    6.22
   4   5  -8   52.06    4.65
   4  -5   8   50.38    4.45
   5  -8   4   54.16    4.38
   8  -4   5   51.06    4.89
  -5  -8  -4   45.65    5.32
  -4  -5  -8   56.92    5.88
  -4   5   8   52.39    5.31
   8   4  -5   52.75    5.00
   5  -8   4   55.22    4.88
  -5   8   4   47.93    5.03
  -4  -5  -8   54.91    5.26
  -8  -4  -5   54.28    5.91
   8  -4  -5   53.08    5.00
  -4   5  -8   42.92    4.52
  -5   8  -4   57.97    5.90
  -4   5  -8   48.05    5.24
   4   5   8   44.59    5.12
   8  -4  -5   39.81    4.77
  -8  -4   5   49.48    6.24
  -8   4  -5   46.66    5.27
  -8   4  -5   46.23    4.31
  -5  -8   4   41.53    4.74
   8   4   5   45.93    4.62
   5  -8  -4   41.51    4.79
   4  -5  -8   42.57    5.09
   8   4   5   47.35    4.48
   4   5   8   48.56    4.93
  -4  -5   8   47.32    4.38
   5   8   4   52.40    5.47
   8  -5   5   28.73    3.77
   5   8  -5   23.38    4.25
  -5  -5  -8   18.46    4.13
   8   5  -5   23.60    3.66
   5   5  -8   19.99    4.84
  -8   5   5   22.93    4.13
  -5   5   8   21.14    4.03
  -8   5   5   25.38    3.84
  -5   8   5   24.82    4.49
   5   5  -8   24.31    3.48
   5  -8   5   27.95    3.29
  -8  -5  -5   26.37    5.16
   5   8  -5   26.48    5.90
   5  -5   8   29.92    3.63
   5  -8   5   24.12    3.56
  -5  -8  -5   24.51    4.99
  -8  -5   5   21.84    5.01
  -5   8  -5   21.61    4.61
   8  -5  -5   24.37    4.62
  -8   5  -5   23.04    3.18
  -5   5  -8   27.10    5.11
  -8   5  -5   27.07    5.20
  -5   5  -8   26.12    3.57
   5  -8  -5   22.90    4.30
   5   5   8   17.10    3.74
   8   5   5   20.56    3.77
   5  -5  -8   30.03    5.42
   5   8   5   21.77    4.44
   5   5   8   24.26    3.69
   8   5   5   24.92    3.46
  -5  -8   5   21.92    4.16
   8   6  -5  100.60    7.62
  -8   6   5  106.54    7.75
   5  -8   6  105.14    7.51
   5   8  -6  112.60    9.85
   5  -8   6  108.71    6.94
  -8  -6  -5  119.00    9.18
  -6   5   8  111.39    8.20
   6  -5   8  101.89    7.11
   6   5  -8  109.63    7.56
  -8   6   5  108.65    7.69
  -5  -8  -6  101.93    8.23
  -6  -5  -8  101.42    8.59
  -5   8   6  110.44    8.16
   8  -6   5  119.67    7.71
   5   8  -6  108.21    7.47
  -6   5  -8   96.95    7.95
   8  -6  -5  103.91    7.96
   6   5   8  109.49    8.04
   5   8   6  112.28    7.41
  -8   6  -5   97.79    6.72
  -8  -6   5   95.99    9.08
  -8   6  -5  102.16    8.39
  -5  -8   6   92.90    7.19
  -5   8  -6   97.66    8.39
   5   8   6  112.98    8.37
   5  -8  -6  114.56    8.50
   8   6   5  110.90    7.81
   6  -5  -8  105.92    8.49
  -6   5  -8  108.68    7.54
  -6  -5   8   95.31    8.93
   8   6   5  103.25    6.96
  -5  -8  -7   97.98    8.42
   5  -8   7  119.97    8.36
  -8  -7  -5  117.91    9.46
  -8   7   5  127.08    8.81
  -7  -5  -8  117.59    9.58
   5   8  -7  112.03   10.38
   7  -5   8  121.68    8.12
   5   8  -7  111.70    7.88
  -7   5   8  117.01    8.72
  -5   8   7  108.97    8.57
   8  -7   5  118.92    7.77
   8   7  -5  114.14    8.42
   8  -7   5  113.49    7.72
  -8   7   5  108.85    7.92
   7   5  -8  118.38    8.22
   5   8   7  121.46    8.25
  -7  -5   8  129.47   10.47
  -7   5  -8  113.76    8.82
   5   8   7  110.43    8.56
   5  -8  -7  125.95    9.32
  -5   8  -7  117.56    9.47
  -7   5  -8  120.14    8.11
  -8  -7   5  125.81   10.30
   8   7   5  108.92    8.24
  -5  -8   7  118.30    8.10
   8  -7  -5  118.54    8.75
  -8   7  -5  114.63    9.12
   7  -5  -8  122.93    9.42
   7   5   8  120.95    8.62
  -6   8   0   29.54    3.94
   0   6   8   24.65    3.73
   6  -8   0   31.62    3.66
   0   6  -8   32.39    4.57
  -6  -8   0   31.10    4.52
   0  -6  -8   29.41    4.03
   0  -6  -8   33.70    4.12
   0  -6   8   28.82    3.73
   6  -8   0   30.85    3.35
  -8   0  -6   35.49    4.19
   8   0  -6   34.32    4.05
   8   0  -6   32.84    4.10
   8   0   6   32.88    4.03
  -6  -8   0   38.20    4.64
  -8   0  -6   36.38    3.89
   6   8   0   31.43    4.11
  -8   0   6   34.12    4.99
   6   8  -1   58.88    5.55
  -8  -1  -6   64.40    5.91
  -8  -1  -6   59.22    6.69
   6  -8   1   69.77    5.06
  -6   8   1   57.40    5.14
   8   1  -6   63.07    5.46
  -1   6   8   71.38    6.18
  -1  -6  -8   63.79    5.85
   8  -1   6   63.42    5.51
   1   6  -8   59.17    6.40
   6  -8   1   67.42    5.27
   1  -6   8   65.57    5.60
  -8   1   6   72.12    6.67
  -6  -8  -1   55.81    6.05
  -6   8   1   69.99    5.93
   8   1  -6   71.44    5.72
  -1  -6  -8   60.24    5.60
  -8   1  -6   80.42    6.03
  -6  -8   1   58.46    6.04
  -8   1  -6   79.03    5.94
   6  -8  -1   72.06    5.58
   1  -6  -8   74.61    6.37
   1  -6  -8   70.32    5.50
  -6  -8   1   86.25    7.06
   1   6   8   77.10    6.39
   6   8   1   80.00    6.40
   8  -1  -6   80.86    6.08
  -1   6  -8   80.55    6.86
   8   1   6   71.43    5.89
  -8  -1   6   71.05    7.07
  -1  -6   8   74.86    5.71
   8  -1  -6   68.47    5.82
  -6   8  -1   76.97    6.42
  -6   8   2   90.51    6.71
  -6   8   2   93.10    6.68
   6   8  -2  106.54    7.46
   2   6  -8  102.47    8.48
  -6  -8  -2  109.77    8.30
   8  -2   6   97.88    6.92
   8   2  -6   94.03    6.87
   6  -8   2   96.74    6.41
   2  -6   8  103.30    7.23
  -8  -2  -6  100.35    7.65
  -8   2   6  100.09    7.65
   6  -8   2  111.53    6.69
   2   6  -8   98.49    6.15
  -2  -6  -8   99.93    7.30
  -2   6   8  103.18    7.62
  -2  -6  -8   98.05    7.40
  -6   8  -2   94.64    7.48
  -8   2  -6   94.15    7.00
   8  -2  -6   94.08    7.04
  -2   6  -8   94.82    7.58
  -6  -8   2  108.62    8.37
  -8  -2   6  101.50    8.53
   6   8   2   95.14    7.25
   8  -2  -6  106.24    7.24
  -2  -6   8  100.41    6.76
   6  -8  -2   96.54    6.80
   2  -6  -8   99.69    7.65
  -8   2  -6   95.23    6.60
  -6  -8   2  107.83    7.82
   2   6   8  112.40    7.72
   8   2   6  106.36    7.29
   3   6  -8   96.43    8.64
   3  -6   8  102.87    6.29
   6   8  -3   98.15    7.38
  -8  -3  -6  100.96    8.14
  -6   8   3  100.50    7.27
  -3   6   8  106.10    7.90
   3   6  -8  102.56    6.69
  -8   3   6  105.98    7.81
   6  -8   3  104.05    6.76
   6   8  -3  110.26    9.23
   8   3  -6  110.58    7.56
   6  -8   3  110.77    6.85
  -3  -6  -8  105.60    8.01
  -3  -6  -8  106.67    7.53
  -6  -8  -3  107.51    8.40
   8  -3   6   97.18    7.07
  -6   8   3  100.62    6.99
  -6   8  -3  117.76    8.47
  -8  -3   6  132.22    9.89
   6  -8  -3  119.29    7.85
  -3   6  -8  112.10    7.38
  -3  -6   8  124.50    7.50
   8  -3  -6  120.54    8.11
  -6  -8   3  115.86    8.08
   8   3   6  118.50    7.61
   3   6   8  119.42    8.12
   8  -3  -6  122.86    7.91
  -8   3  -6  111.61    7.13
  -3   6  -8  123.76    8.76
  -8   3  -6  108.40    7.84
   3  -6  -8  119.69    8.59
   6   8   3  117.65    8.17
   8  -4   6   19.66    3.80
   4   6  -8   14.28    2.98
   4   6  -8   25.19    5.53
  -8   4   6   28.45    4.89
  -8  -4  -6   19.07    4.50
  -4   6   8   20.76    4.28
   4  -6   8   22.59    3.13
   8   4  -6   18.69    3.68
   6   8  -4   12.41    4.36
   6  -8   4   22.22    3.11
   6  -8   4   21.31    3.20
  -6   8   4   23.11    4.11
  -4  -6  -8   20.09    4.05
   6   8  -4   19.47    3.95
  -6  -8  -4   17.33    4.07
  -4  -6  -8   21.42    4.47
  -6   8   4   15.38    3.13
   4   6   8   18.10    3.87
  -6  -8   4   18.34    3.82
   6   8   4   20.45    4.09
  -8   4  -6   16.53    4.00
   6  -8  -4   10.98    3.26
  -4   6  -8   10.87    2.73
  -6   8  -4   12.95    3.67
  -4  -6   8   17.97    3.51
   4  -6  -8   17.31    3.99
  -8  -4   6   14.47    4.20
   8  -4  -6   18.15    3.73
  -8   4  -6   14.49    3.09
   8   4   6   16.15    3.43
  -4   6  -8   15.41    4.01
   8  -4  -6   18.51    4.14
  -8  -5  -6   24.17    5.00
   8  -5   6   27.14    3.87
   5  -6   8   27.83    3.54
   6  -8   5   28.00    3.80
  -6  -8  -5   42.22    5.20
   8   5  -6   35.08    4.40
  -5  -6  -8   19.82    4.40
   6   8  -5   24.44    5.47
  -6   8   5   33.85    4.62
   5   6  -8   26.97    3.68
   5   6  -8   23.76    5.50
   6   8  -5   34.11    4.37
  -8   5   6   27.10    4.02
  -8   5   6   30.07    5.09
   6  -8   5   28.10    3.55
  -6   8  -5   27.43    5.40
  -5   6  -8   29.44    5.29
   8   5   6   24.29    4.39
   8   5   6   32.23    4.12
   5   6   8   20.97    4.15
  -8   5  -6   25.84    5.06
   6  -8  -5   21.43    4.30
   5   6   8   30.01    4.29
   8  -5  -6   24.03    4.68
  -5   6  -8   25.13    3.75
   6   8   5   25.13    4.78
   5  -6  -8   24.33    4.86
  -6  -8   5   29.21    4.25
  -8   5  -6   31.85    3.85
  -8  -5   6   16.93    4.60
   6   8  -6    6.40    2.65
   6  -8   6    8.91    2.56
   6   8  -6   13.22    4.78
  -8   6   6    9.81    3.10
  -8  -6  -6    9.43    3.42
   6   6  -8    9.54    2.85
  -6  -6  -8   16.11    4.53
   8   6  -6    6.54    2.62
   8  -6   6   10.67    3.21
   6  -6   8   12.21    3.11
  -6   6   8   14.52    3.70
  -8   6   6    9.59    3.15
  -6  -8  -6    8.73    3.23
   6  -8   6   12.66    3.26
  -6   8   6    4.63    2.49
  -8   6  -6    8.88    2.63
   8   6   6    6.33    2.54
  -6  -6   8   10.09    3.90
  -6   8  -6   11.19    3.96
   6  -8  -6    4.80    2.38
   8   6   6    7.50    2.77
  -8  -6   6    9.26    3.87
   6   8   6    7.09    2.80
  -6   6  -8   10.19    3.72
  -6  -8   6    9.31    2.95
   6   6   8    9.14    3.17
   6   6   8    6.49    2.65
   8  -6  -6    4.97    2.51
  -8   6  -6    6.62    3.03
  -6   6  -8    9.66    2.91
   6  -6  -8    5.55    2.75
   6   8  -7    2.06    3.20
  -7   6   8    0.06    1.72
   8  -7   6    1.24    1.82
   8  -7   6    1.77    1.87
  -8   7   6    2.92    2.18
  -8  -7  -6    1.68    2.27
   7  -6   8    3.53    2.10
   7   6  -8    2.54    1.77
  -6   8   7    4.28    2.70
   6   8  -7    2.43    1.88
  -6  -8  -7    3.31    2.36
   8   7  -6    4.28    2.54
   6  -8   7    1.57    1.81
  -7  -6  -8   -0.08    1.48
  -8  -7   6    0.70    2.29
  -6   8  -7    0.35    2.14
   7  -6  -8    1.78    2.13
  -7   6  -8    0.08    1.87
   6   8   7    2.67    2.35
   8  -7  -6    2.55    2.18
  -8   7  -6   -1.24    1.72
   7   6   8    0.32    1.73
   6  -8  -7    0.26    1.97
  -7  -6   8    0.91    2.56
   8   7   6    3.28    2.33
  -7   6  -8    2.17    1.93
  -7  -8   0   58.72    5.82
   8   0   7   54.38    5.42
   0   7   8   39.87    5.02
   8   0  -7   60.42    5.62
   0  -7  -8   47.62    5.15
   8   0  -7   60.31    5.43
   0  -7   8   63.01    5.48
   0   7  -8   57.31    6.40
  -8   0  -7   50.58    5.37
   7   8   0   49.22    5.23
  -7  -8   0   50.19    5.80
  -7   8   0   56.31    5.70
  -8   0   7   57.96    6.18
   0  -7  -8   52.66    5.20
   7  -8   0   55.12    5.02
  -1   7   8  170.30   10.47
   1  -7   8  178.97   10.07
   1   7  -8  178.25   11.73
   8   1  -7  164.23    9.74
  -1  -7  -8  188.26   10.44
   7   8  -1  168.30   10.17
  -8  -1  -7  174.35   10.55
   8   1  -7  173.22    9.93
  -7  -8  -1  173.76   11.03
  -8   1   7  158.77   10.45
   8  -1   7  173.10   10.01
   7  -8   1  184.22    9.67
  -1  -7  -8  173.67   10.11
  -7   8   1  179.42   10.33
  -7   8  -1  170.39   10.52
   7   8   1  186.26   10.57
   8  -1  -7  177.43    9.99
  -1  -7   8  178.33    9.88
   8   1   7  163.75    9.87
   1  -7  -8  186.50    9.81
   8  -1  -7  177.29   10.32
   1   7   8  188.07   10.84
  -8   1  -7  188.88    9.91
  -8   1  -7  182.93   10.07
  -8  -1   7  162.23   11.13
   7  -8  -1  171.82    9.61
  -7  -8   1  163.49   10.54
   1  -7  -8  173.63   10.25
  -7  -8   1  178.38   10.84
  -1   7  -8  171.50   11.14
   7  -8   2   21.13    3.08
   7  -8   2   26.60    3.66
  -7   8   2   21.75    3.99
  -2  -7  -8   19.27    3.87
  -2  -7  -8   21.18    4.32
   2  -7   8   22.08    4.13
  -2   7   8   28.18    4.23
  -7  -8  -2   24.38    4.85
   8  -2   7   28.96    3.88
  -8   2   7   24.94    4.62
  -7   8   2   18.71    5.38
  -8  -2  -7   30.02    5.31
   2   7  -8   22.15    4.94
   7   8  -2   21.69    4.16
   8   2  -7   24.37    3.66
  -2  -7   8   30.99    4.02
   8   2   7   23.67    4.36
   2   7   8   32.39    4.52
   7   8   2   24.92    3.89
  -2   7  -8   24.45    4.64
  -8  -2   7   13.65    3.87
   8  -2  -7   23.36    3.56
   8  -2  -7   30.42    4.34
  -7  -8   2   28.96    5.13
  -8   2  -7   23.60    4.34
   7  -8  -2   25.40    3.64
   2  -7  -8   19.13    4.06
  -7   8  -2   18.44    4.12
  -8   2  -7   22.77    3.49
  -7  -8   2   27.18    5.21
  -7   8   3  148.88    8.96
  -7   8   3  146.76    8.93
   7  -8   3  159.78    8.47
   3  -7   8  152.36    9.28
   3   7  -8  161.92   11.55
  -3  -7  -8  140.87    8.85
  -3  -7  -8  151.69    9.80
   7  -8   3  150.38    8.56
   8   3  -7  151.95    9.24
  -7  -8  -3  156.62   10.25
  -8   3   7  140.44    9.15
  -8  -3  -7  145.09   10.05
  -3   7   8  145.51    9.62
   8  -3   7  151.57    9.14
   7   8  -3  155.71    9.53
   3   7  -8  148.72    8.26
  -3  -7   8  154.34    8.95
  -8   3  -7  132.76    8.45
  -7   8  -3  138.13    9.69
  -3   7  -8  144.61   10.21
  -7  -8   3  137.40   10.26
   8   3   7  131.53    8.88
   7   8   3  131.78    9.15
   8  -3  -7  137.14    9.03
  -8  -3   7  135.49   10.53
  -7  -8   3  125.51    9.01
  -8   3  -7  145.75    9.29
   3  -7  -8  140.15    9.78
   7  -8  -3  131.22    8.71
   8  -3  -7  145.38    9.65
   3   7   8  141.78    9.39
  -4   7   8   36.43    4.98
  -7  -8  -4   37.49    5.24
   4  -7   8   42.71    4.84
   4   7  -8   33.58    6.48
   8   4  -7   38.41    4.64
  -8  -4  -7   30.12    5.71
   7   8  -4   41.50    4.90
   4   7  -8   40.81    4.43
  -8   4   7   38.13    4.75
  -7   8   4   42.25    4.93
  -4  -7  -8   43.55    4.87
  -4  -7  -8   37.35    5.10
   7  -8   4   34.12    4.12
  -7   8   4   41.72    4.68
   8  -4   7   30.92    4.18
   7  -8   4   38.53    4.34
  -8   4   7   39.15    4.79
   7  -8  -4   41.67    4.94
  -8   4  -7   35.14    4.80
  -4   7  -8   46.72    5.78
  -4  -7   8   43.07    4.66
  -7   8  -4   48.32    5.79
  -7  -8   4   38.81    5.88
  -7  -8   4   39.09    5.00
   8   4   7   42.23    4.89
  -8  -4   7   39.20    6.00
   7   8   4   45.98    5.25
  -8   4  -7   40.86    4.60
   4   7   8   51.67    5.59
   4  -7  -8   46.40    5.64
   8  -4  -7   42.51    5.23
  -8   5   7   41.77    4.82
   7   8  -5   38.92    4.84
  -8  -5  -7   41.83    5.81
   5  -7   8   36.57    4.13
   5  -7   8   35.96    4.72
   5   7  -8   45.55    6.87
   5   7  -8   44.60    4.82
   7  -8   5   37.46    4.28
   7  -8   5   36.39    4.38
  -5  -7  -8   35.62    5.19
  -8   5   7   30.92    4.52
  -7   8   5   35.61    4.88
  -5   7   8   44.23    5.51
  -7  -8  -5   34.17    5.01
   8   5  -7   42.06    4.91
   8  -5   7   41.75    4.68
  -8  -5   7   25.35    5.74
   8  -5  -7   21.57    4.66
  -8   5  -7   28.02    3.98
   5   7   8   32.12    4.60
   8   5   7   21.45    4.37
  -7   8  -5   30.12    5.76
   7   8   5   38.40    5.06
   7  -8  -5   31.48    4.62
  -5  -7   8   42.46    4.76
  -5   7  -8   37.35    5.41
  -8   5  -7   39.68    5.32
   5  -7  -8   37.58    5.25
  -7  -8   5   25.62    5.44
   5   7   8   37.52    4.90
   7  -8   6  134.07    8.82
   7   8  -6  131.42    9.23
  -7   8   6  134.29    9.56
   6   7  -8  115.19   10.93
   8  -6   7  133.09    8.73
   8   6  -7  140.62    9.30
   6   7  -8  116.74    8.29
   7  -8   6  148.16    8.64
  -6  -7  -8  125.41    9.75
   6  -7   8  125.42    8.13
   6  -7   8  138.86    9.33
  -8  -6  -7  139.98   10.59
  -8   6   7  132.87    9.43
  -6   7   8  133.55    9.63
  -7  -8  -6  128.11   10.04
   8  -6  -7  147.04   10.37
   8   6   7  136.17    9.06
  -8   6  -7  140.38    8.82
   7  -8  -6  132.70    9.83
  -8  -6   7  148.30   11.65
  -7   8  -6  139.27   10.56
   7   8   6  126.24    9.26
   6   7   8  129.45    9.03
  -6   7  -8  138.58   10.35
  -8   6  -7  136.31   10.20
   6  -7  -8  131.23   10.05
  -8  -7  -7   54.02    6.68
   8  -7   7   48.13    5.51
   8   7  -7   51.66    5.87
  -8   7   7   48.11    5.98
  -7  -8  -7   47.71    6.20
   7   7  -8   50.31    5.59
  -7  -7  -8   48.82    6.35
   7  -7   8   51.03    5.81
   7   8  -7   55.50    5.98
   7  -7   8   41.69    4.92
  -7   7   8   52.36    6.21
   8  -7   7   40.88    4.98
  -7   8   7   52.43    6.23
   7  -8   7   43.48    5.30
   7  -8   7   50.69    5.18
   7  -8  -7   60.25    6.74
   7  -7  -8   55.59    6.54
  -7   7  -8   49.25    5.43
  -7  -7   8   59.42    7.57
  -7  -8   7   62.26    7.92
   7   7   8   58.60    6.30
   7   7   8   51.07    5.76
  -7   7  -8   59.16    7.05
   7   8   7   51.60    5.98
   8  -7  -7   51.90    6.34
  -7   8  -7   47.43    6.56
  -8  -7   7   53.48    7.40
  -8   7  -7   57.80    7.04
   8   7   7   42.95    5.43
  -8  -8   0    1.77    2.02
  -8  -8   0    4.47    2.79
  -8   0  -8    2.11    1.86
  -8   0   8    2.96    2.38
  -8   8   0    4.21    2.59
   0  -8  -8    0.94    1.82
   0  -8  -8    0.49    1.49
   0  -8   8    3.83    2.17
   0   8  -8    0.50    2.28
   0   8   8    1.94    1.91
   8  -8   0    1.79    1.86
   8   0  -8    1.35    1.63
   8   0  -8    1.54    1.74
   8   0   8   -0.24    1.53
   8   8   0    2.20    1.98
  -8  -8  -1   18.51    4.46
   8   8  -1   13.10    3.43
   1  -8   8   19.29    3.96
  -8  -1  -8   15.96    4.16
   8  -1   8   15.29    3.61
   8   1  -8   16.55    3.77
  -8   1   8   14.30    4.04
  -1   8   8   17.26    3.96
  -8   8   1   15.41    3.94
  -1  -8  -8    7.36    2.74
  -1  -8  -8   19.53    4.13
   1   8  -8   13.30    4.04
   8  -8   1    9.24    2.84
  -8   8  -1   22.49    4.64
   1  -8  -8   23.55    4.60
   1  -8  -8   22.36    4.07
  -8  -8   1   21.59    4.93
  -1  -8   8   15.73    3.53
   1   8   8   27.78    5.15
   8  -8  -1   25.27    4.54
  -1   8  -8   28.40    5.94
   8  -1  -8   15.54    3.38
   8  -1  -8   19.08    4.33
  -8  -1   8   27.24    5.48
  -8   1  -8   22.01    4.62
   8   1   8   23.07    4.58
  -8  -8   1   30.09    5.47
   8   8   1   20.52    4.21
  -8  -8  -2   16.90    4.23
   8   8  -2   20.12    4.40
   2  -8   8   18.14    3.88
  -8  -2  -8   13.53    3.75
   8  -2   8   16.01    3.50
   8   2  -8   15.77    3.71
   8  -8   2   13.78    3.34
  -8   2   8   20.40    4.32
  -2   8   8   11.45    3.44
  -8   8   2   15.63    3.92
  -2  -8  -8   12.36    3.20
  -2  -8  -8   13.37    3.76
   2   8  -8   10.57    3.78
  -2  -8   8   17.13    3.75
  -8   8  -2   19.20    4.55
   2  -8  -8   17.01    3.87
  -8  -8   2   11.44    3.38
  -2   8  -8   23.77    5.22
   2   8   8   20.27    4.48
   8  -8  -2   17.87    3.84
  -8   2  -8   19.80    4.10
   8  -2  -8   15.65    3.65
   8  -2  -8   19.45    4.31
  -8  -2   8   17.75    4.53
  -8   2  -8   21.63    4.12
   8   2   8   21.89    4.51
  -8  -8   2   22.21    4.94
   8   8   2   14.46    3.68
  -8  -8  -3    0.78    1.93
  -8   8   3    1.42    1.91
   8   8  -3   -0.79    1.25
  -8  -3  -8    2.54    2.31
   3   8  -8   -1.01    1.26
   8  -3   8    1.39    1.97
   8   3  -8    1.26    1.59
  -8   3   8   -0.17    1.54
   3  -8   8    1.03    1.73
   3   8  -8   -0.69    1.70
  -3  -8  -8   -0.30    1.57
  -3  -8  -8    0.99    1.86
  -3   8   8   -1.19    1.43
   8  -8   3    0.14    1.38
  -3  -8   8    0.00    1.46
   3  -8  -8    0.81    1.75
  -8   8  -3   -0.91    1.53
  -8  -8   3    0.39    2.03
  -8  -3   8    0.26    1.92
   3   8   8    0.87    1.75
   8  -8  -3    1.55    1.74
  -3   8  -8   -0.86    1.72
   8  -3  -8    1.06    1.65
   8  -3  -8   -0.83    1.69
  -8   3  -8    3.49    2.30
  -8   3  -8   -0.47    1.13
   8   3   8    1.84    2.00
  -8  -8   3    3.22    2.56
   8   8   3   -0.28    1.50
  -8  -8  -4   92.24    8.24
  -8   8   4  105.79    7.88
  -8  -4  -8   85.93    8.24
   8  -8   4   92.84    6.73
   4   8  -8   92.31    6.94
   8  -4   8   94.67    7.32
  -8   4   8   86.49    7.43
   8  -8   4   82.14    6.62
  -8   8   4   93.50    7.34
   4   8  -8   86.93    9.04
  -4  -8  -8   96.19    7.16
  -4  -8  -8   91.39    7.94
   4  -8   8   82.91    7.12
   8   8  -4   87.40    7.41
  -4   8   8   80.70    7.53
   8   4  -8   79.72    7.05
  -4  -8   8   82.07    6.85
   4  -8  -8  106.58    8.54
  -8   4  -8   86.74    7.62
   4   8   8   81.20    7.44
   8  -8  -4   94.83    7.83
  -8   8  -4   85.58    7.93
  -8  -4   8   97.70    9.14
   8  -4  -8   87.24    7.92
  -8   4  -8   87.32    7.06
  -8  -8   4   94.38    8.75
   8   4   8   87.71    7.57
  -4   8  -8   84.64    8.02
   8   8   4   99.51    7.99
  -8  -8  -5    2.33    2.40
   8   8  -5    5.29    2.46
  -8  -5  -8    6.35    3.21
   5  -8   8    2.95    2.15
   8  -5   8    3.21    2.42
   8   5  -8    8.61    2.91
  -8   5   8    9.12    3.27
   8  -8   5    7.63    2.82
  -8   8   5    2.85    2.26
  -5  -8  -8    2.49    2.04
   5   8  -8    2.29    1.92
   5   8  -8    3.44    3.59
  -5   8   8    3.58    2.69
   8  -8   5    3.59    2.03
   5  -8  -8    3.20    2.35
  -5   8  -8    4.99    3.04
  -5  -8   8    3.27    2.30
   5   8   8    8.18    3.17
   5   8   8    5.29    2.64
   8  -8  -5    2.22    2.03
  -8  -5   8    3.98    3.02
  -8   8  -5    8.23    3.59
   8  -5  -8    0.41    1.85
  -8   5  -8    6.97    3.19
  -8   5  -8    3.80    2.20
   8   5   8    1.68    1.78
  -8  -8   5    4.78    3.25
   8   8   5    2.85    2.16
  -8  -8  -6   29.98    5.76
   8  -8   6   36.49    4.73
  -8  -6  -8   39.53    6.04
   8  -6   8   35.83    4.76
   8   6  -8   32.59    4.77
   8  -8   6   38.18    4.75
  -8   6   8   40.49    5.51
   6   8  -8   42.85    5.13
  -8   8   6   42.90    5.64
  -6  -8  -8   40.73    5.80
   6   8  -8   38.55    7.44
  -6   8   8   43.71    5.73
   8   8  -6   44.17    5.48
   6  -8   8   41.40    5.27
   6  -8  -8   33.73    6.41
  -8   8  -6   31.25    6.39
   6   8   8   33.73    5.19
  -6   8  -8   34.85    6.74
   8  -8  -6   36.37    6.50
  -8   6  -8   33.65    4.60
  -8  -8   6   21.72    5.54
   8  -6  -8   28.82    5.56
  -8  -6   8   35.89    7.35
  -8   6  -8   26.10    5.43
   8   6   8   27.78    5.08
   6   8   8   32.64    4.72
   8   8   6   35.28    5.10
  -8  -8  -7    1.95    2.45
   7   8  -8    0.86    1.89
  -8  -7  -8    1.48    2.32
   8  -7   8    1.53    2.16
   8   7  -8    3.90    2.38
   8  -8   7    1.26    2.09
  -8   7   8    1.42    1.91
   8  -7   8    0.74    1.80
  -8   8   7    0.53    1.96
  -7  -8  -8   -0.20    1.74
   8  -8   7    2.45    1.97
   8   8  -7   -0.58    1.52
  -7   8   8   -1.81    1.72
   7  -8   8   -0.73    1.51
   7  -8  -8    0.17    1.99
  -8  -8   7    1.15    3.09
   7   8   8    1.72    2.43
   8  -8  -7   -0.19    2.15
  -7  -8   8    1.44    2.82
  -8   7  -8    0.88    1.69
   8  -7  -8    0.62    2.25
  -8   8  -7   -0.12    2.17
  -8  -7   8   -0.91    1.98
  -8   7  -8    0.43    2.09
   8   7   8    0.08    1.93
  -7   8  -8    1.52    2.60
   8   8   7   -0.65    1.84
  -8  -8  -8   61.76    7.42
   8  -8   8   60.52    6.40
  -8   8   8   51.80    6.63
   8   8  -8   52.35    6.17
   8  -8   8   55.18    5.87
  -8   8  -8   52.45    7.19
   8  -8  -8   46.08    6.70
  -9   0   0    0.69    1.68
   0  -9   0   -1.07    0.83
   0   0  -9    0.08    1.32
   0   0  -9    0.57    1.11
   0   0   9    0.62    1.04
   0   9   0    0.00    1.14
   0   9   0   -0.32    1.08
   9   0   0   -0.22    0.81
   9   0   0    0.12    0.97
   9  -1   0   19.86    2.90
   9   1   0   24.61    2.90
   9   1   0   22.83    2.93
   1   0  -9   22.97    2.83
   1   0   9   22.83    2.88
   9  -1   0   24.52    2.73
   1   0  -9   28.38    3.45
   1   0  -9   25.86    4.86
   0   9   1   23.33    3.47
  -9  -1   0   28.84    4.41
  -9   1   0   27.64    4.23
  -1   0  -9   30.26    3.92
  -1   0  -9   23.92    3.18
  -1   0   9   23.03    2.99
   0  -9  -1   22.42    4.02
   0  -9   1   23.20    3.40
   0   9  -1   27.11    3.58
   0   9  -1   24.03    3.28
   0   9   1   22.93    2.99
   9  -2   0  603.91   19.82
   2   0  -9  615.58   20.26
   2   0   9  588.97   22.66
   0   9   2  590.67   22.39
   2   0  -9  627.71   21.28
   2   0  -9  625.12   23.35
   0  -9   2  608.28   22.04
   0   9  -2  565.76   22.11
   0   9  -2  624.59   21.20
  -9  -2   0  578.10   23.58
  -9   2   0  566.71   23.18
  -2   0  -9  585.62   21.59
  -2   0   9  621.15   21.49
   0  -9  -2  619.92   22.78
   9   2   0  588.21   20.42
   9  -2   0  631.32   21.62
   9   2   0  605.92   20.97
   3   0  -9    9.14    2.49
   0  -9   3   14.10    3.20
   0   9  -3   12.29    3.24
   0   9  -3   11.61    2.52
  -3   0   9    6.88    2.44
   3   0  -9   10.84    3.11
  -9   3   0   13.79    3.82
   0   9   3    9.69    2.93
  -3   0  -9    9.82    2.71
   9   3   0    9.42    2.24
   0  -9  -3   11.63    2.57
   0  -9  -3   11.32    3.16
   9  -3   0    9.64    2.73
  -9  -3   0    9.23    3.15
   3   0   9   12.49    3.28
   9   3   0    8.17    2.34
   0   9   4   70.30    6.20
  -4   0   9   61.56    5.50
  -9   4   0   67.89    6.40
   9  -4   0   60.25    5.26
   0   9  -4   63.40    6.19
   0  -9  -4   63.02    5.91
   0  -9   4   54.54    5.07
   0   9  -4   58.05    4.58
  -9  -4   0   64.57    6.53
  -9  -4   0   63.08    5.59
   4   0  -9   77.11    6.57
   9   4   0   59.25    5.13
   0  -9  -4   61.72    5.04
   4   0   9   73.72    6.17
  -4   0  -9   65.90    5.65
   4   0  -9   54.97    4.99
   5   0  -9  106.43    7.22
  -9   5   0   95.03    7.94
   0   9  -5   95.22    7.92
  -9  -5   0  116.23    8.63
  -9  -5   0  111.30    7.84
   0  -9  -5  104.57    7.63
   5   0  -9  106.25    8.02
   0   9   5   98.86    7.72
   0  -9  -5   99.62    6.85
  -5   0  -9  104.14    7.56
   5   0   9   97.88    7.43
   9  -5   0  108.56    7.33
   9   5   0   97.75    6.98
  -5   0   9  106.79    7.52
   0  -9   5   96.90    7.05
  -9  -6   0   83.35    7.56
  -9  -6   0   94.62    7.55
  -6   0   9   91.50    7.26
   0  -9  -6   94.83    6.91
   0  -9  -6   93.19    7.20
   9   6   0   93.54    7.14
  -6   0  -9  103.10    7.67
   9  -6   0   94.34    6.95
   0   9   6   98.86    7.82
   6   0  -9   88.67    6.84
   6   0  -9   99.98    7.89
   6   0   9   92.70    7.50
  -9   6   0   93.81    7.86
   0  -9   6   97.72    7.22
   0   9  -6   86.17    7.90
   7   0   9    2.92    2.31
   7   0  -9    2.13    1.81
   9   7   0    2.66    2.00
   7   0  -9    0.00    1.99
  -9  -7   0    1.23    2.30
  -9  -7   0    1.04    2.06
  -9   7   0    1.74    2.04
  -7   0  -9    2.69    2.17
  -7   0   9    4.15    2.55
   0  -9  -7    0.98    1.96
   0  -9  -7    4.66    2.24
   0  -9   7    3.99    2.13
   0   9  -7    1.89    2.02
   0   9   7    0.80    1.86
   9  -7   0   -0.33    1.41
   0  -9  -8    6.62    2.69
   0   9  -8    8.23    3.79
   0   9   8    4.37    2.75
   8   0  -9    9.72    3.06
   8   0  -9    8.65    3.22
   8   0   9    9.91    3.05
   9  -8   0   11.16    3.09
   9   8   0   11.76    3.70
  -9  -8   0    5.99    3.15
  -9   8   0    8.59    3.41
  -8   0   9    6.30    2.97
   0  -9   8    8.13    2.86
   0  -9  -8   10.75    3.25
  -8   0  -9    8.20    3.23
   0   1  -9  153.12    7.85
   9   0   1  151.93    7.12
  -9   0   1  134.71    9.62
  -1  -9   0  164.18    9.25
  -1   9   0  161.19    8.39
   9   0   1  147.07    7.93
   9   0  -1  148.15    7.63
   0   1  -9  145.42    8.66
   0  -1  -9  139.24    8.99
   0  -1  -9  149.67    7.90
   1  -9   0  148.04    8.57
   1   9   0  141.91    8.26
   0   1   9  152.20    7.97
  -9   0  -1  144.60    9.32
   9   0  -1  138.03    7.69
  -1   9   0  148.01    8.30
   0  -1   9  145.23    7.42
   0   1  -9  150.25    8.13
   1   9   0  155.99    8.74
  -1   9   1   77.75    5.94
  -9   1   1   69.65    6.58
   1   1  -9   74.96    5.08
   1   1  -9   58.74    5.47
   1   1  -9   66.47    4.84
   9  -1   1   77.17    6.53
   9  -1   1   65.63    5.02
   9   1  -1   66.13    4.93
   9   1  -1   64.17    4.86
   1  -1   9   66.89    4.65
  -1  -9  -1   81.41    6.36
  -1   1   9   66.73    5.18
  -1  -1  -9   64.95    5.92
  -1  -1  -9   72.54    5.45
  -9  -1  -1   70.00    6.46
   1   9  -1   73.02    5.57
   1   1  -9   74.92    5.71
   1   9  -1   75.97    6.00
  -1   9   1   69.69    5.14
   1  -9   1   67.80    5.52
   1   9   1   70.71    5.83
   1  -1  -9   69.46    4.86
   9  -1  -1   66.46    4.66
  -1   1  -9   78.68    6.03
  -1   9  -1   67.14    5.18
   1  -9  -1   72.46    5.21
  -9   1  -1   63.19    6.13
   9   1   1   66.41    4.64
   9   1   1   74.65    5.22
   1  -9  -1   65.75    5.62
   1   1   9   68.37    4.98
   1  -1  -9   79.32    6.63
  -1   1  -9   72.10    5.25
   1   9   1   69.98    5.21
  -1   9  -1   74.72    5.72
  -1   1  -9   64.70    5.09
  -1  -9   1   69.88    5.86
   9  -1  -1   74.20    5.31
  -9  -1   1   53.06    5.96
  -9  -2  -1    9.58    2.25
  -2   1   9   16.00    3.20
   1   9  -2    9.08    2.84
   2   1  -9   14.78    3.50
  -9  -2  -1   10.32    3.22
   2  -1   9   16.34    3.57
   2   1  -9   16.90    3.72
   2   1  -9   12.11    2.52
   2   1  -9   12.44    2.47
   9  -2   1   13.26    2.81
   9   2  -1    9.48    2.29
   9   2  -1   14.86    2.75
   1  -9   2   15.78    3.31
  -9   2   1   13.23    3.73
  -1  -9  -2   17.07    3.90
  -2  -1  -9   18.33    3.81
  -2  -1  -9   12.40    2.93
  -1   9   2   13.98    2.77
   1   9  -2   14.98    3.10
  -1   9   2   17.21    3.58
   1  -9  -2   13.00    3.11
   2   1   9   14.19    2.70
   9  -2  -1   11.13    2.64
  -2   1  -9   13.20    3.04
  -1   9  -2   15.05    2.90
  -9   2  -1   19.41    4.32
   2  -1  -9   10.77    2.33
   1   9   2   17.03    3.75
   2  -1  -9    9.65    3.09
   9  -2  -1   14.72    2.63
   1  -9  -2   11.89    2.65
  -1   9  -2   12.14    2.94
  -9  -2   1   10.15    3.39
  -2   1  -9   12.56    2.68
  -1  -9   2   10.01    2.93
   9   2   1   12.43    2.58
   9   2   1   13.36    2.63
   3  -1   9   16.49    3.45
   3   1  -9   11.28    2.68
  -9  -3  -1   13.31    3.44
   1  -9   3   10.10    2.83
   1   9  -3   14.42    2.86
   9   3  -1   16.73    2.51
   9  -3   1   15.11    3.00
   3   1  -9   14.45    2.54
   9   3  -1   17.74    3.31
  -3  -1  -9   17.64    3.75
  -1   9   3   14.68    3.46
  -3   1   9   15.33    4.30
  -1  -9  -3   14.81    3.62
  -9  -3  -1   17.61    3.44
   1   9  -3   21.36    4.54
  -9   3   1   12.52    3.32
   3   1  -9   19.14    4.08
  -1  -9   3   21.55    3.24
   9  -3  -1   19.76    3.72
   9   3   1   15.89    2.88
   9   3   1   18.39    2.77
  -3   1  -9   18.07    3.40
   3  -1  -9   18.47    3.48
   1   9   3   24.12    4.60
   1  -9  -3   17.65    3.22
  -9   3  -1   27.84    4.26
  -3  -1   9   24.58    4.23
   1  -9  -3   25.78    4.53
  -1   9  -3   15.61    3.59
  -9  -3   1   13.81    4.09
   3   1   9   19.83    4.08
   9  -3  -1   18.52    2.54
  -1   9  -3   20.45    2.76
   3  -1  -9   26.43    4.94
   4  -1   9   94.29    7.02
  -9  -4  -1   97.65    7.65
  -4   1   9  107.98    6.81
   1   9  -4  104.15    6.46
  -9  -4  -1  103.31    7.51
   9  -4   1  102.08    6.86
   1  -9   4  104.46    7.12
   1   9  -4  101.29    7.98
  -4  -1  -9   98.01    7.32
   4   1  -9  107.31    6.89
   9   4  -1  106.24    6.97
  -1   9   4  101.21    7.50
   4   1  -9   93.90    7.35
  -1  -9  -4  103.08    7.70
  -9   4   1   97.92    7.86
  -1  -9  -4   98.44    6.28
   4   1   9  111.47    7.86
  -1  -9   4  101.03    7.18
   1  -9  -4   98.64    6.73
  -9   4  -1  100.36    7.98
   4  -1  -9  108.86    7.97
  -9  -4   1   99.24    8.35
   1   9   4   96.86    7.46
  -4   1  -9  102.98    7.14
   9   4   1  100.66    6.70
   1  -9  -4  110.69    7.58
  -1   9  -4   95.31    7.55
   9   4   1  107.61    6.14
  -4  -1   9   99.27    7.30
   9  -4  -1  114.72    7.28
   4  -1  -9   98.71    6.91
  -9  -5  -1   54.79    5.82
  -5  -1  -9   42.78    5.14
   5   1  -9   50.48    5.47
  -1   9   5   55.95    5.73
   9  -5   1   48.36    4.87
   1   9  -5   43.48    5.55
  -5   1   9   49.03    4.93
  -1  -9  -5   51.35    4.77
   5  -1   9   51.47    5.35
   5   1  -9   45.64    4.66
   1   9  -5   49.24    4.40
   1  -9   5   44.89    4.82
  -9  -5  -1   58.41    5.80
  -1  -9  -5   56.47    5.67
  -9   5   1   51.89    5.76
   9   5  -1   49.60    4.88
  -5  -1   9   68.43    6.18
  -1  -9   5   49.47    5.01
   1  -9  -5   62.59    5.55
  -9   5  -1   59.99    6.19
   9  -5  -1   60.36    5.40
  -1   9  -5   56.24    6.01
   5   1   9   62.81    5.95
  -9  -5   1   63.15    6.65
   1   9   5   52.72    5.55
   9   5   1   68.69    5.62
   5  -1  -9   51.31    5.02
   5  -1  -9   74.49    6.66
  -5   1  -9   54.45    5.34
   1  -9  -5   66.55    5.86
  -6   1   9   22.74    4.19
   1   9  -6   22.33    4.86
  -9  -6  -1   29.13    5.20
  -1  -9  -6   21.90    3.84
  -1  -9  -6   25.18    4.53
   9   6  -1   31.20    4.18
   6   1  -9   28.21    3.77
   6  -1   9   27.81    4.84
  -9   6   1   31.44    5.59
  -9  -6  -1   27.17    4.22
  -1   9   6   30.11    4.42
  -6  -1  -9   20.00    4.34
   9  -6   1   23.14    4.19
   6   1  -9   30.86    5.29
   1  -9   6   21.76    4.09
   1  -9  -6   26.86    3.97
   6  -1  -9   34.39    4.17
   6   1   9   29.44    4.40
   9   6   1   28.00    3.86
  -1   9  -6   33.15    4.85
   6  -1  -9   30.95    4.54
  -6  -1   9   32.86    4.73
  -6   1  -9   27.52    4.09
   1  -9  -6   26.39    4.04
  -9   6  -1   30.86    4.68
  -9  -6   1   24.46    5.15
   1   9   6   25.57    4.65
  -1  -9   6   29.42    4.12
   9  -6  -1   26.61    3.74
  -9  -6   1   31.97    5.45
  -9   7   1   16.81    4.18
   1   9  -7    9.49    3.72
   9   7  -1   11.71    3.22
  -1  -9  -7   13.50    3.53
  -9  -7  -1   21.97    4.68
  -1   9   7   16.41    4.00
   9  -7   1   15.12    3.37
   7   1  -9   17.07    4.00
  -1  -9  -7   14.14    3.33
  -7   1   9   11.26    3.41
   7  -1   9   15.65    3.79
   1  -9   7   17.94    3.98
  -7  -1  -9   18.17    4.28
   7  -1  -9   21.87    4.54
  -1  -9   7   14.27    3.62
   1   9   7   16.62    4.20
  -9  -7   1   17.07    4.33
   9   7   1   20.26    4.25
  -9  -7   1   15.15    4.27
   9  -7  -1   13.33    3.37
   1  -9  -7   12.41    3.29
   1  -9  -7   20.14    4.06
  -7  -1   9   15.40    4.15
  -7   1  -9   10.33    2.96
  -1   9  -7   14.21    4.06
   7   1   9   12.42    3.45
  -9   7  -1   17.79    4.60
   7  -1  -9   16.68    4.00
   1   9  -8   14.62    4.55
  -1   9   8   17.34    4.26
   9   8  -1   22.45    4.74
   1  -9   8   21.43    4.66
  -9  -8  -1   13.28    3.95
  -9   8   1   20.50    4.75
   9  -8   1   15.24    3.57
   8   1  -9   17.47    3.89
  -8   1   9   12.39    3.61
  -1  -9  -8   18.34    4.20
  -8  -1  -9   22.10    4.80
   8  -1   9   15.34    3.70
  -1  -9  -8   17.92    3.99
  -8   1  -9   22.43    4.48
   8   1   9   23.01    4.60
  -8  -1   9   22.92    5.26
   1   9   8   16.86    4.17
  -9  -8   1   23.43    5.07
  -9   8  -1   13.08    3.89
   9  -8  -1   16.37    3.83
   9   8   1   19.63    4.23
  -9  -8   1   15.60    4.40
   1  -9  -8   23.91    4.47
   8  -1  -9   18.71    4.33
  -1  -9   8   17.41    4.23
  -1   9  -8   15.21    4.55
   8  -1  -9   17.03    4.20
   0   2  -9    3.07    1.38
   2  -9   0    1.34    1.53
  -2   9   0    4.07    2.02
   0   2  -9    0.85    1.17
   2  -9   0    2.41    1.26
   9   0   2    1.85    1.41
   0   2  -9    0.69    1.35
  -9   0  -2    3.65    1.91
  -9   0  -2    0.46    1.05
   0  -2  -9    3.05    1.99
  -2   9   0    2.74    1.84
   9   0  -2    2.35    1.42
  -9   0   2    4.78    2.62
  -2  -9   0    2.07    1.81
   0  -2  -9    1.93    1.43
   0   2  -9    2.85    1.98
   2   9   0    3.20    1.95
   2   9   0    5.76    2.17
   0   2   9    3.73    1.80
   9   0  -2    1.00    1.18
  -9  -1  -2   42.20    4.85
   9   1  -2   37.27    3.72
  -1   2   9   38.84    4.09
  -9   1   2   48.01    5.62
  -2  -9  -1   36.92    4.60
  -1  -2  -9   42.73    4.32
  -9  -1  -2   38.43    3.57
   1  -2   9   39.69    4.21
  -2   9   1   41.18    4.29
   9  -1   2   37.55    4.01
  -1  -2  -9   39.32    4.72
   2   9  -1   37.81    4.46
   2   9  -1   38.51    4.13
   1   2  -9   37.18    4.47
   2  -9   1   38.38    4.14
   9   1  -2   43.26    4.02
   1   2  -9   41.69    4.34
   1   2  -9   40.89    3.78
  -2   9   1   40.93    4.04
   1   2  -9   41.53    3.66
  -9   1  -2   41.13    3.59
   9   1   2   39.75    3.48
   9   1   2   38.74    3.90
   2  -9  -1   46.44    4.58
   1  -2  -9   39.89    3.80
   2  -9  -1   47.52    4.02
   9  -1  -2   42.24    3.95
   2   9   1   46.35    4.37
  -9  -1   2   44.54    5.52
  -1   2  -9   44.33    4.46
   9  -1  -2   37.40    3.87
  -2   9  -1   42.70    4.02
  -2   9  -1   40.63    4.41
   1   2   9   43.14    4.15
  -1   2  -9   40.76    4.07
  -2  -9   1   44.62    4.79
   1  -2  -9   44.91    5.07
   2   9   1   52.82    5.01
  -9   1  -2   35.19    4.63
   2  -2   9   12.33    2.85
  -2  -2  -9   17.46    3.88
  -9  -2  -2   11.70    3.22
   2   9  -2   10.54    3.19
   2   2  -9    9.06    2.20
   2   2  -9   14.68    3.61
   2   9  -2   10.42    2.76
  -2   9   2   15.02    2.98
  -2  -9  -2   12.88    3.37
   2  -9   2   12.60    2.95
  -2   2   9   12.75    3.04
  -9  -2  -2   13.40    2.89
  -2  -2  -9   15.14    3.30
   9   2  -2   14.85    3.06
   9  -2   2   13.39    3.02
   9   2  -2    9.87    2.20
  -9   2   2   17.09    4.12
   2   2  -9   13.69    2.71
   2   2  -9   14.31    3.20
  -2   9   2   12.23    2.99
  -2  -9   2    8.23    2.69
   2  -2  -9   17.91    3.90
  -2   9  -2   17.56    3.63
  -2   9  -2   17.63    2.63
  -9  -2   2   10.02    3.47
  -2   2  -9   12.15    2.93
  -2   2  -9   21.46    3.80
   2   9   2    9.70    2.81
   2  -9  -2   16.29    3.15
   2   2   9   19.19    3.35
   2  -2  -9   12.47    2.46
   9   2   2   19.36    3.39
   9  -2  -2   16.53    3.32
  -9   2  -2   21.46    4.48
   9  -2  -2   15.03    2.91
   2  -9  -2   20.80    3.90
   9   2   2   13.06    2.57
   3   2  -9   38.01    4.47
   9   3  -2   41.81    4.19
   3  -2   9   31.69    3.80
   2   9  -3   34.58    4.68
   3   2  -9   33.30    4.66
   3   2  -9   35.92    3.76
   9  -3   2   32.52    3.77
  -3  -2  -9   42.08    4.63
  -9   3   2   36.48    4.74
  -9  -3  -2   37.65    4.33
  -3   2   9   32.01    3.82
   2  -9   3   32.51    3.82
   3   2  -9   31.42    3.16
   2   9  -3   35.30    3.86
  -9  -3  -2   37.54    4.58
  -3  -2  -9   33.04    4.19
  -2  -9  -3   35.43    4.54
  -2   9   3   30.49    4.16
   9  -3  -2   30.78    3.39
   3   2   9   26.26    3.26
  -3   2  -9   24.74    3.40
  -9   3  -2   31.55    4.57
  -9  -3   2   39.59    6.81
  -2   9  -3   28.84    4.05
   2  -9  -3   28.09    3.87
  -3   2  -9   28.25    3.61
   9   3   2   26.77    3.24
   2   9   3   24.06    3.73
   3   2   9   34.38    4.55
   9  -3  -2   28.06    3.60
  -2  -9   3   30.90    3.97
   2  -9  -3   30.65    3.77
   9   3   2   33.55    3.50
   3  -2  -9   26.06    4.62
  -4  -2  -9   76.58    6.61
  -4   2   9   81.14    6.39
   4   2  -9   84.78    6.05
  -9  -4  -2   74.25    6.58
   4   2  -9   76.10    6.36
   9   4  -2   79.50    6.14
   2   9  -4   74.25    5.70
   9  -4   2   82.61    6.21
   2  -9   4   82.95    6.28
  -9   4   2   83.32    7.18
  -2  -9  -4   83.15    7.07
   4  -2   9   74.81    6.14
   2   9  -4   79.73    7.31
  -9  -4  -2   69.89    6.19
  -2   9   4   83.80    6.75
   2   9   4   83.58    6.89
   9  -4  -2   79.69    5.50
  -4   2  -9   90.47    6.20
  -2   9  -4   91.75    7.30
  -9   4  -2   88.59    7.29
   9  -4  -2   75.74    6.11
   2  -9  -4   85.85    6.50
   4  -2  -9   73.59    6.80
   9   4   2   86.63    6.06
  -4  -2   9   93.74    7.42
   9   4   2   87.85    5.68
   4   2   9   89.06    7.20
  -4   2  -9   89.33    6.48
   2  -9  -4   83.84    6.37
  -9  -4   2   80.52    7.78
  -2  -9   4   94.46    6.85
   2   9  -5  143.38    8.04
   5   2  -9  126.49    8.02
   5  -2   9  123.02    8.29
  -9  -5  -2  131.86    9.25
  -2   9   5  137.63    9.24
  -5  -2  -9  146.99    9.63
   2  -9   5  114.17    8.12
   9  -5   2  139.58    8.42
   9   5  -2  141.22    8.59
   2   9  -5  148.90   10.36
  -2  -9  -5  142.51    8.05
  -2  -9  -5  139.93    9.38
  -9   5   2  132.70    7.75
  -9   5   2  140.12    9.50
  -9  -5  -2  142.72    8.80
   2  -9  -5  147.34    8.93
  -2  -9   5  151.12    9.06
   2  -9  -5  138.07    8.63
   9  -5  -2  151.16    8.86
  -5   2  -9  142.36    8.79
   5   2   9  137.02    9.27
  -2   9  -5  143.77    9.81
  -9  -5   2  155.77   10.83
   9   5   2  140.58    8.39
  -5  -2   9  152.90    9.83
   2   9   5  153.18    9.68
   5  -2  -9  138.52    8.66
   5  -2  -9  145.11    9.60
  -9   5  -2  140.94    9.70
  -5   2  -9  140.21    8.26
  -9  -6  -2   21.88    4.77
  -9   6   2   27.63    4.29
   9  -6   2   31.56    4.07
   9   6  -2   25.87    4.59
   2  -9   6   23.29    4.27
   2   9  -6   27.82    5.87
   6  -2   9   27.16    3.99
  -2  -9  -6   36.00    4.58
  -2   9   6   33.89    4.73
  -6   2   9   17.86    5.20
  -6  -2  -9   32.63    4.78
   6   2  -9   23.75    3.63
  -2  -9  -6   29.18    3.87
   2   9  -6   28.12    3.61
   2   9   6   32.24    4.56
  -9  -6   2   29.76    5.60
  -2  -9   6   29.72    4.18
   9   6   2   30.78    4.16
  -6   2  -9   23.29    4.33
  -9   6  -2   23.67    4.92
   2  -9  -6   30.01    4.20
   6  -2  -9   27.59    3.93
   6   2   9   21.67    4.42
  -6  -2   9   27.40    5.20
  -2   9  -6   31.26    4.77
   9  -6  -2   28.00    3.92
   2  -9  -6   29.10    4.00
   6  -2  -9   33.22    4.63
  -9   7   2  264.07   13.61
   9   7  -2  231.07   12.61
  -7  -2  -9  238.69   13.75
  -2   9   7  244.17   13.47
   2  -9   7  252.57   12.85
  -2  -9  -7  234.51   12.81
  -9  -7  -2  271.81   14.13
   2   9  -7  237.95   14.62
   7  -2   9  242.47   12.76
   9  -7   2  235.21   12.14
   7   2  -9  238.22   12.33
  -2  -9  -7  241.05   12.03
   7   2   9  251.56   13.59
   2   9   7  225.49   12.91
   2  -9  -7  221.32   12.61
  -9   7  -2  232.27   13.66
  -9  -7   2  234.08   13.88
   7  -2  -9  248.58   12.93
  -2   9  -7  236.34   13.88
  -7  -2   9  205.97   13.08
  -2  -9   7  249.98   12.71
   9   7   2  244.40   12.91
  -7   2  -9  234.67   12.56
   9  -7  -2  232.58   12.39
   7  -2  -9  239.31   13.38
  -8  -2  -9   14.43    4.16
   9  -8   2   18.75    3.93
  -2  -9  -8   18.89    4.51
   8   2  -9   18.50    4.15
  -8   2   9   14.86    3.68
   8  -2   9   15.05    3.89
  -9  -8  -2   15.72    4.24
  -2   9   8   17.02    4.15
   9   8  -2   13.98    3.65
  -9   8   2   19.52    4.28
   2   9  -8   17.92    4.96
   2  -9   8   15.69    3.88
  -2  -9  -8   15.76    3.52
   2   9   8   29.71    5.60
  -9   8  -2   18.70    4.55
  -8  -2   9   28.99    5.66
  -8   2  -9   24.45    4.63
  -9  -8   2   25.80    5.57
  -2  -9   8   24.71    4.53
  -2   9  -8   17.82    4.77
   8  -2  -9   24.28    4.63
   8   2   9   23.62    4.62
   9  -8  -2   23.31    4.34
   9   8   2   22.97    4.75
   8  -2  -9   22.40    4.81
   2  -9  -8   23.78    4.92
  -9   0  -3  130.85    7.18
   3  -9   0  138.93    7.18
  -3   9   0  132.43    8.06
  -3   9   0  136.59    7.83
   3   9   0  137.29    8.43
   0  -3  -9  127.73    7.61
  -9   0  -3  150.18    9.00
   0  -3  -9  131.93    8.84
   9   0  -3  149.28    8.06
   3  -9   0  138.06    8.01
   9   0   3  138.90    7.92
  -9   0   3  141.81    9.99
   0   3  -9  144.08    7.83
   0   3   9  133.33    8.07
   9   0  -3  140.22    7.69
   0  -3   9  138.01    7.71
   0   3  -9  148.74    8.89
  -3  -9   0  146.86    9.21
   3   9   0  129.44    8.25
   1   3  -9   22.35    3.00
  -9  -1  -3   21.10    2.95
   9   1  -3   21.67    2.87
   3  -9   1   20.48    2.63
  -1   3   9   21.22    3.27
   9  -1   3   19.67    2.94
   3   9  -1   23.13    3.48
  -9   1   3   26.53    5.21
  -3   9   1   23.73    3.25
   1  -3   9   21.11    3.05
   9   1  -3   21.87    3.11
  -1  -3  -9   14.11    3.22
   1   3  -9   15.19    2.39
   1   3  -9   20.24    3.05
  -1  -3  -9   19.58    3.57
   3  -9   1   18.98    3.45
   3   9  -1   20.45    4.01
  -9  -1  -3   19.08    3.87
   1   3  -9   18.08    3.82
  -3  -9  -1   14.02    3.61
  -3   9   1   22.16    3.39
  -9   1  -3   21.41    4.47
  -3  -9   1   21.18    4.32
   9  -1  -3   23.69    3.15
   9   1   3   18.99    3.38
  -9   1  -3   16.17    2.44
   1  -3  -9   13.63    3.42
   1  -3  -9   20.67    2.96
   9  -1  -3   16.23    3.16
  -1   3  -9   17.24    3.63
   1   3   9   19.72    3.63
  -9  -1   3   26.32    5.55
   3   9   1   15.18    3.44
  -3   9  -1   19.65    2.84
   3  -9  -1   13.81    2.82
   3  -9  -1   20.76    3.19
  -3   9  -1   17.08    3.73
  -1   3  -9   20.19    2.89
  -2  -3  -9    9.98    2.81
   9  -2   3   10.75    2.82
   9   2  -3    9.92    2.50
  -3  -9  -2   15.74    3.86
   2   3  -9   16.29    3.12
  -2   3   9   10.58    2.83
  -9  -2  -3   17.93    3.43
   2   3  -9   10.55    2.45
  -9   2   3   12.28    3.68
   9   2  -3    8.54    2.13
   2  -3   9   13.15    2.84
   2   3  -9   10.45    3.33
   3  -9   2    8.77    2.50
   3   9  -2   10.19    3.28
   3   9  -2   11.57    2.91
  -9  -2  -3   11.61    3.05
   2   3  -9   11.95    2.45
  -3   9   2   16.76    3.64
  -3   9   2    9.56    2.54
  -2  -3  -9   10.50    2.96
   2   3   9    6.99    2.36
  -3  -9   2    9.00    2.77
  -2   3  -9   12.65    3.19
   3   9   2   10.54    3.10
  -9   2  -3   10.52    2.25
   2  -3  -9   12.85    2.57
  -2   3  -9   14.71    3.32
  -9  -2   3   10.70    3.66
   9   2   3   14.59    2.25
   3  -9  -2    4.73    1.91
  -3   9  -2   11.70    3.05
   3  -9  -2    9.02    2.75
  -9   2  -3    9.42    2.92
   2  -3  -9   12.27    3.32
   9  -2  -3   14.15    2.98
   9  -2  -3   12.32    2.88
   9   2   3    8.60    2.40
  -9   3   3  130.48    9.15
   3   9  -3  134.37    8.14
  -3  -9  -3  133.90    9.23
  -3  -3  -9  137.35    8.79
   3  -3   9  141.84    8.12
   3   3  -9  147.97    7.86
  -3   9   3  129.52    8.50
  -3   3   9  135.65    8.46
  -9  -3  -3  149.98    9.02
   9  -3   3  127.92    7.90
   9   3  -3  126.73    7.95
   3  -9   3  125.11    7.88
  -9  -3  -3  129.29    8.06
   3   9  -3  139.07    9.49
   3   3  -9  127.76    9.25
  -3  -3  -9  126.83    8.57
   9   3   3  138.00    7.80
  -3  -3   9  140.26    7.43
   3  -3  -9  142.78    9.18
  -3   3  -9  128.12    8.06
   3  -9  -3  130.68    8.13
   9  -3  -3  145.77    7.97
   9  -3  -3  133.55    8.18
  -9  -3   3  129.31   10.12
  -9   3  -3  135.60    9.16
   3   3   9  128.32    7.77
  -9   3  -3  125.46    6.84
   3  -9  -3  139.43    8.22
  -3   3  -9  132.44    8.23
  -3  -9   3  133.93    8.57
   3   9   3  142.44    9.14
  -3   9  -3  134.97    8.87
   9   3   3  150.01    7.77
   3   9  -4   59.94    5.24
   9   4  -3   73.12    5.96
   4   3  -9   74.29    5.62
   3  -9   4   69.53    5.76
  -9   4   3   63.77    6.23
  -4  -3  -9   72.72    6.50
  -3   9   4   66.42    6.08
  -9  -4  -3   63.45    6.23
  -3  -9  -4   70.56    6.63
   4   3  -9   69.53    6.87
  -4   3   9   61.11    5.64
   9  -4   3   67.49    5.62
   4  -3   9   69.20    5.68
   3   9  -4   66.15    6.78
  -9  -4  -3   61.87    5.48
   3  -9  -4   75.60    6.16
  -9  -4   3   65.45    7.20
  -4   3  -9   53.67    5.25
  -4   3  -9   62.21    5.56
   9  -4  -3   59.77    5.01
   3   9   4   65.03    6.17
   9   4   3   61.47    5.13
   9   4   3   65.86    5.14
  -3  -9   4   71.33    6.09
   3  -9  -4   63.47    5.61
   9  -4  -3   74.05    5.99
   4   3   9   64.64    5.29
   4   3   9   60.54    6.06
   4  -3  -9   66.69    6.47
  -9   4  -3   55.51    6.03
  -3   9  -4   60.32    6.12
  -9  -5  -3   51.90    5.84
   3   9  -5   47.93    6.19
  -9   5   3   46.95    4.65
   5   3  -9   44.52    4.64
   9  -5   3   52.46    4.99
  -3   9   5   48.28    5.31
   5  -3   9   48.31    4.90
   3  -9   5   53.93    5.26
  -5  -3  -9   44.52    5.46
  -3  -9  -5   47.86    5.51
   3   9  -5   47.59    4.67
  -5   3   9   51.28    5.27
  -9   5   3   51.51    5.55
   9   5  -3   49.24    5.13
   9   5   3   51.26    5.01
  -9   5  -3   49.07    5.65
  -9  -5   3   53.07    6.54
  -5  -3   9   63.74    6.64
  -5   3  -9   48.24    5.06
  -5   3  -9   50.33    5.09
   9  -5  -3   49.63    5.15
  -3  -9   5   52.40    5.31
  -3   9  -5   50.66    5.66
   5  -3  -9   49.81    5.59
   3  -9  -5   47.45    5.25
   3   9   5   41.34    5.07
   5   3   9   53.42    5.70
   9   5   3   53.86    5.05
   9  -6   3   40.90    4.50
  -6  -3  -9   37.87    5.26
   3   9  -6   40.55    4.42
  -9   6   3   46.17    4.84
   3   9  -6   42.07    6.05
  -9   6   3   43.84    5.26
   6  -3   9   35.69    4.47
   6   3  -9   33.74    4.28
  -6   3   9   42.01    4.82
  -3  -9  -6   39.83    4.32
  -3  -9  -6   39.14    5.11
   3  -9   6   34.40    4.41
  -3   9   6   41.50    5.25
  -9  -6  -3   39.10    5.44
   9   6  -3   43.30    4.86
   3  -9  -6   30.44    4.52
   6   3   9   33.35    4.82
   6  -3  -9   29.86    5.42
  -9  -6   3   36.88    5.72
  -6  -3   9   31.13    5.59
   9  -6  -3   30.09    4.27
   9   6   3   29.79    4.24
  -3   9  -6   30.84    4.78
   3   9   6   38.52    5.14
  -3  -9   6   30.86    4.35
  -6   3  -9   31.82    4.35
  -6   3  -9   29.81    4.19
  -9   6  -3   28.57    5.34
  -7   3   9    9.07    3.07
   7  -3   9    6.01    2.53
  -3   9   7    8.79    3.40
   7   3  -9   10.03    3.00
  -7  -3  -9    6.18    2.78
  -9   7   3   10.02    3.44
   9  -7   3   10.88    3.17
   3  -9   7    9.78    3.32
  -3  -9  -7    9.69    2.88
  -3  -9  -7    9.07    3.04
   3   9  -7    8.35    3.94
   3   9  -7   10.40    2.99
   9   7  -3    7.87    2.85
  -9  -7  -3    7.29    3.37
  -9  -7   3    9.15    3.93
  -7   3  -9   14.59    3.79
   7   3   9   10.16    3.27
   9  -7  -3    6.56    2.67
   3   9   7   15.97    4.15
   7  -3  -9   11.64    3.58
  -7  -3   9   17.39    4.65
  -3  -9   7   21.24    4.43
  -3   9  -7    6.16    3.07
  -9   7  -3    8.69    3.37
  -7   3  -9   11.93    3.52
   3  -9  -7    7.13    3.06
   9   7   3    9.05    2.91
  -9   8   3   38.64    5.21
  -8  -3  -9   42.68    5.97
   8   3  -9   41.77    5.06
   8  -3   9   38.74    4.95
  -3   9   8   37.44    6.49
   9  -8   3   39.33    4.86
   3  -9   8   43.02    5.33
   3   9  -8   41.12    6.26
  -9  -8  -3   37.91    5.70
  -8   3   9   49.75    5.75
   9   8  -3   42.38    5.37
  -3  -9  -8   41.80    5.52
  -3  -9  -8   44.69    5.04
  -8  -3   9   28.50    6.21
  -9   8  -3   38.49    7.06
   9   8   3   30.90    4.87
   3  -9  -8   29.73    5.50
  -9  -8   3   24.91    5.52
   3   9   8   32.82    5.98
  -8   3  -9   43.62    5.21
  -3  -9   8   33.44    4.73
   8  -3  -9   37.68    4.96
   8   3   9   32.68    5.72
   9  -8  -3   20.78    4.26
   8  -3  -9   42.61    5.63
  -3   9  -8   39.66    5.91
   0   4   9   39.33    4.48
  -9   0  -4   34.01    4.20
   4  -9   0   32.35    3.54
  -9   0  -4   30.77    3.66
  -9   0   4   40.34    5.27
  -4  -9   0   41.34    4.98
  -4   9   0   37.69    4.36
  -4   9   0   40.96    4.15
   9   0  -4   34.23    3.83
   9   0   4   36.28    4.14
   0  -4   9   39.17    3.66
   4   9   0   31.54    4.42
   0   4  -9   45.13    5.12
   0   4  -9   35.18    3.87
   0  -4  -9   38.78    4.15
   9   0  -4   33.94    3.85
   4  -9   0   36.73    3.95
   0  -4  -9   33.11    4.47
   4   9   0   34.17    4.30
   9  -1   4  109.81    7.29
  -9   1   4  122.46    9.06
  -4  -9  -1  112.36    8.47
  -1  -4  -9  114.47    7.54
   4   9  -1  108.82    8.07
   1   4  -9  115.83    6.98
  -1   4   9  125.07    7.97
   1   4  -9  123.94    6.48
   4  -9   1  120.78    6.69
  -4   9   1  116.97    7.43
  -1  -4  -9  115.33    8.10
  -9  -1  -4  124.60    7.48
  -9  -1  -4  120.51    7.64
   1   4  -9  109.43    8.17
   1  -4   9  121.35    6.80
   9   1  -4  114.33    7.26
   9   1  -4  131.62    7.33
   4  -9   1  119.08    7.19
  -4   9   1  120.92    7.47
   4   9  -1  116.84    7.84
   9   1   4  102.82    7.06
   1  -4  -9  106.10    7.95
  -9  -1   4  107.26    9.10
   9  -1  -4  100.93    6.85
   1   4   9  107.83    7.41
   4  -9  -1  109.96    6.82
   4  -9  -1  105.40    6.84
   1  -4  -9  114.43    6.95
   9  -1  -4  122.00    7.44
  -4   9  -1  109.66    7.63
  -1   4  -9  102.47    6.88
   4   9   1  113.93    7.93
  -9   1  -4  109.50    7.80
  -9   1  -4   99.46    6.44
  -1   4  -9  104.61    7.80
  -4  -9   1  114.14    8.21
  -9  -2  -4  241.53   11.80
   9   2  -4  227.13   11.41
   9   2  -4  232.18   10.51
   4   9  -2  220.94   12.66
   4   9  -2  223.60   11.46
   2   4  -9  231.17   10.39
  -4  -9  -2  227.43   12.62
  -2  -4  -9  230.64   12.14
  -2  -4  -9  223.79   11.79
   4  -9   2  240.51   10.26
   4  -9   2  218.07   10.79
  -4   9   2  251.19   11.94
   2   4  -9  229.54   12.92
  -4   9   2  220.31   10.75
  -9   2   4  230.92   12.93
   9  -2   4  235.83   11.45
  -9  -2  -4  234.48   11.34
  -2   4   9  214.50   11.63
   2  -4   9  239.24   10.78
  -9  -2   4  270.28   14.89
   9   2   4  246.37   11.39
  -9   2  -4  243.97   12.44
  -2  -4   9  245.65   11.06
  -2   4  -9  238.81   12.09
   4   9   2  237.07   12.37
  -9   2  -4  225.73   10.25
   9  -2  -4  242.25   11.62
   4  -9  -2  237.49   11.16
   9  -2  -4  238.00   11.21
   2  -4  -9  221.11   12.18
   2   4   9  221.54   11.29
   4  -9  -2  250.39   11.42
  -4  -9   2  241.25   12.50
  -4   9  -2  231.74   12.14
  -2   4  -9  226.94   11.20
  -3  -4  -9   82.55    6.74
   9  -3   4   68.14    5.64
   4   9  -3   63.13    6.55
  -4   9   3   66.79    5.90
   9   3  -4   68.38    5.67
  -4  -9  -3   69.66    6.64
  -3   4   9   61.64    5.75
  -9   3   4   75.20    6.75
   3   4  -9   61.44    5.02
   3  -4   9   67.73    5.30
  -9  -3  -4   69.99    5.42
  -9  -3  -4   65.89    6.16
   3   4  -9   71.79    7.02
  -3  -4  -9   69.57    6.15
   4  -9   3   67.95    5.52
   4   9  -3   68.52    5.81
  -3   4  -9   58.45    5.33
  -3  -4   9   59.67    4.89
  -9  -3   4   56.14    6.80
   4  -9  -3   65.34    5.50
  -9   3  -4   58.83    4.65
   3   4   9   62.31    5.46
   4   9   3   54.69    5.72
   9  -3  -4   60.42    5.21
   9  -3  -4   66.60    5.72
  -4   9  -3   60.30    6.04
   9   3   4   57.71    5.17
  -9   3  -4   61.27    6.12
   4  -9  -3   64.46    5.63
  -4  -9   3   53.34    5.43
  -3   4  -9   59.80    5.72
   3  -4  -9   59.84    6.09
   4   4  -9    9.39    3.62
  -4  -4  -9   10.58    3.24
   4   4  -9   11.62    2.75
   9   4  -4    8.48    2.86
  -9   4   4    6.17    2.71
  -4   4   9    8.30    2.62
   4   9  -4   11.30    2.99
  -4   9   4   12.21    3.29
  -9  -4  -4    5.56    2.83
   4  -9   4    9.76    2.75
   4   9  -4    6.92    2.88
   9  -4   4    5.82    2.25
   4  -4   9    8.39    2.64
  -4  -9  -4    6.29    2.75
  -4   9  -4    7.64    2.96
   9  -4  -4    6.02    2.43
   4  -9  -4    9.49    3.01
   9  -4  -4   10.29    2.73
   4   4   9    8.42    3.05
   4   9   4    7.10    2.61
  -9  -4   4    7.42    3.38
  -9   4  -4    7.58    2.88
  -9   4  -4   12.81    2.67
  -4   4  -9    4.72    1.96
  -4   4  -9    6.41    2.57
  -4  -9   4    4.61    2.40
   4  -4  -9    7.96    2.96
   9   4   4    9.61    2.58
   4   4   9    9.11    2.71
   9   4   4    8.10    2.40
   4   9  -5   96.03    8.89
   4   9  -5   95.59    6.96
  -4   9   5  114.43    8.24
  -9   5   4  102.99    7.12
  -5   4   9   96.29    7.49
  -9  -5  -4   93.43    8.11
   5   4  -9  113.21    7.31
   4  -9   5  106.19    7.45
  -9   5   4   92.96    7.62
   9   5  -4   96.91    7.34
  -5  -4  -9   94.73    7.92
   9  -5   4   87.51    6.74
   5  -4   9  103.11    7.11
  -4  -9  -5   97.78    7.98
   9  -5  -4   99.25    7.49
  -9   5  -4   88.30    7.85
   5   4   9   96.50    7.81
  -4  -9   5   93.26    7.32
  -4   9  -5   97.69    8.20
  -9  -5   4  101.70    9.17
  -5  -4   9   91.68    8.30
  -5   4  -9   98.10    7.49
   9   5   4   95.02    6.62
  -9   5  -4   97.22    6.25
   4   9   5   90.13    7.60
   5  -4  -9   97.24    7.91
  -5   4  -9  103.53    7.41
   9   5   4   96.29    7.02
   4  -9  -5  103.79    7.80
   6  -4   9   55.49    5.39
  -4   9   6   54.67    6.02
  -4  -9  -6   51.72    5.90
  -9   6   4   49.77    5.73
  -9   6   4   47.99    5.24
   9  -6   4   60.71    5.57
  -6   4   9   55.97    5.83
  -6  -4  -9   53.97    6.25
   6   4  -9   51.85    5.24
  -9  -6  -4   47.19    6.08
   9   6  -4   60.22    5.87
   4   9  -6   54.29    5.22
   4   9  -6   51.04    6.79
   4  -9   6   56.84    5.68
  -6  -4   9   54.94    6.69
  -6   4  -9   58.88    5.94
   9   6   4   54.51    5.49
   6  -4  -9   56.21    6.16
   4   9   6   52.12    5.88
  -4   9  -6   55.59    6.28
  -4  -9   6   57.57    5.79
  -9   6  -4   49.62    6.07
   6   4   9   57.27    6.15
  -6   4  -9   55.09    5.58
  -9  -6   4   56.47    7.14
   9  -6  -4   59.19    5.88
   4  -9  -6   57.83    6.16
  -9   7   4   18.64    4.21
  -7   4   9   19.70    4.32
  -9  -7  -4    9.46    3.43
   4   9  -7    8.12    3.83
  -9   7   4   17.78    4.04
   9  -7   4   16.88    3.72
   9   7  -4   16.91    4.00
  -7  -4  -9   13.23    4.22
  -4   9   7   16.82    4.00
   7  -4   9   20.27    4.06
  -4  -9  -7   20.45    4.73
   4  -9   7   16.75    4.03
   4   9  -7   16.36    3.48
   7   4  -9   10.70    3.11
   9  -7  -4    8.76    2.93
  -7  -4   9   18.88    5.17
   7   4   9   14.07    3.68
  -9   7  -4   14.63    4.39
   4   9   7   11.67    3.55
  -7   4  -9   18.38    3.96
  -7   4  -9   14.62    4.05
  -4  -9   7   13.16    3.49
  -4   9  -7   11.83    3.93
   4  -9  -7   13.84    3.83
  -9  -7   4   17.78    5.06
   9   7   4   12.72    3.56
   7  -4  -9   15.41    4.29
  -4  -9  -8    6.19    2.64
   8   4  -9    2.22    1.94
  -9   8   4    0.39    1.79
  -9  -8  -4    2.49    2.60
   4   9  -8    1.47    1.63
  -4  -9  -8    0.67    2.19
   9  -8   4    4.78    2.51
   9   8  -4    3.50    2.40
   8  -4   9    1.31    1.82
   4  -9   8    2.68    2.34
   4   9  -8    0.82    2.58
  -8  -4  -9    3.51    2.94
  -8   4   9    6.20    2.88
  -4   9   8    1.54    2.13
   9  -8  -4    1.94    2.11
   4   9   8    6.19    2.97
   8   4   9    3.04    2.42
  -8  -4   9    1.81    2.72
  -9  -8   4    3.41    3.04
   9   8   4    1.63    1.97
  -4  -9   8    0.99    1.90
  -8   4  -9    3.74    2.58
  -8   4  -9    2.48    1.96
   4  -9  -8    1.28    1.88
  -4   9  -8    7.73    3.64
   8  -4  -9    4.13    2.73
  -9   8  -4    3.05    2.64
   9   0  -5   71.29    5.66
   5   9   0   83.16    6.68
   5  -9   0   63.82    5.17
   5  -9   0   73.17    5.47
  -9   0  -5   77.51    5.92
  -5  -9   0   71.20    6.75
   0  -5   9   66.77    5.68
   9   0  -5   65.99    5.65
   9   0   5   66.50    5.77
   0   5   9   71.60    6.08
   0  -5  -9   69.30    5.78
   5   9   0   68.87    6.42
   0   5  -9   71.20    6.81
  -9   0   5   82.26    7.59
  -9   0  -5   74.29    6.01
  -5   9   0   69.70    6.04
   0   5  -9   71.26    5.58
   0  -5  -9   70.08    6.30
   5   9  -1  112.49    8.66
  -9   1   5  122.37    9.22
  -1  -5  -9  130.41    8.30
   9  -1   5  109.68    7.56
   9   1  -5  119.49    7.37
  -5  -9  -1  108.74    8.51
   9   1  -5  116.76    7.62
   5   9  -1  121.90    8.12
  -9  -1  -5  125.58    8.07
   5  -9   1  131.77    7.34
  -1   5   9  111.39    8.02
  -5   9   1  115.69    7.70
  -1  -5  -9  109.71    8.11
  -5   9   1  108.81    7.32
   1   5  -9  119.74    8.88
  -9  -1  -5  107.37    7.33
   5  -9   1  113.82    7.15
  -5   9  -1  118.09    8.20
   9   1   5  121.44    7.90
   9  -1  -5  131.48    7.92
  -9  -1   5  127.04    9.72
  -9   1  -5  117.35    8.00
  -5  -9   1  131.79    8.98
  -1   5  -9  118.71    7.49
   5  -9  -1  134.12    7.65
   5   9   1  125.25    8.52
   9  -1  -5  109.39    7.40
   1  -5  -9  127.02    7.58
  -1   5  -9  123.51    8.73
   1   5   9  104.01    7.65
  -9   1  -5  126.14    7.52
  -1  -5   9  120.45    7.59
   5  -9  -1  124.15    7.30
   1  -5  -9  124.45    8.61
  -5   9   2    6.69    2.34
  -2   5   9   11.79    3.26
  -2  -5  -9    7.91    2.92
   5  -9   2    8.95    2.41
   5  -9   2    7.98    2.37
   5   9  -2   11.90    3.25
   2   5  -9   11.23    3.69
  -5   9   2    7.91    2.69
  -2  -5  -9    7.59    2.66
  -5  -9  -2   13.54    3.87
  -9   2   5    9.10    3.38
   9   2  -5    8.14    2.77
   2   5  -9    9.82    2.45
   9  -2   5   12.68    3.07
  -9  -2  -5   10.80    3.24
   5   9  -2   11.17    3.88
   2  -5   9    6.09    2.01
   2   5   9   10.62    2.87
  -2   5  -9   11.11    3.03
   9  -2  -5   13.04    3.18
   5   9   2   16.09    3.81
  -2  -5   9   18.66    3.48
  -9   2  -5   11.22    2.64
  -2   5  -9   11.91    3.53
  -9   2  -5   15.40    3.80
   2  -5  -9   14.10    3.50
  -5   9  -2   14.78    3.74
  -5  -9   2   14.10    3.80
   9  -2  -5   14.30    3.19
  -9  -2   5   12.66    3.92
   5  -9  -2   12.86    3.16
   9   2   5   10.59    2.89
   5  -9   3   52.84    4.85
  -3  -5  -9   40.92    4.91
  -5   9   3   52.70    5.36
   3   5  -9   41.80    4.16
   5   9  -3   48.37    5.03
   3  -5   9   46.72    4.32
  -9  -3  -5   36.45    4.97
   9  -3   5   39.01    4.50
   9   3  -5   46.18    4.84
   5   9  -3   54.77    6.53
  -3  -5  -9   48.71    5.49
   3   5  -9   52.45    6.34
  -5   9   3   45.49    4.61
  -3   5   9   40.82    4.92
  -5  -9  -3   38.20    5.24
   5  -9   3   49.12    4.35
  -9   3   5   41.42    5.31
   3  -5  -9   46.51    5.41
  -5   9  -3   39.33    5.13
   3   5   9   45.80    4.98
  -9   3  -5   37.74    4.95
  -3   5  -9   39.63    4.50
   9   3   5   43.00    4.58
   5   9   3   38.67    4.77
   9  -3  -5   43.57    4.62
   9  -3  -5   40.22    4.61
  -9   3  -5   43.32    4.25
   5  -9  -3   42.08    4.69
  -5  -9   3   34.11    4.76
  -3   5  -9   41.37    5.18
  -9  -3   5   26.76    5.59
  -3  -5   9   36.96    4.05
  -9  -4  -5    3.72    2.43
  -9   4   5    3.92    2.31
  -5  -9  -4    3.78    2.29
  -5   9   4    4.46    2.56
   9   4  -5    0.39    1.28
   9  -4   5    4.52    2.22
  -4  -5  -9    2.67    2.10
   5   9  -4    5.49    2.95
   4  -5   9    4.70    2.03
   4   5  -9    4.36    1.95
   5   9  -4    6.22    2.55
  -4   5   9    3.17    2.09
   5  -9   4    6.85    2.54
   4   5  -9    6.06    3.22
  -4   5  -9    1.97    1.57
  -9   4  -5    4.49    2.58
  -9   4  -5    2.48    1.61
   4   5   9    0.20    1.63
   5   9   4    4.42    2.60
  -5  -9   4    3.88    2.43
  -4   5  -9    5.53    2.63
  -4  -5   9    2.80    1.69
   9   4   5    1.21    1.62
   9  -4  -5    2.54    1.91
   4  -5  -9    3.85    2.48
   4   5   9    1.04    1.97
   5  -9  -4    4.37    2.12
  -5   9  -4    1.95    1.91
  -9  -4   5    4.58    3.21
   9  -4  -5    3.96    2.02
   5   5  -9   26.60    5.66
   5   9  -5   34.59    4.49
  -9  -5  -5   37.79    5.46
  -5  -5  -9   39.13    5.30
  -9   5   5   39.95    5.11
   5   5  -9   35.98    4.36
  -5  -9  -5   34.42    4.96
   9  -5   5   37.20    4.63
   9   5  -5   38.86    4.66
   5  -5   9   37.32    4.35
   5   9  -5   40.87    6.18
  -9   5   5   39.12    4.63
   5  -9   5   34.19    4.36
  -5   5   9   31.73    4.62
  -5   9   5   32.16    4.63
   5  -9  -5   39.82    5.10
   9   5   5   45.21    4.80
  -5   9  -5   40.87    5.54
  -5   5  -9   35.91    4.49
   5   9   5   38.61    5.04
   9  -5  -5   44.26    5.18
   5   5   9   36.91    5.03
  -9  -5   5   35.29    6.85
  -9   5  -5   43.44    5.62
  -5  -9   5   40.37    4.98
   5  -5  -9   41.76    5.50
  -9   5  -5   45.28    4.44
   5   5   9   39.25    4.74
   9   5   5   43.02    4.66
  -5   5  -9   42.14    5.26
  -5   9   6   41.79    5.41
   9   6  -5   50.36    5.57
   5   9  -6   36.40    6.95
   9  -6   5   54.95    5.45
   5   9  -6   43.12    4.94
  -9   6   5   48.35    5.49
   5  -9   6   43.20    5.10
  -9  -6  -5   56.64    6.66
  -9   6   5   47.77    5.43
  -5  -9  -6   50.99    6.05
   6  -5   9   41.76    4.81
  -6   5   9   43.26    5.43
   6   5  -9   42.41    4.99
  -6  -5  -9   46.05    6.05
   6   5   9   48.87    5.76
   5  -9  -6   51.44    6.06
   9   6   5   48.11    5.33
  -6  -5   9   51.92    6.89
   6  -5  -9   46.47    5.96
  -5  -9   6   50.66    5.50
  -9   6  -5   49.67    4.83
  -9   6  -5   52.60    6.46
   9  -6  -5   55.65    6.06
   5   9   6   63.78    6.53
  -9  -6   5   49.65    6.98
  -5   9  -6   44.82    6.00
  -6   5  -9   41.25    4.88
  -6   5  -9   60.10    6.34
  -7   5   9   17.87    4.37
   9  -7   5   21.23    4.12
  -9   7   5   27.23    4.98
   5   9  -7   31.23    6.79
  -9   7   5   28.09    5.24
  -5  -9  -7   23.31    5.00
  -5   9   7   22.01    4.76
   9   7  -5   20.90    4.23
   7  -5   9   26.10    4.76
   7   5  -9   22.16    4.40
   5  -9   7   28.87    4.27
   9  -7   5   31.76    5.71
  -7  -5  -9   24.03    5.49
  -9  -7  -5   23.10    5.19
   5   9  -7   20.64    4.23
  -5   9  -7   22.09    5.16
   5   9   7   24.18    5.05
  -7  -5   9   21.04    5.42
  -7   5  -9   26.10    5.14
   9  -7  -5   22.17    4.64
  -7   5  -9   24.14    4.59
  -9  -7   5   22.21    5.64
   9   7   5   23.96    4.79
  -9   7  -5   26.09    5.56
  -5  -9   7   27.74    4.30
   7   5   9   26.98    5.16
   5  -9  -7   25.04    4.94
   7  -5  -9   26.02    5.47
  -8   5   9   10.06    3.54
  -9   8   5   11.12    3.62
  -5  -9  -8   10.95    3.56
   5   9  -8   11.41    4.83
   8  -5   9   12.51    3.60
   5  -9   8   13.98    3.79
  -5   9   8    9.65    3.69
   8   5  -9   14.35    3.71
  -8  -5  -9   12.01    4.13
   9   8  -5   12.11    3.61
   5   9  -8    8.67    2.99
   9  -8   5    9.33    3.12
  -9  -8  -5    6.07    3.31
  -8   5  -9    8.27    3.06
   8  -5  -9    8.73    3.51
   5   9   8   10.53    3.46
   5  -9  -8    8.83    3.67
   8   5   9   15.27    4.01
  -5   9  -8   12.14    4.26
   9   8   5    6.51    3.03
  -8  -5   9    7.77    3.75
  -8   5  -9   11.84    3.58
  -5  -9   8    8.98    2.97
  -9  -8   5   13.68    4.58
   9  -8  -5    9.86    3.47
  -9   8  -5   14.00    4.42
  -9   0  -6    8.05    2.67
  -9   0   6    4.79    2.64
   9   0   6    9.82    2.84
  -6  -9   0    7.41    3.08
   0   6  -9    9.58    3.79
   0  -6  -9    6.06    2.41
   9   0  -6   10.56    2.95
  -6  -9   0    9.84    3.13
   0  -6   9    8.14    2.62
   6  -9   0    9.51    2.68
  -6   9   0    9.41    2.97
   0   6   9    6.64    2.60
   6   9   0    6.19    2.43
   9   0  -6    8.24    2.69
  -9   0  -6   11.01    3.04
   0  -6  -9   10.45    3.09
  -6  -9  -1    5.13    2.57
  -9   1   6    7.67    3.34
  -6   9   1    6.72    2.59
   6  -9   1    3.14    1.76
   6  -9   1    4.40    1.94
   6   9  -1    5.21    2.41
   1  -6   9    4.15    2.11
   9   1  -6    8.80    2.78
   9  -1   6    6.49    2.48
  -1  -6  -9   10.24    3.31
  -1  -6  -9    5.04    2.30
   9   1  -6    7.32    2.65
  -1   6   9    6.66    2.53
  -9  -1  -6    7.40    2.83
   1   6  -9    4.99    3.00
  -9   1  -6    3.99    2.12
   1  -6  -9    5.79    2.28
  -6  -9   1    1.62    1.95
   9   1   6    3.07    1.77
  -9  -1   6    1.31    2.40
  -1  -6   9    2.83    1.88
   1  -6  -9    2.84    1.92
  -9   1  -6    1.08    1.57
  -1   6  -9    7.47    3.19
  -6  -9   1    1.99    2.04
   1   6   9    2.68    1.96
   6  -9  -1    4.75    2.12
   6   9   1    3.64    2.09
  -6   9  -1    3.67    2.14
   9  -1  -6    5.30    2.42
   9  -1  -6    4.14    2.07
  -6   9   2   19.98    3.94
  -9  -2  -6   21.32    4.32
  -2  -6  -9   20.12    4.20
  -2   6   9   18.23    4.18
  -6  -9  -2   21.60    4.76
  -2  -6  -9   14.92    3.52
   9  -2   6   14.18    3.27
  -6   9   2   20.13    3.91
   6  -9   2   17.51    3.41
   6   9  -2   26.55    4.07
   6  -9   2   23.96    3.33
   2  -6   9   23.54    4.38
   2   6  -9   22.39    5.03
   9   2  -6   20.12    4.02
  -9   2   6   23.52    4.64
   2   6   9   18.19    3.94
  -9   2  -6   31.14    3.82
  -9  -2   6   31.66    6.06
   2  -6  -9   22.22    4.30
   6  -9  -2   26.16    3.73
  -6  -9   2   20.51    4.33
  -6   9  -2   26.11    5.04
  -2  -6   9   30.00    3.87
   6   9   2   31.31    4.37
   9  -2  -6   27.61    4.84
  -6  -9   2   29.30    5.48
  -9   2  -6   26.50    4.07
  -2   6  -9   21.71    4.00
   9  -2  -6   26.56    3.88
  -2   6  -9   19.15    4.47
   9   2   6   26.74    3.84
   9  -3   6   45.03    4.88
  -6  -9  -3   40.25    5.50
   6   9  -3   39.59    4.82
  -9  -3  -6   37.66    5.28
  -6   9   3   43.60    4.73
  -3   6   9   42.64    5.21
  -9   3   6   43.73    5.39
   6  -9   3   51.51    4.69
   6  -9   3   51.79    4.94
   3   6  -9   48.20    6.41
  -3  -6  -9   48.60    5.31
  -3  -6  -9   41.67    5.25
   6   9  -3   49.26    6.48
  -6   9   3   47.52    5.15
   3   6  -9   40.95    4.26
   9   3  -6   49.84    5.16
  -9   3  -6   40.78    5.07
  -9   3  -6   38.91    4.30
  -9  -3   6   32.38    6.28
   3   6   9   43.73    5.13
   9   3   6   43.15    4.93
  -6   9  -3   38.15    5.27
   6   9   3   41.75    5.19
  -3  -6   9   38.37    4.40
   9  -3  -6   38.68    4.90
   6  -9  -3   42.32    4.91
   9  -3  -6   44.89    4.99
  -3   6  -9   35.44    4.44
  -3   6  -9   45.47    5.68
  -6  -9   3   36.59    5.11
   3  -6  -9   34.86    4.86
  -6   9   4  233.29   12.14
  -9   4   6  211.17   11.81
  -4  -6  -9  214.57   12.46
   4   6  -9  205.99   13.76
   6   9  -4  210.76   11.56
  -9  -4  -6  199.26   12.63
  -4   6   9  217.16   12.14
   6  -9   4  229.90   10.59
  -6  -9  -4  218.45   12.64
  -4  -6  -9  216.35   11.60
   4   6  -9  228.47   11.00
   9  -4   6  219.41   11.44
   9   4  -6  195.84   11.30
   6  -9   4  224.61   11.22
   6   9  -4  195.76   13.37
   4  -6   9  217.95   10.39
  -6   9  -4  180.50   11.91
   9  -4  -6  210.84   11.43
   9  -4  -6  206.05   11.81
   4   6   9  185.83   11.52
  -9   4  -6  193.41   11.90
   9   4   6  200.66   11.03
   4  -6  -9  171.39   11.59
  -4  -6   9  202.02   10.52
  -4   6  -9  196.40   12.07
  -9  -4   6  192.12   13.26
   6  -9  -4  187.72   11.29
   6   9   4  210.80   12.13
  -6  -9   4  192.58   11.55
   4   6   9  189.79   11.06
  -4   6  -9  180.18   10.70
  -9   4  -6  185.28   10.19
  -5  -6  -9    8.49    3.21
   6   9  -5    4.59    2.46
   9  -5   6    4.60    2.06
   6  -9   5    5.13    2.40
   6   9  -5   -0.28    2.35
   5   6  -9    2.23    1.91
   5   6  -9    9.25    3.86
  -6   9   5    8.00    3.09
  -5   6   9    4.64    2.43
   9   5  -6    3.41    2.22
  -9   5   6    1.17    1.94
  -9   5   6    7.42    2.82
  -6  -9  -5    4.10    2.59
   5  -6   9    4.50    2.19
  -9  -5  -6    3.93    2.67
   9   5   6    2.72    2.09
   6  -9  -5    2.39    2.33
   5   6   9    5.57    2.83
   9  -5  -6    7.97    2.84
  -5   6  -9    6.11    2.92
   6   9   5    2.60    2.27
  -9  -5   6    7.85    3.87
  -9   5  -6    5.14    2.91
  -9   5  -6    7.20    2.65
   5   6   9    9.02    3.03
  -5   6  -9    2.01    1.72
   5  -6  -9    6.01    2.65
  -6  -9   5    6.54    2.89
  -6   9  -5    5.11    2.97
   6  -6   9    6.07    2.45
   9  -6   6    1.16    1.81
  -6   6   9    8.81    3.43
  -6  -6  -9    4.04    2.91
  -9   6   6    4.75    2.64
  -6  -9  -6    4.49    2.76
  -9   6   6    3.60    2.32
   6   9  -6    0.83    2.75
   6  -9   6    5.05    2.47
  -9  -6  -6    3.07    2.69
   9   6  -6    2.41    2.16
  -6   9   6    5.26    2.59
   6   9  -6    2.96    2.37
   6   6  -9    3.19    2.17
   6  -9  -6    2.73    2.46
   6  -6  -9    6.35    2.96
  -6  -9   6    3.64    2.45
  -6   9  -6    7.99    3.91
  -6  -6   9    1.81    2.78
  -6   6  -9    0.99    2.17
   6   9   6    1.49    1.81
   9  -6  -6    7.44    3.09
   9   6   6    4.47    2.41
  -6   6  -9    3.76    2.10
  -9  -6   6    5.40    3.65
  -9   6  -6    2.59    1.87
  -9   6  -6    5.77    2.72
   6   6   9    6.24    2.90
   6   9  -7   54.47    5.88
  -6  -9  -7   49.52    6.36
  -9  -7  -6   43.41    6.44
   7   6  -9   56.17    5.95
  -9   7   6   49.44    5.94
   6   9  -7   57.31    8.05
   6  -9   7   43.28    5.43
   7  -6   9   53.04    5.56
  -7  -6  -9   55.47    6.87
   9   7  -6   49.03    5.87
  -6   9   7   57.97    6.54
   9  -7   6   54.80    5.57
  -7   6   9   56.21    6.42
   9  -7   6   53.89    5.53
   6  -9  -7   52.73    6.56
  -6   9  -7   45.98    6.40
   9   7   6   46.35    5.72
  -9   7  -6   53.14    6.75
   7   6   9   61.72    6.45
  -6  -9   7   57.92    6.31
   6   9   7   59.47    6.62
  -7   6  -9   52.34    6.42
  -7  -6   9   50.57    7.13
   9  -7  -6   49.34    6.27
  -7   6  -9   50.48    5.66
  -9  -7   6   49.56    7.35
   7  -6  -9   58.13    6.95
   6  -9   8  234.00   12.95
   6   9  -8  233.27   16.31
  -6   9   8  219.23   13.47
   6   9  -8  236.11   12.79
  -8   6   9  238.01   13.85
  -6  -9  -8  216.29   13.51
   8   6  -9  223.56   12.75
   9  -8   6  239.73   12.38
  -8  -6  -9  214.17   14.09
   9  -8   6  226.64   12.23
  -9   8  -6  215.20   14.23
   8  -6  -9  221.50   14.10
   9   8   6  201.71   12.59
  -8   6  -9  206.72   13.46
  -6   9  -8  187.20   13.45
   9  -8  -6  193.28   13.05
   6   9   8  200.72   12.87
   6  -9  -8  210.94   13.58
   8   6   9  204.98   12.72
  -8   6  -9  189.17   11.77
  -9  -8   6  203.88   14.73
  -8  -6   9  208.31   14.87
   9   0  -7    4.34    2.41
  -7   9   0    3.45    2.24
   7   9   0    3.18    2.10
   9   0  -7    6.26    2.52
   0   7  -9    3.96    2.97
  -7  -9   0    4.90    2.75
   0  -7  -9    3.16    2.13
   9   0   7    6.33    2.39
   0  -7  -9    5.77    2.48
   7  -9   0    6.34    2.45
  -9   0  -7    2.17    1.89
  -9   0   7    2.39    2.22
   0  -7   9    4.27    2.14
   0   7   9    2.57    2.24
   9  -1   7    0.68    1.57
  -1  -7  -9    1.74    1.68
   7  -9   1    2.95    1.85
  -1  -7  -9    4.50    2.27
  -1   7   9    5.53    2.68
  -9   1   7    2.32    2.02
  -9  -1  -7    5.59    2.58
   1  -7   9    3.49    2.25
   7   9  -1    2.62    2.16
   1   7  -9    1.53    2.42
   9   1  -7    4.02    2.07
  -7  -9  -1    0.85    1.94
  -7   9   1    3.21    2.38
   7   9   1    1.04    1.41
  -1  -7   9    2.23    1.81
   1   7   9    2.69    2.20
  -7   9  -1    0.24    1.66
   9   1   7    1.86    2.08
   1  -7  -9    0.14    1.76
  -7  -9   1   -0.38    1.81
   7  -9  -1    3.10    1.89
  -9  -1   7    1.37    2.57
  -9   1  -7    1.60    1.72
  -9   1  -7    1.13    1.53
  -1   7  -9    0.11    1.94
   9  -1  -7    2.28    2.04
   9  -1  -7    3.86    2.15
  -7  -9   1    2.05    2.17
  -7   9   2   28.78    4.26
  -9   2   7   35.81    4.99
   9   2  -7   39.81    4.68
  -9  -2  -7   31.07    4.83
   2   7  -9   29.36    5.93
   7   9  -2   23.77    4.67
  -2   7   9   34.73    4.87
  -2  -7  -9   31.03    4.51
   2  -7   9   34.76    4.51
  -2  -7  -9   32.96    4.48
   7  -9   2   31.65    4.01
  -7  -9  -2   34.43    5.25
   9  -2   7   33.73    4.37
   2  -7  -9   32.94    4.71
   9  -2  -7   30.53    5.33
   2   7   9   28.65    5.13
  -7   9  -2   32.72    5.83
  -9   2  -7   24.74    4.61
  -2  -7   9   30.35    4.19
  -7  -9   2   20.41    4.64
   9  -2  -7   33.16    4.35
  -2   7  -9   32.45    6.12
  -9   2  -7   28.92    4.04
  -7  -9   2   28.55    5.24
   7  -9  -2   28.64    3.95
   9   2   7   30.70    4.45
  -9  -2   7   29.75    6.07
   7   9   2   33.94    4.83
   7  -9   3   18.95    3.74
  -7   9   3   21.48    4.26
   7   9  -3   19.53    4.26
  -7  -9  -3   16.41    4.06
  -3  -7  -9   17.17    4.01
  -3  -7  -9   18.46    4.03
  -9   3   7   16.64    3.99
   7  -9   3   19.58    3.91
  -7   9   3   22.73    4.54
   9  -3   7   12.79    3.31
   3  -7   9   13.85    3.56
   3   7  -9   22.82    5.68
  -9  -3  -7   13.41    4.13
   9   3  -7   17.95    3.91
  -3   7   9   22.80    4.69
   3  -7  -9   13.55    3.86
  -9  -3   7   14.77    4.51
   7  -9  -3   16.66    4.06
  -7  -9   3   13.38    3.81
  -7  -9   3   14.10    4.34
  -3  -7   9   14.92    3.59
  -3   7  -9   15.66    4.20
   9  -3  -7   12.67    3.61
   3   7   9   17.94    4.16
   9  -3  -7   11.06    3.38
   9   3   7   14.15    3.68
   7   9   3   14.98    4.01
  -9   3  -7   17.02    4.36
  -9   3  -7   14.68    3.53
  -7   9  -3   19.11    4.57
  -9  -4  -7   23.30    5.30
   7  -9   4   24.75    3.69
   4   7  -9   22.55    5.55
   7   9  -4   30.44    5.40
  -9   4   7   36.77    4.91
  -4  -7  -9   31.46    4.85
   4  -7   9   32.31    4.64
  -4   7   9   32.59    4.78
   7  -9   4   28.00    3.98
  -7   9   4   34.70    4.80
  -4  -7  -9   28.26    4.27
  -9   4   7   26.94    4.96
   9   4  -7   32.88    4.46
  -7  -9  -4   32.61    5.86
   4   7  -9   28.29    3.99
   9  -4   7   33.67    4.52
  -7   9  -4   24.23    4.95
  -4  -7   9   30.08    4.29
   9  -4  -7   33.67    4.99
   7  -9  -4   31.85    4.63
  -7  -9   4   32.00    6.37
   7   9   4   36.29    5.07
   9   4   7   29.40    5.23
   4  -7  -9   26.46    5.12
  -4   7  -9   40.54    5.84
  -9  -4   7   28.20    6.11
   4   7   9   31.28    4.77
  -9   4  -7   38.86    4.55
  -9   4  -7   30.99    4.78
  -7  -9   4   34.55    5.04
   7   9  -5    9.16    3.03
  -7  -9  -5    6.88    3.22
  -9   5   7    5.58    2.70
  -9  -5  -7    8.66    3.77
   9   5  -7    6.43    2.76
  -7   9   5    7.28    2.98
  -5  -7  -9    8.46    3.46
   5  -7   9    3.50    2.30
   5   7  -9    7.04    4.04
   9  -5   7    9.20    3.15
  -9   5   7    7.36    2.70
   7  -9   5    6.68    2.65
  -5   7   9    5.37    2.79
   5   7  -9    9.47    2.99
   7  -9   5    6.20    2.42
  -9   5  -7    5.75    2.48
   5  -7  -9    3.62    2.62
  -5   7  -9    6.28    3.27
  -7   9  -5    1.13    2.06
   7  -9  -5    7.71    3.13
  -7  -9   5    2.90    2.69
  -9  -5   7    3.64    3.17
  -9   5  -7    1.58    2.24
   5   7   9    3.44    2.15
   5   7   9    4.36    2.58
   7   9   5    2.81    2.42
   9  -5  -7    4.96    2.73
  -7  -9   5    3.76    3.37
   9   5   7    8.53    3.21
  -7   9   6  110.19    9.00
   7  -9   6  117.34    8.49
   7   9  -6  108.20    8.65
  -6   7   9  117.59    9.37
   6   7  -9  115.88    8.49
  -9   6   7  125.92    9.40
   9  -6   7  112.24    8.32
  -6  -7  -9  115.57    9.65
  -7  -9  -6  123.28    9.82
   6  -7   9  115.68    8.86
   9   6  -7  111.41    8.66
   6  -7   9  107.47    9.86
  -9  -6  -7  118.14   10.03
   9  -6  -7  121.52    9.65
   7  -9  -6  138.01   10.11
   7   9   6  134.90    9.82
  -6  -7   9  125.45   11.03
  -9   6  -7  113.54    9.62
  -9  -6   7  113.81   10.65
  -6   7  -9  121.89    8.71
  -6   7  -9  134.94   10.29
  -7  -9   6  127.32   11.10
  -9   6  -7  126.73    8.48
   6  -7  -9  119.18    9.79
   6   7   9   94.72    8.29
   6   7   9  116.38    8.91
  -9  -7  -7   19.38    4.99
  -7   7   9   19.88    4.74
   9  -7   7   13.51    3.61
  -7  -9  -7   21.76    5.03
  -7  -7  -9   23.36    5.43
   7  -7   9   14.37    3.50
  -7   9   7   26.93    5.56
   7   7  -9   19.70    4.29
   7  -9   7   27.67    5.00
  -9   7   7   23.61    5.14
   9   7  -7   18.27    4.11
   9  -7   7   15.01    3.72
   7   9  -7   21.20    4.49
  -7  -7   9   13.86    5.09
   7  -9  -7   10.79    3.78
   9  -7  -7   14.33    4.31
  -7   9  -7   21.58    5.58
   7  -7  -9   16.57    4.45
   7   7   9   20.87    4.60
  -9  -7   7   20.73    6.00
  -7   7  -9   15.69    4.03
  -7   7  -9   14.69    4.21
  -9   7  -7   13.92    4.79
  -7  -9   7   15.47    5.32
   7   9   7   22.32    4.92
  -7   9  -8    8.43    3.96
  -9  -8   7    5.96    4.23
  -7  -9   8    7.10    4.28
  -9   8  -7    3.36    2.96
  -8   7  -9    8.15    3.85
  -8  -7   9    2.97    3.15
   8   7   9   10.84    3.87
   0   8  -9   -0.22    2.00
  -9   0   8    0.28    1.62
   0  -8  -9   -0.98    1.53
   9   0  -8   -0.48    1.08
   9   0  -8    0.90    2.17
  -9   0  -8   -0.92    1.16
   0  -8  -9   -0.60    1.57
   0   8   9   -0.20    1.61
  -8   9   0    1.59    2.05
   0  -8   9    0.89    1.69
   8   9   0    1.85    2.02
   9   0   8   -0.58    1.55
  -8  -9   0    0.02    2.06
   8  -9   0   -0.71    1.14
   8  -9   1  240.03   12.30
  -9  -1  -8  248.73   13.91
   1  -8   9  237.89   12.86
  -9   1   8  249.68   13.78
   9  -1   8  246.94   13.18
  -1  -8  -9  238.11   12.98
  -1  -8  -9  272.94   13.46
   8   9  -1  241.46   13.29
   1   8  -9  241.24   14.86
   9   1  -8  249.04   12.92
  -8   9   1  248.16   13.32
  -8  -9  -1  234.94   13.82
  -1   8   9  257.34   13.97
  -8  -9   1  238.77   13.45
  -1   8  -9  216.66   14.08
   1   8   9  235.79   13.36
   1  -8  -9  229.82   12.98
  -9   1  -8  239.44   12.90
   9   1   8  229.74   12.91
  -9  -1   8  232.52   14.27
   9  -1  -8  224.95   12.98
   8  -9  -1  230.92   12.29
  -8   9  -1  231.86   13.49
   9  -1  -8  220.41   12.55
   8   9   1  236.23   13.39
  -1  -8   9  236.35   12.68
   8   9  -2    5.02    2.59
   2  -8   9    6.88    2.81
  -2  -8  -9    4.16    2.36
   2   8  -9    7.76    3.43
   8  -9   2    3.32    2.03
  -8   9   2    4.54    2.74
   9  -2   8    4.79    2.24
  -8  -9  -2    3.48    2.70
  -2  -8  -9    5.78    2.70
  -9  -2  -8    3.55    2.66
  -9   2   8    5.23    2.75
  -2   8   9    5.38    2.73
   9   2  -8    3.86    2.31
  -2  -8   9    3.31    2.10
  -8  -9   2    3.75    2.88
  -8   9  -2    2.49    2.39
  -9  -2   8    2.93    2.82
  -9   2  -8    2.82    2.03
  -2   8  -9    0.97    2.30
  -8  -9   2    4.77    2.90
   8   9   2    8.20    3.08
   9  -2  -8    3.92    2.32
   9  -2  -8    4.77    2.54
   2   8   9    5.13    2.68
   8  -9  -2    4.16    2.29
   9   2   8    5.22    2.58
   2  -8  -9    2.58    2.22
  -9  -3  -8   51.93    6.58
   8  -9   3   54.19    5.53
   9  -3   8   47.81    5.49
   9   3  -8   54.96    5.73
  -9   3   8   50.11    5.91
  -8  -9  -3   55.49    6.47
   8   9  -3   48.00    5.86
  -3   8   9   54.12    6.29
  -3  -8  -9   56.32    6.30
   3  -8   9   60.94    6.08
   3   8  -9   65.72    8.03
  -8   9   3   56.84    5.98
  -3  -8  -9   59.02    5.90
   8  -9  -3   55.36    6.03
   3  -8  -9   60.75    6.58
   3   8   9   63.87    6.53
  -8  -9   3   55.08    6.56
  -8   9  -3   65.07    7.13
   9   3   8   54.37    6.04
  -3   8  -9   64.55    7.19
   9  -3  -8   61.25    6.61
  -9   3  -8   62.70    6.35
  -9  -3   8   62.11    7.25
  -9   3  -8   59.17    5.92
   8   9   3   58.31    6.32
   9  -3  -8   65.24    6.42
  -8  -9   3   53.46    6.72
  -3  -8   9   49.48    5.56
   8  -9   4   18.45    3.78
  -4   8   9   16.46    4.10
  -9  -4  -8   22.29    5.49
   9  -4   8   15.73    4.04
   4  -8   9   18.08    4.21
   4   8  -9   17.67    5.14
  -8  -9  -4   17.97    4.62
  -4  -8  -9   20.54    4.39
   9   4  -8   19.37    4.21
   8   9  -4   21.28    4.43
  -9   4   8   18.65    4.54
  -4  -8  -9   13.99    3.81
  -9   4  -8   25.05    5.14
   4  -8  -9   18.89    4.60
   4   8   9   24.76    5.27
  -8   9  -4   19.77    4.93
   8   9   4   20.61    4.69
   9  -4  -8   25.30    5.31
  -4   8  -9   20.87    5.05
  -8  -9   4   21.22    5.21
   9   4   8    8.02    3.19
  -9  -4   8   15.46    4.55
  -4  -8   9   30.56    5.22
  -9   4  -8   16.65    3.81
   8  -9  -4   20.84    4.69
  -5   8   9  101.96    8.87
   9  -5   8  107.74    8.23
   9   5  -8   95.55    8.07
  -5  -8  -9   92.76    8.44
  -9   5   8   91.42    8.22
   8   9  -5   97.81    8.16
  -9  -5  -8  101.75    9.52
   8  -9   5  101.62    7.69
   5   8  -9   91.05    7.46
   8  -9   5   93.33    7.36
  -8  -9  -5  104.53    9.10
   5   8  -9  106.58   10.92
   5  -8   9  102.93    8.39
   5  -8  -9  105.22    9.17
  -9   5  -8   95.53    7.57
  -8  -9   5  101.33    9.79
  -9   5  -8   99.07    8.79
   5   8   9  107.72    8.66
   5   8   9   92.58    7.95
   8  -9  -5   90.52    8.32
   8   9   5   98.96    8.55
  -9  -5   8  100.35   10.00
   9   5   8  113.71    8.68
  -8   9  -5   96.62    9.25
   9  -5  -8  105.33    9.09
  -5   8  -9  110.47    9.72
  -8   9   6    7.64    3.22
   8   9  -6    3.30    2.48
   6   8  -9    4.55    4.15
  -9   6   8   -0.26    1.97
  -8  -9  -6    3.71    2.71
   9  -6   8    6.39    2.89
   8  -9   6    4.32    2.46
  -9  -6  -8    2.34    3.10
  -6  -8  -9    2.67    2.66
   9   6  -8    5.48    2.61
  -6   8   9    3.33    2.58
   6   8  -9    3.03    2.13
   6  -8   9    1.68    1.96
   8  -9   6    7.14    2.90
   6  -8  -9    6.93    3.26
  -9   6  -8    8.18    3.17
   6   8   9    6.27    2.91
   8  -9  -6    9.12    3.53
   6   8   9    2.54    2.28
  -9  -6   8    3.19    3.32
  -9   6  -8    5.23    3.65
   8   9   6    1.44    2.12
  -8  -9   6    6.01    3.90
  -8   9  -6    4.01    2.97
   9  -6  -8    6.39    3.22
   9   6   8    5.48    2.81
  -6   8  -9    4.02    3.07
  -7   8  -9   13.20    4.62
  -7  -8   9   16.76    5.10
  -8   9  -7   13.91    5.05
  -9  -7   8   15.65    5.50
  -9   7  -8   19.05    5.06
  -8  -9   7    8.75    4.10
  -9  -9   0    2.59    3.03
  -9   0  -9    5.98    2.89
  -9   0   9    0.86    1.82
  -9   9   0    6.67    3.08
   0  -9  -9    5.10    2.58
   0  -9  -9    4.46    2.55
   0  -9   9    2.91    2.29
   0   9  -9    5.16    3.21
   0   9   9    4.02    2.63
   9  -9   0    4.48    2.41
   9   0  -9    9.21    3.20
   9   0   9    5.68    3.02
   9   9   0    4.68    2.38
  -9  -9  -1   62.47    7.11
   1  -9   9   75.86    7.04
   1   9  -9   68.82    8.07
  -9  -1  -9   74.56    7.60
   9   1  -9   72.72    6.78
   9  -9   1   73.81    6.64
  -9   1   9   83.72    7.74
  -1   9   9   75.04    7.52
  -9   9   1   74.86    7.44
  -1  -9  -9   71.73    6.86
  -1  -9  -9   66.17    6.50
   9   9  -1   56.19    6.52
   9  -1   9   58.92    6.54
  -9   9  -1   66.00    7.42
  -1   9  -9   77.56    8.43
  -9  -9   1   77.52   11.40
  -9  -9   1   76.18    7.66
   1   9   9   63.90    7.03
   9  -9  -1   75.31    6.84
  -9   1  -9   60.31    6.66
   9  -1  -9   66.06    6.55
   9  -1  -9   69.20    7.29
   1  -9  -9   66.66    6.86
  -9  -1   9   83.51    8.38
   9   1   9   79.81    7.42
  -1  -9   9   76.46    7.11
   9   9   1   71.40    7.16
  -9  -9  -2   81.76    7.89
   2  -9   9   96.91    7.99
   2   9  -9   82.58    9.06
  -9  -2  -9   75.75    7.92
   9   2  -9   75.54    7.05
   9  -9   2   74.92    6.74
  -9   2   9   77.44    7.25
  -2   9   9   77.92    7.74
  -9   9   2   86.21    7.74
  -2  -9  -9   82.17    7.07
  -2  -9  -9   87.11    7.58
   9   9  -2   72.61    7.24
   9  -2   9   70.71    7.08
  -9   9  -2   84.96    8.27
  -2   9  -9   68.95    7.88
  -9  -9   2   84.47    8.18
  -9  -9   2   64.86    7.75
   2   9   9   79.86    7.63
   9  -9  -2   80.06    7.23
  -9   2  -9   69.52    6.94
   9  -2  -9   79.08    7.32
   9  -2  -9   75.52    7.64
   2  -9  -9   82.24    7.61
  -9  -2   9   78.97    8.40
   9   2   9   82.09    7.75
  -2  -9   9   78.48    7.25
   9   9   2   83.85    7.86
  -9  -9  -3   66.15    7.24
   9   3  -9   58.66    6.48
  -9  -3  -9   74.86    8.25
   9   9  -3   78.19    7.36
  -3  -9  -9   61.18    6.75
   9  -3   9   64.20    6.76
  -9   9   3   75.45    7.21
  -3  -9  -9   66.80    6.46
  -3   9   9   58.89    6.94
   3  -9   9   74.53    7.09
   9  -9   3   74.91    6.78
  -9   3  -9   78.79    7.22
   3  -9  -9   77.56    7.46
  -3  -9   9   85.71    7.41
   3   9   9   87.27    8.03
   9  -9  -3   84.41    7.53
  -3   9  -9   72.25    8.12
   9  -3  -9   81.18    7.41
   9  -3  -9   70.89    7.54
  -9   9  -3   91.54    8.70
  -9  -9   3   90.83    8.82
   9   3   9   87.04    7.88
  -9  -3   9   85.34    8.69
   9   9   3   73.73    7.48
  -9  -9  -4   17.92    4.58
   4   9  -9   22.80    6.18
  -9  -4  -9   22.25    5.59
   9   4  -9   14.84    3.88
  -4   9   9   19.54    4.83
   9   9  -4   21.22    4.82
  -9   4   9   24.28    5.12
   9  -4   9   28.86    5.44
  -4  -9  -9   20.57    4.36
  -4  -9  -9   20.11    4.83
   4  -9   9   21.76    4.94
   9  -9   4   23.65    4.75
  -9   4  -9   19.64    4.87
   4  -9  -9   20.36    5.07
  -4  -9   9   20.63    4.35
  -9  -9   4   23.87    5.86
   4   9   9   11.82    3.67
   4   9   9   25.82    5.07
   9  -9  -4   19.18    4.60
  -4   9  -9   22.48    5.70
   9  -4  -9   17.43    4.53
  -9   9  -4   14.47    4.66
  -9  -4   9   20.92    5.55
   9   4   9   15.27    4.18
  -9   4  -9   19.84    4.35
   9   9   4   19.37    4.51
  -9  -9  -5   17.92    4.63
   5  -9   9   16.07    4.29
  -9  -5  -9   16.29    4.86
   9   9  -5   15.20    4.36
   9  -5   9   13.07    3.96
   9   5  -9    9.08    3.23
  -9   5   9   18.55    4.52
  -5   9   9   13.99    4.33
  -5  -9  -9   17.59    4.78
   5   9  -9   15.20    5.60
   9  -9   5   14.20    3.67
   5  -9  -9   17.04    4.69
  -9  -5   9   19.29    5.45
  -5   9  -9   15.21    4.75
   5   9   9   10.71    3.59
   9  -9  -5   21.99    5.17
  -9  -9   5   12.79    4.94
   9  -5  -9    7.37    3.44
  -9   5  -9   17.60    4.69
  -9   5  -9   19.55    4.55
   9   5   9   23.91    4.62
  -9   9  -5   30.56    7.18
   9   9   5    8.32    3.38
 -10   0   0   18.44    4.45
   0 -10   0   14.30    3.46
   0   0 -10   10.71    3.40
   0   0 -10    8.41    2.27
   0   0  10   16.87    3.21
   0  10   0   20.76    3.93
   0  10   0   20.17    4.03
  10   0   0   15.25    2.75
  10   0   0   16.23    3.18
  10   1   0  104.43    6.73
   1   0 -10  126.57    7.08
   1   0  10   86.86    8.12
  10  -1   0   98.52    6.66
  10  -1   0  115.38    7.25
  10   1   0  115.31    6.76
   0  10   1  120.02    8.05
   0  10   1  106.11    7.66
 -10  -1   0  110.02    8.88
 -10   1   0  120.04    9.14
  -1   0 -10  122.53    8.45
  -1   0 -10  109.91    7.20
  -1   0  10  124.34    7.27
   0 -10  -1  111.58    8.02
   0 -10   1  104.01    7.57
   0  10  -1  121.64    7.93
   0  10  -1  113.71    7.42
   1   0 -10  113.76    8.36
   2   0  10   38.68    4.94
   2   0 -10   40.08    3.76
   0 -10   2   38.67    4.61
   0  10  -2   32.35    4.37
   0  10  -2   31.59    3.81
   0  10   2   36.93    4.62
   2   0 -10   36.11    4.76
   0 -10  -2   39.24    4.89
  10   2   0   34.08    3.77
  10   2   0   39.94    3.99
  -2   0  10   33.13    3.94
 -10  -2   0   36.62    5.29
 -10   2   0   34.85    4.94
  -2   0 -10   30.96    4.00
  10  -2   0   36.71    4.17
   3   0 -10    5.64    2.60
   0  10   3    5.14    2.50
   3   0 -10    2.70    1.80
  -3   0 -10    2.81    1.85
   0 -10  -3    3.18    2.26
   0 -10   3    2.15    1.82
   0  10  -3    4.72    2.39
   0  10  -3    4.64    2.00
 -10   3   0   -0.63    1.82
  10   3   0    4.06    1.86
  10   3   0    2.01    1.50
  10  -3   0    0.73    1.50
 -10  -3   0   -0.89    1.80
   3   0  10    1.51    1.95
   0  10  -4    0.68    1.76
   0  10   4    1.50    1.85
   4   0 -10   -0.12    1.74
 -10  -4   0    0.14    1.83
 -10   4   0    1.06    1.96
  -4   0 -10    0.37    1.46
  -4   0  10    0.34    1.59
   0 -10   4    0.52    1.57
  10   4   0    1.37    1.51
   4   0  10    0.54    1.66
  10  -4   0   -0.53    1.21
   4   0 -10    3.11    1.95
   0 -10  -4   -0.59    1.54
  10   5   0   73.01    6.13
   5   0 -10   71.86    6.22
  -5   0 -10   76.23    6.76
  -5   0  10   72.93    6.29
   0 -10  -5   64.14    5.58
 -10   5   0   75.29    7.49
   0 -10  -5   71.59    6.67
   0 -10   5   68.79    6.24
 -10  -5   0   90.44    7.94
   0  10   5   78.56    6.99
   5   0 -10   77.88    7.16
   5   0  10   75.84    6.86
  10  -5   0   92.51    6.93
   0  10  -5   69.28    7.08
   6   0  10  323.73   16.09
  10  -6   0  331.01   15.14
   6   0 -10  334.77   16.14
   0  10  -6  346.38   17.65
   0  10   6  308.80   15.97
  -6   0  10  311.87   15.06
   6   0 -10  290.36   14.51
   0 -10  -6  333.45   15.52
   0 -10   6  326.88   15.43
   0 -10  -6  326.96   14.65
  10   6   0  315.53   15.04
 -10   6   0  314.68   16.47
  -6   0 -10  317.68   15.85
 -10   7   0   39.80    5.50
   0  10   7   45.28    5.84
  10  -7   0   36.09    4.84
   7   0 -10   41.15    5.10
   7   0 -10   29.48    5.31
  -7   0  10   37.32    5.15
   0 -10  -7   39.43    4.95
   0 -10  -7   33.81    4.79
   0 -10   7   51.93    5.75
   0  10  -7   48.17    6.68
 -10  -7   0   35.08    5.37
   7   0  10   47.88    5.82
  -7   0 -10   31.41    4.92
  10   7   0   37.19    4.85
   0 -10  -8   31.42    4.72
  10  -8   0   30.35    5.34
   0 -10  -8   33.32    4.78
   0 -10   8   40.52    5.29
   0  10  -8   35.94    7.42
  -8   0  10   18.67    4.57
   8   0 -10   31.99    4.76
  -8   0 -10   40.71    5.68
  10   8   0   21.45    4.77
   8   0  10   42.76    5.72
 -10   8   0   38.96    5.83
   0  10   8   38.38    5.61
  -9   0  10    2.28    2.55
  10  -9   0    5.79    2.74
   0  10   9    8.62    3.39
   9   0 -10    8.93    3.28
   0 -10   9   10.92    3.70
   0  10  -9    8.56    4.00
  10   9   0    9.11    3.72
   0 -10  -9    8.67    3.33
 -10  -9   0    9.65    3.60
   9   0  10    8.20    3.40
 -10   9   0   12.04    4.25
  -9   0 -10    9.52    3.41
   0   1  10  135.63    8.03
  -1  10   0  160.96    9.07
   0  -1 -10  147.15    9.59
   0  -1 -10  155.44    8.40
  10   0  -1  144.37    7.84
  -1 -10   0  127.04    9.00
   0   1 -10  147.65    8.24
 -10   0  -1  153.85   10.22
  -1  10   0  143.24    8.57
  10   0  -1  148.04    8.26
 -10   0   1  143.72   10.45
  10   0   1  146.18    8.20
   0  -1  10  142.15    7.70
   0   1 -10  140.35    9.12
   1  10   0  146.52    8.94
   1  10   0  153.67    8.90
   1 -10   0  139.46    8.83
   1 -10   1   29.36    3.96
   1  -1  10   27.48    4.05
  -1  -1 -10   31.20    3.82
  -1 -10  -1   28.42    4.24
   1   1 -10   25.85    3.75
   1  10  -1   30.38    4.13
   1   1 -10   23.62    3.26
 -10  -1  -1   32.35    5.74
  -1  -1 -10   28.09    4.90
  -1  10   1   32.04    4.15
 -10   1   1   28.10    5.40
  10   1  -1   29.94    3.46
  10   1  -1   34.66    3.72
  -1   1  10   33.48    3.89
   1  10  -1   33.13    4.07
   1   1 -10   36.95    4.59
  -1  10   1   24.92    3.44
  10  -1   1   32.73    3.86
  -1 -10   1   25.93    3.87
   1  -1 -10   23.16    3.11
  10   1   1   28.04    3.50
   1  10   1   29.00    4.13
   1  -1 -10   23.36    4.56
  -1   1 -10   25.09    3.44
  10   1   1   25.53    3.06
  -1  10  -1   29.01    4.09
  -1  10  -1   20.67    3.82
 -10   1  -1   18.19    4.25
  10  -1  -1   26.81    3.43
  -1  -1  10   27.43    3.46
   1   1  10   28.61    3.52
  10  -1  -1   20.48    2.88
 -10  -1   1   29.29    5.78
   1 -10  -1   25.06    4.57
   2   1 -10   16.08    3.97
   2  -1  10   16.98    3.91
  10   2  -1   18.67    3.60
  -2  -1 -10   16.82    3.65
   1 -10   2   16.79    3.63
  -2   1  10   16.24    3.33
  10  -2   1   14.53    3.17
   2   1 -10   13.28    2.86
  -2  -1 -10   13.22    3.59
  -1 -10  -2   12.32    3.62
 -10   2   1   14.67    4.11
  10   2  -1   15.02    2.88
   1  10  -2   13.35    3.50
  -1  10   2   17.66    3.75
 -10  -2  -1   15.37    3.99
   2   1 -10   16.89    3.00
   1  10  -2   16.06    3.41
   2   1 -10   15.83    3.81
  10  -2  -1   17.17    3.47
   1  10   2   21.68    4.39
   2  -1 -10   16.28    4.24
 -10   2  -1   21.46    4.61
  10   2   1   17.20    3.16
  -2   1 -10   18.67    3.56
   1 -10  -2   17.91    3.94
  -1 -10   2   13.40    3.23
  10  -2  -1   15.86    2.87
 -10  -2   1   15.70    4.17
  10   2   1   14.94    3.02
   2  -1 -10   17.18    2.58
  -1  10  -2   18.74    4.18
   1  10  -3   72.76    5.59
  10  -3   1   71.45    5.80
   3  -1  10   59.83    5.91
   3   1 -10   69.93    5.56
  -1  10   3   61.15    5.93
  10   3  -1   61.50    5.41
   1 -10   3   64.27    5.79
   3   1 -10   71.12    6.61
 -10  -3  -1   66.20    6.67
  -1 -10  -3   58.89    6.13
  -3   1  10   67.62    5.74
   1  10  -3   69.01    6.65
  -3  -1 -10   64.76    5.93
 -10   3   1   68.91    6.85
  -1  10  -3   64.36    6.23
 -10  -3   1   66.32    6.98
  -3  -1  10   68.52    6.07
  -3   1 -10   60.71    5.63
  -1 -10   3   62.26    5.85
   1 -10  -3   72.41    6.51
   1  10   3   56.82    5.90
 -10   3  -1   66.85    6.78
   3  -1 -10   82.23    7.19
  10  -3  -1   69.45    5.87
   3   1  10   79.53    7.07
  10   3   1   64.10    5.25
  10   3   1   55.87    4.79
   4  -1  10   45.43    5.24
 -10   4   1   50.38    5.94
  -4  -1 -10   48.34    5.35
   4   1 -10   47.96    5.52
  10   4  -1   42.98    4.66
   1 -10   4   51.43    5.23
   1  10  -4   53.09    6.16
   1  10  -4   45.34    4.49
 -10  -4  -1   53.68    5.92
   4   1 -10   39.11    4.44
  -1  10   4   49.06    5.53
  -1 -10  -4   51.28    5.82
  10  -4   1   35.30    4.45
  -4   1 -10   47.88    5.09
  10   4   1   60.36    5.24
   4   1  10   51.70    5.78
  -4  -1  10   50.69    5.33
   1 -10  -4   41.85    4.59
   1 -10  -4   45.82    5.24
  -1 -10   4   50.79    5.30
  -1  10  -4   47.84    5.62
  10  -4  -1   44.35    4.83
   1  10   4   51.84    5.72
   4  -1 -10   55.05    5.15
 -10  -4   1   49.15    6.22
   4  -1 -10   49.42    5.65
 -10   4  -1   44.57    5.73
 -10  -5  -1    7.82    4.66
 -10   5   1   10.24    3.42
  10   5  -1    7.38    2.75
   1 -10   5   11.73    3.20
   1  10  -5   10.97    3.86
  -5  -1 -10   11.62    3.51
  -1  10   5   11.38    3.61
 -10  -5  -1    9.49    3.49
  -1 -10  -5   11.46    3.47
  10  -5   1   11.72    3.21
   5  -1  10    8.19    2.91
   5   1 -10   15.28    3.90
   5   1 -10    9.05    2.66
   1  10   5   11.96    3.57
   1 -10  -5   14.76    3.72
   5  -1 -10   14.27    3.44
 -10  -5   1    4.86    3.02
  -1 -10   5   12.61    3.51
  -5   1 -10   12.25    3.49
   1 -10  -5   17.04    3.65
   5  -1 -10    6.76    2.83
   5   1  10   14.37    3.87
  -5  -1  10   17.77    4.03
  10   5   1   12.30    3.20
  -1  10  -5    9.86    3.41
  10  -5  -1    9.99    3.00
 -10   5  -1    6.25    2.88
   6  -1  10   60.58    6.24
  -1  10   6   62.41    6.45
 -10  -6  -1   59.93    6.17
   6   1 -10   63.51    5.89
  -1 -10  -6   57.33    5.35
  -1 -10  -6   49.89    5.69
 -10  -6  -1   55.52    6.21
  -6  -1 -10   54.87    6.27
  10  -6   1   56.14    5.59
  10   6  -1   58.03    5.84
   1  10  -6   48.98    6.41
   1 -10   6   50.87    5.63
 -10   6   1   66.92    6.96
 -10  -6   1   64.35    7.18
 -10   6  -1   50.71    6.17
  -1 -10   6   52.32    5.67
   1 -10  -6   56.87    5.80
  -6  -1  10   58.73    6.18
   6   1  10   47.58    5.85
   6  -1 -10   55.66    6.34
   1 -10  -6   52.43    5.51
   6  -1 -10   61.26    5.95
  -6   1 -10   48.69    5.65
   1  10   6   54.39    6.13
  10   6   1   55.41    5.73
  -1  10  -6   53.52    6.52
  10  -6  -1   60.99    5.90
  -1 -10  -7   49.66    5.28
   7   1 -10   46.16    5.32
  -1 -10  -7   49.78    5.69
 -10  -7  -1   52.74    6.17
 -10   7   1   39.27    5.65
  -1  10   7   52.56    6.14
  10  -7   1   53.72    5.61
  10   7  -1   51.56    5.76
  -7  -1 -10   39.92    5.60
   1 -10   7   47.66    5.56
   1  10  -7   49.88    6.66
   7  -1  10   54.93    6.05
   7  -1 -10   52.91    6.24
   1 -10  -7   56.54    5.79
   7   1  10   48.27    5.91
  -1 -10   7   57.88    5.97
   7  -1 -10   52.17    5.78
 -10   7  -1   45.19    5.97
  -1  10  -7   54.22    6.74
  10   7   1   51.59    5.72
 -10  -7   1   48.92    6.32
   1 -10  -7   46.36    5.36
  10  -7  -1   60.76    6.02
  -7   1 -10   44.84    5.72
   1  10   7   62.91    6.53
  -7  -1  10   39.26    5.55
   8  -1  10   31.74    5.71
 -10   8   1   39.83    6.88
   1 -10   8   32.49    4.94
  10   8  -1   26.71    5.21
  -8   1  10   19.70    4.64
  10  -8   1   27.58    5.19
   1  10  -8   34.20    7.29
  -8  -1 -10   29.30    5.71
  -1 -10  -8   35.47    4.86
 -10  -8  -1   32.43    5.90
   8   1 -10   28.96    4.56
  -1  10   8   36.83    5.25
  -1 -10  -8   30.27    4.68
 -10  -8   1   39.99    5.85
   8  -1 -10   30.82    5.59
   1 -10  -8   32.16    4.84
 -10   8  -1   41.78    6.05
  -8   1 -10   31.50    5.86
  -1  10  -8   32.93    6.62
   8  -1 -10   34.81    5.03
   8   1  10   32.83    5.99
  10  -8  -1   31.00    4.68
  10   8   1   43.55    5.44
  -1 -10   8   38.23    5.24
   1  10   8   43.58    5.90
  -8  -1  10   42.19    6.11
 -10  -9  -1   70.67    7.56
   1  10  -9   75.12    9.03
  -1 -10  -9   69.77    6.88
  -9  -1 -10   71.03    7.93
  10  -9   1   75.47    7.08
   9  -1  10   75.98    7.67
  -1  10   9   63.54    7.12
  -9   1  10   69.29    7.22
   9   1 -10   83.74    7.60
 -10   9   1   86.42    8.30
  -1 -10  -9   67.21    6.81
  10   9  -1   59.05    6.83
   1 -10   9   65.71    7.12
 -10   9  -1   77.32    8.16
   9  -1 -10   73.67    7.70
   1 -10  -9   77.24    7.37
  10  -9  -1   68.66    6.90
  10   9   1   80.18    7.75
   1  10   9   61.62    7.01
   9  -1 -10   76.33    7.42
  -9   1 -10   68.58    7.34
  -9  -1  10   77.69    8.12
  -1  10  -9   62.68    8.29
  -1 -10   9   73.68    7.34
   9   1  10   71.88    7.55
   0   2 -10   36.62    4.04
  -2  10   0   40.34    4.48
  10   0  -2   34.15    3.78
  10   0   2   45.22    4.54
   2  10   0   39.33    4.61
   2  10   0   41.99    4.71
   0   2  10   29.03    3.77
 -10   0   2   40.16    5.57
  -2 -10   0   41.46    5.06
   2 -10   0   44.54    4.73
  -2  10   0   44.19    4.55
   0   2 -10   44.72    4.77
 -10   0  -2   36.01    4.90
   0  -2  10   40.17    4.54
   0   2 -10   38.82    4.51
   0  -2 -10   35.14    3.98
   0  -2 -10   37.70    4.98
  10   0  -2   32.82    3.80
  -1  -2 -10  192.90   10.19
  -1   2  10  167.95    9.70
 -10  -1  -2  214.90   11.74
   2 -10   1  189.12   10.37
   1   2 -10  189.58    9.47
 -10   1   2  179.07   11.92
  -2 -10  -1  192.31   11.30
   2  10  -1  194.03   10.82
   1   2 -10  203.76   10.94
   1   2 -10  192.93    9.30
  -2  10   1  182.97   10.29
  10  -1   2  183.55    9.88
  10   1  -2  192.04    9.80
   1  -2  10  188.81   10.40
  -2  10   1  205.30   10.04
  10   1  -2  181.43    9.30
   2  10  -1  198.00   10.51
  -1  -2 -10  181.41   11.00
   1   2 -10  197.22   10.60
  -2  10  -1  203.73   10.63
 -10  -1   2  188.23   12.37
  10  -1  -2  171.46    9.53
   1  -2 -10  192.62   11.37
   1  -2 -10  187.12    9.39
  10  -1  -2  192.16    9.52
  -1   2 -10  175.31    9.70
   1   2  10  185.78    9.78
   2 -10  -1  200.41   10.71
  -2  10  -1  186.45    9.75
  -2 -10   1  190.18   10.99
  10   1   2  187.89    9.71
   2  10   1  182.25   10.59
 -10   1  -2  180.54   11.29
  -1   2 -10  195.30   10.22
   2   2 -10   67.25    6.07
  10   2  -2   72.12    5.27
   2 -10   2   75.66    6.07
  -2  -2 -10   73.54    6.20
   2  -2  10   71.92    6.08
  -2  -2 -10   69.96    6.43
   2   2 -10   64.28    5.15
  10  -2   2   85.71    6.24
  -2 -10  -2   73.22    6.90
 -10   2   2   71.23    7.07
   2  10  -2   75.60    6.12
  -2  10   2   74.49    6.31
   2  10  -2   86.54    7.15
 -10  -2  -2   75.03    6.70
  10   2  -2   72.23    5.68
   2   2 -10   82.72    6.95
   2   2 -10   70.02    5.16
  -2   2  10   70.65    6.00
  -2   2 -10   73.38    5.94
  10   2   2   71.21    5.53
  10  -2  -2   64.48    5.60
  -2  10  -2   67.54    6.24
 -10  -2   2   63.06    7.19
  10   2   2   71.32    5.16
  10  -2  -2   67.10    5.26
   2   2  10   59.09    5.18
   2 -10  -2   70.04    6.21
 -10   2  -2   80.08    7.29
   2  -2 -10   64.36    6.51
   2  10   2   62.67    6.15
  -2 -10   2   76.44    6.55
  -2   2 -10   70.46    6.41
  10   3  -2  230.09   11.66
 -10   3   2  237.18   13.52
   3   2 -10  243.97   13.07
  -2  10   3  235.39   12.58
  10  -3   2  240.48   11.94
   3  -2  10  222.76   11.97
   2  10  -3  250.01   11.88
   3   2 -10  255.20   11.66
 -10  -3  -2  233.83   12.68
   3   2 -10  245.79   12.60
   2 -10   3  233.51   12.03
  -2 -10  -3  243.72   13.28
 -10  -3  -2  237.80   11.89
   2  10  -3  231.57   13.16
  -3   2  10  229.05   11.90
  -3  -2 -10  226.51   12.37
   2 -10  -3  251.35   12.69
  10   3   2  246.41   11.26
 -10   3  -2  253.00   13.84
 -10  -3   2  231.32   14.41
   3   2  10  266.99   13.88
  -2  10  -3  268.04   13.34
  10  -3  -2  246.51   12.12
   2 -10  -3  253.27   11.90
  -3   2 -10  243.02   12.07
  -2 -10   3  244.07   12.66
  10  -3  -2  251.89   11.24
   2  10   3  238.11   12.94
   3  -2 -10  251.09   13.35
  10   3   2  242.24   11.20
  10   4  -2   80.86    6.57
  10  -4   2   80.04    6.35
 -10  -4  -2   67.10    6.51
   2  10  -4   82.33    7.68
   2  10  -4   81.04    6.25
   2 -10   4   82.51    6.63
  -4   2  10   75.53    6.37
   4  -2  10   76.57    6.54
  -4  -2 -10   80.16    7.06
 -10  -4  -2   80.81    6.87
  -2 -10  -4   82.95    7.38
 -10   4   2   80.58    7.48
  -2  10   4   56.16    5.98
   4   2 -10   84.30    9.86
   4   2 -10   78.04    6.09
  10   4   2   84.08    6.22
   4   2  10   73.78    7.04
   2 -10  -4   81.98    6.76
 -10  -4   2   88.21    8.52
  10  -4  -2   77.99    6.42
  10   4   2   77.35    5.69
  -4   2 -10   85.97    6.74
   2  10   4   75.68    6.85
  -2  10  -4   84.25    7.49
  -2 -10   4   69.56    6.38
   4  -2 -10   78.93    7.08
  -4  -2  10   78.07    7.08
 -10   4  -2   75.46    7.39
   2 -10  -4   86.16    6.60
  10  -5   2   26.73    3.98
   2  10  -5   31.12    4.04
  -5  -2 -10   27.76    5.21
 -10   5   2   34.80    5.22
  -2  10   5   29.00    5.24
 -10  -5  -2   26.09    4.74
  -2 -10  -5   33.02    4.71
  10   5  -2   25.68    4.53
   2  10  -5   27.99    5.54
   5  -2  10   23.65    4.46
   2 -10   5   28.19    4.07
  -5   2  10   31.20    4.34
 -10  -5  -2   30.97    4.79
   5   2 -10   32.59    4.17
   5  -2 -10   32.49    5.64
  10  -5  -2   33.81    4.33
  -2  10  -5   37.96    5.35
   2 -10  -5   32.34    4.66
  -5  -2  10   29.84    4.58
  10   5   2   36.01    4.40
   5   2  10   37.48    4.98
 -10   5  -2   36.30    5.21
  -2 -10   5   26.95    4.08
 -10  -5   2   40.26    6.15
   2  10   5   28.46    5.10
   2 -10  -5   34.95    4.57
  -5   2 -10   33.25    4.42
  10  -6   2   23.74    4.29
 -10  -6  -2   33.02    5.93
  -6  -2 -10   24.44    5.13
  -2  10   6   34.63    5.03
 -10   6   2   27.14    5.09
   2 -10   6   29.49    4.32
   6   2 -10   27.74    4.12
  10   6  -2   32.49    4.43
   2  10  -6   32.17    6.29
   6  -2  10   33.76    4.61
  -2 -10  -6   35.78    4.96
   6  -2 -10   27.02    5.31
   2  10   6   22.37    4.96
  -2  10  -6   26.21    5.24
 -10   6  -2   19.87    4.53
  10  -6  -2   25.16    4.85
 -10  -6   2   27.60    5.94
  -6   2 -10   23.09    4.49
  -2 -10   6   31.27    4.59
  10   6   2   27.19    4.09
  -6  -2  10   24.84    5.14
   2 -10  -6   23.89    4.68
   6   2  10   17.45    4.31
   6  -2 -10   20.66    4.20
  10  -7   2   23.66    4.54
  -2 -10  -7   16.25    4.07
   7  -2  10   27.89    4.93
  -7  -2 -10   17.11    4.50
 -10  -7  -2   22.01    4.89
  -2  10   7   14.77    4.17
 -10   7   2   21.75    4.87
   2 -10   7   15.33    3.75
   2  10  -7   15.25    4.81
  10   7  -2   14.96    3.84
   7   2 -10   25.97    4.87
  10   7   2   19.04    4.18
   7  -2 -10   19.22    4.38
   7  -2 -10   17.08    4.02
  -7  -2  10   14.43    4.23
  -7   2 -10   19.41    4.24
 -10  -7   2   16.98    4.50
   7   2  10   19.04    4.68
   2  10   7   18.49    4.60
 -10   7  -2   23.58    5.43
   2 -10  -7   14.22    3.51
  10  -7  -2   15.94    3.70
  -2  10  -7   20.54    5.19
  -2 -10   7   18.48    4.09
  -8  -2 -10   18.33    4.80
  -2 -10  -8   21.74    4.37
   2  10  -8   19.69    5.31
  10  -8   2   19.98    4.37
  10   8  -2   17.24    4.25
   2 -10   8   17.29    4.23
  -2 -10  -8   21.31    4.58
   8   2 -10   17.70    4.00
 -10   8   2   21.07    4.81
 -10  -8  -2   29.75    5.81
  -2  10   8   17.24    4.42
   8  -2  10   15.65    4.03
  10  -8  -2   22.47    4.64
   2 -10  -8   11.91    3.66
   8   2  10   19.03    4.85
  -8  -2  10   18.79    4.99
  -2 -10   8   21.95    4.83
  10   8   2   25.30    5.22
 -10  -8   2   19.77    5.33
   8  -2 -10   14.14    4.17
   2  10   8   10.68    3.55
  -8   2 -10   23.20    5.05
 -10   8  -2   15.58    4.64
   8  -2 -10   17.43    4.09
  -2  10  -8   18.55    5.11
  10  -9   2    6.15    3.10
  10   9  -2    5.61    2.95
  -2  10   9    6.62    3.49
   2 -10   9    6.81    3.18
  -2 -10  -9    5.60    3.17
   9   2 -10    2.76    2.42
 -10   9   2    3.38    2.75
   2  10  -9    2.16    3.38
  -2 -10  -9    4.76    2.73
 -10  -9  -2    7.64    3.42
  -9  -2 -10   -1.12    2.14
   9  -2  10    1.16    2.18
  -2  10  -9    3.80    3.34
  -9   2 -10    0.35    2.03
 -10  -9   2    2.20    2.72
  10  -9  -2    3.08    2.32
  -2 -10   9   10.83    3.77
   9   2  10   -0.50    2.25
 -10   9  -2    4.08    2.96
  10   9   2    4.91    2.80
   9  -2 -10    7.04    2.88
   9  -2 -10    2.35    2.60
   2 -10  -9    7.31    3.24
  -9  -2  10    3.78    3.16
   2  10   9    5.73    3.20
   3  10   0   28.12    3.98
  -3  10   0   38.66    4.44
   0   3  10   30.51    4.05
   0  -3 -10   25.06    4.65
   3  10   0   32.82    4.48
   0  -3 -10   29.77    3.90
   0  -3  10   28.14    3.71
 -10   0  -3   34.65    4.70
  10   0  -3   32.98    3.82
  10   0  -3   31.64    3.79
  -3  10   0   32.77    4.07
   0   3 -10   30.36    3.75
   0   3 -10   25.79    4.65
  -3 -10   0   32.75    4.74
 -10   0   3   30.14    5.83
   3 -10   0   30.38    3.95
  10   0   3   24.12    4.24
   3 -10   1   12.56    3.06
  -3  10   1   14.79    3.32
   1   3 -10   22.09    4.64
   1   3 -10   16.69    3.10
   1  -3  10   14.62    3.10
  -1   3  10   12.75    3.23
  -3  10   1   17.88    3.66
 -10   1   3   16.17    4.48
  -3 -10  -1   16.23    4.18
 -10  -1  -3   16.02    3.91
  10  -1   3   12.79    3.02
  -1  -3 -10   15.66    3.42
  10   1  -3   14.28    3.20
   3  10  -1   14.65    3.73
   3  10  -1   15.85    3.65
  -1  -3 -10   10.79    3.27
 -10  -1  -3    9.24    2.54
  10   1  -3   21.12    3.70
  10   1   3   15.03    3.30
   3 -10  -1   11.10    2.96
   1  -3 -10   15.41    3.09
  -3  10  -1   16.74    3.86
  10  -1  -3   11.51    2.92
 -10  -1   3   16.65    4.99
   1   3  10   11.74    3.15
  -1   3 -10   16.44    3.67
  -1   3 -10   10.70    2.82
  -3 -10   1   11.94    3.42
 -10   1  -3   12.88    3.72
  10  -1  -3   12.04    2.84
   1  -3 -10   13.42    3.80
  -1  -3  10   16.30    3.27
   3  10   1   11.43    3.17
   3 -10  -1   13.99    3.19
  -2   3  10   91.39    7.06
   2  -3  10   96.20    6.89
   2   3 -10   91.01    7.53
   3  10  -2   85.66    7.56
   2   3 -10   92.13    6.18
 -10  -2  -3   91.10    7.10
 -10   2   3   99.37    8.42
   3 -10   2  104.06    7.15
  -3 -10  -2   89.21    7.88
   3  10  -2   93.34    7.03
   2   3 -10  106.19    8.18
   2   3 -10   92.12    6.20
 -10  -2  -3   98.77    6.86
  -3  10   2   96.70    7.33
  -2  -3 -10   97.57    7.36
  10  -2   3  100.84    7.11
  10   2  -3   99.44    7.00
  10   2  -3   92.99    6.78
  -2  -3 -10   88.72    7.40
   3 -10  -2  103.46    7.34
  -3 -10   2  106.68    8.01
   3 -10  -2  104.37    6.90
  10  -2  -3   97.08    6.60
  -2   3 -10   97.55    7.03
 -10  -2   3   93.81    8.81
 -10   2  -3   94.78    7.95
  10  -2  -3  100.03    7.13
   2   3  10   97.37    6.88
   3  10   2   94.81    7.52
  -3  10  -2   91.73    7.40
  10   2   3   93.72    6.61
   2  -3 -10   88.21    7.52
  -2   3 -10   94.07    7.18
   3   3 -10   43.13    5.70
   3  10  -3   42.56    4.79
 -10  -3  -3   48.44    5.24
   3  10  -3   33.89    5.23
  -3   3  10   50.90    5.31
  10  -3   3   39.52    4.48
  10   3  -3   44.55    4.85
  -3  -3 -10   44.44    5.20
   3 -10   3   43.94    4.75
 -10   3   3   39.66    5.52
  -3  -3 -10   47.72    5.37
 -10  -3  -3   41.23    4.95
  -3 -10  -3   46.33    5.73
  -3  10   3   49.57    5.37
   3   3 -10   37.76    4.13
   3  -3  10   52.16    5.08
  10   3   3   48.08    4.64
   3  -3 -10   48.15    5.64
   3  10   3   52.26    5.67
  -3  -3  10   51.10    4.56
  -3   3 -10   49.19    5.10
  -3 -10   3   51.32    5.50
  10  -3  -3   47.74    4.96
 -10  -3   3   52.27    6.92
 -10   3  -3   48.79    5.77
   3 -10  -3   53.35    5.15
   3 -10  -3   57.69    5.53
  10  -3  -3   53.34    4.86
   3   3  10   47.52    4.82
  -3   3 -10   47.01    4.94
  -3  10  -3   53.05    5.71
  10  -4   3   15.76    3.47
 -10  -4  -3   14.84    3.73
   3 -10   4   19.41    3.99
  -3 -10  -4   15.31    4.03
 -10   4   3   16.47    4.34
   3  10  -4   12.30    3.02
  -4  -3 -10    9.78    3.09
   3  10  -4   11.80    3.94
   4  -3  10   20.76    4.31
   4   3 -10   12.61    3.04
 -10  -4  -3   13.71    4.85
  10   4  -3   15.19    3.50
  -4   3  10   14.72    3.46
  -3  10   4   14.05    3.60
 -10  -4   3   10.57    4.53
   3 -10  -4   12.79    3.32
   3  10   4   13.07    3.67
  -4  -3  10   10.40    3.43
  10   4   3    8.21    2.49
  -4   3 -10    8.32    2.89
   3 -10  -4   15.13    3.55
  10  -4  -3   12.55    3.42
 -10   4  -3    9.93    3.84
  -3  10  -4   12.06    3.62
  -4   3 -10    5.97    2.39
   4  -3 -10    7.56    3.00
  10  -4  -3    7.70    2.51
  10   4   3   10.81    2.79
   4   3  10    8.98    3.11
  -3 -10   4   11.93    3.32
  -5  -3 -10    3.99    2.70
   5  -3  10    5.28    2.29
  -3  10   5    6.59    3.09
  10   5  -3    6.01    2.40
   3  10  -5    8.26    3.69
   5   3 -10    9.64    2.77
  -5   3  10    6.84    2.68
 -10   5   3   11.12    3.58
 -10   5   3    4.92    3.64
  10  -5   3    5.88    2.35
   3 -10   5    7.72    2.67
 -10  -5  -3    8.62    3.49
  -3 -10  -5    3.70    2.52
   3  10  -5    6.28    2.56
   5   3  10    8.34    3.10
   3  10   5    8.08    3.02
 -10   5  -3    5.12    2.93
  -3 -10   5    6.39    2.48
   5  -3 -10    7.36    2.98
 -10  -5   3   10.84    4.18
  -3  10  -5    7.57    3.05
  10   5   3   15.21    3.44
   3 -10  -5   10.42    3.27
  -5  -3  10    5.71    3.34
  10  -5  -3    4.76    2.39
  -5   3 -10    7.42    2.99
   3  10  -6   77.12    8.19
   3 -10   6   81.07    7.06
  10   6  -3   65.63    6.50
 -10   6   3   79.44    7.43
  -6   3  10   71.80    6.60
  -3  10   6   88.78    7.75
   3  10  -6   77.04    6.26
   6  -3  10   83.03    6.98
   6   3 -10   86.80    6.83
  -6  -3 -10   77.71    7.72
  -3 -10  -6   71.25    6.97
  10  -6   3   75.32    6.58
 -10  -6  -3   77.86    7.58
   6   3  10   78.49    7.43
  10  -6  -3   70.84    6.66
  -6  -3  10   69.69    7.38
  -3  10  -6   59.69    6.95
 -10  -6   3   75.17    8.26
  -6   3 -10   71.63    6.68
   3 -10  -6   71.10    6.85
  10   6   3   72.72    6.44
 -10   6  -3   60.60    6.96
  -3 -10   6   63.24    6.41
   3  10   6   67.36    6.94
   6  -3 -10   76.67    7.57
 -10  -7  -3    1.34    2.48
 -10   7   3    2.85    2.35
   3 -10   7    3.90    2.41
  -3 -10  -7    2.68    2.41
  10   7  -3    1.03    1.86
   7   3 -10    4.62    2.42
  10  -7   3    3.48    2.35
  -7  -3 -10    1.25    2.26
  -3  10   7    2.38    2.20
   7  -3  10    2.45    2.08
  -7   3  10    2.13    2.09
   3  10  -7    2.78    3.09
  -7   3 -10    0.76    1.67
  10  -7  -3    2.86    2.09
  -7  -3  10    5.68    3.36
 -10  -7   3    5.33    3.15
 -10   7  -3    7.64    3.45
   3 -10  -7    2.50    2.34
   3  10   7    2.88    2.37
   7  -3 -10    9.45    3.72
   7   3  10    0.58    2.18
  -3  10  -7    2.33    2.66
  -3 -10   7    3.02    2.32
  10   7   3    5.38    2.85
  -3 -10  -8   43.45    5.83
  10  -8   3   45.43    5.46
  -8  -3 -10   45.51    6.57
 -10   8   3   54.40    6.34
 -10  -8  -3   48.66    6.50
  -8   3  10   44.65    5.76
  -3  10   8   44.66    6.14
   3 -10   8   42.83    5.61
   3  10  -8   37.27    7.34
   8   3 -10   42.43    5.25
  10   8  -3   45.45    5.69
   8  -3  10   49.07    5.88
   3  10   8   39.34    5.75
  -8   3 -10   41.35    5.55
  -3 -10   8   42.10    5.60
   8  -3 -10   47.44    6.29
  -8  -3  10   49.44    6.79
  10  -8  -3   48.59    5.84
  10   8   3   41.89    5.65
  -3  10  -8   42.45    7.89
   3 -10  -8   50.22    6.28
 -10  -8   3   41.60    6.42
 -10   8  -3   52.10    7.00
   8   3  10   54.11    6.58
  10  -9   3    0.64    1.90
  10   9  -3    2.09    2.44
   9  -3  10    0.09    2.16
   9   3 -10    1.65    1.94
   3 -10   9   -0.22    2.02
 -10   9   3   -0.20    2.10
  -9  -3 -10    2.09    3.21
  -3 -10  -9   -0.86    1.78
   3  10  -9    5.88    3.89
  -9   3  10    2.27    2.28
  -3  10   9   -1.19    1.66
 -10  -9  -3    1.19    2.32
  -3 -10   9    4.38    2.98
  -3  10  -9   -2.36    2.14
   3 -10  -9    1.10    2.24
 -10   9  -3    2.76    2.89
  10  -9  -3    0.19    1.84
   9  -3 -10    0.23    2.12
  -9  -3  10    0.59    2.47
  10   9   3    4.27    2.92
 -10  -9   3    0.06    3.02
  -9   3 -10    0.04    2.15
   3  10   9    2.57    2.70
   9   3  10    0.63    2.40
   4 -10   0   -0.59    1.15
   4  10   0   -0.26    1.35
 -10   0  -4    1.57    1.80
 -10   0   4   -1.07    1.68
   0   4  10   -1.19    1.15
  -4  10   0   -0.23    1.50
  10   0  -4    1.55    1.60
   4 -10   0    0.19    1.13
 -10   0  -4    1.80    1.50
   0   4 -10    1.73    1.48
  -4 -10   0    0.64    1.60
   0  -4 -10    0.41    1.40
  10   0   4    0.54    1.35
   0  -4 -10    0.59    1.80
   0   4 -10    0.55    1.90
  10   0  -4   -0.38    1.21
  10   1  -4    6.76    2.25
  10  -1   4    6.21    2.32
  -4  10   1    5.84    2.36
  -1  -4 -10    4.48    2.19
   1   4 -10    2.57    1.59
   4 -10   1    8.54    2.58
  -4  10   1   11.03    3.11
  -1  -4 -10    5.63    2.54
   4  10  -1    5.66    2.43
 -10  -1  -4    6.13    2.23
  -4 -10  -1    2.93    2.21
  10   1  -4    9.49    2.88
 -10   1   4    4.41    2.83
 -10  -1  -4    5.55    2.42
  -1   4  10    5.51    2.38
   4  10  -1    4.68    2.55
   1  -4  10    5.58    2.08
   1   4 -10    3.82    2.59
  10  -1  -4    2.63    1.77
  10  -1  -4    4.42    2.32
  -1   4 -10    2.54    1.66
   1  -4 -10    8.74    2.61
 -10  -1   4    6.21    3.15
   1  -4 -10    2.44    2.05
  -1   4 -10    3.91    2.56
 -10   1  -4    3.88    2.33
   4 -10  -1    1.84    1.48
   1   4  10    3.76    2.06
   4  10   1    2.29    2.08
   4 -10  -1    5.03    2.31
  -4  10  -1    2.26    2.01
  -4 -10   1    3.16    2.30
  10   1   4    4.78    2.06
 -10   1  -4   11.82    2.88
 -10  -2  -4   48.98    5.12
   2   4 -10   45.79    4.36
  10   2  -4   49.52    5.07
  -4  10   2   41.44    4.59
   4  10  -2   50.92    6.04
  -4 -10  -2   46.53    5.67
   4  10  -2   49.77    5.31
  -2  -4 -10   45.93    5.31
 -10  -2  -4   45.77    5.05
  -4  10   2   56.85    5.65
  10  -2   4   45.43    4.88
  -2  -4 -10   57.00    5.67
   2  -4  10   40.12    4.33
   2   4 -10   44.16    5.70
  -2   4  10   50.35    5.34
   4 -10   2   45.00    4.77
 -10   2   4   57.53    6.58
   2  -4 -10   42.80    5.27
  -2   4 -10   45.80    5.28
  -2   4 -10   44.61    4.76
  10  -2  -4   44.35    4.88
  -4  10  -2   48.96    5.45
 -10  -2   4   52.80    6.94
 -10   2  -4   44.62    5.45
  -4 -10   2   43.91    5.42
   4  10   2   44.39    5.21
  10  -2  -4   34.97    4.21
   4 -10  -2   42.39    4.81
  10   2   4   44.28    4.75
   2   4  10   46.81    4.99
  -2  -4  10   45.15    4.58
   4 -10  -2   46.61    4.80
 -10  -3  -4   76.47    6.77
  -3   4  10   70.09    6.46
   4  10  -3   76.40    7.53
   4  10  -3   80.03    6.61
 -10   3   4   70.38    7.09
  -4  10   3   72.81    6.52
  -3  -4 -10   67.15    6.40
  10  -3   4   77.24    6.43
   3  -4  10   72.90    5.92
   3   4 -10   78.42    7.64
  10   3  -4   74.95    6.18
  -3  -4 -10   71.48    6.59
   4 -10   3   79.89    6.27
   3   4 -10   67.68    5.52
  -4 -10  -3   90.09    7.77
 -10   3  -4   72.78    7.02
 -10  -3   4   61.49    7.41
  10   3   4   69.47    5.93
  -4  10  -3   72.06    6.88
   4  10   3   61.49    6.36
   4 -10  -3   69.57    6.18
  -4 -10   3   71.01    6.76
  -3  -4  10   66.55    5.46
  10  -3  -4   55.91    5.73
   3  -4 -10   73.08    6.86
   3   4  10   62.57    5.78
  -3   4 -10   73.51    6.20
  -3   4 -10   66.76    6.31
  10  -3  -4   69.46    5.84
  -4   4  10   17.68    4.13
   4   4 -10   14.67    3.27
  10  -4   4   14.40    3.22
 -10  -4  -4   13.40    3.94
   4  10  -4   10.14    3.70
  -4  -4 -10   13.05    3.63
  -4 -10  -4   12.36    3.63
   4  -4  10   23.99    3.50
   4   4 -10   15.19    4.45
  -4  10   4   15.33    3.72
  10   4  -4   16.34    3.62
   4  10  -4   13.46    3.22
   4 -10   4   16.86    3.71
 -10   4   4   12.66    3.81
  -4   4 -10   10.08    2.89
 -10   4  -4   15.70    4.04
   4  10   4   11.49    3.34
 -10  -4   4   17.42    5.17
   4 -10  -4   11.92    3.39
  -4   4 -10    9.30    3.01
  -4  10  -4   10.79    3.52
  10  -4  -4   13.37    3.39
  10   4   4   11.18    3.01
  10  -4  -4   14.57    3.40
   4   4  10    6.84    2.93
   4  -4 -10    8.31    3.25
  -4 -10   4   14.58    3.83
  -5   4  10   32.03    4.82
   5   4 -10   38.53    4.57
 -10   5   4   33.54    4.39
   5  -4  10   36.71    4.60
   4  10  -5   35.05    4.50
  10   5  -4   43.02    5.11
 -10   5   4   39.19    5.39
  -4 -10  -5   27.76    5.25
   4 -10   5   34.15    4.63
 -10  -5  -4   37.89    5.50
   4  10  -5   30.63    6.00
  -4  10   5   39.41    5.10
  -5  -4 -10   35.53    5.26
  10  -5   4   32.99    4.42
 -10  -5   4   47.73    6.89
  -4  10  -5   44.04    5.79
   4  10   5   40.16    5.36
   4 -10  -5   38.10    5.05
  -5   4 -10   38.30    4.76
   5   4  10   37.93    5.37
  -4 -10   5   40.94    5.23
  -5  -4  10   52.30    6.54
  -5   4 -10   44.00    5.29
  10  -5  -4   50.61    5.53
   5  -4 -10   51.68    6.17
  10   5   4   42.67    4.74
 -10   5  -4   46.12    6.01
  10   6  -4  148.13   10.10
  -4  10   6  147.47   10.47
  -4 -10  -6  149.62   10.61
   4  10  -6  148.46   12.00
 -10  -6  -4  155.03   11.24
  -6   4  10  144.18   10.23
   4  10  -6  159.01    9.72
   4 -10   6  168.46   10.49
 -10   6   4  160.15   10.78
 -10   6   4  149.49    9.82
  -6  -4 -10  150.54   11.03
  10  -6   4  169.71   10.13
   6   4 -10  158.90    9.91
   6  -4  10  148.01    9.67
   6  -4 -10  181.67   11.70
   6   4  10  179.48   11.51
 -10  -6   4  169.39   12.38
   4  10   6  167.81   11.18
  10  -6  -4  187.52   11.02
  -6   4 -10  170.28   10.44
  -4 -10   6  183.12   11.09
  -4  10  -6  148.47   11.11
  -6  -4  10  170.95   11.97
  10   6   4  155.78    9.90
 -10   6  -4  163.50   11.54
   4 -10  -6  173.23   10.94
  -6   4 -10  165.09   10.34
   7   4 -10   50.87    5.74
   4  10  -7   61.10    6.00
  -7  -4 -10   46.05    6.56
   4 -10   7   67.19    6.62
   4  10  -7   49.90    7.46
  -7   4  10   56.81    6.36
  -4 -10  -7   48.27    6.16
  10  -7   4   50.58    5.57
  -4  10   7   61.74    6.87
 -10   7   4   54.36    6.38
   7  -4  10   64.94    6.38
  10   7  -4   55.37    6.28
  -4  10  -7   65.64    7.55
  10  -7  -4   67.45    6.74
   7   4  10   62.92    6.83
  10   7   4   66.57    6.75
   4  10   7   56.92    6.61
 -10  -7   4   60.35    7.77
 -10   7  -4   64.17    7.46
  -7  -4  10   56.66    7.34
  -7   4 -10   68.50    6.63
   4 -10  -7   63.41    6.87
   7  -4 -10   55.02    6.81
  -4 -10   7   59.11    6.29
   4  10  -8   26.29    6.89
   8   4 -10   23.47    4.91
 -10   8   4   25.73    5.54
  -4 -10  -8   27.52    5.56
  -8  -4 -10   17.05    4.73
  10  -8   4   34.13    4.83
   4 -10   8   29.37    5.46
 -10  -8  -4   34.23    6.47
  -8   4  10   36.15    5.38
  10   8  -4   18.11    4.62
  -4  10   8   23.50    5.37
   8  -4  10   16.50    3.93
 -10   8  -4   27.57    5.79
  10   8   4   25.81    5.41
   4  10   8   39.05    5.64
   8  -4 -10   30.87    6.05
 -10  -8   4   22.65    5.66
  10  -8  -4   30.59    5.83
  -4  10  -8   26.52    5.99
  -8   4 -10   34.24    4.95
  -4 -10   8   36.87    6.27
   8   4  10   32.74    6.15
  -8  -4  10   25.98    5.93
   4 -10  -8   40.93    5.71
   5  10   0    4.83    2.55
  10   0  -5    5.54    2.22
   0  -5 -10    4.71    2.55
  -5  10   0    2.47    2.08
   0  -5 -10    4.64    2.18
   0  -5  10    4.49    2.06
   5 -10   0    3.26    1.89
   0   5  10    3.97    2.29
 -10   0   5    1.92    2.20
 -10   0  -5    4.05    2.00
  -5 -10   0    0.79    2.00
   0   5 -10    5.91    2.27
   0   5 -10    1.16    2.02
   5 -10   0    5.03    2.11
  10   0  -5    5.85    2.32
  10   0   5    2.97    1.85
 -10   0  -5    5.19    2.50
   5 -10   1   32.53    3.73
  -5 -10  -1   25.98    5.05
 -10  -1  -5   37.40    4.63
 -10  -1  -5   27.63    4.05
  -1  -5 -10   25.62    4.76
   1   5 -10   33.91    5.12
   5 -10   1   30.53    3.93
  10   1  -5   26.31    4.30
 -10   1   5   24.64    5.16
  -5  10   1   26.53    4.00
  -1  -5 -10   30.81    4.27
  10   1  -5   32.78    4.11
   5  10  -1   27.59    5.40
  10  -1   5   30.66    4.19
  -1   5  10   30.42    5.43
   5  10  -1   33.11    4.57
   5  10   1   24.49    4.88
 -10   1  -5   24.28    4.58
 -10   1  -5   19.23    3.61
   1   5  10   23.59    4.59
   1  -5 -10   23.55    4.66
  -5 -10   1   22.11    4.94
   5 -10  -1   21.52    3.91
  10  -1  -5   24.99    3.73
 -10  -1   5   34.34    6.91
  -1  -5  10   25.48    3.76
  -1   5 -10   18.54    3.76
  -1   5 -10   29.03    5.44
  10   1   5   23.67    4.22
  10  -1  -5   20.18    4.05
  -5  10  -1   19.46    4.26
  -5  10   2   15.71    3.57
  -5 -10  -2    7.41    3.26
   5 -10   2   11.98    3.26
  -2   5  10    5.56    2.40
  -5  10   2   12.59    3.50
  10  -2   5   10.18    2.97
 -10  -2  -5   13.95    3.59
  10   2  -5    6.39    2.42
  -2  -5 -10    5.18    2.51
  -2  -5 -10    9.74    3.07
   5  10  -2    6.10    2.68
 -10   2   5   11.46    3.60
   2   5 -10    4.88    3.30
   5  10  -2   14.34    4.55
 -10  -2   5    6.24    3.45
   2   5  10    8.81    3.00
  -2   5 -10    9.90    2.81
 -10   2  -5   11.03    2.73
  -2  -5  10   16.79    3.55
   5  10   2   12.05    3.45
  10  -2  -5   12.21    3.12
  -5 -10   2   10.96    3.65
   2  -5 -10   10.69    3.46
  10  -2  -5   10.41    3.04
  -5  10  -2    9.74    3.16
  -2   5 -10   11.55    3.52
 -10   2  -5   13.40    3.87
   5 -10  -2   12.07    3.22
  10   2   5   12.31    3.33
  -3   5  10   99.91    7.94
  -3  -5 -10  104.70    8.24
  -5 -10  -3  108.52    8.91
   3  -5  10   93.43    6.60
  -3  -5 -10   92.06    7.67
 -10  -3  -5   88.33    7.80
   5 -10   3  107.60    7.53
  10  -3   5  109.41    7.78
 -10   3   5   99.72    8.46
   5  10  -3   99.75    7.67
   5  10  -3  108.65    9.43
   3   5 -10  103.54    7.00
   3   5 -10  104.09    9.22
  -5  10   3   92.57    7.56
  10   3  -5  103.16    7.71
  -3   5 -10  112.70    7.90
   3  -5 -10  121.16    8.98
  10  -3  -5  103.48    7.73
   3   5  10  105.24    7.92
  10  -3  -5  108.94    7.69
  10   3   5  106.69    7.59
   5  10   3  107.09    8.44
 -10  -3   5  107.60    9.91
 -10   3  -5  100.32    8.28
  -5  10  -3  109.77    8.66
 -10   3  -5  108.29    7.00
  -5 -10   3  121.82    8.96
   5 -10  -3  115.76    8.08
  -3  -5  10  111.83    7.34
  -3   5 -10  109.93    8.46
   5  10  -4   15.51    3.79
   5  10  -4   13.59    4.56
   5 -10   4   16.07    3.56
 -10  -4  -5   10.24    3.65
  -5  10   4   11.11    3.38
  -4  -5 -10    9.15    3.27
   4  -5  10   12.38    3.05
   4   5 -10   13.50    4.28
  10  -4   5    9.61    3.05
 -10   4   5   13.46    3.81
   4   5 -10   12.24    3.06
  10   4  -5   11.81    3.32
  -5 -10  -4    9.45    3.45
  -4   5  10   10.44    3.29
  -5 -10   4   11.87    3.68
  -4   5 -10    7.00    2.58
  10   4   5    6.08    2.50
  -4   5 -10   12.21    3.75
  10  -4  -5    7.96    3.12
 -10   4  -5   11.28    3.80
   4   5  10   12.78    3.49
   5  10   4    7.85    3.11
 -10  -4   5   11.14    4.37
   5 -10  -4    8.66    2.91
   4   5  10    8.84    3.27
  -5  10  -4    9.34    3.42
  10  -4  -5    6.96    2.61
   4  -5 -10   10.40    3.48
   5  10  -5    2.05    3.05
   5  10  -5    5.38    2.83
   5   5 -10    8.16    2.63
   5   5 -10    6.76    3.91
  10  -5   5    5.48    2.49
   5  -5  10    3.35    2.08
  -5  -5 -10    4.23    2.69
  10   5  -5    9.13    3.25
   5 -10   5    5.28    2.73
  -5   5  10    6.12    2.82
  -5  10   5    5.55    2.68
 -10   5   5    5.22    2.27
 -10  -5  -5    9.10    3.67
  -5 -10  -5   10.61    3.37
 -10   5   5    4.12    2.47
 -10   5  -5    8.32    3.67
  -5   5 -10    7.17    2.71
   5  10   5    6.04    2.84
  -5  10  -5    1.50    2.33
   5 -10  -5    2.46    2.51
 -10  -5   5    4.47    3.38
  10   5   5    1.86    1.98
  10  -5  -5    4.41    2.45
   5  -5 -10    4.02    3.03
  -5  -5  10    3.45    3.23
   5   5  10    4.59    2.87
  -5 -10   5    6.74    3.10
  -5   5 -10    6.05    3.01
 -10   6   5    4.81    2.69
  -6  -5 -10    0.55    2.24
 -10   6   5    6.50    2.96
  -5  10   6    5.28    3.13
   6  -5  10    7.27    2.80
  10   6  -5    6.74    2.86
  -5 -10  -6    6.25    2.91
 -10  -6  -5    2.21    2.68
   5 -10   6    4.34    2.54
   5  10  -6    4.56    3.49
   5  10  -6    4.22    2.37
   6   5 -10    7.75    2.77
  10  -6   5    5.33    2.42
  -6   5  10    4.54    2.92
   5  10   6    8.14    3.35
   6   5  10    6.84    3.21
 -10  -6   5    4.53    3.69
  -6   5 -10   10.95    3.53
  -6   5 -10    3.87    2.30
  -6  -5  10    6.48    3.49
 -10   6  -5    3.84    3.01
  10  -6  -5    9.45    3.30
  -5 -10   6    5.08    2.99
   5 -10  -6   10.36    3.64
   6  -5 -10    5.98    2.99
  -5  10  -6    8.30    3.56
   7   5 -10   81.25    7.18
   5  10  -7   76.12    9.23
   5 -10   7   76.19    7.30
  -7  -5 -10   74.28    8.16
  -5  10   7   92.15    8.35
  -7   5  10   88.86    8.06
 -10  -7  -5   83.53    8.51
  -5 -10  -7   72.86    7.56
 -10   7   5   86.46    7.60
  10  -7   5   77.77    7.05
 -10   7   5   82.78    7.63
   5  10  -7   74.99    6.99
   7  -5  10   85.54    7.26
 -10   7  -5   89.49    8.72
   5 -10  -7  102.57    8.80
  -5  10  -7   90.41    8.95
  -7  -5  10   88.05    9.08
 -10  -7   5  105.48   10.06
  10   7   5   85.80    7.71
  10  -7  -5   92.44    8.24
   5  10   7  103.47    8.80
  -7   5 -10   95.26    8.33
   7  -5 -10   81.75    8.22
  -7   5 -10   82.32    7.42
  -5 -10  -8   26.24    5.60
   5  10  -8   25.82    5.02
  10  -8   5   21.26    4.38
  -5  10   8   22.65    5.13
  10   8  -5   15.40    4.11
   8   5 -10   19.56    4.48
   5  10  -8   32.89    7.82
   8  -5  10   23.59    4.93
 -10  -8  -5   26.75    5.50
   5 -10   8   28.33    5.61
  -8   5  10   33.29    6.23
  -8  -5 -10   26.25    6.10
   8  -5 -10   30.43    6.27
   5 -10  -8   20.78    4.98
 -10  -8   5   27.05    6.74
 -10   8  -5   31.55    6.28
  -8   5 -10   17.80    4.34
  -8  -5  10   17.44    5.55
  -8   5 -10   29.22    6.04
  10   8   5   20.84    4.69
   5  10   8   19.11    4.82
  -5 -10   8   28.09    5.48
  10  -8  -5   18.38    4.84
  -5  10  -8   23.47    5.71
   8   5  10   19.18    4.70
  10   0   6  389.76   17.43
   0   6 -10  388.25   19.05
  10   0  -6  408.27   17.29
  -6  10   0  401.40   17.75
  -6 -10   0  405.34   19.08
   0   6  10  374.76   17.58
   0  -6 -10  380.74   17.88
   0  -6 -10  395.35   16.96
   0  -6  10  409.68   17.34
   6 -10   0  405.51   16.61
 -10   0  -6  386.48   16.82
 -10   0  -6  389.54   16.97
   6  10   0  389.19   17.93
 -10   0   6  416.47   19.87
  10   0  -6  387.21   17.12
 -10  -1  -6   90.85    7.39
  10   1  -6   79.49    6.75
   6 -10   1   84.88    8.21
  10  -1   6   92.81    7.27
   1   6 -10   72.56    7.70
  -1  -6 -10   91.97    7.31
  -1   6  10   84.18    7.28
   6  10  -1   81.07    7.30
   6 -10   1   80.01    6.15
  -1  -6 -10   87.36    7.37
 -10   1   6   85.55    8.11
   1  -6  10   85.92    7.03
  -6  10   1   81.72    6.92
  -6 -10  -1   77.57    7.54
 -10   1  -6   85.14    6.63
  -1   6 -10   72.46    7.52
  -6 -10   1   81.77    7.77
  -6  10  -1   80.74    7.27
  10   1   6   77.44    6.75
   1   6  10   75.57    6.93
  10  -1  -6   81.58    6.80
  10  -1  -6   75.86    6.72
   6 -10  -1   78.01    6.32
  -6 -10   1   82.04    7.44
   1  -6 -10   83.02    7.40
  -1  -6  10   81.68    6.68
 -10  -1   6   81.14    8.43
 -10   1  -6   75.23    6.75
   6  10   1   81.34    7.40
   2   6 -10   12.29    4.11
 -10   2   6   12.30    4.09
   6 -10   2    8.61    2.57
 -10  -2  -6   14.51    3.99
  -2  -6 -10   17.85    4.14
   6  10  -2   10.52    3.18
  -6 -10  -2   12.53    4.00
  10  -2   6   14.07    3.65
  10   2  -6   17.50    3.78
  -2   6  10   12.03    3.61
  -2  -6 -10    8.24    3.01
   6 -10   2    8.74    2.73
   2  -6  10   11.90    3.45
  -6  10   2   15.47    3.50
  10  -2  -6   16.55    3.78
   2   6  10   14.47    3.76
  -6 -10   2   15.15    4.05
  10  -2  -6   15.49    3.79
  -2   6 -10   28.19    5.86
   2  -6 -10   18.09    4.12
  10   2   6    8.73    2.90
   6 -10  -2   13.53    3.45
 -10   2  -6   20.64    4.58
 -10   2  -6   11.96    3.04
  -2  -6  10   13.82    3.40
  -2   6 -10   16.98    3.55
  -6 -10   2   10.59    3.57
  -6  10  -2   18.23    4.29
   6  10   2   14.32    3.64
 -10  -2   6   14.83    4.62
 -10  -3  -6   14.69    4.13
   6 -10   3   20.36    3.93
   6  10  -3   18.88    4.31
  -3  -6 -10   12.90    3.70
  10  -3   6   10.33    3.37
   6  10  -3   15.00    4.58
   3   6 -10   14.59    4.60
  -6  10   3   14.97    3.82
 -10   3   6   15.83    4.04
  -6 -10  -3   20.55    4.86
  10   3  -6   12.36    3.40
  -3  -6 -10   14.99    4.04
  -3   6  10   13.42    3.90
 -10   3  -6   18.11    3.73
   6 -10  -3   19.33    4.02
  -3   6 -10   15.68    4.40
   3  -6 -10   16.70    4.21
  -3   6 -10   17.10    3.81
  -3  -6  10   14.50    3.38
 -10  -3   6   14.30    4.44
 -10   3  -6   11.45    3.75
  10  -3  -6   13.41    3.56
  10  -3  -6   14.81    3.81
   6  10   3   16.31    4.01
   3   6  10   14.85    3.96
  -6  10  -3   15.39    3.99
  -6 -10   3   17.32    4.35
  10   3   6   19.94    4.25
   4   6 -10  131.28    8.32
 -10   4   6  133.92    9.74
  10   4  -6  120.77    8.97
   4   6 -10  121.53   10.96
  -4  -6 -10  119.93    9.55
   6  10  -4  138.63   11.43
  -4   6  10  138.87    9.82
   6 -10   4  132.56    8.78
  10  -4   6  132.78    9.05
 -10  -4  -6  117.77    9.82
  -6 -10  -4  123.81    9.75
  -6  10   4  132.86    9.48
   6  10  -4  150.15    9.81
   4   6  10  131.84    9.82
  -6 -10   4  121.15    9.44
  -4   6 -10  138.31    9.18
   4   6  10  133.05    9.14
  10  -4  -6  141.85    9.37
  10  -4  -6  145.48    9.99
  10   4   6  137.31    9.15
   6 -10  -4  134.12    9.56
   6  10   4  135.61    9.91
  -4   6 -10  128.58    9.84
  -6  10  -4  154.07   10.87
 -10   4  -6  133.17    8.28
 -10   4  -6  148.92   10.46
 -10  -4   6  141.16   11.54
   4  -6 -10  138.17   10.22
  -6 -10  -5   67.57    7.25
  -5  -6 -10   94.37    8.28
   6 -10   5   77.37    6.99
   5   6 -10   57.88    7.93
  10   5  -6   87.43    7.48
 -10   5   6   70.05    6.95
  -6  10   5   80.79    7.47
   5   6 -10   75.03    6.45
   6  10  -5   78.47    7.12
 -10   5   6   73.40    6.85
 -10  -5  -6   63.41    7.57
   6  10  -5   83.88    9.30
  -5   6  10   83.75    7.64
   6  10   5   79.04    7.62
  10  -5  -6   72.22    7.26
   5   6  10   86.05    7.81
  -5   6 -10   73.13    6.78
 -10   5  -6   77.04    7.89
 -10   5  -6   71.23    6.06
   5  -6 -10   88.03    8.32
  -6 -10   5   80.36    7.65
  -5   6 -10   72.91    7.52
  10   5   6   74.37    6.68
   6 -10  -5   75.22    7.34
  -6  10  -5   78.02    7.98
  10   6  -6   30.78    4.64
 -10   6   6   29.01    5.23
  -6 -10  -6   19.07    4.82
  -6   6  10   21.53    4.81
   6 -10   6   21.50    4.36
   6   6 -10   22.49    4.46
 -10  -6  -6   25.35    6.00
 -10   6   6   20.32    4.61
  10  -6   6   22.43    4.40
  -6  -6 -10   28.71    5.81
   6  10  -6   23.06    5.90
  -6  10   6   26.64    5.39
   6  -6  10   27.18    4.84
   6  10  -6   24.28    4.71
   6 -10  -6   18.74    4.59
   6  -6 -10   24.80    5.36
  -6  10  -6   29.58    5.92
   6   6  10   35.11    6.22
  10  -6  -6   17.85    4.48
  -6 -10   6   21.21    4.64
   6  10   6   25.33    5.22
  -6   6 -10   35.64    6.28
  -6   6 -10   27.20    5.20
 -10  -6   6   28.30    6.31
  -6  -6  10   21.57    5.44
 -10   6  -6   27.55    5.77
  -7   6  10    7.83    3.53
   6  10  -7    3.74    3.50
  10  -7   6   11.58    3.57
  -7  -6 -10    8.72    3.71
  10   7  -6   14.96    4.20
 -10  -7  -6    7.49    3.57
   6  10  -7    9.21    3.21
   7  -6  10    3.72    2.58
  -6 -10  -7    7.75    3.36
   7   6 -10   13.70    3.67
  -6  10   7    3.73    2.69
 -10   7   6   11.86    3.85
   6 -10   7   11.33    3.65
   7   6  10   14.43    4.45
  -6 -10   7    5.46    2.95
  -6  10  -7   15.12    4.83
  -7   6 -10   11.79    4.05
 -10  -7   6    8.67    4.30
  -7  -6  10    6.95    4.09
  10  -7  -6    9.91    3.85
   7  -6 -10    4.61    3.21
 -10   7  -6   11.39    4.38
   6  10   7    9.37    3.70
  -7   6 -10    5.59    2.84
   6 -10  -7   11.09    4.04
  10   0   7   33.29    4.56
   7  10   0   26.90    5.31
   0   7  10   22.54    4.78
   7 -10   0   36.16    4.46
  10   0  -7   28.55    4.31
  10   0  -7   31.78    4.79
   0  -7  10   22.31    4.41
 -10   0  -7   31.44    4.60
  -7  10   0   33.45    4.88
   0   7 -10   27.63    6.05
  -7 -10   0   30.20    6.12
 -10   0   7   27.51    5.70
   0  -7 -10   24.71    5.05
   0  -7 -10   32.78    4.62
   1  -7  10   16.97    4.02
  10   1  -7   22.67    4.75
 -10  -1  -7   26.97    5.28
   7 -10   1   13.31    3.13
   7  10  -1   19.83    4.48
   1   7 -10   15.75    4.62
  -7  10   1   17.21    4.19
  -1  -7 -10   12.99    3.70
  10  -1   7   14.37    3.80
  -1   7  10   25.79    5.18
 -10   1   7   14.50    4.02
  -7 -10  -1   16.91    4.25
  -1  -7 -10   15.41    3.66
 -10   1  -7   18.17    4.09
   1   7  10    8.16    3.20
   7 -10  -1   16.58    3.83
  -7 -10   1   11.34    3.73
  10  -1  -7   13.36    3.53
  -1   7 -10   12.32    4.30
  -7  10  -1    8.78    3.47
  10   1   7   16.09    3.89
   7  10   1   17.46    4.45
  -1  -7  10   15.84    3.87
 -10  -1   7    6.15    3.01
   1  -7 -10   14.69    4.25
  10  -1  -7   10.75    3.55
  -2  -7 -10  104.31    8.26
 -10  -2  -7  108.53    8.94
  -2   7  10  103.24    8.41
 -10   2   7  111.28    8.99
  -7 -10  -2  102.20    8.93
   7  10  -2   99.82    8.16
   7 -10   2   93.44    7.10
   2   7 -10   98.36    9.51
  -7  10   2  107.12    8.06
  10   2  -7  105.13    8.03
   2  -7  10  119.57    8.52
  10  -2   7   97.79    7.89
  -2  -7 -10  112.04    8.39
 -10   2  -7   87.26    7.11
   2  -7 -10   89.32    7.98
  -7  10  -2   92.67    8.33
 -10   2  -7   88.36    7.64
 -10  -2   7   99.60    9.55
   7 -10  -2  103.49    7.88
  -7 -10   2  112.33    9.10
  -2   7 -10  110.55    9.38
  10   2   7   96.82    7.99
  10  -2  -7   94.27    7.68
   7  10   2   91.57    8.24
  -2  -7  10   98.87    7.57
  -7 -10   2  106.05    8.97
  10  -2  -7   96.72    8.12
   2   7  10   83.86    7.74
  -3  -7 -10   47.04    5.61
 -10  -3  -7   48.08    6.47
  -3   7  10   56.47    6.35
  -7 -10  -3   44.35    6.08
  10   3  -7   50.84    5.62
   3   7 -10   47.26    7.02
   3  -7  10   52.24    5.80
   7  10  -3   49.45    5.93
   7 -10   3   43.80    5.44
  10  -3   7   56.94    5.86
  -3  -7 -10   50.35    6.03
   7 -10   3   47.60    5.13
 -10   3   7   42.86    5.85
   3   7  10   47.17    5.80
  -3   7 -10   47.66    6.40
 -10   3  -7   48.05    5.97
   7  10   3   52.60    6.13
 -10  -3   7   46.32    6.95
   3  -7 -10   40.05    5.58
  10   3   7   39.03    5.27
  10  -3  -7   48.39    5.70
   7 -10  -3   42.68    5.41
 -10   3  -7   47.81    5.24
  -7 -10   3   55.62    6.84
  -3  -7  10   50.88    5.54
  10  -3  -7   47.26    5.85
  -7  10  -3   41.29    5.93
   4  -7  10    7.43    3.21
  10  -4   7    7.63    3.16
  -4   7  10    6.15    2.97
  10   4  -7    3.61    2.38
   7  10  -4    5.26    2.83
   7 -10   4    7.28    2.85
 -10   4   7    7.58    3.13
  -7 -10  -4    5.69    3.10
   4   7 -10    5.71    3.36
  -4  -7 -10    7.65    3.45
 -10   4   7    2.29    2.38
  -7  10   4   10.69    3.70
 -10  -4  -7    6.69    3.53
  -7 -10   4    6.98    3.12
   7  10   4    1.05    2.33
   4  -7 -10    7.53    3.29
  -4   7 -10    6.13    3.19
   7 -10  -4    9.47    3.26
 -10   4  -7    4.83    2.16
   4   7  10    6.40    3.13
  10  -4  -7    6.20    3.22
   4   7  10    6.47    3.03
 -10   4  -7    4.55    2.94
  10   4   7    2.40    2.18
  -7  10  -4    5.60    3.09
 -10  -4   7    3.67    3.37
  -7 -10   4    9.18    4.37
   5   7 -10    4.54    3.59
 -10  -5  -7    4.91    3.24
  10   5  -7    4.18    2.52
 -10   5   7    3.76    2.78
   5  -7  10    7.68    2.86
  -5  -7 -10    3.97    2.97
   5   7 -10    9.26    3.10
  -5   7  10    7.10    3.46
   7  10  -5    9.46    3.24
   7 -10   5    4.35    2.40
 -10   5   7    7.92    3.20
  10  -5   7    5.66    2.79
  -7 -10  -5   10.17    3.57
  -7  10   5    9.69    3.33
  10   5   7    4.65    2.52
 -10   5  -7    3.14    2.12
  -7 -10   5    6.95    3.45
  -7  10  -5    3.29    2.89
  10  -5  -7   10.90    3.96
  -7 -10   5    2.80    3.19
  -5   7 -10   15.74    4.88
   5   7  10    8.38    3.35
 -10   5  -7    5.74    2.69
   7 -10  -5    8.47    3.39
   5   7  10    8.15    3.49
   5  -7 -10    8.38    3.78
 -10  -5   7   11.86    4.84
   7  10   5   10.35    3.58
  -6   7  10   40.78    5.72
 -10   6   7   36.57    5.43
  -7  10   6   37.15    5.54
 -10  -6  -7   36.85    7.21
  10  -6   7   40.75    5.41
  -6  -7 -10   30.16    5.99
   7  10  -6   32.68    5.03
   6  -7  10   41.22    5.68
   6   7 -10   38.92    5.23
  -7 -10  -6   26.54    5.51
  10   6  -7   33.11    5.15
   7 -10   6   22.37    4.58
 -10  -6   7   46.71    7.09
   7  10   6   41.06    5.98
  -7  10  -6   45.21    6.65
  -6   7 -10   34.34    6.30
 -10   6  -7   41.12    6.19
 -10   6  -7   40.17    4.89
  10  -6  -7   39.66    5.90
  -6   7 -10   49.30    5.77
   6   7  10   37.91    5.59
   7 -10  -6   30.85    6.14
  -6  -7  10   37.92    7.79
  -7 -10   6   24.12    5.80
   0   8 -10    8.33    3.77
   0  -8  10   22.52    4.69
  10   0  -8   14.88    4.04
   0  -8 -10   13.67    3.82
   0   8  10   10.18    3.67
   8 -10   0   11.72    3.38
   8  10   0   13.47    4.16
  -8  10   0   13.45    3.96
 -10   0  -8    9.99    3.58
  -8 -10   0   22.56    5.17
  10   0   8   16.14    4.10
 -10   0   8   15.47    4.28
  -1   8  10   29.62    5.48
  -8 -10  -1   18.80    4.69
   1   8 -10   13.25    4.65
   1  -8  10   16.14    3.86
  -8  10   1   29.10    5.75
  -1  -8 -10   17.27    4.16
  10  -1   8   18.71    4.35
 -10  -1  -8   21.85    5.13
  -1  -8 -10   20.98    4.56
   8 -10   1   24.59    4.56
 -10   1   8   22.57    5.37
   8  10  -1   20.27    4.60
  10   1  -8   14.99    3.75
   1   8  10   23.40    4.81
  -8  10  -1   14.65    4.10
  -1  -8  10   21.29    4.57
 -10  -1   8    8.74    3.47
  -8 -10   1   12.24    3.72
  -1   8 -10   16.58    5.28
   8 -10  -1   24.12    4.75
   1  -8 -10   25.76    5.34
  10  -1  -8   23.05    5.00
   8  10   1   18.49    4.51
 -10   1  -8   22.21    4.84
  10   1   8   17.60    4.37
  10  -1  -8   18.03    4.14
  10  -2   8   21.83    4.54
   8  10  -2   31.60    4.88
   2  -8  10   32.13    4.82
  -2   8  10   28.17    5.41
 -10   2   8   18.40    4.69
  -2  -8 -10   36.16    5.18
  -8  10   2   31.80    5.69
  -2  -8 -10   36.38    4.87
  10   2  -8   33.11    4.86
   8 -10   2   33.12    4.63
   2   8 -10   40.85    7.89
 -10  -2  -8   32.15    6.52
  -8 -10  -2   30.27    5.87
  10  -2  -8   29.24    5.54
  -2  -8  10   30.03    4.66
   2   8  10   30.93    5.74
  10  -2  -8   23.03    4.81
  10   2   8   23.06    4.78
   8 -10  -2   23.10    4.42
  -8  10  -2   21.66    4.81
   2  -8 -10   31.04    5.69
   8  10   2   25.74    5.28
  -8 -10   2   26.26    5.61
  -8 -10   2   25.92    5.33
 -10   2  -8   29.58    5.41
 -10  -2   8   28.03    6.33
  -2   8 -10   28.57    6.07
  -8 -10  -3   59.07    6.82
  -3  -8 -10   48.09    6.07
   8 -10   3   46.25    5.34
  -3  -8 -10   51.51    5.89
   3   8 -10   54.01    7.52
 -10   3   8   53.10    6.37
   3  -8  10   54.55    6.15
 -10  -3  -8   47.51    6.74
   8  10  -3   57.20    6.52
  -3   8  10   51.91    6.34
  10   3  -8   63.20    6.53
  -8  10  -3   57.59    7.01
  10  -3  -8   49.93    5.90
  -3  -8  10   61.77    6.36
 -10  -3   8   60.80    7.89
 -10   3  -8   53.90    5.96
  10  -3  -8   52.71    6.46
   3  -8 -10   49.30    6.27
  -8 -10   3   58.79    7.16
   3   8  10   56.14    6.51
 -10   3  -8   54.14    6.32
   8  10   3   59.57    6.72
   8 -10  -3   63.72    6.61
  10   3   8   55.80    6.38
  -3   8 -10   68.95    7.79
   4   8 -10   64.62    8.66
  10   4  -8   58.81    6.39
 -10   4   8   53.72    6.35
 -10  -4  -8   64.41    7.81
  -8 -10  -4   58.57    6.94
 -10   4   8   51.33    6.46
   4  -8  10   62.05    6.67
  10  -4   8   71.95    6.79
   8  10  -4   62.86    6.85
  -4   8  10   59.41    6.87
  -4  -8 -10   54.60    6.71
 -10   4  -8   51.62    6.42
  -8 -10   4   47.77    6.94
  -4   8 -10   69.79    7.72
  10   4   8   59.37    6.60
  10  -4  -8   69.97    7.49
   4   8  10   61.76    6.89
   4   8  10   63.96    6.91
   8 -10  -4   50.78    6.30
  -8 -10   4   46.20    9.57
   8  10   4   59.10    6.90
 -10  -4   8   66.59    8.12
 -10   4  -8   65.24    6.30
  -8  10  -4   66.88    7.77
   4  -8 -10   59.35    7.01
 -10   5   8   84.72    7.96
  -8 -10  -5   82.07    8.33
 -10  -5  -8   79.27    8.78
  -5   8  10   73.32    7.85
   5   8 -10   77.33    9.45
  10  -5   8   83.94    7.67
   5  -8  10   68.29    7.19
  -5  -8 -10   74.68    7.92
  10   5  -8   85.90    7.97
   8  10  -5   82.53    7.82
 -10   5  -8   87.64    7.37
  -5   8 -10   97.86    9.44
  10  -5  -8   88.22    8.61
 -10   5  -8   82.70    8.38
   8 -10  -5   87.19    8.42
  10   5   8   86.23    7.87
 -10  -5   8   84.97    9.42
   8  10   5   91.01    8.59
   5  -8 -10   74.77    8.14
  -8 -10   5   79.12    8.96
  -8  10  -5   84.12    8.86
   5   8  10  104.28    8.69
 -10   0  -9   22.14    4.89
   9 -10   0   19.04    4.36
   9  10   0   17.29    4.38
   0  -9  10   19.78    4.69
  10   0  -9   10.89    3.52
  10   0   9   15.97    4.11
  -9 -10   0   22.49    5.38
  -9  10   0   15.58    4.24
   0  -9 -10   11.96    3.62
 -10   0   9   10.02    4.08
   0   9 -10   17.47    5.33
   0   9  10   16.48    4.32
  -9 -10  -1    2.68    2.92
  10  -1   9    1.70    1.83
  10   1  -9    6.65    3.05
  -9  10   1    1.36    2.54
  -1  -9 -10    3.30    2.61
  -1   9  10   -0.15    2.11
   9 -10   1    1.33    1.96
   9  10  -1    0.45    2.31
   1  -9  10    2.96    2.35
 -10  -1  -9   -0.81    1.70
   1   9 -10    4.21    3.34
 -10   1   9    5.33    3.24
  -1  -9 -10   -0.67    1.75
   9  10   1    0.14    2.13
  -1   9 -10    9.11    4.32
 -10  -1   9    3.03    2.70
   1  -9 -10    3.20    2.64
  -1  -9  10    2.20    2.47
  10  -1  -9    3.09    3.15
  -9 -10   1    5.75    3.63
  10  -1  -9    7.32    2.96
  10   1   9    0.15    1.96
   9 -10  -1    5.33    2.67
   1   9  10    4.49    2.95
 -10   1  -9    3.70    2.72
  -9  10  -1    5.93    3.21
  -2  -9 -10   18.73    4.28
  -9  10   2   22.37    5.22
   9  10  -2   20.31    4.76
  -2   9  10   19.96    4.70
   9 -10   2   20.30    4.39
   2  -9  10   27.95    5.20
  10   2  -9   24.19    5.12
   2   9 -10   18.00    6.16
  -2  -9 -10   20.53    4.55
  -9 -10  -2   27.53    5.83
 -10  -2  -9   22.14    5.60
  10  -2   9   13.93    3.84
 -10   2   9   19.69    4.64
  10   2   9   24.61    5.21
   9  10   2   28.67    5.69
 -10   2  -9   24.49    5.17
  -2   9 -10   27.08    6.44
 -10  -2   9   23.75    5.97
  10  -2  -9   25.11    4.90
  10  -2  -9   24.80    5.31
  -2  -9  10   23.12    4.93
   2   9  10   22.78    5.15
   9 -10  -2   17.12    4.03
   2  -9 -10   29.75    5.82
  -9 -10   2   24.27    5.46
  -9  10  -2   16.34    4.65
 -10  -3  -9   84.21    9.06
  10  -3   9   94.72    8.39
  10   3  -9   89.75    8.09
   3   9 -10   89.51   10.06
  -3  -9 -10   93.23    7.72
  -9 -10  -3   97.70    8.94
  -3   9  10   87.95    8.56
  -3  -9 -10   91.82    8.16
   3  -9  10   83.69    7.92
   9 -10   3   80.86    7.33
   3   9  10   89.09    8.33
  10   3   9   75.06    7.78
   9  10   3   80.81    8.19
  -9  10  -3   80.77    8.59
  10  -3  -9   79.86    8.30
   3  -9 -10   83.73    8.19
  -3   9 -10   77.02    8.79
 -10  -3   9   67.02    8.52
 -10   3  -9   75.88    7.47
  10  -3  -9   87.00    7.96
  -9 -10   3   87.24    8.91
 -11   0   0    0.25    2.14
   0 -11   0    0.49    1.86
   0   0 -11    1.72    2.06
   0   0 -11   -0.21    1.25
   0   0  11    0.61    1.98
   0  11   0    0.64    1.65
   0  11   0    1.28    1.73
  11   0   0    1.13    1.49
  11  -1   0   17.94    3.72
  11   1   0   17.56    3.41
  11   1   0   18.28    3.65
   1   0 -11   15.65    4.10
   1   0 -11   18.87    3.48
   0  11   1    8.84    3.00
   0  11  -1   19.60    4.23
 -11  -1   0   18.04    4.78
 -11   1   0   17.89    4.77
  -1   0 -11   23.43    4.88
  -1   0 -11   10.47    2.81
  -1   0  11   16.40    3.28
   0 -11  -1   20.13    4.40
   0 -11   1   19.26    4.39
   0  11  -1   19.21    4.00
 -11  -2   0   40.35    5.91
  11   2   0   40.72    4.33
  11  -2   0   40.47    4.65
  11   2   0   40.31    4.29
   0  11   2   34.75    4.81
   2   0 -11   39.52    5.36
   2   0  11   41.54    5.48
   0 -11   2   39.48    4.87
   0  11  -2   43.39    5.31
   0  11  -2   45.05    4.82
   0 -11  -2   39.68    5.34
 -11   2   0   36.41    5.56
  -2   0 -11   41.59    4.86
  -2   0  11   47.81    4.77
 -11  -3   0   47.27    6.19
   0 -11   3   38.69    4.93
   0  11  -3   33.76    5.07
 -11   3   0   41.99    6.09
   0  11   3   38.54    5.17
   3   0 -11   44.44    5.77
   3   0  11   35.81    5.06
  11  -3   0   43.74    4.84
  11   3   0   41.93    4.55
  -3   0 -11   48.51    5.35
  -3   0  11   37.91    4.64
   0 -11  -3   40.86    5.57
   0 -11   4    6.58    2.59
   4   0 -11    5.83    2.50
 -11  -4   0    6.46    3.14
 -11   4   0    5.13    2.97
  -4   0 -11    2.57    2.13
   0 -11  -4    8.83    3.29
  11  -4   0    5.38    2.53
   4   0 -11    8.67    3.33
   4   0  11    7.33    3.10
   0  11  -4    5.79    3.05
   0  11   4    5.44    2.70
  11   4   0    7.46    2.68
   5   0  11   14.88    4.05
  11   5   0   12.13    3.37
  -5   0 -11    7.89    3.11
   0 -11   5   11.59    3.49
   5   0 -11    7.49    3.24
 -11  -5   0   15.18    4.50
 -11   5   0   17.29    4.84
   5   0 -11   10.87    3.27
   0 -11  -5   14.31    3.95
  11  -5   0   10.02    3.02
   0  11   5    8.68    3.28
   0  11  -5   17.56    4.88
   0 -11   6   17.53    4.26
  -6   0 -11   20.12    4.82
   6   0  11   15.93    4.21
  11  -6   0   22.97    4.93
   0  11  -6   21.83    5.65
 -11  -6   0   12.25    4.21
 -11   6   0   20.23    5.04
  11   6   0   20.14    4.27
   0 -11  -6   17.90    4.35
   6   0 -11   20.35    4.96
   6   0 -11   20.02    4.27
   0  11   6   18.84    4.44
   0  11   7    1.94    2.42
   7   0 -11    2.66    2.12
   7   0  11    1.32    2.07
  11   7   0    2.54    2.12
   0 -11  -7    1.40    1.97
 -11   7   0    1.16    2.64
  -7   0 -11    1.69    2.37
   0  11  -7    0.18    2.48
  11  -7   0    0.20    1.72
   0 -11   7    1.94    2.23
   0 -11  -8   33.15    5.89
  11   8   0   26.71    5.32
   0 -11   8   36.72    5.32
   0  11  -8   24.10    6.02
   0  11   8   18.16    4.58
 -11   8   0   34.10    6.85
  -8   0 -11   12.86    3.93
   8   0  11   35.36    6.51
  11  -8   0   35.85    6.19
   0 -11  -8   30.46    6.03
   8   0 -11   43.99    5.73
  -1  11   0   40.94    4.82
  -1 -11   0   36.76    5.08
   0  -1 -11   44.44    5.65
   0   1 -11   48.58    5.54
   0   1 -11   39.85    4.39
   0   1  11   39.54    4.44
   1 -11   0   34.30    4.72
 -11   0  -1   34.91    6.25
  11   0   1   35.65    4.29
  11   0  -1   40.41    4.30
  -1  11   0   37.64    4.58
   1  11   0   53.88    5.42
  11   0  -1   39.67    4.44
   0  -1 -11   41.97    4.49
 -11   0   1   33.69    6.35
   1  11  -1  294.56   14.46
  -1  -1 -11  278.09   13.29
  11   1  -1  284.69   12.84
   1  -1  11  291.80   14.73
   1   1 -11  281.56   14.51
   1   1 -11  283.45   12.77
  -1  -1 -11  286.69   14.87
 -11   1   1  300.49   16.31
  -1   1  11  298.13   13.47
  -1  11   1  288.71   14.15
  -1 -11  -1  285.51   14.90
 -11  -1  -1  282.89   15.36
   1  11  -1  283.35   13.69
  11   1  -1  295.60   13.07
   1 -11   1  299.64   14.38
  11  -1   1  283.74   13.37
  -1   1 -11  286.48   13.35
   1 -11  -1  279.66   14.29
 -11  -1   1  284.91   16.28
  11  -1  -1  273.87   13.28
  -1  11  -1  297.82   14.12
   1  11   1  269.19   14.06
  -1  11  -1  267.59   13.19
  -1 -11   1  286.40   14.55
 -11   1  -1  275.29   15.31
  -1  -1  11  311.06   13.10
   1  -1 -11  274.04   14.76
   1  -1 -11  268.89   12.43
  11   1   1  274.01   12.93
  -2  -1 -11    9.23    2.96
  -1 -11  -2   13.20    4.03
   1  11  -2   14.09    3.38
  11   2  -1   14.61    3.12
  11  -2   1   10.12    2.80
   2   1 -11   10.39    3.52
 -11   2   1   14.95    4.56
   2   1 -11   12.64    2.99
 -11  -2  -1   13.98    4.17
   2  -1  11   15.40    4.09
  11   2  -1    9.16    2.55
   1 -11   2   11.37    3.21
   1  11  -2   16.87    4.36
  -1  11   2   18.12    4.07
  -2   1  11   15.71    3.36
 -11   2  -1   13.27    4.07
  -1 -11   2   11.19    3.43
   2   1  11   13.43    3.83
   2  -1 -11   14.24    4.15
  11   2   1   10.72    2.66
  11   2   1    8.69    2.58
  -2   1 -11   16.70    3.56
   1  11   2    8.37    3.03
 -11  -2   1    7.48    3.62
  11  -2  -1    7.15    2.56
  -1  11  -2   11.94    3.53
   1 -11  -2   16.49    4.07
   3   1 -11   33.78    4.96
   1  11  -3   28.14    3.89
  -3  -1 -11   41.13    5.03
   1 -11   3   38.82    4.83
   1  11  -3   37.03    5.44
  11   3  -1   32.69    4.16
  -3   1  11   38.35    4.58
  -1 -11  -3   37.10    5.30
   3   1 -11   36.40    4.31
 -11  -3  -1   34.14    5.27
  11  -3   1   35.11    4.45
 -11   3   1   30.37    6.23
  -1  11   3   37.09    5.02
   3  -1  11   43.32    5.37
  11  -3  -1   26.75    4.83
   1 -11  -3   17.34    4.25
   3   1  11   19.85    4.70
   3  -1 -11   23.66    4.97
  -1  11  -3   29.55    5.69
  -3   1 -11   27.15    4.08
  11   3   1   25.18    3.72
  11   3   1   23.10    3.49
  -1 -11   3   23.89    4.77
   1  11   3   27.91    4.35
 -11  -3   1   21.27    5.23
 -11   3  -1   19.90    4.94
  11  -4   1   76.90    6.69
  -1 -11  -4   88.15    7.93
  -4  -1 -11   68.21    6.69
   4   1 -11   91.69    7.98
 -11   4   1   73.07    7.78
   1  11  -4   81.24    8.03
   4  -1  11   80.31    7.38
  -4   1  11   83.76    6.96
  11   4  -1   79.10    6.72
   4   1 -11   83.47    6.70
  -1  11   4   80.44    7.34
 -11  -4  -1   82.74    7.75
   1 -11   4   75.80    6.75
   4  -1 -11   94.76    8.06
   1 -11  -4   94.28    7.89
   4   1  11   84.60    7.83
  -1  11  -4   78.46    7.52
  11   4   1   90.44    6.74
 -11  -4   1   72.77    7.95
  11  -4  -1   95.11    7.42
  -4   1 -11   82.88    7.13
 -11   4  -1   88.32    8.41
   1  11   4   95.09    8.00
  -1 -11   4   88.27    7.43
  -1 -11  -5  121.31    9.15
  -5  -1 -11  105.99    8.65
  -1  11   5  108.02    8.74
  11  -5   1  102.69    7.88
   1  11  -5   94.58    9.10
  -5   1  11  103.30    8.17
 -11   5   1  102.13    9.13
   1 -11   5  111.94    8.52
 -11  -5  -1  121.56    9.14
   5   1 -11  113.42    8.04
  11   5  -1  118.23    8.33
   5  -1  11  108.94    8.79
  -1  11  -5  107.38    9.14
  11  -5  -1  106.69    8.15
 -11  -5   1  114.45    9.83
   5  -1 -11  108.66    8.07
  -5   1 -11  111.12    8.53
  -1 -11   5   99.33    8.15
  11   5   1  100.41    7.67
   5  -1 -11   97.31    8.50
   1 -11  -5  103.15    8.31
 -11   5  -1  103.39    9.30
   1  11   5  121.23    9.30
   5   1  11   98.86    8.69
   1  11  -6   10.32    4.21
 -11   6   1   13.51    4.17
  -1 -11  -6   11.17    3.62
  11   6  -1   10.97    3.43
  -1  11   6    9.14    3.47
   6   1 -11   19.02    3.97
  11  -6   1   22.13    4.70
   6  -1  11   15.54    4.01
  -6  -1 -11   20.46    4.84
   1 -11   6   12.05    3.38
  11   6   1   14.82    3.79
   6   1  11    8.07    3.31
   6  -1 -11   11.68    3.78
 -11  -6   1   11.62    4.15
 -11   6  -1   10.86    3.95
  -6   1 -11   12.26    3.67
   6  -1 -11   14.37    3.77
  -6  -1  11   12.51    3.76
  -1  11  -6   12.28    4.35
   1  11   6   12.02    4.00
  11  -6  -1    8.24    3.17
   1 -11  -6   13.85    3.95
  -1 -11   6   13.04    3.75
   7  -1  11   20.70    4.93
 -11   7   1   19.27    5.22
  -1  11   7   21.49    5.06
  -1 -11  -7   23.25    5.09
   1 -11   7   13.81    3.80
  -7  -1 -11   15.08    4.28
   1  11  -7   10.63    4.51
  11   7  -1   11.96    3.66
   7   1 -11   14.22    3.62
  11  -7   1   13.31    4.07
 -11   7  -1   17.97    5.02
   7  -1 -11   18.04    4.37
   1 -11  -7   15.20    3.91
 -11  -7   1    7.02    3.18
  -7  -1  11   17.82    4.44
  -1 -11   7   14.66    4.10
  11  -7  -1   16.48    4.29
  -1  11  -7   14.73    4.68
   1  11   7   19.07    4.86
  11   7   1   16.04    4.07
   7   1  11    5.67    2.86
  -7   1 -11   16.05    4.40
   7  -1 -11   25.07    4.99
  -1  11   8   78.65    8.11
  -8  -1 -11   73.05    8.16
   8  -1  11   78.11    7.84
   8   1 -11   75.68    7.34
  -1 -11  -8   89.29    7.83
  11  -8   1   72.83    7.25
  11   8  -1   92.76    8.28
 -11   8   1   68.66    7.79
   1 -11   8   85.40    7.93
   1  11  -8   80.51    9.29
  -1 -11   8   81.55    7.89
  -8  -1  11   76.08    7.82
   1 -11  -8   72.92    7.16
   8  -1 -11   70.92    7.83
  -1  11  -8   83.47    9.17
  11  -8  -1   72.69    7.28
  -8   1 -11   74.13    7.81
 -11  -8   1   74.69   11.12
 -11   8  -1   73.82    8.33
  11   8   1   74.41    7.47
   8  -1 -11   80.29    7.52
   1  11   8   71.11    7.73
  -2  11   0    1.89    2.01
  -2  11   0    2.71    1.98
  11   0   2    0.97    1.48
   0  -2 -11    2.27    1.75
 -11   0  -2    4.47    3.02
   0   2  11    1.73    1.68
   2 -11   0    4.07    2.44
   2  11   0    1.30    1.77
  11   0  -2   -0.09    1.30
  11   0  -2    0.36    1.52
   0  -2  11   -0.80    1.55
  -2 -11   0    0.30    1.66
   0   2 -11    2.04    1.61
 -11   0   2    2.76    2.86
   0  -2 -11   -0.81    1.85
   2  11  -1    8.35    3.05
   1   2 -11    9.61    3.28
 -11  -1  -2   10.15    3.57
 -11   1   2    4.45    3.21
  -1  -2 -11    3.74    2.52
   2 -11   1    9.47    3.02
  11   1  -2    9.48    2.68
  11   1  -2    7.12    2.42
  11  -1   2    4.42    2.35
  -2  11   1    8.88    2.94
  -1   2  11    9.42    2.81
   1  -2  11    7.07    2.87
  -2 -11  -1    5.74    3.04
   1   2 -11    7.16    2.36
  -1  -2 -11   12.19    3.27
   2  11  -1    7.23    2.82
  11  -1  -2    8.20    2.62
   1  -2 -11   12.27    2.99
   2 -11  -1    8.72    3.16
   1   2  11    7.50    2.58
  -1   2 -11   10.79    2.92
 -11  -1   2    8.89    3.80
  11  -1  -2    9.45    2.86
  -2 -11   1    7.62    2.94
   1  -2 -11   11.12    3.59
 -11   1  -2    9.62    3.54
  11   1   2    5.65    2.32
   2  11   1    4.85    2.51
  -2  11  -1    7.51    2.90
   2  11  -2   36.84    4.67
  -2   2  11   40.53    4.79
   2  11  -2   43.03    5.58
   2 -11   2   43.37    5.07
  -2  -2 -11   50.38    5.92
   2  -2  11   39.80    4.99
   2   2 -11   36.04    6.61
   2   2 -11   38.42    4.32
   2   2 -11   41.45    5.18
   2   2 -11   40.92    4.23
  -2 -11  -2   40.69    5.47
 -11   2   2   48.15    6.40
  11  -2   2   34.68    4.50
  11   2  -2   46.51    4.83
  -2  11   2   34.38    4.79
 -11  -2  -2   39.19    5.36
  -2  -2 -11   41.90    5.01
  11  -2  -2   49.37    5.18
   2 -11  -2   53.84    5.80
  -2  11  -2   46.89    5.55
  11   2   2   42.11    4.55
   2  11   2   47.38    5.64
  -2 -11   2   39.43    5.10
 -11   2  -2   38.40    6.65
  11  -2  -2   45.91    4.48
 -11  -2   2   32.33    6.40
   2  -2 -11   54.80    6.24
  -2   2 -11   45.83    4.94
  11   3  -2   25.78    3.94
 -11   3   2   29.56    5.88
  -3  -2 -11   37.80    5.05
   2  11  -3   37.11    6.40
 -11  -3  -2   26.84    5.17
  11  -3   2   26.57    3.96
   3   2 -11   32.37    4.06
  -2 -11  -3   29.06    5.49
  -2  11   3   27.56    4.97
   2  11  -3   24.46    4.48
   2 -11   3   28.33    4.27
   3  -2  11   34.14    5.68
  -3   2  11   36.46    4.70
   3   2 -11   34.22    7.58
  11  -3  -2   30.90    4.19
   2 -11  -3   37.24    5.02
   2  11   3   22.18    4.50
  -3  -2  11   36.90    5.10
  -2 -11   3   22.15    4.67
  -3   2 -11   28.61    4.24
   3   2  11   26.01    5.34
 -11  -3   2   30.12    6.47
 -11   3  -2   34.13    6.17
  -2  11  -3   42.70    5.56
   3  -2 -11   30.22    5.66
  11   3   2   32.70    3.99
  11  -4   2   44.96    5.17
 -11   4   2   39.10    5.88
   2  11  -4   44.13    7.65
  -2  11   4   44.07    5.54
   4  -2  11   39.13    5.25
  -4  -2 -11   49.01    5.86
  -2 -11  -4   45.06    5.89
   2 -11   4   47.58    5.39
  -4   2  11   43.29    5.19
  11   4  -2   39.59    4.87
   2  11  -4   36.15    4.58
   4   2 -11   45.50    4.93
 -11  -4  -2   49.92    5.93
  -2  11  -4   47.60    6.07
  11   4   2   48.19    5.01
  -4   2 -11   45.38    5.21
   4   2  11   46.50    5.97
  -4  -2  11   39.91    5.50
  -2 -11   4   42.07    5.38
 -11   4  -2   41.30    5.88
   2 -11  -4   37.84    5.04
   2  11   4   42.01    5.51
 -11  -4   2   53.19    7.14
   4  -2 -11   54.83    6.21
  11  -4  -2   50.30    5.37
   5  -2  11    8.68    3.06
  -5  -2 -11   11.12    3.80
  -2 -11  -5   15.29    4.43
 -11   5   2   17.75    4.94
  -5   2  11   12.61    3.55
   2  11  -5   12.26    4.41
  11   5  -2   12.22    3.28
   2 -11   5   16.28    3.75
  11  -5   2   11.01    3.10
   5   2 -11    9.05    2.78
  -2  11   5   11.62    3.60
  -2 -11   5   10.56    3.35
   2 -11  -5    6.06    2.92
   5   2  11    3.42    2.93
   2  11   5    3.28    2.53
  -2  11  -5    3.64    2.72
  11  -5  -2    6.96    2.98
 -11  -5   2   10.15    4.01
  11   5   2    7.27    2.58
   5  -2 -11   11.83    4.06
  -5   2 -11    9.79    3.16
   2 -11  -5    8.76    3.06
 -11   5  -2   17.77    4.88
  -5  -2  11   11.14    3.79
  -2  11   6   94.98    8.38
   2  11  -6   89.31    9.08
  11  -6   2   95.28    7.70
  11   6  -2  104.39    8.15
   6  -2  11   95.59    8.05
 -11   6   2   95.79    8.87
  -2 -11  -6   96.90    8.25
   6   2 -11   97.06    7.64
  -6   2  11   77.57    7.32
  -6  -2 -11   87.44    8.39
   2 -11   6   97.13    8.00
 -11   6  -2   87.34    8.61
  -6  -2  11   68.65    7.48
  -2 -11   6   87.50    7.81
  11   6   2   80.59    7.22
  11  -6  -2   82.42    7.45
   6  -2 -11   91.50    8.30
   2  11   6   85.52    8.03
   2 -11  -6   85.12    7.45
 -11  -6   2   85.68    8.88
  -6   2 -11   84.47    7.61
  -2  11  -6   91.97    8.74
   6   2  11   77.17    7.85
  11  -7   2   57.85    6.34
  -7  -2 -11   54.81    7.06
   7   2 -11   58.85    6.26
  11   7  -2   67.72    6.84
  -7   2  11   71.02    7.11
  -2  11   7   59.50    6.93
 -11   7   2   63.95    7.28
   7  -2  11   58.96    6.73
  -2 -11  -7   68.97    7.00
   2  11  -7   60.83    7.88
   2 -11   7   59.31    6.59
 -11  -7   2   61.45    7.64
  -2 -11   7   70.17    6.97
  -7   2 -11   70.36    7.09
  -7  -2  11   62.81    7.12
  11  -7  -2   62.58    6.59
  -2  11  -7   56.08    7.30
   7   2  11   53.19    6.70
   2 -11  -7   56.22    6.29
   7  -2 -11   74.10    7.70
  11   7   2   62.77    6.62
 -11   7  -2   65.66    7.80
  11  -8   2   26.96    5.11
  -2 -11  -8   26.90    5.23
  -8  -2 -11   33.86    6.55
 -11   8   2   22.77    5.24
   8  -2  11   20.93    4.81
   8   2 -11   23.30    4.97
  -8   2  11   29.49    6.08
  11   8  -2   34.83    5.13
   2 -11   8   25.63    5.26
   2  11  -8   35.00    7.63
  -2  11   8   27.98    5.66
 -11   8  -2   20.38    5.51
   8  -2 -11   30.01    6.27
  -2 -11   8   31.74    5.90
  -8  -2  11   33.81    6.59
  -8   2 -11   26.25    5.47
  -2  11  -8   33.75    6.90
   8   2  11   23.69    5.51
  11  -8  -2   35.98    6.29
 -11  -8   2   42.97    7.86
   2 -11  -8   27.96    5.30
   2  11   8   31.50    6.06
  11   8   2   27.44    5.33
   0  -3 -11   65.50    6.72
 -11   0  -3   63.90    6.57
  11   0  -3   64.55    5.74
  -3  11   0   62.14    5.95
  11   0  -3   64.46    5.62
   3 -11   0   73.81    6.38
   0   3  11   73.76    6.35
   0   3 -11   67.31    5.72
  -3 -11   0   63.27    6.73
   3  11   0   62.78    6.29
   0   3 -11   64.73    6.47
   0  -3 -11   63.23    5.73
 -11   0   3   64.94    7.66
   0  -3  11   68.75    6.06
  11   0   3   68.43    6.10
  11  -1   3   42.64    4.85
  -1   3  11   30.28    4.29
   3  11  -1   33.63    5.05
   1  -3  11   31.72    4.27
   1   3 -11   32.25    4.88
   1   3 -11   32.81    4.02
  -1  -3 -11   36.24    4.66
  -3  11   1   35.19    4.57
   3 -11   1   31.22    4.39
  11   1  -3   34.75    4.38
  -1  -3 -11   34.62    4.92
  -3 -11  -1   26.94    5.46
 -11  -1  -3   24.93    4.94
  11   1  -3   29.65    4.08
   3  11  -1   32.54    4.63
 -11   1   3   35.08    6.61
  -1  -3  11   48.56    9.38
   1   3  11   44.19    4.91
  11  -1  -3   31.23    4.28
  -1   3 -11   40.03    4.64
  -3 -11   1   43.61    5.63
   1  -3 -11   42.93    5.60
   3  11   1   33.52    4.83
 -11   1  -3   41.12    5.63
 -11  -1   3   30.58    6.03
  -3  11  -1   36.34    4.87
   3 -11  -1   37.52    4.88
  11  -1  -3   34.42    4.19
  11   1   3   40.53    4.69
  -1   3 -11   49.80    9.98
  11   2  -3  152.36    9.29
   3  11  -2  147.25    9.47
 -11   2   3  147.63   11.02
   2  -3  11  149.22    9.28
   2   3 -11  145.79   10.27
  11  -2   3  128.98    8.82
   3  11  -2  142.14   10.19
  -2  -3 -11  142.70    9.98
  -2  -3 -11  133.02    9.32
   3 -11   2  158.34    9.61
 -11  -2  -3  145.49    9.69
  -3  11   2  147.07    9.59
  -3 -11  -2  129.91   10.11
   2   3 -11  134.84    8.24
 -11   2  -3  167.35   11.24
  11  -2  -3  156.29    8.89
  11  -2  -3  152.43    9.34
 -11  -2   3  153.02   11.95
   2   3  11  132.30    9.61
  -3  11  -2  165.01   10.23
   3  11   2  143.69    9.97
  11   2   3  149.38    8.97
   3 -11  -2  154.29    9.76
  -3 -11   2  153.43   10.46
   2  -3 -11  156.22   10.56
  -2   3 -11  149.98    9.25
   3  -3  11   50.46    5.48
  -3  11   3   53.12    5.90
   3  11  -3   52.09    5.61
   3 -11   3   54.14    5.63
   3   3 -11   46.21    6.08
  -3 -11  -3   49.92    6.31
   3   3 -11   54.70    5.24
  -3  -3 -11   56.49    6.14
  11  -3   3   58.12    5.70
  -3   3  11   59.69    6.04
 -11  -3  -3   51.04    5.71
   3  11  -3   63.66    6.95
 -11   3   3   54.35    6.78
  11   3  -3   57.52    5.60
  -3 -11   3   56.53    6.28
  -3   3 -11   49.18    5.49
  11  -3  -3   55.76    5.24
  11   3   3   53.56    5.29
   3  -3 -11   63.42    6.77
 -11   3  -3   52.17    6.49
  11  -3  -3   51.03    5.61
   3 -11  -3   64.51    6.34
   3   3  11   54.68    6.35
   3  11   3   60.84    6.53
 -11  -3   3   54.06    7.40
  -3  11  -3   54.78    6.19
  -3 -11  -4  138.88   10.32
   3  11  -4  139.48   10.71
   3 -11   4  135.76    9.17
 -11   4   3  147.72   10.73
   4  -3  11  137.99    9.30
  -4  -3 -11  144.41   10.16
  -4   3  11  148.99    9.87
   4   3 -11  123.65    8.34
  -3  11   4  127.17    9.48
   3  11  -4  129.13    8.71
  11  -4   3  129.52    8.87
  11   4  -3  135.72    9.20
  -4  -3  11  138.10   10.27
   3  11   4  145.76   10.30
  -3  11  -4  132.86   10.09
  11  -4  -3  128.15    9.02
 -11   4  -3  139.20   10.67
   4   3  11  132.23   10.06
  -4   3 -11  133.40    9.27
 -11  -4   3  127.38   11.18
  -3 -11   4  138.34    9.82
   3 -11  -4  145.21    9.35
   4  -3 -11  141.35   10.04
  -5  -3 -11    9.17    3.49
   3  11  -5   15.18    5.15
   5  -3  11   12.72    3.64
  -3 -11  -5    7.92    3.40
  -3  11   5    7.47    3.08
   3 -11   5    6.68    2.76
   5   3 -11    5.75    2.52
   3  11  -5   13.14    3.30
 -11  -5  -3    6.97    4.83
  11  -5   3   11.98    3.24
  11   5  -3    9.70    3.21
 -11   5   3   10.88    3.66
  -5   3  11   11.74    3.28
 -11  -5   3    3.13    3.27
   5   3  11    5.31    2.82
  -5  -3  11    6.30    3.29
   5  -3 -11    3.12    2.59
  -5   3 -11   11.16    3.62
  11   5   3    3.80    2.41
  -3  11  -5    2.19    2.61
  11  -5  -3   13.04    3.82
   3  11   5    8.42    2.97
   3 -11  -5    8.38    3.25
  -3 -11   5    8.43    3.07
 -11   5  -3    1.14    2.29
  -3  11   6   51.89    6.29
  11  -6   3   44.73    5.40
   3  11  -6   39.54    7.43
   6   3 -11   41.18    5.10
   3 -11   6   37.46    5.23
  -3 -11  -6   40.00    5.56
  -6  -3 -11   51.30    6.46
  11   6  -3   42.96    5.51
 -11   6   3   41.21    6.02
  -6   3  11   48.49    5.69
 -11  -6  -3   47.21    6.30
   6  -3  11   38.36    5.26
 -11   6  -3   31.00    6.13
  11   6   3   32.61    4.78
 -11  -6   3   34.27    6.75
   6   3  11   21.99    4.90
  11  -6  -3   23.76    4.68
   3 -11  -6   42.19    5.50
  -3  11  -6   39.99    6.11
   3  11   6   42.63    5.95
   6  -3 -11   40.97    5.88
  -6  -3  11   28.49    6.04
  -6   3 -11   36.43    5.27
  -3 -11   6   35.70    5.26
  -3 -11  -7   11.12    3.86
   3 -11   7   11.24    3.84
   3  11  -7    4.84    3.93
  11   7  -3   10.27    3.53
   7  -3  11   10.26    3.57
  11  -7   3   17.35    4.26
  -7   3  11    9.11    3.36
 -11   7   3   13.48    4.54
  -3  11   7   13.28    4.39
   7   3 -11    8.03    2.90
 -11  -7  -3   16.60    4.64
  -7  -3 -11   16.06    5.03
  11  -7  -3   11.57    3.66
 -11   7  -3    4.27    3.11
  11   7   3   10.54    3.41
   3 -11  -7   10.96    3.66
  -7  -3  11    6.29    3.48
   7   3  11   12.24    3.89
 -11  -7   3   10.43    4.36
   7  -3 -11   12.09    4.28
  -3  11  -7    2.15    2.73
   3  11   7   11.11    3.79
  -3 -11   7    6.65    3.16
  -7   3 -11    2.97    2.54
   8  -3  11  135.62   10.47
   3  11  -8  188.54   14.56
 -11   8   3  173.48   11.89
  -3  11  -8  155.92   12.67
  -8  -3  11  198.10   13.18
 -11   8  -3  160.61   12.63
   8   3  11  165.66   12.06
 -11  -8   3  141.21   11.91
  -4  11   0  109.54    8.01
   4  11   0   94.14    7.91
  11   0  -4   83.76    6.77
  11   0   4  100.43    7.42
   0  -4 -11   86.44    7.75
   0  -4 -11   95.43    7.21
 -11   0  -4   93.71    7.87
 -11   0   4   89.55    8.94
   4 -11   0  104.81    7.55
  -4 -11   0   94.95    8.33
   0   4 -11   90.49    6.92
   0   4  11  101.88    7.74
  11   0  -4   92.44    7.10
   0   4 -11   95.27    8.04
  11  -1   4   13.14    3.34
   4  11  -1   24.78    7.21
  -4 -11  -1   12.53    3.99
  11   1  -4   17.82    3.68
  11   1  -4   14.42    4.54
  -1  -4 -11   12.41    3.45
   1   4 -11   13.57    4.16
   1   4 -11   12.61    3.04
  -1  -4 -11   16.11    4.07
  -4  11   1   24.28    4.54
   4 -11   1   18.63    3.97
   4  11  -1   14.71    3.62
 -11   1   4   14.16    4.75
 -11  -1  -4   11.20    3.36
  -1   4  11   11.38    3.26
   1   4  11   14.40    3.78
   1  -4 -11    6.59    3.03
  11  -1  -4   16.81    3.45
 -11   1  -4   14.32    3.89
 -11  -1   4   16.33    4.86
   4 -11  -1   13.06    3.46
   4  11   1   11.15    3.38
  -4  11  -1   18.21    4.36
  -1   4 -11   10.58    3.53
  11   1   4   15.69    3.70
  -1   4 -11   16.99    3.67
  11  -1  -4   17.12    3.79
  -4 -11   1   12.32    3.70
  11   2  -4    8.01    2.81
   4  11  -2    8.08    2.96
   2   4 -11    6.94    3.17
  -2  -4 -11    9.30    3.13
  -2  -4 -11    7.67    2.75
   2  -4  11    8.90    2.74
  11  -2   4   12.68    3.32
  -4 -11  -2    9.22    3.43
   4 -11   2   15.21    3.77
  -4  11   2   15.79    3.83
   4  11  -2    9.04    3.50
  -2   4  11   11.23    3.31
 -11   2   4   11.01    3.97
 -11  -2  -4   11.40    3.46
  11  -2  -4    6.35    2.47
  -2   4 -11    9.25    3.50
  -2   4 -11   11.75    3.24
   2  -4 -11    8.50    3.00
   2   4  11    5.30    2.39
  11  -2  -4    5.85    2.49
   4  11   2    8.50    3.06
  -4  11  -2    4.49    2.77
  11   2   4    5.25    2.37
 -11   2  -4    4.08    2.82
  -2  -4  11   10.43    2.99
 -11  -2   4    3.95    3.05
  -4 -11   2    7.78    3.36
   3   4 -11   43.71    6.28
 -11  -3  -4   46.64    5.62
   4  11  -3   37.10    6.73
 -11   3   4   46.34    6.27
   4 -11   3   48.03    5.33
  -3  -4 -11   37.95    5.18
  -4  11   3   46.78    5.66
   4  11  -3   37.75    5.00
  -4 -11  -3   45.51    6.13
  -3  -4 -11   42.85    5.55
   3  -4  11   45.34    5.06
  11  -3   4   41.71    5.09
  11   3  -4   41.51    5.09
  11   3   4   47.57    5.12
   4 -11  -3   48.05    5.28
  -3   4 -11   52.08    5.57
   4  11   3   51.97    6.22
   3  -4 -11   53.09    6.21
  11  -3  -4   39.62    5.10
  -4  11  -3   51.83    6.13
  11  -3  -4   50.04    5.14
  -4 -11   3   48.30    6.12
  -3   4 -11   48.73    5.66
 -11   3  -4   47.47    6.18
   4  11  -4   25.02    4.68
  11   4  -4   15.38    3.81
  -4 -11  -4   24.83    5.42
 -11  -4  -4   17.11    4.23
   4  11  -4   13.83    4.68
  -4   4  11   21.31    4.64
  -4  -4 -11   25.49    4.95
   4   4 -11   17.81    3.86
   4  -4  11   22.24    4.13
   4   4 -11   19.93    5.42
  -4  11   4   17.52    4.29
  11  -4   4   17.57    3.76
   4 -11   4   20.43    4.19
 -11   4   4   20.05    4.68
   4   4  11   14.92    4.22
   4  -4 -11   17.99    4.46
  -4  11  -4   15.11    4.54
 -11  -4   4   15.94    5.13
  -4   4 -11   17.28    4.11
  11  -4  -4   11.22    3.10
   4  11   4   15.49    4.01
  11  -4  -4   13.74    3.79
 -11   4  -4   18.68    4.85
  -4 -11   4   13.61    4.11
  11   4   4   18.76    3.90
   4 -11  -4   14.96    3.74
   5   4 -11   24.54    4.39
 -11   5   4   30.01    5.94
   4  11  -5   26.56    6.40
  -4 -11  -5   25.63    5.44
  11  -5   4   34.83    4.74
  11   5  -4   30.27    4.69
   4 -11   5   21.09    4.45
   5  -4  11   32.32    4.56
  -5   4  11   26.63    5.13
 -11  -5  -4   28.42    5.49
   4  11  -5   23.43    4.50
  -4  11   5   32.49    5.94
  -5  -4 -11   34.37    6.32
  -4 -11   5   23.45    4.99
 -11  -5   4   15.53    5.13
   4  11   5   25.90    5.27
   5  -4 -11   18.78    4.68
 -11   5  -4   18.60    4.98
  -5   4 -11   25.29    5.04
   4 -11  -5   23.74    4.87
   5   4  11   26.68    5.62
  -5  -4  11   29.26    6.24
  11  -5  -4   15.74    3.94
  -4  11  -5   21.59    5.10
  -6   4  11   50.32    6.24
   6   4 -11   48.94    5.50
 -11   6   4   47.74    6.35
  11   6  -4   44.89    5.60
  -4  11   6   42.23    5.97
   4  11  -6   56.73    7.82
  -4 -11  -6   49.87    6.37
  11  -6   4   50.69    5.82
  -6  -4 -11   49.39    6.67
   6  -4  11   56.17    6.04
 -11  -6  -4   38.29    6.00
   4 -11   6   51.21    6.01
   4  11  -6   46.11    5.44
  -4 -11   6   40.73    5.73
  -4  11  -6   45.63    6.57
 -11   6  -4   41.55    6.40
   6  -4 -11   41.22    6.12
 -11  -6   4   61.62    8.08
  11  -6  -4   53.11    6.02
  -6  -4  11   55.66    7.03
   4  11   6   51.93    6.47
  -6   4 -11   53.60    6.04
   6   4  11   51.91    6.57
   4 -11  -6   58.69    6.53
   4  11  -7    4.51    3.59
   4 -11   7    4.38    2.78
  -4 -11  -7   11.69    3.99
   7  -4  11    7.87    3.04
  -7   4  11    4.18    2.69
  11   7  -4   11.48    3.63
  -4  11   7    6.83    3.21
  11  -7   4    9.40    3.47
 -11   7   4    8.38    3.63
  -7  -4 -11    7.76    3.82
   7   4 -11    5.68    2.66
 -11  -7  -4   11.14    4.20
  11  -7  -4    4.28    2.66
   7   4  11    8.12    3.73
  11   7   4    9.27    3.56
  -4 -11   7    9.15    3.48
   4  11   7    5.74    2.94
 -11  -7   4    3.78    3.56
  -7  -4  11    3.05    2.93
   7  -4 -11   10.54    4.01
 -11   7  -4   12.48    4.91
  -4  11  -7    1.44    2.56
  -7   4 -11    2.73    2.35
   4 -11  -7    6.84    3.15
  11   0  -5    3.94    2.10
 -11   0  -5    5.26    2.68
   0  -5 -11   10.77    3.46
   0   5  11    8.53    3.08
   5 -11   0    8.32    3.01
  -5 -11   0    5.94    3.12
 -11   0   5    7.25    3.45
  -5  11   0    6.03    2.66
   0  -5 -11    9.40    3.08
   0  -5  11    8.11    2.78
   0   5 -11    4.97    3.19
  11   0   5   10.44    3.11
   5  11   0   11.67    3.67
  11   0  -5    7.84    2.87
  -1  -5 -11  157.86   10.48
  11  -1   5  148.73    9.55
 -11  -1  -5  137.51    9.07
   1   5 -11  145.41   10.78
  -1   5  11  149.95   10.00
 -11   1   5  149.33   11.39
   5  11  -1  151.56   10.15
  -5  11   1  149.72    9.56
   5 -11   1  152.99    9.40
  -1  -5 -11  140.25    9.49
  -5 -11  -1  149.08   10.91
  11   1  -5  151.69    9.52
  -1   5 -11  146.19    9.30
  -1  -5  11  145.58    9.24
 -11   1  -5  126.54    9.44
  11  -1  -5  144.55    9.30
  -5  11  -1  145.33    9.99
  11   1   5  128.16    8.92
  -1   5 -11  152.97   10.66
  -5 -11   1  145.94   10.72
   5  11   1  143.12   10.18
   1  -5 -11  142.44   10.16
  11  -1  -5  142.26    9.27
 -11  -1   5  135.74   11.32
   1   5  11  145.07    9.69
   5  11  -2  125.65    9.43
   5  11  -2  140.71   10.80
   2   5 -11  126.98   10.36
  -5 -11  -2  136.72   10.52
  -2  -5 -11  132.49    9.42
   5 -11   2  130.22    8.73
  -2   5  11  120.86    9.27
  11  -2   5  144.71    9.45
  11   2  -5  134.07    9.21
  -2  -5 -11  124.20    9.43
 -11   2   5  127.50   10.52
 -11  -2  -5  121.65    9.04
  11  -2  -5  160.91    9.65
  11   2   5  151.77    9.56
  -5 -11   2  137.91   10.34
   2  -5 -11  144.93   10.15
   5 -11  -2  143.14    9.13
  -2   5 -11  133.04   10.03
  -2   5 -11  138.57    9.11
   5  11   2  128.85    9.68
   2   5  11  144.64    9.55
  11  -2  -5  151.71    9.55
  -2  -5  11  135.70    8.72
 -11  -2   5  130.74   11.34
 -11   2  -5  142.24   10.04
  -5  11  -2  132.92    9.85
  -3  -5 -11   20.53    4.40
  11  -3   5   17.29    4.04
  11   3  -5   16.46    3.87
  -3  -5 -11   17.58    4.61
 -11   3   5   18.29    4.61
  -5 -11  -3   16.23    4.58
  -5  11   3   26.10    5.14
 -11  -3  -5   22.99    4.91
   5  11  -3   18.00    4.21
   5 -11   3   22.30    4.37
   5  11  -3   20.69    5.36
   3   5 -11   22.23    5.43
  -3   5  11   24.64    5.21
  11  -3  -5   19.91    4.36
  11  -3  -5   27.55    5.23
   3   5  11   12.17    3.36
 -11  -3   5    9.63    3.68
   3  -5 -11   17.36    4.28
  -5 -11   3   18.88    4.58
  -5  11  -3   19.65    4.94
  -3   5 -11   18.23    4.44
  -3   5 -11   11.96    3.46
 -11   3  -5   21.44    4.71
   5  11   3   20.08    4.55
   5 -11  -3   18.27    4.25
  11   3   5   17.56    3.98
  11   4  -5   14.97    3.80
   5 -11   4   14.45    3.75
 -11  -4  -5   13.44    4.28
   5  11  -4    7.78    3.00
 -11   4   5    9.59    3.50
  -5 -11  -4   11.11    3.77
   4   5 -11   11.59    4.22
  -4   5  11    9.08    3.20
  -5  11   4   15.52    4.31
   4  -5  11    7.78    2.87
  -4  -5 -11   12.83    4.06
  11  -4   5   18.90    4.43
   4   5 -11    9.92    2.93
   5  11  -4   14.26    4.82
  -5 -11   4   10.81    3.91
   5  11   4   10.54    3.76
  -4   5 -11    3.66    2.87
   4   5  11   11.70    4.08
   5 -11  -4   13.90    3.82
  -4   5 -11    9.60    3.12
  11  -4  -5    8.29    3.38
  -5  11  -4    6.15    2.91
  11   4   5   14.60    3.64
   4  -5 -11   11.78    3.79
  11  -4  -5    8.23    2.92
 -11  -4   5    5.71    3.80
 -11   4  -5   13.56    4.36
 -11   5   5  149.24   10.86
   5  11  -5  144.23   11.99
  -5  -5 -11  151.71   11.14
   5  -5  11  153.09    9.63
  -5 -11  -5  145.65   10.71
  11  -5   5  139.02    9.56
  11   5  -5  137.12    9.80
   5 -11   5  144.59    9.93
   5  11  -5  150.66   10.04
 -11   5   5  140.06    9.56
   5   5 -11  137.47    9.19
  -5  11   5  159.86   10.99
 -11  -5  -5  152.71   11.37
  -5 -11   5  156.63   10.96
 -11  -5   5  156.45   12.76
 -11   5  -5  140.02   11.03
  -5  -5  11  147.40   11.77
   5  -5 -11  157.23   11.19
  11  -5  -5  150.79   10.55
   5   5  11  162.16   11.29
   5  11   5  138.98   10.64
  -5  11  -5  153.31   11.32
  -5   5 -11  156.06   10.79
  -5   5 -11  154.93   10.28
   6  -5  11   40.86    5.17
   5 -11   6   37.38    5.25
  -5 -11  -6   40.14    5.79
 -11   6   5   42.63    6.05
  11   6  -5   41.31    5.56
   5  11  -6   40.56    7.86
  -6   5  11   39.34    5.55
 -11  -6  -5   26.64    5.79
  11  -6   5   40.51    5.23
   6   5 -11   36.55    5.10
  -5  11   6   40.05    6.86
   5  11  -6   36.89    5.07
  -6  -5 -11   19.96    5.15
 -11   6  -5   28.66    5.95
   5  11   6   25.52    5.32
  -6  -5  11   28.94    6.51
  -5 -11   6   37.13    5.60
  -5  11  -6   39.30    7.31
   6   5  11   32.55    5.94
   5 -11  -6   39.89    5.75
  -6   5 -11   38.76    5.34
  11  -6  -5   40.75    7.02
   6  -5 -11   22.91    5.17
 -11  -6   5   32.73    6.84
  11   0  -6    0.81    1.57
  11   0  -6    0.10    2.26
   6  11   0    1.60    2.10
  -6 -11   0    4.40    2.72
 -11   0  -6    0.98    1.83
 -11   0   6    1.16    2.24
   0   6  11    1.78    2.17
  -6  11   0    3.77    2.58
   0  -6 -11   -1.23    1.43
   0  -6  11    1.83    1.90
   0   6 -11    4.01    3.04
  11   0   6    1.63    2.00
 -11   1   6    7.50    3.44
   1  -6  11   13.25    3.53
  -1  -6 -11   14.24    3.71
   1   6 -11   17.36    4.76
  11  -1   6   18.92    4.21
  11   1  -6   24.29    4.77
  -6  11   1   16.23    4.18
  -1   6  11   18.32    4.28
  -1  -6 -11   23.73    4.65
 -11  -1  -6   18.85    4.27
  -6 -11  -1   19.15    5.00
   6  11  -1   23.99    4.97
  -1   6 -11   15.15    4.42
   6  11   1   25.75    5.72
  11   1   6   17.00    3.98
  -6 -11   1   12.39    4.16
  -6  11  -1   14.50    4.20
   1   6  11   17.56    4.22
  -1  -6  11   13.08    3.40
   1  -6 -11   13.08    3.80
   6 -11  -1   14.90    3.72
 -11  -1   6   17.73    5.18
 -11   1  -6   10.86    3.45
 -11   1  -6   22.50    4.34
  11  -1  -6   17.88    3.97
  11  -1  -6   19.69    4.29
 -11   2   6   14.89    4.30
 -11  -2  -6   14.03    3.93
  -2  -6 -11   20.50    4.44
   2   6 -11   12.81    4.67
  11   2  -6   11.77    3.48
  11  -2   6   11.32    3.48
  -6 -11  -2   18.99    5.11
   2  -6  11   11.30    3.45
   6  11  -2   22.22    4.83
   6 -11   2   16.42    3.81
  -2  -6 -11   20.67    4.65
  -2   6  11   17.03    4.42
  11  -2  -6   17.40    4.14
  -6 -11   2   24.93    5.54
   2   6  11   17.58    4.22
  -6  11  -2   15.98    4.23
  11  -2  -6   15.21    3.84
   2  -6 -11   17.62    4.29
  -2   6 -11   27.10    5.71
   6  11   2   24.43    5.09
 -11   2  -6   19.34    4.75
  11   2   6   18.79    4.13
  -6 -11   2   17.34    4.52
   6 -11  -2    8.85    2.97
  -2  -6  11   16.56    3.97
  11   3  -6   15.00    4.03
 -11   3   6   18.96    4.87
  -6 -11  -3   17.50    4.49
 -11  -3  -6   10.79    4.00
   3   6 -11   15.25    5.24
  -3   6  11   21.14    4.78
  -3  -6 -11   13.51    3.84
  11  -3   6   20.61    4.65
   6  11  -3   14.78    4.96
   6  11  -3   17.33    4.30
   6 -11   3   19.78    4.18
  -3  -6 -11    9.64    3.48
   6 -11  -3   33.15    4.95
 -11  -3   6   32.80    7.01
   3   6  11   17.06    4.17
   6  11   3   29.46    5.60
  -6  11  -3   18.11    4.85
  -6 -11   3   17.28    4.57
  -3   6 -11   24.44    4.96
  11  -3  -6   16.76    4.04
  11  -3  -6   24.67    4.64
  -3   6 -11   23.08    4.98
 -11   3  -6   29.70    5.59
  11   3   6   17.44    4.15
   3  -6 -11   22.18    4.87
 -11  -4  -6    2.22    2.78
   6  11  -4    5.00    3.91
  -4   6  11    3.90    2.95
  -4  -6 -11    4.02    2.82
 -11   4   6    1.98    2.28
   6  11  -4    3.37    2.49
  11  -4   6    4.21    2.70
  -6 -11  -4    0.08    2.26
   4   6 -11    4.35    3.30
  -6  11   4    1.31    2.24
  11   4  -6    1.37    2.05
   6 -11   4    1.01    1.74
   4   6  11    1.33    2.51
   4  -6 -11    4.33    2.93
   6  11   4    2.18    2.39
 -11  -4   6   -1.91    2.17
  -4   6 -11    4.05    2.98
  -6  11  -4    2.08    2.79
   6 -11  -4    3.50    2.78
  -4   6 -11    4.23    2.39
  -6 -11   4   -0.80    2.12
 -11   4  -6    1.03    2.18
  11  -4  -6    4.84    2.86
  11   4   6    1.44    2.17
  11  -4  -6    2.94    2.31
   6  11  -5   65.31    6.73
   6 -11   5   62.08    6.54
 -11   5   6   72.53    7.44
  11  -5   6   59.59    6.44
  -5   6  11   64.84    6.95
 -11   5   6   67.72    6.81
  -6  11   5   66.75    7.13
   6  11  -5   55.33    7.93
   5   6 -11   58.65    6.04
   5   6 -11   61.36    8.16
  -5  -6 -11   70.28    7.62
  -6 -11  -5   67.38    7.44
 -11  -5  -6   58.58    7.46
  11   5  -6   74.14    7.21
   5   6  11   45.57    6.15
 -11  -5   6   55.08    8.07
   5  -6 -11   64.22    7.26
  11  -5  -6   58.95    6.92
   6  11   5   51.81    6.67
 -11   5  -6   49.21    6.86
  -5  -6  11   51.06    7.48
  -5   6 -11   51.30    6.03
  -5   6 -11   53.70    6.75
  -6  11  -5   45.10    6.65
   6 -11  -5   38.40    5.81
  11   6  -6   35.58    5.39
  -6   6  11   36.89    5.74
   6 -11   6   34.82    5.12
  -6  11   6   42.89    6.08
  11  -6   6   38.49    5.30
  -6  -6 -11   27.58    5.99
 -11   6   6   37.23    5.76
 -11   6   6   35.32    5.36
 -11  -6  -6   25.23    6.15
   6   6 -11   35.43    4.97
  -6 -11  -6   24.99    5.55
   6  11  -6   28.58    7.14
   6  11  -6   40.89    5.48
  -6  11  -6   33.83    6.88
   6   6  11   26.28    5.45
   6 -11  -6   30.00    5.74
 -11   6  -6   28.02    6.35
  -6  -6  11   28.24    6.67
  -6   6 -11   32.83    6.60
  -6   6 -11   17.45    4.17
  -6 -11   6   40.47    5.96
   6  11   6   38.42    6.87
   6  -6 -11   28.29    5.77
  11  -6  -6   39.07    5.88
 -11  -6   6   36.91    8.00
 -11   0   7   21.69    5.58
   0  -7  11   19.99    4.28
  11   0  -7   20.16    4.50
 -11   0  -7   28.07    5.29
   7 -11   0   23.74    4.34
   0   7  11   21.88    5.01
  -7 -11   0   19.65    5.08
  -7  11   0   24.12    5.12
   0  -7 -11   19.39    4.64
   7  11   0   17.41    4.57
   0   7 -11   19.10    5.36
  11   0   7   25.48    5.02
  -1  -7 -11   31.51    5.65
  11   1  -7   36.55    5.08
  -1   7  11   34.80    6.18
  11  -1   7   35.13    5.06
 -11   1   7   29.22    6.16
  -7 -11  -1   40.39    6.06
   1   7 -11   32.37    6.77
  -7  11   1   36.04    5.12
   1  -7  11   38.49    5.16
   7  11  -1   28.10    5.52
  -1  -7 -11   36.40    5.19
 -11  -1  -7   39.07    5.53
   7  11   1   26.68    5.44
   1   7  11   25.90    5.18
   7 -11  -1   23.04    4.50
  -7 -11   1   32.00    6.48
 -11  -1   7   30.77    6.56
 -11   1  -7   30.83    5.46
  -7  11  -1   29.35    5.75
  11   1   7   22.55    4.62
   1  -7 -11   29.43    5.85
  11  -1  -7   33.30    4.83
  -1   7 -11   28.66    6.27
  -1  -7  11   25.05    4.77
  11  -1  -7   32.14    5.92
   2  -7  11   80.72    7.52
 -11  -2  -7   95.31    8.68
  -7 -11  -2   92.68    8.82
   2   7 -11   92.62    9.65
  11   2  -7   88.73    7.84
  11  -2   7  102.85    8.23
 -11   2   7   94.91    8.82
  -2  -7 -11   93.74    8.10
   7  11  -2   86.51    8.12
  -2  -7 -11   91.30    7.94
  -2   7  11   80.81    7.97
  11  -2  -7   93.31    7.96
 -11   2  -7   95.93    8.25
 -11   2  -7   98.29    7.55
  11   2   7   90.99    8.03
  -7  11  -2   94.87    8.76
  11  -2  -7   89.89    8.19
   2  -7 -11  100.19    8.66
   2   7  11   94.79    8.32
  -2  -7  11  103.84    8.08
  -7 -11   2  105.00    9.39
  -2   7 -11  104.30    9.53
   3  -7  11   22.59    4.95
  -3  -7 -11   11.21    3.96
   3   7 -11    9.10    3.99
   7  11  -3   13.07    3.88
 -11  -3  -7   19.10    5.07
  -3  -7 -11   13.24    3.95
  11  -3   7   17.18    4.27
  -3   7  11   17.04    4.53
  11   3  -7   20.07    4.54
  -7 -11  -3   15.96    4.65
 -11   3   7   19.72    4.95
 -11   3  -7   25.59    5.56
  -3  -7  11   21.81    4.43
  -7 -11   3   21.91    5.34
  -7  11  -3   24.31    5.61
  -3   7 -11   16.28    4.70
   7 -11  -3   21.05    4.61
   3   7  11   18.01    4.42
  -7 -11   3   24.49    5.52
  11   3   7   25.07    4.91
 -11   3  -7   20.17    4.23
   7  11   3   18.01    4.88
   3  -7 -11   24.32    5.22
 -11  -3   7   24.76    6.46
  11  -3  -7   32.34    6.16
  -4  -7 -11   84.62    8.11
  11  -4   7   79.07    7.34
   7  11  -4   67.63    7.07
 -11   4   7   73.45    7.36
 -11   4   7   73.45    7.71
 -11  -4  -7   91.33    9.05
   4   7 -11   64.36    8.78
   7 -11   4   72.88    6.80
  11   4  -7   75.20    7.47
  -4   7  11   87.21    8.33
   4  -7  11   76.33    7.46
  -7 -11  -4   63.69    7.40
  11  -4  -7   78.42    7.97
 -11  -4   7   71.51    9.05
  11   4   7   76.87    7.48
 -11   4  -7   66.04    7.47
  -7 -11   4   76.36    8.48
   4  -7 -11   67.65    7.50
   4   7  11   68.27    7.42
   4   7  11   66.37    7.12
  -7 -11   4   78.27    8.02
  -4   7 -11   68.49    7.86
   7 -11  -4   59.53    6.91
  -7  11  -4   61.43    7.66
   8  11   0   78.61    7.99
   0   8  11   84.87    8.20
  11   0  -8   91.43    7.95
 -11   0   8   62.28    7.80
  -8  11   0   82.20    7.91
  11   0   8   68.16    7.31
 -11   0  -8   82.09    7.79
   0  -8  11   83.67    7.70
   8 -11   0   73.47    6.88
   0   8 -11   80.97    9.22
  11   1  -8    6.15    2.92
  -1  -8 -11    6.01    3.11
  -8  11   1    8.39    3.74
  11  -1   8    7.09    3.33
  -1   8  11    4.19    2.91
 -11  -1  -8    3.91    2.84
   8  11  -1   10.82    3.86
   8 -11   1    7.14    2.81
  -1  -8 -11    6.35    2.92
 -11   1   8    7.62    3.74
  -8 -11  -1   10.28    4.07
   1   8 -11    6.80    4.01
   1  -8  11    7.38    3.07
  11  -1  -8    4.12    2.56
   8 -11  -1    7.23    2.95
  11   1   8    5.02    2.91
  -8 -11   1    7.24    3.47
  -8  11  -1   10.29    4.14
   1  -8 -11    3.39    2.60
   1   8  11    6.99    3.17
   8  11   1    5.72    3.37
  -1  -8  11    6.19    2.97
 -11  -1   8    4.11    3.40
 -11   1  -8    4.23    2.67
  -1   8 -11    4.57    3.38
 -11   2   8    1.93    2.64
  -8 -11  -2    9.83    4.05
   2  -8  11    9.85    3.72
  11  -2   8    8.27    3.56
 -11  -2  -8    4.96    3.24
   2   8 -11    8.17    4.46
  -2  -8 -11    9.28    3.41
  11   2  -8    5.38    2.78
   8  11  -2    8.34    3.55
  -2  -8 -11    1.21    2.19
  -2   8  11   12.62    4.34
   8  11   2    8.38    3.62
  11  -2  -8    6.76    3.51
   2  -8 -11   10.72    3.68
 -11   2  -8    8.08    3.31
  11  -2  -8   11.94    4.01
 -11  -2   8    6.19    3.35
  11   2   8    5.93    3.11
  -2  -8  11    5.90    2.89
   2   8  11    7.52    3.60
  -8 -11   2   10.17    3.79
  -8  11  -2    9.13    4.06
   8 -11  -2   11.50    3.70
  -2   8 -11   11.80    4.98
   3   8 -11    8.76    4.45
 -11   3   8   16.19    4.61
  -3   8 -11   15.48    5.09
 -11  -3   8   18.70    5.88
  -8  11  -3   14.51    4.43
  -8 -11   3   15.89    4.53
 -12   0   0   31.62    6.83
   0 -12   0   45.85    5.80
   0   0 -12   40.82    5.54
   0   0 -12   37.14    4.55
   0  12   0   37.00    5.09
  12   0   0   37.93    4.62
   1   0 -12   17.37    4.61
   1   0  12   28.14    5.68
  12  -1   0   19.25    4.08
  12   1   0   22.73    4.32
   0  12  -1   16.72    3.89
   0  12   1   20.80    4.71
 -12  -1   0   21.46    5.27
 -12   1   0   20.31    5.46
  -1   0 -12   17.06    3.63
   0 -12  -1   12.94    3.87
   0 -12   1   17.40    4.35
   0  12  -1   15.72    4.09
   2   0 -12   16.57    4.44
   2   0  12   14.52    4.17
   0 -12   2   25.45    5.09
   0  12  -2   21.85    4.79
   0  12  -2   24.63    4.63
   0  12   2   15.73    4.18
  12   2   0   26.04    3.89
  -2   0  12   19.82    3.88
 -12  -2   0   12.44    4.20
 -12   2   0   24.35    5.95
  -2   0 -12   14.63    3.50
  12  -2   0   25.24    4.67
   0 -12  -2   20.29    4.83
  -3   0  12   25.98    4.00
   3   0  12   17.35    4.36
  12  -3   0   19.90    4.17
  12   3   0   26.49    3.98
   0 -12   3   21.65    4.58
   0  12  -3   19.53    4.83
   3   0 -12   30.70    6.02
  -3   0 -12   19.44    4.27
   0 -12  -3   20.17    4.89
 -12  -3   0   19.66    5.23
 -12   3   0   30.59    6.84
   0  12   3   20.50    4.54
   0  12   4  110.42    8.99
   4   0 -12  104.62    9.10
   4   0  12   97.13    8.62
   0 -12   4   99.76    8.34
 -12  -4   0   98.86    9.18
   0  12  -4  104.35    9.21
  -4   0 -12   82.20    7.70
  -4   0  12   99.90    7.88
  12  -4   0   90.28    7.65
  12   4   0   99.11    7.66
   0 -12  -4   94.13    8.49
 -12   4   0   84.40    8.89
   5   0 -12   -0.04    1.58
  12  -5   0    0.91    1.75
  -5   0 -12    3.61    2.79
   0 -12  -5    1.41    2.42
   5   0  12   -0.31    1.89
   0  12   5    1.26    2.31
 -12  -5   0   -0.96    2.09
 -12   5   0    1.32    2.80
   0  12  -5    0.00    2.37
  12   5   0   -0.04    1.61
   0 -12   5   -0.40    1.36
   5   0 -12    0.08    2.26
   6   0  12   62.73    7.41
   0 -12  -6   74.75    7.37
   0 -12   6   59.74    6.75
   0  12  -6   63.12    8.09
  12  -6   0   65.22    6.75
   6   0 -12   61.81    6.49
  -6   0 -12   69.98    7.52
   0  12   6   68.63    7.49
 -12  -6   0   54.37    6.96
 -12   6   0   59.51    7.68
  12   6   0   57.17    6.23
 -12   7   0   34.64    6.71
   0 -12   7   32.92    6.15
   0  12   7   38.73    5.99
  12  -7   0   24.83    5.23
  12   7   0   29.24    5.40
   0  12  -7   37.02    7.64
   7   0 -12   30.15    5.71
  -7   0 -12   43.87    6.36
   0 -12  -7   36.08    5.53
   7   0  12   35.20    6.60
  12   0  -1   84.20    6.77
   0  -1 -12   71.05    7.30
   0  -1 -12   77.27    6.37
   0   1 -12   63.41    5.97
 -12   0  -1   78.77    8.13
 -12   0   1   65.43    7.94
   0   1 -12   77.08    7.38
  -1  12   0   82.68    7.08
   1 -12   0   59.02    6.71
  -1 -12   0   70.69    7.29
   1  12   0   77.69    7.06
   0  -1  12   79.24    7.52
  12   0   1   75.86    6.43
 -12  -1  -1    2.20    2.88
  -1   1  12    2.19    2.03
  12   1  -1    5.60    2.36
  -1 -12  -1    1.18    1.89
 -12   1   1    1.86    2.65
   1 -12   1    5.12    2.71
   1  -1  12    3.26    2.39
   1   1 -12    3.36    2.04
   1  12  -1    1.00    1.93
  12   1  -1    2.75    1.94
  12  -1   1    1.86    1.98
  -1  12   1    5.36    2.61
   1   1 -12    5.32    3.03
  -1  -1 -12    0.24    2.06
  -1  -1 -12    1.56    1.79
  -1 -12   1    0.51    2.31
  12  -1  -1    1.91    2.01
 -12  -1   1    7.14    3.96
   1 -12  -1    1.19    2.41
   1  -1 -12    3.22    2.74
 -12   1  -1    3.81    3.02
  12   1   1    1.06    1.63
  -1  12  -1    2.81    2.65
  -1  12  -1    2.57    2.05
   1  12   1    2.96    2.24
  -1   1 -12    2.48    1.90
  -1  12   2   55.07    6.22
  12  -2   1   55.75    5.84
  -2  -1 -12   59.67    6.06
   1 -12   2   48.04    5.82
 -12  -2  -1   53.58    6.80
   2   1 -12   61.56    6.72
  -1 -12  -2   59.07    6.87
  -2   1  12   53.64    5.67
  12   2  -1   51.57    5.28
   2  -1  12   56.92    6.50
   1  12  -2   57.71    5.89
 -12   2   1   51.95    7.05
   1  12  -2   49.82    6.23
 -12  -2   1   61.85    7.77
 -12   2  -1   53.30    7.11
  12  -2  -1   51.82    5.53
   1  12   2   47.89    6.01
   2   1  12   67.05    7.29
  -1 -12   2   45.67    5.98
  -1  12  -2   56.92    6.37
  12   2   1   51.07    5.19
  -2   1 -12   53.10    5.71
   2  -1 -12   69.89    7.13
  -2  -1  12   57.94    5.54
   1 -12  -2   54.50    6.40
   3   1 -12    9.32    3.45
  12   3  -1   13.69    3.57
  -3  -1 -12   12.92    3.86
 -12   3   1   14.90    4.72
   1  12  -3    9.25    3.64
   1  12  -3   15.85    4.19
 -12  -3  -1   11.42    4.13
  -1  12   3   12.67    3.78
   3  -1  12   12.14    3.71
   1 -12   3   11.87    3.58
  12  -3   1   14.09    3.58
  -3   1  12   11.00    3.19
  -1 -12  -3   19.50    4.76
  -1 -12   3    7.41    3.08
  12  -3  -1   10.52    3.33
  -3  -1  12    9.43    3.01
   1 -12  -3    6.12    2.99
   3   1  12    7.35    3.69
 -12  -3   1    9.66    3.88
  -1  12  -3   18.31    4.92
   1  12   3    7.58    3.20
   3  -1 -12    6.51    3.28
 -12   3  -1   17.49    5.59
  -3   1 -12    9.20    2.95
 -12   4   1  103.44    9.87
  -1 -12  -4  100.38    8.96
  12   4  -1  116.01    8.35
  12  -4   1  105.29    8.25
   1 -12   4  100.32    8.42
   1  12  -4  121.44   10.10
  -4   1  12  101.12    8.14
  -4  -1 -12  109.19    8.81
  -1  12   4  107.72    9.01
 -12  -4  -1  118.88    9.66
   4   1 -12  112.57    8.07
   4  -1  12  104.95    8.96
  -4   1 -12  112.84    8.77
 -12   4  -1  119.82   10.49
   4  -1 -12  111.93    9.39
  12   4   1  106.81    7.95
  12  -4  -1   98.49    8.17
 -12  -4   1  110.14    9.98
   1  12   4  104.38    8.99
  -1 -12   4  104.34    8.70
  -1  12  -4  111.61    9.54
   4   1  12  104.60    9.25
   1 -12  -4  107.81    8.89
   1  12  -5   74.05    8.25
  -5   1  12   50.00    5.87
 -12  -5  -1   56.48    6.80
 -12   5   1   59.36    7.36
  12  -5   1   44.25    5.67
  12   5  -1   48.81    5.75
   5   1 -12   52.85    5.75
   5  -1  12   51.10    6.56
  -1 -12  -5   58.50    6.74
  -5  -1 -12   48.86    6.26
   1 -12   5   56.53    6.39
  -1  12   5   48.85    6.32
 -12  -5   1   52.13    7.01
  -1 -12   5   45.56    5.92
   5  -1 -12   46.84    6.30
  -1  12  -5   45.93    6.64
 -12   5  -1   48.23    6.97
   1 -12  -5   51.37    6.24
  -5   1 -12   61.18    6.70
  12   5   1   50.79    5.59
   1  12   5   44.47    6.13
   5   1  12   42.98    6.30
  12  -5  -1   42.54    5.46
  -1  12   6    0.75    2.33
   1  12  -6    1.47    2.85
   1 -12   6    0.59    2.11
  -6  -1 -12    1.02    1.94
 -12   6   1    2.08    3.04
  -1 -12  -6    0.21    2.27
  12   6  -1   -0.10    1.95
  -6   1  12   -0.45    1.51
  12  -6   1    0.30    2.02
   6  -1  12   -0.29    1.57
   6   1 -12    0.55    1.85
  -1 -12   6    0.55    2.21
  -6   1 -12   -0.85    1.75
   1  12   6    0.12    2.03
 -12  -6   1    2.36    2.81
   1 -12  -6    2.94    3.23
  12   6   1    0.76    2.00
   6  -1 -12    2.68    2.76
  12  -6  -1   -0.02    1.63
  -1  12  -6    2.48    2.78
 -12   6  -1   -0.65    2.32
   6   1  12   -1.26    1.90
   1  12  -7    3.51    3.36
   7  -1  12   11.13    3.85
 -12   7   1    6.67    3.85
 -12   7  -1   10.16    4.55
   7   1  12   12.32    4.27
 -12  -7   1    9.79    4.12
  -1  12  -7    5.45    3.47
   0   2 -12   11.23    3.10
   0   2  12   22.65    4.43
   2  12   0   18.00    4.20
 -12   0  -2   16.96    4.81
  12   0   2   14.96    3.53
   2 -12   0   16.83    4.24
  -2  12   0   16.97    5.14
   0  -2 -12   16.29    4.43
   0  -2 -12   17.09    3.81
   0  -2  12   17.48    4.36
  -2 -12   0   25.18    5.46
  12   0  -2   21.00    3.92
  12   0  -2   24.43    4.63
 -12   0   2   26.07    6.25
 -12  -1  -2   42.77    5.91
 -12   1   2   23.94    5.80
  12   1  -2   45.79    5.00
  -1  -2 -12   36.67    4.75
   1   2 -12   32.18    5.70
   1   2 -12   37.11    4.36
  12  -1   2   33.97    4.59
  -1   2  12   32.16    4.55
  -2 -12  -1   52.78    6.53
  12   1  -2   32.79    4.47
  -1  -2 -12   37.19    5.49
   1  -2  12   34.54    4.95
   2 -12   1   41.37    5.32
   2  12  -1   30.34    4.69
  -2  12   1   35.61    5.02
   2 -12  -1   36.85    5.24
 -12   1  -2   43.77    6.09
  -2  12  -1   27.27    5.08
   2  12   1   38.93    5.28
 -12  -1   2   31.46    7.26
  -2 -12   1   31.95    5.85
   1  -2 -12   20.24    4.65
  12  -1  -2   37.15    4.77
  -1  -2  12   32.76    5.67
  -1   2 -12   39.24    4.77
  12   1   2   32.80    4.45
  -2  -2 -12   99.23    8.54
  12   2  -2   76.24    6.65
   2  12  -2   80.82    7.14
  -2  12   2   76.31    7.21
   2 -12   2   90.01    7.59
  12  -2   2   82.97    7.07
  -2  -2 -12   79.16    7.14
 -12  -2  -2   78.66    7.80
  -2   2  12   77.41    7.00
   2  12  -2   75.08    7.55
 -12   2   2   81.55    8.80
  -2 -12  -2   77.26    7.91
   2  -2  12   81.07    7.42
  -2  12  -2   87.54    7.80
   2  12   2   99.59    8.36
 -12  -2   2   72.38    8.64
  -2   2 -12   80.96    7.09
 -12   2  -2   73.12    8.08
   2  -2 -12   83.92    8.11
  12   2   2   89.92    6.85
   2 -12  -2   78.81    7.46
  12  -2  -2   89.63    7.35
   2   2  12   84.21    8.13
  -2 -12   2   93.87    8.31
  -2 -12  -3   51.12    6.56
  -3  -2 -12   46.08    5.69
  12   3  -2   53.86    5.58
   2 -12   3   44.03    5.48
   2  12  -3   56.74    6.85
   2  12  -3   51.59    5.70
  -3   2  12   50.66    5.74
   3   2 -12   46.24    5.08
   3  -2  12   50.35    5.94
  12  -3   2   55.51    5.95
 -12  -3  -2   51.47    6.36
  -2  12   3   43.35    5.87
 -12   3   2   44.63    6.62
   2  12   3   46.93    6.08
   3   2  12   67.52    7.41
 -12   3  -2   54.60    7.24
 -12  -3   2   52.28    7.32
  -2 -12   3   55.81    6.46
  12  -3  -2   54.49    5.90
   3  -2 -12   72.42    7.50
  -3   2 -12   47.18    5.63
  -2  12  -3   50.08    6.25
   2 -12  -3   51.56    6.24
  -2  12   4   21.57    4.89
   2  12  -4   21.35    5.49
  12  -4   2   16.81    4.07
 -12   4   2   12.09    4.45
  -4  -2 -12   25.70    5.50
  -2 -12  -4   25.16    5.48
   4   2 -12   14.19    3.59
  -4   2  12   21.42    4.47
  12   4  -2   28.77    4.42
   4  -2  12   16.39    4.13
   2 -12   4   20.20    4.61
 -12  -4  -2   16.79    4.35
 -12  -4   2   25.94    6.52
   2 -12  -4   13.94    4.16
   2  12   4   18.92    4.48
  -2  12  -4   19.26    4.93
  12  -4  -2   31.80    5.66
   4  -2 -12   16.34    4.46
 -12   4  -2   16.57    5.43
  -2 -12   4   15.94    4.29
   4   2  12   23.42    5.45
  -4   2 -12   17.76    4.17
  12   5  -2   16.90    4.04
  -5  -2 -12   21.58    4.79
   5   2 -12   31.20    4.63
   2  12  -5   23.12    5.57
   5  -2  12   22.80    5.07
  12  -5   2   38.45    5.16
 -12   5   2   23.75    5.57
  -2  12   5   30.66    5.80
   2 -12   5   31.37    5.69
  -2 -12  -5   19.47    4.72
  -5   2  12   32.27    5.68
  -2  12  -5   26.53    5.92
 -12   5  -2   40.47    7.44
   2  12   5   23.05    5.05
   5   2  12   28.83    5.71
  12  -5  -2   16.91    4.02
  -2 -12   5   36.45    5.35
   5  -2 -12   40.12    6.71
  -5   2 -12   22.52    4.91
 -12  -5   2   19.16    5.48
   6  -2  12   36.60    6.51
   6   2 -12   37.03    5.11
   2  12  -6   32.77    6.60
  12   6  -2   45.84    5.81
  -6  -2 -12   39.06    6.08
   2 -12   6   28.09    5.37
  -6   2  12   46.41    5.91
  -2 -12  -6   35.72    5.55
 -12   6   2   34.41    6.84
  -2  12   6   43.22    6.11
  12  -6   2   44.89    5.75
  -2  12  -6   37.56    7.13
  -2 -12   6   44.81    6.05
  12  -6  -2   47.45    5.86
   2  12   6   51.97    6.64
  12   6   2   47.24    5.66
  -6   2 -12   47.13    6.02
 -12  -6   2   35.52    6.82
 -12   6  -2   28.77    6.00
   6  -2 -12   35.62    6.46
   3 -12   0   71.86    6.82
   0   3  12   49.94    5.76
  12   0  -3   61.81    5.92
  -3  12   0   82.01   10.06
   0  -3 -12   71.04    6.33
 -12   0  -3   65.98    7.19
 -12   0   3   63.56    8.04
   0   3 -12   62.68    5.91
   3  12   0   67.12    6.87
  12   0  -3   77.34    6.62
  -3 -12   0   72.47    7.68
   0  -3 -12   70.92    7.30
  12   0   3   67.47    6.32
   1  -3  12   42.15    5.17
  -1  -3 -12   50.28    6.24
  -1  -3 -12   42.68    5.22
  12  -1   3   38.40    4.82
  12   1  -3   43.15    4.89
 -12  -1  -3   45.91    5.98
   3 -12   1   33.84    4.91
  -1   3  12   43.31    5.35
  -3 -12  -1   40.35    6.02
 -12   1   3   46.45    6.75
   1   3 -12   40.66    4.76
   3  12  -1   38.49    5.28
 -12  -1   3   49.46    7.31
  12  -1  -3   43.55    4.89
  -3  12  -1   51.69    5.95
  -3 -12   1   43.79    6.01
   3 -12  -1   44.72    5.62
   1  -3 -12   39.34    5.65
 -12   1  -3   48.15    6.33
   3  12   1   38.85    5.34
  12  -1  -3   44.70    5.24
  12   1   3   43.10    5.15
  -1   3 -12   49.40    5.33
   3 -12   2    1.80    2.03
  -2   3  12    0.79    1.89
 -12   2   3    1.23    2.50
  -3 -12  -2   -1.65    1.74
   2  -3  12    0.08    1.76
 -12  -2  -3   -0.63    2.03
  -3  12   2    1.53    2.27
  12  -2   3    0.39    1.49
   3  12  -2   -0.17    2.31
  -2  -3 -12    0.75    1.72
  -2  -3 -12    0.40    1.85
  12   2  -3   -0.12    1.80
   3  12  -2   -0.36    1.74
  -2   3 -12    0.17    1.68
  -3  12  -2    1.31    2.46
   2  -3 -12   -0.89    1.86
   3  12   2    2.82    2.45
 -12  -2   3    1.43    2.93
   3 -12  -2    1.33    2.13
  12  -2  -3    1.15    1.89
 -12   2  -3    2.52    2.86
  12   2   3    0.74    1.78
  -3 -12   2    1.15    2.33
   3  12  -3    0.46    2.10
 -12   3   3    1.74    2.71
  -3 -12  -3   -0.59    1.82
  -3  12   3    2.02    2.39
  -3  -3 -12    3.52    2.61
   3  -3  12    2.76    2.34
   3  12  -3    2.82    2.94
   3 -12   3    1.94    2.01
  12  -3   3    3.24    2.21
  -3   3  12    2.24    2.38
  12   3  -3    4.02    2.50
  -3  12  -3    2.28    2.45
 -12   3  -3    3.31    3.11
   3  12   3    0.13    2.14
  -3 -12   3   -0.21    1.77
  12  -3  -3    2.02    2.14
  -3   3 -12    4.21    2.31
   3   3  12    7.37    3.34
  12   3   3    3.24    2.36
   3  -3 -12    1.26    2.35
 -12  -3   3    3.33    3.01
   3  12  -4   25.92    5.78
  -3 -12  -4   15.30    4.64
   4   3 -12   22.95    4.40
  -4  -3 -12   24.97    5.21
   4  -3  12   26.72    5.32
  12  -4   3   17.25    4.10
  -4   3  12   22.42    4.61
   3  12  -4   25.63    4.87
 -12   4   3   25.33    5.73
  12   4  -3   23.70    4.64
  -3  12   4   25.00    5.25
   3 -12   4   24.20    4.87
 -12   4  -3   18.02    5.25
  -3  12  -4   18.44    4.68
   3  12   4   13.03    4.24
   4  -3 -12   16.49    4.45
  -3 -12   4   23.23    5.29
 -12  -4   3   24.23    6.36
  -4  -3  12   16.50    4.79
  -4   3 -12   17.16    4.34
  12  -4  -3   17.26    4.36
   4   3  12   10.79    4.17
   5  -3  12   83.19    7.74
  12   5  -3   95.77    8.12
  -3  12   5   98.19    8.72
 -12   5   3   87.27    8.93
  -5  -3 -12   80.64    8.34
  -3 -12  -5   81.44    8.32
  12  -5   3   90.80    7.80
  -5   3  12   90.32    8.20
   3  12  -5   90.51    9.42
   3 -12   5   83.14    7.84
   5   3 -12   79.97    7.19
  -5   3 -12   96.16    8.36
   5   3  12   95.60    9.04
 -12  -5   3  106.92   10.35
  -3 -12   5   91.47    8.48
  -3  12  -5  107.06    9.63
  -5  -3  12  120.65    9.72
   3  12   5   99.13    8.99
   5  -3 -12   95.71    8.56
  12  -5  -3  106.77    8.59
  -6  -3 -12   12.75    4.45
 -12   6   3   13.65    4.93
   6   3 -12   13.77    3.70
  12  -6   3   16.99    4.37
  12   6  -3   11.94    3.86
   3  12  -6   14.31    5.02
   6  -3  12   12.06    3.86
  -6   3  12   10.45    3.71
   3 -12   6    9.35    3.44
  -3 -12  -6    9.10    3.49
  -3  12   6   17.49    5.18
  -6  -3  12   13.64    4.56
  -3 -12   6    8.44    3.52
  -3  12  -6    9.16    4.11
  -6   3 -12    8.80    3.56
 -12   6  -3   12.75    4.33
  12  -6  -3    9.30    3.69
   6  -3 -12   13.08    4.41
 -12  -6   3    7.91    4.09
   6   3  12   10.70    3.86
   3  12   6    3.65    2.88
   4  12   0   72.85    7.42
  -4  12   0   86.41    7.51
   0   4 -12   86.50    7.01
   0  -4 -12   71.68    7.41
   0   4  12   88.16    7.53
   4 -12   0  100.73    7.97
 -12   0  -4   81.03    7.86
  12   0   4   83.29    7.33
 -12   0   4   82.27    9.03
  -4 -12   0   85.56    8.51
  12   0  -4   84.09    7.04
  12   0  -4   73.42    6.69
  -1  -4 -12   42.63    5.79
  -1  -4 -12   37.73    5.15
   4  12  -1   36.83    5.14
   4 -12   1   30.47    5.38
 -12  -1  -4   35.59    5.34
  12  -1   4   39.94    5.03
 -12   1   4   33.20    7.04
   1   4 -12   40.40    5.88
   1   4 -12   47.05    5.03
  -1   4  12   30.53    4.78
  -4 -12  -1   23.33    5.46
  12   1  -4   35.94    4.72
 -12  -1   4   34.74    7.22
  12   1   4   38.78    4.94
   1  -4 -12   37.98    5.58
  12  -1  -4   35.69    4.88
   4 -12  -1   36.70    5.27
  -1  -4  12   28.41    4.33
   4  12   1   42.83    5.86
  -4  12  -1   20.94    4.42
   1   4  12   46.11    5.55
  -1   4 -12   34.44    4.69
  -4 -12   1   27.31    5.57
  12  -1  -4   32.48    4.53
 -12   1  -4   38.02    5.70
  12  -2   4   34.69    4.88
   4 -12   2   43.53    5.36
  12   2  -4   40.64    5.15
   2   4 -12   37.61    5.84
  -2  -4 -12   39.20    5.60
 -12   2   4   43.62    6.52
  -4 -12  -2   38.07    5.80
  -2   4  12   32.29    5.01
   4  12  -2   35.08    5.14
  -2  -4 -12   43.22    5.56
   4  12  -2   42.83    8.86
  -4 -12   2   25.98    5.41
 -12   2  -4   31.58    6.45
  -4  12  -2   30.64    5.68
   2  -4 -12   32.57    5.91
  12  -2  -4   32.83    4.58
   4  12   2   29.68    5.70
  12   2   4   27.43    5.09
  -2   4 -12   29.70    4.53
 -12  -2   4   33.50    6.97
  12  -2  -4   25.22    4.80
   4  12  -3  151.84   10.21
  -4  12   3  166.11   10.74
   3  -4  12  157.62    9.90
  -3   4  12  146.57   10.20
  12  -3   4  149.87    9.88
  12   3  -4  149.39    9.88
  -3  -4 -12  145.65   10.41
 -12   3   4  124.15   10.78
   4  12  -3  160.68   11.79
   4 -12   3  156.60   10.11
  -4 -12  -3  143.71   11.10
  12  -3  -4  140.18    9.91
  -4  12  -3  121.80   10.00
  12   3   4  139.83    9.30
   3   4  12  121.72   10.32
  -3   4 -12  146.52    9.89
  12  -3  -4  117.79    9.01
 -12   3  -4  136.32   10.87
   3  -4 -12  148.44   10.80
  -4 -12   3  148.69   11.00
   4  12   3  132.95   10.31
 -12  -3   4  112.65   11.12
  12  -4   4   33.32    4.81
   4  12  -4   50.04    7.07
  12   4  -4   39.92    5.35
   4  -4  12   34.56    4.86
  -4  12   4   37.21    6.49
  -4  -4 -12   35.33    5.52
   4 -12   4   31.61    4.94
  -4   4  12   38.09    5.50
   4  12  -4   33.94    4.97
  -4 -12  -4   40.71    7.14
 -12   4   4   32.88    6.49
   4  -4 -12   29.99    5.78
  -4  12  -4   37.02    5.76
  -4   4 -12   37.18    5.24
  -4  -4  12   33.67    6.94
 -12   4  -4   46.52    6.57
  -4 -12   4   29.03    5.74
   4  12   4   48.02    6.22
  12  -4  -4   37.14    5.38
 -12  -4   4   41.04    8.53
   4   4  12   39.84    5.84
   4  12  -5   26.14    5.23
  -4 -12  -5   18.31    5.07
   4  12  -5   18.79    5.33
  -5   4  12   27.39    5.87
   4 -12   5   22.34    5.10
   5  -4  12   24.63    4.74
  -4  12   5   14.33    4.15
 -12   5   4   20.45    5.47
  -5  -4 -12   22.32    5.30
  12  -5   4   27.02    5.14
  12   5  -4   18.33    4.16
   5   4 -12   16.55    3.85
   5   4  12   18.23    4.78
  12  -5  -4   24.11    4.84
 -12   5  -4   26.01    6.09
   5  -4 -12   28.05    5.79
 -12  -5   4    9.20    3.93
  -5   4 -12   19.36    4.64
  -4 -12   5   21.80    5.10
  -4  12  -5   25.22    5.95
  -5  -4  12   35.42    7.27
   4  12   5   20.13    4.96
  -5  12   0   85.23    7.66
   0   5  12   89.24    7.85
 -12   0   5   76.23    8.76
   0  -5  12   82.86    7.36
  12   0   5   68.86    6.85
   5  12   0   75.36    7.68
   0   5 -12   82.68    8.29
   0  -5 -12   91.67    8.19
  12   0  -5   95.27    7.60
 -12   0  -5   78.16    7.57
  -5 -12   0   72.43    8.11
  -1   5  12   13.71    3.98
  -5 -12  -1    2.84    2.60
  -1  -5 -12    5.40    2.91
  12  -1   5    6.09    2.68
   5  12  -1    6.80    3.22
   1   5 -12    9.38    3.84
 -12   1   5    5.28    3.79
  12   1  -5    6.76    2.75
   5 -12   1    4.51    2.72
  -1  -5 -12   11.28    3.64
   1   5  12    6.46    3.13
  -5  12  -1    8.35    3.51
 -12   1  -5    8.72    3.49
   1  -5 -12    3.73    2.48
  -1   5 -12    6.08    2.58
  12  -1  -5    4.56    2.73
   5  12   1    4.64    2.89
  12  -1  -5    4.05    2.37
  12   1   5    1.85    2.56
  -5 -12   1    3.14    2.67
  -1  -5  12    3.73    2.34
  -1   5 -12    7.50    3.56
 -12  -1   5    0.63    2.74
 -12   2   5   48.00    6.82
  -2  -5 -12   48.10    5.91
   5 -12   2   44.34    5.47
   2   5 -12   41.90    6.34
  12  -2   5   48.56    5.88
  -2   5  12   44.81    5.91
   5  12  -2   31.16    6.03
  -2  -5 -12   44.29    5.75
  12   2  -5   42.53    5.36
  -5 -12  -2   43.85    6.48
  12  -2  -5   40.31    5.14
  -5  12  -2   45.69    6.17
   5  12   2   40.68    5.93
 -12  -2   5   48.66    7.50
  -2   5 -12   44.03    5.43
 -12   2  -5   48.78    6.34
  -2  -5  12   37.69    4.95
  12  -2  -5   43.12    5.50
  12   2   5   40.47    5.34
  -5 -12   2   38.40    6.98
   2   5  12   28.94    5.20
   2  -5 -12   33.32    6.26
  -3  -5 -12   30.96    5.83
 -12   3   5   33.50    6.66
   3   5 -12   35.34    7.27
   5  12  -3   31.59    6.63
  -3  -5 -12   25.12    5.26
   5 -12   3   18.18    4.13
  12  -3   5   27.23    5.30
  -3   5  12   22.02    4.84
  -5 -12  -3   28.27    5.99
   5  12  -3   25.51    5.03
  12   3  -5   24.77    4.86
 -12  -3   5   24.87    6.28
   3   5  12   29.43    5.76
  12  -3  -5   35.36    5.19
   3  -5 -12   33.28    6.19
 -12   3  -5   43.14    6.20
  12  -3  -5   33.36    4.74
   5  12   3   36.60    5.71
  -5  12  -3   39.69    5.92
  12   3   5   37.04    5.04
  -5 -12   3   31.42    6.02
  -3   5 -12   31.81    4.84
   5  12  -4   44.16    5.86
 -12   4   5   53.79    6.96
   5 -12   4   47.67    5.89
  12   4  -5   59.43    6.46
   5  12  -4   49.21    7.39
  -5  12   4   53.60    6.55
  -4  -5 -12   64.55    7.19
  -5 -12  -4   43.64    6.52
  12  -4   5   41.17    5.50
   4   5 -12   53.33    7.64
  -4   5  12   54.64    6.55
 -12   4  -5   49.55    6.97
   5  12   4   48.01    6.53
  -5 -12   4   48.34    6.69
   4  -5 -12   42.18    6.15
  12  -4  -5   49.18    5.81
   4   5  12   45.46    6.52
  -4   5 -12   51.08    6.05
  -5  12  -4   41.50    6.26
  12  -4  -5   48.83    6.18
 -12   5   5   14.10    4.53
   5  12  -5    9.64    4.41
   5  -5  12   19.16    5.94
  -5  12  -5   13.74    4.52
  -5  -5  12    7.36    4.02
   5   5  12   10.55    4.16
 -12   5  -5   16.20    4.97
 -12  -5   5   23.00    6.47
   0   6  12   49.53    6.18
  -6 -12   0   42.98    6.41
  -6  12   0   42.59    5.85
  12   0   6   50.38    6.08
   6  12   0   36.36    5.70
  12   0  -6   51.52    5.88
   0  -6  12   45.00    5.66
   0   6 -12   56.49    7.26
   0  -6 -12   42.89    5.89
   1  -6  12   17.47    4.50
   1   6 -12   20.55    5.53
  12  -1   6   14.56    4.26
  -1   6  12   15.24    4.30
  -1  -6 -12   14.51    4.22
 -12   1   6   22.77    5.91
  12   1  -6   20.71    4.67
   6  12  -1   15.27    4.12
  -1  -6 -12   24.86    5.00
  -6 -12  -1   11.62    4.42
  12  -1  -6   14.04    3.88
  -1   6 -12   12.57    4.40
   6  12   1   13.41    4.14
  -6 -12   1    7.24    3.59
  -6  12  -1   21.40    5.07
  12   1   6   20.48    4.63
  -1  -6  12   13.29    3.57
   1  -6 -12   10.64    3.94
   1   6  12   15.02    4.25
 -12  -1   6   11.77    4.83
   2   6 -12   35.75    7.44
  -2   6  12   34.33    5.25
  -2  -6 -12   23.55    4.98
   6  12  -2   34.89    5.44
  12   2  -6   21.55    4.57
 -12   2   6   41.39    7.51
  12  -2   6   23.45    5.00
  -6 -12  -2   28.28    6.01
  -2  -6 -12   33.79    5.19
   2  -6  12   22.44    4.78
 -12   2  -6   29.45    5.95
  -6 -12   2   22.73    5.79
  12   2   6   17.16    4.29
  12  -2  -6   18.31    4.59
   6  12   2   29.64    5.83
   2  -6 -12   38.51    6.73
   2   6  12   22.48    4.71
  -2  -6  12   23.47    4.51
  -6  12  -2   32.94    6.58
  -2   6 -12   21.45    5.34
  12  -2  -6   30.51    4.74
 -12  -2   6   38.09    8.16
  12  -3   6   33.79    5.08
   6 -12   3   36.90    5.22
   6  12  -3   22.41    6.20
  -6 -12  -3   28.14    6.05
  12   3  -6   39.16    5.38
  -3  -6 -12   29.13    5.46
  -3   6  12   42.05    6.06
   6  12  -3   35.40    5.51
  -3  -6 -12   32.26    5.79
 -12   3   6   42.20    7.53
   3   6 -12   29.59    6.93
  -6  12  -3   28.57    6.19
   6  12   3   31.03    6.07
 -12  -3   6   28.22    6.96
   3  -6 -12   30.48    6.00
  -3   6 -12   38.87    7.30
  -3   6 -12   29.96    5.71
  -6 -12   3   26.26    5.82
  12   3   6   32.85    5.87
  12  -3  -6   35.94    5.13
  12  -3  -6   33.99    6.27
 -12   3  -6   44.79    7.80
 -12   0   7   -0.55    2.42
  -7  12   0    2.14    2.46
   0  -7 -12    2.32    2.33
   0  -7  12    1.78    2.24
   0   7 -12    0.25    2.73
   0   7  12    1.03    2.33
   7  12   0    1.34    2.62
  12   0  -7    1.38    2.07
  12   0   7    0.26    1.78
  -7 -12   0   -0.01    2.48
   1   7 -12   62.21    8.24
 -12   1   7   63.80    8.05
 -12  -1   7   75.10    8.85
  -1   7 -12   65.77    8.26
  -7  12  -1   64.45    7.30
 -13   0   0   -1.18    2.17
   0 -13   0   -2.03    1.86
   0   0 -13   -1.17    1.82
   0   0 -13   -0.14    1.60
   0  13   0   -0.96    1.76
  13   0   0    0.35    1.64
  -1   0 -13    1.93    2.11
   0 -13  -1   -0.06    2.21
   0 -13   1    0.44    2.08
   0  13  -1    1.41    2.19
   0  13   1   -0.06    2.07
   1   0 -13   -0.21    2.05
   1   0  13    2.01    2.59
  13  -1   0    0.42    1.70
  13   1   0    2.56    2.10
 -13  -1   0    3.84    3.30
 -13   1   0    0.27    2.48
   2   0  13  164.88   12.00
  13  -2   0  178.02   11.24
   2   0 -13  180.09   12.31
 -13  -2   0  182.13   13.29
 -13   2   0  172.59   13.38
  -2   0 -13  162.49   10.69
   0 -13  -2  180.69   12.41
   0 -13   2  162.03   11.58
   0  13  -2  175.02   12.05
   0  13   2  199.81   12.43
   3   0 -13   20.21    5.07
  13  -3   0   25.58    5.02
   0  13   3   16.31    4.52
 -13  -3   0   17.40    4.96
   0 -13  -3   19.15    5.00
   0 -13   3   24.71    5.32
   3   0  13   15.00    4.32
  -3   0 -13   22.59    4.84
  -3   0  13   24.71    5.01
   0  13  -3   27.02    6.23
 -13   3   0   25.79    6.38
 -13  -4   0   34.61    6.72
  13  -4   0   11.37    3.84
 -13   4   0   18.39    5.38
  -4   0 -13   40.76    5.68
   0 -13  -4   27.41    5.86
   0 -13   4   23.55    5.25
   0  13  -4   33.29    6.93
   0  13   4   28.78    5.88
   4   0 -13   26.84    5.71
   4   0  13   25.68    5.70
  -4   0  13   32.86    5.06
   0  13  -5   84.99    9.28
 -13   5   0   79.14    9.24
   0  -1 -13   25.99    5.65
   1 -13   0   18.31    4.74
 -13   0  -1   17.58    5.05
  13   0   1   16.15    3.76
 -13   0   1   25.71    6.21
   0   1 -13   19.34    4.29
   0  -1  13   30.15    5.99
  -1  13   0   19.87    4.71
  13   0  -1   22.33    4.43
  -1 -13   0   21.12    4.87
   1  13   0   35.06    5.20
  13  -1   1   17.79    4.10
   1  13  -1   16.71    4.17
  -1  13   1   25.30    5.31
   1   1 -13   16.67    4.66
  -1 -13  -1   27.89    6.04
 -13  -1  -1   15.58    4.99
   1 -13   1   17.57    4.64
 -13   1   1   26.83    6.45
  13   1  -1   21.90    5.11
   1  -1  13   17.22    4.40
  -1  -1 -13   15.79    3.82
   1   1  13   12.75    4.39
  13   1   1   16.50    3.92
   1  13   1   15.25    4.14
  13  -1  -1   26.46    5.16
 -13  -1   1   19.70    5.57
   1  -1 -13   16.36    4.57
  -1 -13   1   21.20    5.16
  -1   1 -13   18.20    4.13
   1 -13  -1   22.06    4.95
 -13   1  -1   16.91    5.06
  -1  13   2  113.97    9.32
   2   1 -13  119.31    9.80
   2  -1  13  109.93    9.51
  -1 -13  -2  119.17   10.18
   1 -13   2  111.46    9.30
 -13   2   1  107.31   10.62
   1  13  -2  115.68    8.88
  13  -2   1  114.01    8.76
 -13  -2  -1  109.64    9.99
  -2  -1 -13  122.55    9.11
  -2   1  13  127.80    9.14
  -1  13  -2  120.61    9.64
 -13  -2   1  117.94   11.07
  13  -2  -1   98.42    8.30
 -13   2  -1  134.87   11.49
  -2   1 -13  127.94    9.20
   2  -1 -13  108.68    9.46
   2   1  13  109.52    9.84
   1 -13  -2  114.93    9.67
   1  13   2  129.47    9.92
  -1 -13   2  107.06    9.39
  13  -3   1   39.56    5.08
  -1  13   3   32.43    6.14
 -13   3   1   36.11    7.58
  13   3  -1   21.64    4.38
   3  -1  13   18.43    4.91
  -3  -1 -13   28.14    5.68
   1 -13   3   23.10    5.07
   1  13  -3   20.78    5.09
  -1 -13  -3   26.90    5.77
 -13  -3  -1   15.70    4.49
  -3   1  13   20.09    4.49
   3   1  13   28.51    6.34
 -13   3  -1   24.56    6.05
  -1  13  -3   33.31    6.30
 -13  -3   1   22.54    5.76
  -1 -13   3   23.48    5.28
   1  13   3   24.60    5.42
   1 -13  -3   21.38    5.11
  -3   1 -13   28.69    5.29
   3  -1 -13   23.56    5.17
  13  -3  -1   28.74    5.34
  -4   1  13    0.90    2.16
  13   4  -1    0.73    2.00
  13  -4   1   -0.54    1.88
   4  -1  13   -2.03    1.61
  -4  -1 -13    3.04    2.89
  -1 -13  -4    0.97    2.30
 -13  -4  -1    1.76    2.78
   1 -13   4    2.17    2.50
   1  13  -4    1.38    2.72
 -13   4   1    3.46    3.25
  -1  13   4    3.51    2.49
 -13  -4   1    0.00    2.71
   1  13   4    1.47    2.22
   4  -1 -13   -0.90    2.51
  -4   1 -13    0.95    2.00
  -1  13  -4   -0.99    2.10
 -13   4  -1    1.18    3.07
   1 -13  -4    2.40    2.77
  13  -4  -1   -1.40    1.74
   4   1  13    1.43    2.64
  -4  -1  13    3.12    2.43
  -1 -13   4    0.82    2.43
   0  -2 -13  164.81   11.80
 -13   0  -2  179.99   12.79
  -2 -13   0  158.78   11.80
   2  13   0  160.60   11.10
   0   2 -13  173.61   10.42
   2 -13   0  171.07   11.48
   0  -2  13  165.65   11.24
 -13   0   2  151.31   12.87
  13   0  -2  151.13   10.03
  13   0   2  164.49   10.44
  13  -1   2   61.71    6.29
  -1  -2 -13   56.29    6.19
 -13   1   2   52.14    7.64
  -2 -13  -1   51.04    6.90
   2  13  -1   42.03    5.76
  -1  -2 -13   49.57    6.39
   2 -13   1   53.97    6.43
 -13  -1  -2   41.27    6.48
   1  -2  13   47.49    6.19
  -1   2  13   48.44    6.69
  -2  13   1   44.18   11.23
   2 -13  -1   53.17    6.55
  -2 -13   1   49.50    6.65
  -1   2 -13   52.32    5.81
  13  -1  -2   51.12    5.86
 -13   1  -2   45.86    7.00
 -13  -1   2   55.71    8.05
  13   1   2   51.17    5.67
   1  -2 -13   51.99    6.67
   2  13   1   49.68    6.30
   2  13  -2   13.97    3.80
   2  -2  13   20.20    4.79
   2 -13   2   34.58    6.09
  13  -2   2   24.68    5.19
 -13   2   2   18.31    5.61
  -2 -13  -2   16.80    4.79
  13   2  -2   23.30    4.62
  -2  -2 -13   24.02    4.89
  -2  13   2   17.77    4.51
 -13  -2  -2   17.52    4.91
   2 -13  -2   35.16    6.30
   2  13   2   20.44    4.81
  -2 -13   2   30.14    6.20
  13   2   2   18.29    4.17
  -2   2 -13   22.75    4.57
 -13  -2   2   20.43    5.94
  13  -2  -2   22.06    4.51
 -13   2  -2   21.91    5.25
   2   2  13   24.98    5.63
   2  -2 -13   23.85    5.21
  -2  13  -2   27.66    5.82
   2  13  -3    2.70    2.85
  13   3  -2    2.14    2.10
   3  -2  13    8.16    3.30
  -2 -13  -3   -0.04    2.11
   2 -13   3   -0.61    1.95
  -3   2  13    5.16    2.85
  13  -3   2    2.47    2.10
 -13   3   2    4.91    3.84
   2  13  -3    0.73    3.62
  -2  13   3    5.11    3.03
  -3  -2 -13    2.38    2.60
 -13  -3  -2    0.14    2.36
   3  -2 -13    2.56    2.57
  -2 -13   3    2.17    2.50
  13  -3  -2    0.00    1.87
  -3   2 -13   -0.02    1.92
   2 -13  -3    0.92    2.50
 -13  -3   2    1.79    3.23
 -13   3  -2    1.21    2.92
  -2  13  -3    0.42    2.53
   2  13   3    2.52    2.59
   3   2  13    2.00    2.57
  13   4  -2  113.71    8.72
   2 -13   4  127.39    9.91
  13  -4   2  112.87    9.11
   4  -2  13  124.80   10.11
  -2  13   4  124.42   10.06
  -4   2  13  113.94    9.21
  -4  -2 -13  125.98   10.13
 -13   4   2  114.10   10.81
   2  13  -4  115.18   10.26
  -2 -13  -4  116.04   10.22
   4   2  13  110.90   10.16
   2  13   4  117.55    9.96
  -2 -13   4  119.92   10.10
  -4   2 -13  122.00    9.77
   4  -2 -13  136.06   10.67
 -13   4  -2  117.98   11.01
  13  -4  -2  123.58    9.54
  -2  13  -4  111.10   10.00
  13   0   3   15.68    4.06
 -13   0   3   21.65    6.18
  -3 -13   0   17.32    4.98
 -13   0  -3   17.89    5.13
   0  -3 -13   21.20    5.35
   3 -13   0    7.42    3.40
  13   0  -3   11.76    3.44
   0   3 -13   14.93    3.57
   3  13   0   13.79    4.09
  13   0  -3   15.03    3.66
  -3 -13  -1    5.15    3.22
  13  -1   3    3.84    2.53
  -1  -3 -13    7.62    3.45
  -1  -3 -13    4.29    2.68
 -13   1   3    3.38    3.59
 -13  -1  -3    7.10    3.21
   3  13  -1    3.60    2.64
  -1   3  13    6.45    2.85
   3 -13   1    3.34    2.73
  13   1  -3    6.26    2.83
  13  -1  -3    8.44    3.23
 -13   1  -3    7.82    3.53
  -1   3 -13   11.89    3.76
   3  13   1    3.09    2.68
   1  -3 -13    4.69    3.12
   3 -13  -1    8.58    3.41
  13   1   3    3.61    2.36
  -3 -13   1    8.00    3.63
 -13  -1   3    6.15    4.35
   3 -13   2   16.58    4.54
 -13   2   3   19.43    6.16
  13  -2   3   17.56    4.48
 -13  -2  -3   11.77    4.07
  13   2  -3   14.29    3.91
  -3 -13  -2   12.04    4.44
  -2   3  13   14.43    3.97
  -2  -3 -13   11.57    3.69
   2  -3  13   17.58    4.50
   3  13  -2   12.58    3.90
 -13   2  -3   16.10    5.25
  -2   3 -13   20.58    4.54
   2  -3 -13   21.90    5.33
   3 -13  -2   16.11    4.43
  -3  13  -2   16.80    4.63
   2   3  13   22.79    5.39
  13   2   3   17.52    4.17
  -3 -13   2   22.50    5.43
 -13  -2   3   18.83    5.86
  13  -2  -3   19.02    4.59
   3  13   2   21.46    5.30
 -13   3   3   15.72    4.93
  -3  -3 -13   21.85    4.86
  -3 -13  -3   19.17    5.21
   3  13  -3   27.26    6.46
  -3  13   3   23.41    5.15
   3  -3  13   28.16    5.78
  -3   3  13   21.06    4.58
  13   3  -3   27.70    5.00
   3 -13   3   34.77    5.28
  13  -3   3   25.56    5.17
   3  13  -3   21.83    4.76
   3  13   3   18.60    4.73
  -3 -13   3   26.02    5.76
  -3  13  -3   29.43    6.40
  13  -3  -3   24.66    5.27
 -13  -3   3   16.13    5.45
 -13   3  -3   20.37    5.54
   3  -3 -13   31.30    6.26
   3   3  13   26.24    6.08
   4  -3  13    7.62    3.53
   3  13  -4    5.26    3.78
 -13   4   3    3.50    3.27
 -13  -4   3    6.05    4.23
 -13   4  -3    6.81    4.01
  -3  13  -4    8.93    3.79
   4   3  13    1.78    2.99
   0  -4 -13   -2.24    1.74
 -13   0   4   -0.74    2.02
  13   0   4    3.06    2.42
 -13   0  -4    2.31    2.96
   4 -13   0    0.47    2.31
   4  13   0    0.48    2.36
  13   0  -4   -0.63    1.78
   0   4 -13   -0.02    1.73
  -4 -13   0    1.29    2.81
   0   4  13   -0.09    2.14
  -1   4  13   90.95    8.09
   4 -13   1   96.56    8.29
  -4 -13  -1   87.55    9.01
 -13  -1  -4   89.41    9.38
  13  -1   4   75.46    7.25
  13   1  -4   91.30    7.63
   4  13  -1   83.17    8.07
 -13   1   4   86.91    9.62
  -1  -4 -13   83.03    8.12
  -1  -4  13   82.20    7.41
   4  13   1   91.12    8.65
  13  -1  -4   78.62    7.37
   1  -4 -13   79.39    8.09
 -13  -1   4   86.35   10.00
 -13   1  -4   83.03    8.51
  -1   4 -13   77.27    7.19
  13  -1  -4   90.62    7.49
  -4 -13   1   78.37    8.56
  -4  13  -1   77.57    7.65
  13   1   4   73.07    7.22
 -13   2   4   84.23    9.27
  -4 -13  -2   68.40    8.22
  13  -2   4   86.64    7.77
  13   2  -4   82.51    7.35
  -2  -4 -13   91.44    8.49
  -2  -4 -13   80.27    7.78
   4  13  -2   90.35    8.35
  -2   4  13   73.26    7.57
   4 -13   2   92.34    8.19
   2  -4 -13   89.11    8.62
  -2   4 -13   69.50    7.05
  -4  13  -2   80.18    8.21
  13  -2  -4   76.35    7.52
 -13   2  -4   82.69    8.71
   4  13   2   94.90    8.76
  13   2   4   77.53    7.29
  -4 -13   2   77.57    8.48
 -13  -2   4   73.94    9.37
 -13   3   4   21.68    5.97
 -13   3  -4    9.55    3.99
  -4  13  -3   10.01    3.79
   3   4  13   13.41    4.54
 -13  -3   4   19.05    6.29
 -13   0   5    5.36    3.80
   0   0   0    0.00    0.00
;
_shelx_hkl_checksum              82638
loop_
_space_group_symop_operation_xyz
'x, y, z'
'-x+1/2, -y, z+1/2'
'-x, y+1/2, -z+1/2'
'x+1/2, -y+1/2, -z'
'z, x, y'
'z+1/2, -x+1/2, -y'
'-z+1/2, -x, y+1/2'
'-z, x+1/2, -y+1/2'
'y, z, x'
'-y, z+1/2, -x+1/2'
'y+1/2, -z+1/2, -x'
'-y+1/2, -z, x+1/2'
loop_
_atom_site_label
_atom_site_type_symbol
_atom_site_fract_x
_atom_site_fract_y
_atom_site_fract_z
_atom_site_U_iso_or_equiv
_atom_site_adp_type
_atom_site_occupancy
_atom_site_site_symmetry_order
_atom_site_calc_flag
_atom_site_refinement_flags_posn
_atom_site_refinement_flags_adp
_atom_site_refinement_flags_occupancy
_atom_site_disorder_assembly
_atom_site_disorder_group
Eu1 Eu 0.83782(2) 0.33782(2) 0.16218(2) 0.00518(8) Uani 1 3 d S T P . .
Eu2 Eu 1.10259(2) 0.60259(2) -0.10259(2) 0.00853(8) Uani 1 3 d S T P . .
Br1 Br 0.65394(4) 0.15394(4) 0.34606(4) 0.00981(14) Uani 1 3 d S T P . .
P1 P 0.51710(10) 0.36265(10) 0.05251(10) 0.0056(2) Uani 1 1 d . . . . .
P2 P 1.13152(10) 0.30966(10) 0.03001(10) 0.0058(2) Uani 1 1 d . . . . .
P3 P 1.28495(11) 0.78495(11) -0.28495(11) 0.0061(3) Uani 1 3 d S T P . .
loop_
_atom_site_aniso_label
_atom_site_aniso_U_11
_atom_site_aniso_U_22
_atom_site_aniso_U_33
_atom_site_aniso_U_23
_atom_site_aniso_U_13
_atom_site_aniso_U_12
Eu1 0.00518(8) 0.00518(8) 0.00518(8) 0.00011(7) 0.00011(7) -0.00011(7)
Eu2 0.00853(8) 0.00853(8) 0.00853(8) 0.00196(8) 0.00196(8) -0.00196(8)
Br1 0.00981(14) 0.00981(14) 0.00981(14) 0.00240(15) 0.00240(15) -0.00240(15)
P1 0.0060(5) 0.0054(5) 0.0054(5) -0.0003(4) 0.0007(4) -0.0001(4)
P2 0.0060(5) 0.0044(5) 0.0071(5) 0.0004(4) 0.0003(4) -0.0002(3)
P3 0.0061(3) 0.0061(3) 0.0061(3) 0.0005(4) 0.0005(4) -0.0005(4)
loop_
_atom_type_symbol
_atom_type_description
_atom_type_scat_dispersion_real
_atom_type_scat_dispersion_imag
_atom_type_scat_source
P P 0.1023 0.0942 'International Tables Vol C Tables 4.2.6.8 and 6.1.1.4'
Br Br -0.2901 2.4595 'International Tables Vol C Tables 4.2.6.8 and 6.1.1.4'
Eu Eu -0.1578 3.6682 'International Tables Vol C Tables 4.2.6.8 and 6.1.1.4'
loop_
_geom_angle_atom_site_label_1
_geom_angle_atom_site_label_2
_geom_angle_atom_site_label_3
_geom_angle
_geom_angle_site_symmetry_1
_geom_angle_site_symmetry_3
P2 Eu1 P2 111.782(18) 4_455 10_656
P2 Eu1 P2 111.782(18) 4_455 5_645
P2 Eu1 P2 111.782(18) 10_656 5_645
P2 Eu1 Br1 72.952(19) 4_455 .
P2 Eu1 Br1 72.952(19) 10_656 .
P2 Eu1 Br1 72.952(19) 5_645 .
P2 Eu1 P2 137.62(2) 4_455 8_645
P2 Eu1 P2 65.44(4) 10_656 8_645
P2 Eu1 P2 107.559(9) 5_645 8_645
Br1 Eu1 P2 135.255(19) . 8_645
P2 Eu1 P2 65.44(4) 4_455 11_556
P2 Eu1 P2 107.559(9) 10_656 11_556
P2 Eu1 P2 137.62(2) 5_645 11_556
Br1 Eu1 P2 135.255(19) . 11_556
P2 Eu1 P2 75.13(3) 8_645 11_556
P2 Eu1 P2 107.558(9) 4_455 .
P2 Eu1 P2 137.62(2) 10_656 .
P2 Eu1 P2 65.44(4) 5_645 .
Br1 Eu1 P2 135.255(19) . .
P2 Eu1 P2 75.13(3) 8_645 .
P2 Eu1 P2 75.13(3) 11_556 .
P2 Eu1 P1 140.08(3) 4_455 11_556
P2 Eu1 P1 39.39(3) 10_656 11_556
P2 Eu1 P1 74.20(3) 5_645 11_556
Br1 Eu1 P1 71.559(17) . 11_556
P2 Eu1 P1 66.10(3) 8_645 11_556
P2 Eu1 P1 137.03(3) 11_556 11_556
P2 Eu1 P1 110.34(3) . 11_556
P2 Eu1 P1 74.20(3) 4_455 8_645
P2 Eu1 P1 140.08(3) 10_656 8_645
P2 Eu1 P1 39.39(3) 5_645 8_645
Br1 Eu1 P1 71.559(17) . 8_645
P2 Eu1 P1 137.03(3) 8_645 8_645
P2 Eu1 P1 110.34(3) 11_556 8_645
P2 Eu1 P1 66.09(3) . 8_645
P1 Eu1 P1 110.482(17) 11_556 8_645
P2 Eu1 P1 39.39(3) 4_455 .
P2 Eu1 P1 74.20(3) 10_656 .
P2 Eu1 P1 140.08(3) 5_645 .
Br1 Eu1 P1 71.559(17) . .
P2 Eu1 P1 110.34(3) 8_645 .
P2 Eu1 P1 66.10(3) 11_556 .
P2 Eu1 P1 137.03(3) . .
P1 Eu1 P1 110.481(17) 11_556 .
P1 Eu1 P1 110.482(17) 8_645 .
P2 Eu1 P1 176.21(3) 4_455 5_655
P2 Eu1 P1 66.22(3) 10_656 5_655
P2 Eu1 P1 72.00(3) 5_645 5_655
Br1 Eu1 P1 108.945(18) . 5_655
P2 Eu1 P1 38.82(3) 8_645 5_655
P2 Eu1 P1 111.75(3) 11_556 5_655
P2 Eu1 P1 73.55(3) . 5_655
P1 Eu1 P1 40.23(3) 11_556 5_655
P1 Eu1 P1 109.443(14) 8_645 5_655
P1 Eu1 P1 137.62(2) . 5_655
P2 Eu1 P1 72.00(3) 4_455 4
P2 Eu1 P1 176.21(3) 10_656 4
P2 Eu1 P1 66.22(3) 5_645 4
Br1 Eu1 P1 108.945(18) . 4
P2 Eu1 P1 111.75(3) 8_645 4
P2 Eu1 P1 73.55(3) 11_556 4
P2 Eu1 P1 38.82(3) . 4
P1 Eu1 P1 137.62(2) 11_556 4
P1 Eu1 P1 40.23(3) 8_645 4
P1 Eu1 P1 109.443(14) . 4
P1 Eu1 P1 109.993(17) 5_655 4
P3 Eu2 P2 135.174(19) . 11_556
P3 Eu2 P2 135.174(19) . 8_645
P2 Eu2 P2 75.25(3) 11_556 8_645
P3 Eu2 P2 135.174(19) . .
P2 Eu2 P2 75.25(3) 11_556 .
P2 Eu2 P2 75.25(3) 8_645 .
P3 Eu2 Br1 86.453(7) . 3_755
P2 Eu2 Br1 137.86(2) 11_556 3_755
P2 Eu2 Br1 67.40(2) 8_645 3_755
P2 Eu2 Br1 76.967(19) . 3_755
P3 Eu2 Br1 86.453(7) . 4
P2 Eu2 Br1 76.967(19) 11_556 4
P2 Eu2 Br1 137.86(2) 8_645 4
P2 Eu2 Br1 67.40(2) . 4
Br1 Eu2 Br1 119.621(1) 3_755 4
P3 Eu2 Br1 86.453(7) . 2_664
P2 Eu2 Br1 67.40(2) 11_556 2_664
P2 Eu2 Br1 76.967(19) 8_645 2_664
P2 Eu2 Br1 137.86(2) . 2_664
Br1 Eu2 Br1 119.621(1) 3_755 2_664
Br1 Eu2 Br1 119.621(1) 4 2_664
P3 Eu2 P1 65.840(17) . 12_664
P2 Eu2 P1 120.10(2) 11_556 12_664
P2 Eu2 P1 70.03(2) 8_645 12_664
P2 Eu2 P1 135.30(2) . 12_664
Br1 Eu2 P1 64.280(17) 3_755 12_664
Br1 Eu2 P1 152.10(2) 4 12_664
Br1 Eu2 P1 58.279(19) 2_664 12_664
P3 Eu2 P1 65.840(17) . 2_664
P2 Eu2 P1 70.03(2) 11_556 2_664
P2 Eu2 P1 135.30(2) 8_645 2_664
P2 Eu2 P1 120.10(2) . 2_664
Br1 Eu2 P1 152.10(2) 3_755 2_664
Br1 Eu2 P1 58.279(19) 4 2_664
Br1 Eu2 P1 64.281(17) 2_664 2_664
P1 Eu2 P1 104.40(2) 12_664 2_664
P3 Eu2 P1 65.840(17) . 7_664
P2 Eu2 P1 135.30(2) 11_556 7_664
P2 Eu2 P1 120.10(2) 8_645 7_664
P2 Eu2 P1 70.03(2) . 7_664
Br1 Eu2 P1 58.279(19) 3_755 7_664
Br1 Eu2 P1 64.281(17) 4 7_664
Br1 Eu2 P1 152.10(2) 2_664 7_664
P1 Eu2 P1 104.40(2) 12_664 7_664
P1 Eu2 P1 104.40(2) 2_664 7_664
P3 Eu2 Eu1 180.000(16) . .
P2 Eu2 Eu1 44.826(19) 11_556 .
P2 Eu2 Eu1 44.826(19) 8_645 .
P2 Eu2 Eu1 44.826(19) . .
Br1 Eu2 Eu1 93.547(7) 3_755 .
Br1 Eu2 Eu1 93.547(7) 4 .
Br1 Eu2 Eu1 93.547(7) 2_664 .
P1 Eu2 Eu1 114.160(17) 12_664 .
P1 Eu2 Eu1 114.160(17) 2_664 .
P1 Eu2 Eu1 114.160(17) 7_664 .
Eu1 Br1 Eu2 95.972(11) . 4_455
Eu1 Br1 Eu2 95.972(11) . 3_745
Eu2 Br1 Eu2 118.932(4) 4_455 3_745
Eu1 Br1 Eu2 95.972(11) . 2_665
Eu2 Br1 Eu2 118.932(4) 4_455 2_665
Eu2 Br1 Eu2 118.932(4) 3_745 2_665
P2 P1 P1 104.39(4) 4_455 7_564
P2 P1 P1 104.60(4) 4_455 10_655
P1 P1 P1 60.0 7_564 10_655
P2 P1 Eu1 65.05(4) 4_455 .
P1 P1 Eu1 125.24(4) 7_564 .
P1 P1 Eu1 70.86(5) 10_655 .
P2 P1 Eu1 65.53(4) 4_455 4_455
P1 P1 Eu1 68.91(5) 7_564 4_455
P1 P1 Eu1 123.49(4) 10_655 4_455
Eu1 P1 Eu1 130.57(3) . 4_455
P2 P1 Eu2 126.12(4) 4_455 2_665
P1 P1 Eu2 127.876(18) 7_564 2_665
P1 P1 Eu2 111.63(4) 10_655 2_665
Eu1 P1 Eu2 90.65(2) . 2_665
Eu1 P1 Eu2 118.16(3) 4_455 2_665
P1 P2 P3 99.84(6) 4 2_765
P1 P2 Eu1 75.56(4) 4 4
P3 P2 Eu1 93.52(3) 2_765 4
P1 P2 Eu2 120.25(4) 4 .
P3 P2 Eu2 139.11(6) 2_765 .
Eu1 P2 Eu2 103.33(3) 4 .
P1 P2 Eu1 75.65(4) 4 .
P3 P2 Eu1 92.17(4) 2_765 .
Eu1 P2 Eu1 151.20(4) 4 .
Eu2 P2 Eu1 90.43(3) . .
P2 P3 P2 101.44(6) 7_674 2_764
P2 P3 P2 101.44(6) 7_674 12_663
P2 P3 P2 101.44(6) 2_764 12_663
P2 P3 Eu2 116.64(5) 7_674 .
P2 P3 Eu2 116.64(5) 2_764 .
P2 P3 Eu2 116.64(5) 12_663 .
loop_
_geom_bond_atom_site_label_1
_geom_bond_atom_site_label_2
_geom_bond_distance
_geom_bond_site_symmetry_2
Eu1 P2 3.0869(10) 4_455
Eu1 P2 3.0869(10) 10_656
Eu1 P2 3.0869(10) 5_645
Eu1 Br1 3.0898(7) .
Eu1 P2 3.1365(11) 8_645
Eu1 P2 3.1365(11) 11_556
Eu1 P2 3.1365(11) .
Eu1 P1 3.2971(10) 11_556
Eu1 P1 3.2971(10) 8_645
Eu1 P1 3.2971(10) .
Eu1 P1 3.3384(11) 5_655
Eu1 P1 3.3384(10) 4
Eu2 P3 3.0642(18) .
Eu2 P2 3.1320(11) 11_556
Eu2 P2 3.1320(10) 8_645
Eu2 P2 3.1320(10) .
Eu2 Br1 3.4671(3) 3_755
Eu2 Br1 3.4671(3) 4
Eu2 Br1 3.4671(3) 2_664
Eu2 P1 3.5578(10) 12_664
Eu2 P1 3.5578(10) 2_664
Eu2 P1 3.5578(10) 7_664
P1 P2 2.1605(15) 4_455
P1 P1 2.2824(17) 7_564
P1 P1 2.2824(17) 10_655
P2 P3 2.1729(13) 2_765
