#------------------------------------------------------------------------------
#$Date: 2021-04-13 10:43:06 +0300 (Tue, 13 Apr 2021) $
#$Revision: 264077 $
#$URL: file:///home/coder/svn-repositories/cod/cif/1/56/16/1561677.cif $
#------------------------------------------------------------------------------
#
# This file is available in the Crystallography Open Database (COD),
# http://www.crystallography.net/
#
# All data on this site have been placed in the public domain by the
# contributors.
#
data_1561677
loop_
_publ_author_name
'Childs, Amanda B.'
'Baranets, Sviatoslav'
'Bobev, Svilen'
_publ_section_title
;
 Five new ternary indium-arsenides discovered. Synthesis and structural
 characterization of the Zintl phases Sr3In2As4, Ba3In2As4, Eu3In2As4,
 Sr5In2As6 and Eu5In2As6
;
_journal_name_full               'Journal of Solid State Chemistry'
_journal_page_first              120889
_journal_paper_doi               10.1016/j.jssc.2019.07.050
_journal_volume                  278
_journal_year                    2019
_chemical_formula_sum            'As6 In2 Sr5'
_chemical_formula_weight         1117.26
_space_group_crystal_system      orthorhombic
_space_group_IT_number           55
_space_group_name_Hall           '-P 2 2ab'
_space_group_name_H-M_alt        'P b a m'
_atom_sites_solution_hydrogens   .
_atom_sites_solution_primary     dual
_cell_angle_alpha                90
_cell_angle_beta                 90
_cell_angle_gamma                90
_cell_formula_units_Z            2
_cell_length_a                   12.039(2)
_cell_length_b                   13.936(3)
_cell_length_c                   4.3820(8)
_cell_measurement_reflns_used    588
_cell_measurement_temperature    200(2)
_cell_measurement_theta_max      29.12
_cell_measurement_theta_min      2.92
_cell_volume                     735.2(2)
_computing_cell_refinement       'SAINT V8.38A (Bruker, 2016)'
_computing_data_collection       'Bruker APEX-II'
_computing_data_reduction        'SAINT V8.38A (Bruker, 2016)'
_computing_molecular_graphics    'Olex2 (Dolomanov et al., 2009)'
_computing_publication_material  'Olex2 (Dolomanov et al., 2009)'
_computing_structure_refinement  'ShelXL (Sheldrick, 2015)'
_computing_structure_solution    'ShelXT (Sheldrick, 2015)'
_diffrn_ambient_temperature      199.99
_diffrn_measured_fraction_theta_full 1.000
_diffrn_measured_fraction_theta_max 1.000
_diffrn_measurement_device_type  'Bruker APEX-II CCD'
_diffrn_measurement_method       '\f and \w scans'
_diffrn_radiation_type           MoK\a
_diffrn_radiation_wavelength     0.71073
_diffrn_reflns_av_R_equivalents  0.0832
_diffrn_reflns_av_unetI/netI     0.0819
_diffrn_reflns_Laue_measured_fraction_full 1.000
_diffrn_reflns_Laue_measured_fraction_max 1.000
_diffrn_reflns_limit_h_max       16
_diffrn_reflns_limit_h_min       -16
_diffrn_reflns_limit_k_max       19
_diffrn_reflns_limit_k_min       -19
_diffrn_reflns_limit_l_max       5
_diffrn_reflns_limit_l_min       -6
_diffrn_reflns_number            6385
_diffrn_reflns_point_group_measured_fraction_full 1.000
_diffrn_reflns_point_group_measured_fraction_max 1.000
_diffrn_reflns_theta_full        25.242
_diffrn_reflns_theta_max         29.870
_diffrn_reflns_theta_min         2.235
_diffrn_standards_number         0
_exptl_absorpt_coefficient_mu    34.432
_exptl_absorpt_correction_T_max  0.2181
_exptl_absorpt_correction_T_min  0.0906
_exptl_absorpt_correction_type   multi-scan
_exptl_absorpt_process_details
'SADABS-2016/2 (Bruker,2016/2) was used for absorption correction. wR2(int) was 0.1350 before and 0.0477 after correction. The Ratio of minimum to maximum transmission is 0.4154. The \l/2 correction factor is Not present.'
_exptl_crystal_colour            grey
_exptl_crystal_density_diffrn    5.047
_exptl_crystal_description       block
_exptl_crystal_F_000             972
_exptl_crystal_size_max          0.056
_exptl_crystal_size_mid          0.055
_exptl_crystal_size_min          0.053
_refine_diff_density_max         2.655
_refine_diff_density_min         -2.126
_refine_diff_density_rms         0.469
_refine_ls_extinction_coef       .
_refine_ls_extinction_method     none
_refine_ls_goodness_of_fit_ref   1.018
_refine_ls_hydrogen_treatment    undef
_refine_ls_matrix_type           full
_refine_ls_number_parameters     41
_refine_ls_number_reflns         1187
_refine_ls_number_restraints     0
_refine_ls_restrained_S_all      1.018
_refine_ls_R_factor_all          0.0729
_refine_ls_R_factor_gt           0.0451
_refine_ls_shift/su_max          0.000
_refine_ls_shift/su_mean         0.000
_refine_ls_structure_factor_coef Fsqd
_refine_ls_weighting_details
'w=1/[\s^2^(Fo^2^)+(0.0221P)^2^+2.3056P] where P=(Fo^2^+2Fc^2^)/3'
_refine_ls_weighting_scheme      calc
_refine_ls_wR_factor_gt          0.0921
_refine_ls_wR_factor_ref         0.1026
_reflns_Friedel_coverage         0.000
_reflns_Friedel_fraction_full    .
_reflns_Friedel_fraction_max     .
_reflns_number_gt                832
_reflns_number_total             1187
_reflns_threshold_expression     'I > 2\s(I)'
_cod_data_source_file            yjssc_20889_Sr5In2As6_mmc6.cif
_cod_data_source_block           Sr5In2As6
_cod_database_code               1561677
_shelx_space_group_comment
;
The symmetry employed for this shelxl refinement is uniquely defined
by the following loop, which should always be used as a source of
symmetry information in preference to the above space-group names.
They are only intended as comments.
;
_shelx_estimated_absorpt_t_max   0.263
_shelx_estimated_absorpt_t_min   0.249
_olex2_refinement_description
;
;
_shelx_res_file
;
TITL shelx_a.res in Pbam
CELL 0.71073 12.0395 13.9363 4.382 90 90 90
ZERR 2 0.0023 0.0026 0.0008 0 0 0
LATT 1
SYMM -X,-Y,+Z
SYMM 0.5-X,0.5+Y,-Z
SYMM 0.5+X,0.5-Y,-Z
SFAC As In Sr
UNIT 12 4 10

L.S. 20
PLAN  20
TEMP -73.16
list 4
fmap 2 53
acta


WGHT    0.022100    2.305600
FVAR       0.15844
IN    2    0.328496    0.214998    0.500000    10.50000    0.01271    0.01567 =
         0.01190    0.00000    0.00000   -0.00145
SR1   3    0.086297    0.253472    0.000000    10.50000    0.01147    0.01451 =
         0.01368    0.00000    0.00000   -0.00018
SR3   3    0.000000    0.000000    0.000000    10.25000    0.01103    0.01302 =
         0.01600    0.00000    0.00000    0.00002
SR2   3    0.324046    0.014032    0.000000    10.50000    0.01294    0.01729 =
         0.01153    0.00000    0.00000    0.00203
AS2   1    0.154399    0.099030    0.500000    10.50000    0.01209    0.01485 =
         0.01060    0.00000    0.00000   -0.00115
AS1   1    0.018956    0.411242    0.500000    10.50000    0.01243    0.01291 =
         0.01368    0.00000    0.00000   -0.00076
AS3   1    0.337765    0.322152    0.000000    10.50000    0.01187    0.01342 =
         0.01371    0.00000    0.00000    0.00035
HKLF 4

END

WGHT      0.0221      2.3113

REM Highest difference peak  2.655,  deepest hole -2.126,  1-sigma level  0.469
Q1    1   0.5000  0.0000  0.0000  10.25000  0.05    2.65
Q2    1   0.5012  0.2948  0.5000  10.50000  0.05    2.04
Q3    1   0.2555  0.0603  0.0000  10.50000  0.05    1.86
Q4    1   0.1644  0.4032  0.5000  10.50000  0.05    1.82
Q5    1   0.4559  0.2581  0.3325  11.00000  0.05    1.78
Q6    1   0.1843 -0.0819  0.5000  10.50000  0.05    1.70
Q7    1  -0.0026  0.3206  0.0000  10.50000  0.05    1.52
Q8    1   0.0948  0.1749  0.0000  10.50000  0.05    1.40
Q9    1   0.3521  0.1786  0.0000  10.50000  0.05    1.39
Q10   1   0.0046  0.1007  0.5000  10.50000  0.05    1.37
Q11   1   0.3594  0.2867  0.1876  11.00000  0.05    1.36
Q12   1   0.2388  0.2534  0.0000  10.50000  0.05    1.35
Q13   1   0.1640  0.0009  0.1813  11.00000  0.05    1.32
Q14   1   0.2199 -0.0555  0.2913  11.00000  0.05    1.26
Q15   1   0.4398 -0.0637  0.0000  10.50000  0.05    1.20
Q16   1   0.0792 -0.0368  0.5000  10.50000  0.05    1.20
Q17   1   0.4217  0.0945 -0.1809  11.00000  0.05    1.20
Q18   1   0.3388  0.4244  0.2532  11.00000  0.05    1.19
Q19   1  -0.0026  0.0384 -0.2238  11.00000  0.05    1.19
Q20   1   0.4050  0.2211  0.0000  10.50000  0.05    1.19
;
_shelx_res_checksum              36151
_shelx_hkl_file
;
   0   0  -1   47.40    7.70
   0   0  -1   46.40    7.20
   0   0  -2 9999.00 1048.60
   0   0  -2 9880.11 1048.00
   0   0  -3   12.20    6.70
   0   0  -3   18.00    8.80
   0   0  -4 4665.13  502.65
   0   0  -4 4777.62  501.05
   0   0  -5    1.90   11.80
   0   0  -6 1599.44  177.28
  -1   0   0   -0.20    0.60
  -1   0  -1   -5.90    3.20
   1   0  -1    8.60    3.20
  -1   0   1    3.00    4.60
   1   0  -1    4.10    5.20
  -1   0  -1   -3.50    3.50
  -1   0  -2    8.30    5.20
  -1   0  -2   -1.20    4.20
   1   0  -2   -0.30    3.80
   1   0  -2    3.40    5.50
  -1   0  -3   -3.30    6.10
   1   0  -3    2.00    5.40
  -1   0  -3    6.50    6.20
   1   0  -3   11.10    8.00
  -1   0  -4    5.30    8.10
   1   0  -4   -0.80    7.90
  -1   0  -4    3.20    9.10
   1   0  -4   10.40   10.00
   1   0  -5  -10.40   10.50
  -1   0  -5   12.40   10.70
  -1   0  -5   22.90   12.20
   1   0  -6   20.10   15.40
  -1   0  -6   -6.10   15.60
  -2   0   0   29.60    4.50
  -2   0   0   27.00    4.50
  -2   0   1    1.50    3.80
  -2   0  -1   10.20    4.10
  -2   0  -1    7.10    3.50
   2   0  -1    8.50    2.60
   2   0  -1   -0.50    4.20
   2   0  -2   22.50    7.40
  -2   0  -2   11.00    5.70
  -2   0  -2    6.70    5.20
  -2   0   2    3.20    5.50
   2   0  -2   18.80    4.70
   2   0  -3    5.20    7.90
  -2   0  -3    6.20    7.60
  -2   0  -3    7.90    6.90
   2   0  -3   13.20    6.10
  -2   0  -4   24.10    9.70
  -2   0  -4    0.20   10.30
   2   0  -4   16.50   12.60
   2   0  -4   10.60    8.10
   2   0  -5   16.40   13.80
  -2   0  -5  -16.60   10.80
  -2   0  -5   11.70   11.10
   2   0  -6   22.20   16.90
  -2   0  -6   -1.40   15.50
  -3   0   0    1.40    3.40
  -3   0   0    3.00    2.90
   3   0  -1    0.90    2.70
  -3   0   1    1.70    2.80
  -3   0  -1    4.10    3.30
  -3   0   1    0.30    3.70
   3   0  -1    0.20    3.00
  -3   0  -1    0.20    2.70
  -3   0   2   -2.30    6.10
   3   0  -2   -9.20    5.30
   3   0  -2   -3.40    3.30
  -3   0  -2   -4.50    4.80
  -3   0  -2    0.40    4.60
  -3   0  -3   -9.90    6.60
  -3   0  -3   -4.30    6.60
   3   0  -3   -0.50    4.70
   3   0  -3    1.30    7.20
  -3   0  -4   13.90    9.70
  -3   0  -4  -10.90    9.10
   3   0  -4   -5.90    9.60
   3   0  -4   -1.90    6.80
  -3   0  -5   -6.60   11.20
   3   0  -5    7.40   13.60
  -3   0  -5    2.00   10.70
  -3   0  -6    4.50   15.90
   3   0  -6  -11.00   15.80
  -4   0   0  624.94   67.09
  -4   0   0  620.94   66.89
   4   0  -1   67.79   11.80
  -4   0   1   79.09   11.30
  -4   0  -1   96.39   12.60
  -4   0  -1   98.69   11.20
  -4   0   1   68.99   11.70
  -4   0  -2  395.06   41.80
  -4   0   2  349.37   41.80
   4   0  -2  377.16   42.20
  -4   0  -2  348.07   41.00
   4   0  -2  367.26   40.30
   4   0  -3   44.70    8.80
  -4   0  -3   39.90   11.00
   4   0  -3   28.70   11.00
  -4   0  -3   23.60    9.50
  -4   0  -4  178.38   25.50
  -4   0  -4  142.59   24.90
   4   0  -4  182.58   28.70
  -4   0  -5   21.00   11.60
   4   0  -5    9.60   14.00
  -4   0  -5   18.10   14.70
  -5   0   0   -4.00    3.70
  -5   0   0    0.10    3.50
   5   0  -1    3.30    4.20
  -5   0  -1    5.20    5.20
  -5   0   1    7.90    4.90
  -5   0  -1    3.80    4.50
  -5   0   1    3.90    4.30
   5   0  -2    1.70    3.90
   5   0  -2   11.30    7.10
  -5   0  -2    7.80    5.60
  -5   0   2   -9.40    5.80
  -5   0  -2   -1.00    6.20
  -5   0  -3    3.70    7.50
  -5   0  -3   -1.90    7.50
   5   0  -3    7.00   10.30
   5   0  -3    1.50    5.30
  -5   0  -4  -19.00    9.00
   5   0  -4    4.10   11.90
  -5   0  -4   -1.40    9.30
   5   0  -5    4.80   13.20
  -5   0  -5    5.10   12.70
  -5   0  -5   -4.50   12.90
  -6   0   0 4525.45  480.65
  -6   0   0 4564.44  480.15
  -6   0  -1  540.65   57.39
  -6   0  -1  512.05   57.49
   6   0  -1  546.05   57.39
  -6   0   1  519.35   57.39
  -6   0   1  480.85   57.19
  -6   0   2 3083.09  331.57
  -6   0  -2 3077.89  330.07
  -6   0   2 3114.79  330.07
   6   0  -2 3122.29  331.57
   6   0  -2 3119.09  330.17
  -6   0  -2 3188.68  331.47
   6   0  -3  280.47   38.80
   6   0  -3  274.17   33.40
  -6   0  -3  297.17   34.40
  -6   0  -3  302.27   37.80
   6   0  -4 1496.25  163.18
  -6   0  -4 1515.75  160.88
  -6   0  -4 1431.46  161.98
  -6   0  -5  115.59   22.40
   6   0  -5   74.19   21.20
  -7   0   0   -3.00    4.70
  -7   0   0    1.00    4.30
  -7   0   1    0.70    5.20
  -7   0   1   -5.20    4.60
   7   0  -1    5.40    5.30
  -7   0  -1   -7.20    4.70
  -7   0  -1    5.80    6.20
  -7   0  -2   -3.30    4.70
   7   0  -2   -7.20    6.60
  -7   0   2    7.10    7.60
   7   0  -2    5.40    5.20
  -7   0  -2   -6.10    6.70
  -7   0   2    1.70    5.20
   7   0  -3   -9.40    8.50
  -7   0   3    8.40    9.60
  -7   0  -3   -0.80    9.20
  -7   0  -3   16.80    7.80
  -7   0  -4    8.90   12.20
   7   0  -4    2.30   11.30
  -7   0  -5   18.10   13.60
   7   0  -5  -16.50   13.90
  -8   0   0  282.87   32.50
  -8   0   0  284.47   33.60
  -8   0  -1   87.39   11.90
   8   0  -1   62.49   11.80
  -8   0   1   57.29   11.90
  -8   0  -1   43.70   11.50
  -8   0   1   89.19   13.20
  -8   0   2  218.28   28.60
  -8   0   2  243.48   25.90
  -8   0  -2  149.49   26.80
   8   0  -2  199.38   28.00
   8   0  -2  217.28   26.50
   8   0  -3   30.30   13.40
  -8   0  -3   45.80   13.20
  -8   0  -4   84.59   18.60
   8   0  -4   78.99   19.80
  -8   0  -5   20.20   16.00
   8   0  -5   20.60   18.50
  -9   0   0    1.00    7.00
  -9   0   0    0.80    5.00
  -9   0   1   11.30    7.40
  -9   0   1   11.70    7.30
   9   0  -1    8.40    6.40
  -9   0  -1    1.70    6.90
  -9   0  -2    3.80    7.80
   9   0  -2   -8.40    6.50
  -9   0   2    3.20    7.40
   9   0  -2   14.40    9.40
  -9   0   2   13.10    8.60
  -9   0  -3   -4.40    9.50
   9   0  -3   -8.00   10.70
   9   0  -4  -12.90   10.80
  -9   0  -4  -22.00   10.70
   9   0  -5    5.40   18.00
  -9   0  -5  -34.10   13.30
 -10   0   0   11.80    7.90
 -10   0  -1  192.48   28.80
  10   0  -1  219.58   27.40
 -10   0   1  211.08   27.90
 -10   0   1  205.08   27.50
 -10   0   2    0.60    8.20
 -10   0  -2    7.40    9.30
  10   0  -2   15.30    8.50
  10   0  -2   -1.10    8.70
 -10   0   2    8.70    8.90
  10   0  -3  143.39   25.10
 -10   0  -3  123.89   23.10
  10   0  -4   -1.40   15.40
 -10   0  -4    6.80   14.50
 -11   0   0    0.60    8.90
 -11   0   1    3.00    8.80
  11   0  -1    1.90    8.40
 -11   0  -1   14.20    9.60
 -11   0   2   -6.70    8.80
  11   0  -2   -5.90    8.70
 -11   0  -2    1.40    9.60
  11   0  -2    3.30    8.60
 -11   0  -3   -8.10   10.40
  11   0  -3    1.70   12.10
  11   0  -4    9.20   16.00
 -11   0  -4    6.20   13.20
 -12   0   0 2495.55  268.37
 -12   0  -1  119.99   21.90
 -12   0   1  114.99   20.20
 -12   0  -2 2098.09  224.88
  12   0  -2 2033.70  228.28
  12   0  -3   64.09   19.50
 -12   0  -3   77.99   18.90
 -12   0  -4 1005.40  118.09
  12   0  -4 1060.69  117.79
 -13   0   0    6.40   11.00
 -13   0   1    3.30   10.70
 -13   0  -1   -1.10   11.50
 -13   0  -2    9.40   13.10
 -13   0  -3   -3.90   14.40
 -14   0   0   42.50   16.20
 -14   0   1   36.40   14.00
 -14   0  -1   20.40   13.00
 -14   0  -2   60.49   19.70
 -14   0  -3   -5.40   15.20
 -15   0   0  -12.90   10.90
 -15   0  -1   -9.90   11.00
 -15   0  -2   -7.70   14.70
 -16   0   0   81.69   21.00
 -16   0  -1    7.30   16.70
   0  -1   0   -0.50    0.40
   0   1   0   -0.20    0.40
   0   1   0    0.70    1.00
   0   1  -1   -4.00    3.00
   0  -1  -1   -2.60    3.80
   0   1  -1    1.10    4.30
   0  -1  -1    2.40    4.10
   0   1   1   -5.90    3.70
   0  -1  -2    1.20    5.70
   0   1  -2   -1.20    3.40
   0  -1  -2    0.30    4.10
   0   1  -2    5.40    5.20
   0   1   2    2.00    5.00
   0  -1  -3  -10.00    5.40
   0   1  -3  -11.30    6.30
   0  -1  -3    4.20    5.90
   0   1  -3   -6.10    5.00
   0   1  -4    0.70   10.40
   0  -1  -4   10.40    8.60
   0   1  -4   -4.80    6.70
   0  -1  -4    1.60   10.20
   0  -1  -5   -3.30   11.40
   0   1  -5   -3.00   11.00
   0  -1  -5   -2.70    9.60
   0   1  -6   -0.30   14.60
   0  -1  -6  -18.30   14.40
  -1   1   0   25.80    4.30
  -1   1   0   32.90    5.70
  -1  -1   0   34.80    4.10
   1   1  -1  227.28   23.90
  -1  -1  -1  193.88   24.80
  -1  -1  -1  223.68   24.50
  -1   1   1  207.98   25.00
   1   1  -1  217.78   24.80
  -1   1  -1  229.28   24.90
   1   1   1  223.08   24.40
   1  -1  -1  193.68   25.00
   1  -1  -1  226.48   24.40
  -1   1  -1  233.88   24.40
   1   1  -2   23.00    6.80
  -1  -1  -2   15.20    6.30
   1   1  -2   14.60    4.60
  -1  -1  -2    3.60    5.30
  -1   1   2   21.40    6.50
   1  -1  -2   23.30    5.80
  -1   1  -2   17.40    6.30
  -1   1  -2   16.70    5.20
   1  -1  -2    9.00    6.10
   1   1  -3   73.09   14.60
   1   1  -3   93.69   13.50
  -1  -1  -3   66.79   14.00
  -1  -1  -3   94.09   14.90
   1  -1  -3   89.49   15.90
  -1   1  -3   85.99   13.40
  -1   1  -3   79.89   14.90
   1  -1  -3   83.79   13.50
   1   1  -4    8.60    7.80
   1   1  -4    7.80   10.50
  -1  -1  -4    8.50    8.60
  -1  -1  -4  -11.10    8.00
  -1   1  -4    6.70    9.10
   1  -1  -4    3.90    8.00
   1  -1  -4   15.70   10.60
  -1   1  -4   18.00   11.00
  -1  -1  -5   11.80   10.90
   1   1  -5   13.70   14.20
  -1  -1  -5   49.70   14.50
   1  -1  -5    7.70   12.50
  -1   1  -5   17.90   13.10
  -1  -1  -6  -15.80   13.80
   1   1  -6   14.20   18.00
  -1   1  -6    5.90   16.40
   1  -1  -6   11.80   16.00
  -2   1   0   92.49   12.80
  -2  -1   0   76.19    9.70
  -2   1   0   84.89   10.60
   2   1  -1  121.69   12.50
  -2   1   1  105.49   14.60
  -2   1   1  109.89   13.30
   2   1  -1  125.29   14.70
  -2  -1  -1  103.39   13.00
  -2  -1  -1  120.89   14.40
  -2   1  -1   86.49   13.50
   2  -1  -1  115.79   13.80
  -2   1  -1  136.09   14.60
   2  -1  -1   97.79   14.80
   2   1  -2   39.60    9.20
  -2  -1  -2   36.10    8.60
  -2   1   2   35.60    8.90
  -2  -1  -2   45.60    8.80
   2   1  -2   50.79    7.40
   2  -1  -2   39.10    7.10
  -2   1  -2   55.49    9.00
   2  -1  -2   40.80    9.40
  -2   1  -2   34.70    8.80
  -2  -1  -3   46.90   11.00
   2   1  -3   15.50   10.20
   2   1  -3   46.70    8.50
  -2  -1  -3   34.10   10.10
  -2   1  -3   30.40    8.80
   2  -1  -3   61.99   10.10
   2  -1  -3   35.00   11.00
  -2   1  -3   64.79   12.60
  -2  -1  -4   10.10   10.30
  -2  -1  -4   36.70   11.50
   2   1  -4    8.70    8.20
   2   1  -4   17.70   12.80
   2  -1  -4   19.80   12.90
   2  -1  -4   20.70    8.80
  -2   1  -4   12.50   11.10
  -2   1  -4   29.20    9.70
   2   1  -5    6.10   13.90
  -2  -1  -5   17.40   13.30
  -2  -1  -5   37.90   13.20
  -2   1  -5   15.10   10.80
   2  -1  -5   22.50   13.90
  -2   1  -5   18.00   14.70
   2   1  -6    3.80   16.80
  -2  -1  -6    8.20   16.30
   2  -1  -6   12.40   15.70
  -2   1  -6    4.70   16.50
  -3  -1   0    4.50    3.00
  -3   1   0    3.10    3.70
  -3  -1   0    5.50    2.10
   3   1   0    4.30    2.00
  -3   1   0    3.60    5.70
  -3   1   1 1704.33  180.18
   3   1  -1 1676.13  180.38
  -3   1   1 1691.43  180.78
   3   1  -1 1710.43  179.58
  -3  -1  -1 1699.23  179.58
  -3  -1  -1 1696.73  180.48
  -3   1  -1 1702.03  180.28
   3  -1  -1 1692.03  180.08
  -3  -1   1 1710.43  180.38
  -3  -1   1 1700.33  179.58
  -3   1  -1 1694.33  180.18
  -3   1   2   -2.50    6.00
  -3  -1  -2   -4.80    4.30
   3   1  -2    1.20    3.10
   3   1  -2   -6.10    5.30
  -3  -1  -2   -5.20    4.10
  -3   1  -2    0.20    4.80
   3  -1  -2    0.20    6.00
  -3   1  -2    3.70    4.40
   3  -1  -2    4.40    3.80
  -3  -1  -3  760.82   82.99
  -3   1   3  740.73   83.49
   3   1  -3  767.12   81.29
  -3  -1  -3  746.93   82.69
   3   1  -3  774.52   83.99
  -3   1  -3  712.73   82.79
  -3   1  -3  805.12   82.69
   3  -1  -3  677.33   83.39
   3  -1  -3  757.22   81.89
  -3  -1  -4   -0.80    7.90
  -3  -1  -4   -2.40    9.40
   3   1  -4   -1.60    9.40
   3  -1  -4   -4.20    7.50
  -3   1  -4   -1.80   10.30
  -3   1  -4    6.60    8.80
   3  -1  -4   10.40   10.30
   3   1  -5  255.17   38.20
  -3  -1  -5  270.97   35.40
  -3  -1  -5  212.88   34.80
  -3   1  -5  255.97   37.50
  -3   1  -5  303.27   36.50
   3  -1  -5  217.98   36.90
   3   1  -6  -11.70   15.80
  -3  -1  -6   27.00   16.10
  -3   1  -6   -9.70   15.80
   3  -1  -6   -7.20   14.10
  -4   1   0 2435.76  259.17
   4   1   0 2463.25  257.77
  -4   1   0 2430.96  258.67
  -4  -1   0 2446.86  257.77
  -4  -1   0 2429.46  258.37
  -4   1   1   98.19   11.60
  -4  -1  -1   73.59   11.20
   4   1  -1   59.79   10.40
  -4   1   1   63.79   11.50
  -4  -1  -1   74.29    9.30
  -4   1  -1   68.89   10.70
  -4  -1   1   94.09   10.50
  -4   1  -1   70.49   10.70
   4  -1  -1   63.89   10.70
  -4  -1   1   69.79   10.50
  -4  -1  -2 1548.25  163.28
  -4  -1  -2 1511.05  164.58
  -4   1   2 1585.24  164.78
   4   1  -2 1509.75  162.68
   4   1  -2 1569.84  164.68
   4  -1  -2 1520.05  163.38
  -4   1  -2 1488.65  164.08
   4  -1  -2 1532.35  164.88
  -4   1  -2 1547.25  163.78
   4   1  -3   32.00    7.30
  -4   1   3   34.40   11.10
   4   1  -3   28.00   11.80
  -4  -1  -3   41.80    9.60
  -4  -1  -3   43.80   11.30
   4  -1  -3   42.20    8.90
  -4   1  -3   28.10    8.90
  -4   1  -3   24.80    9.40
   4  -1  -3   20.20   10.90
  -4  -1  -4  681.33   72.29
  -4  -1  -4  615.54   72.29
   4   1  -4  608.24   73.79
   4  -1  -4  652.43   74.29
   4  -1  -4  600.34   70.69
  -4   1  -4  638.14   72.39
  -4   1  -4  643.54   72.29
   4   1  -5   -2.40   13.30
  -4  -1  -5   17.00   12.60
  -4  -1  -5   -9.10   11.20
   4  -1  -5   24.20   16.60
  -4   1  -5   13.50   12.60
  -4   1  -5   -7.00   13.20
  -5  -1   0  174.28   19.50
   5   1   0  179.58   19.50
  -5  -1   0  159.68   20.40
  -5   1   0  170.68   20.80
  -5   1   0  188.18   22.60
  -5   1   1  110.09   15.90
  -5  -1  -1  116.39   13.90
  -5  -1  -1  111.69   16.10
  -5   1   1  104.39   16.20
   5   1  -1  151.98   16.50
  -5   1  -1  106.29   16.00
  -5  -1   1  112.49   14.90
  -5   1  -1  118.09   15.90
  -5  -1   1  114.99   15.70
   5   1  -2  113.79   15.10
  -5   1   2  141.99   19.50
  -5  -1  -2  123.99   18.00
  -5  -1  -2  107.99   15.70
   5   1  -2  128.89   18.30
  -5   1  -2  128.59   17.70
  -5  -1   2  129.19   18.10
   5  -1  -2   99.89   15.70
  -5   1  -2  140.39   17.30
   5  -1  -2  136.69   19.40
   5   1  -3   50.99    9.00
  -5   1   3   89.89   15.80
  -5  -1  -3   29.80   11.30
   5   1  -3   41.10   12.10
  -5  -1  -3   45.70   10.80
  -5   1  -3   34.80   10.80
   5  -1  -3   60.39   15.00
  -5   1  -3   49.60   12.50
   5  -1  -3   49.80   10.10
  -5  -1  -4   54.99   13.90
  -5  -1  -4   46.30   13.40
   5   1  -4   63.39   16.50
  -5   1  -4   59.09   14.60
  -5   1  -4   27.70   12.80
   5  -1  -4   65.39   18.30
   5   1  -5   11.30   15.20
  -5  -1  -5   20.60   12.00
  -5   1  -5   23.20   13.50
  -5   1  -5   10.90   14.40
   5  -1  -5   48.60   17.10
  -6   1   0   17.30    6.70
  -6  -1   0    4.80    3.20
  -6   1   0   -0.50    4.20
   6   1   0    9.10    3.40
  -6  -1   0    3.60    4.00
  -6  -1  -1   16.40    5.20
  -6   1   1   10.20    5.60
   6   1  -1   10.50    5.10
  -6   1   1    4.70    4.90
  -6  -1  -1   10.30    5.80
  -6   1  -1   16.80    6.00
  -6  -1   1    4.10    4.40
  -6   1  -1    4.10    7.30
  -6  -1   1    4.40    4.90
  -6   1   2    6.40    5.10
  -6   1   2   10.60    7.10
   6   1  -2    1.10    6.30
   6   1  -2    4.10    4.20
  -6  -1  -2    7.10    6.10
  -6  -1  -2    5.50    4.60
  -6  -1   2    3.50    3.80
  -6  -1   2    4.30    6.20
  -6   1  -2    4.70    6.20
   6  -1  -2    7.70    5.30
   6  -1  -2    0.00    6.20
  -6   1  -2    6.00    5.60
   6   1  -3   -2.60    8.20
  -6   1   3   -5.60    8.30
  -6  -1  -3   -2.70    7.80
  -6  -1  -3    6.50    6.90
  -6   1  -3   -2.20    7.10
   6  -1  -3   -0.80    9.70
   6  -1  -3    3.90    6.40
  -6   1  -3   -4.30    7.20
  -6  -1  -4  -11.60    9.60
   6   1  -4    3.00   11.80
  -6   1  -4    2.10   10.60
   6  -1  -4   -0.70   13.30
  -6   1  -4   13.10   11.10
   6   1  -5   -8.80   13.30
  -6  -1  -5   -0.80   13.50
  -6   1  -5   11.60   12.20
   6  -1  -5   10.70   15.60
  -7   1   0  125.99   17.10
   7   1   0  111.99   14.10
  -7   1   0  100.09   16.10
  -7  -1   0  109.29   14.20
  -7  -1   0  124.59   16.50
  -7  -1  -1   93.99   11.10
  -7   1   1   79.39   13.70
   7   1  -1   82.19   12.40
  -7  -1  -1   65.79   12.90
  -7   1   1   90.49   14.10
  -7   1  -1   82.19   14.60
  -7   1  -1   75.99   13.40
  -7  -1   1   88.09   13.00
  -7  -1   1   62.39   12.00
  -7  -1  -2   87.19   11.20
  -7   1   2   59.69   11.80
  -7  -1  -2   63.99   13.40
   7   1  -2   90.29   14.60
   7   1  -2   72.99   11.20
  -7   1   2   60.09   13.40
  -7  -1   2   58.79   10.60
   7  -1  -2   43.10   11.10
  -7  -1   2   96.39   14.70
  -7   1  -2   77.59   13.10
   7  -1  -2   79.09   14.30
  -7   1  -2   82.39   14.40
  -7  -1  -3   27.50   11.30
  -7   1   3   37.70   13.00
   7   1  -3   18.80   10.40
   7  -1  -3   14.60    8.20
  -7   1  -3   24.80    9.60
  -7   1  -3   43.60   11.90
   7  -1  -3   40.00   13.70
   7   1  -4   27.00   15.20
  -7  -1  -4   40.10   14.80
   7  -1  -4   24.20   14.20
  -7   1  -4   21.80   12.70
   7   1  -5   22.20   17.60
  -7  -1  -5   34.80   14.90
  -7   1  -5   21.20   14.10
   7  -1  -5    5.50   15.00
  -8  -1   0  580.24   62.69
  -8  -1   0  573.84   60.99
  -8   1   0  541.05   62.19
  -8   1   0  573.94   62.99
   8   1   0  552.84   60.89
  -8   1   1  488.65   60.29
   8   1  -1  517.25   59.29
  -8   1   1  541.35   60.19
  -8  -1  -1  537.25   60.39
   8  -1  -1  542.95   60.59
  -8   1  -1  574.84   60.99
  -8   1  -1  582.34   60.69
  -8  -1   1  537.45   59.49
  -8  -1   1  530.95   59.79
  -8   1   2  385.76   46.30
  -8   1   2  422.96   47.80
   8   1  -2  414.86   45.80
   8   1  -2  408.96   47.40
  -8  -1  -2  419.46   47.80
   8  -1  -2  382.36   47.70
  -8  -1   2  409.66   45.70
   8  -1  -2  395.96   46.20
  -8   1  -2  387.86   46.40
  -8   1  -2  409.06   47.40
  -8  -1   2  426.46   47.30
   8   1  -3  305.57   40.30
  -8  -1  -3  302.37   40.50
  -8   1   3  329.37   40.80
  -8   1  -3  354.36   41.40
   8  -1  -3  276.67   40.70
   8  -1  -3  281.17   37.00
   8   1  -4  170.38   30.40
  -8  -1  -4  214.48   31.60
   8  -1  -4  174.18   31.70
  -8   1  -4  243.78   32.70
  -8  -1  -5  115.79   24.70
   8   1  -5   91.19   24.50
  -8   1  -5   99.49   21.80
   8  -1  -5  107.89   25.30
  -9  -1   0   17.20    5.50
  -9  -1   0    6.50    6.90
   9   1   0    5.60    4.20
  -9   1   0    6.60    7.80
  -9   1   0   10.40    7.60
  -9   1   1  380.56   44.80
  -9   1   1  376.26   44.20
  -9  -1  -1  343.67   44.20
   9   1  -1  382.76   43.30
  -9  -1   1  366.66   43.90
   9  -1  -1  408.06   44.70
  -9   1  -1  378.56   45.10
  -9  -1   1  392.66   43.50
  -9   1  -1  383.96   44.20
  -9   1   2   23.50    9.10
   9   1  -2    8.20    8.40
   9   1  -2    7.00    6.90
  -9   1   2   16.20    9.00
  -9  -1  -2    5.80    9.20
  -9   1  -2   11.90    8.50
  -9  -1   2    8.60    7.20
   9  -1  -2   11.30    8.30
  -9  -1   2   -7.00    7.80
   9  -1  -2    7.50    9.20
  -9   1   3  223.68   33.40
  -9  -1  -3  311.27   36.00
   9   1  -3  257.97   34.50
  -9   1  -3  161.58   30.70
   9  -1  -3  262.17   35.20
   9   1  -4    7.50   14.10
  -9  -1  -4    8.30   12.20
   9  -1  -4    6.60   15.80
  -9   1  -4   -1.70   10.90
   9   1  -5   90.89   24.40
  -9  -1  -5   49.10   19.50
  -9   1  -5   94.29   21.20
   9  -1  -5   85.79   23.10
 -10   1   0  327.97   39.40
 -10  -1   0  302.17   37.80
 -10   1   0  267.47   36.00
 -10  -1  -1  288.97   40.50
 -10   1   1  321.77   39.20
  10   1  -1  328.77   38.30
 -10   1   1  344.87   41.50
 -10  -1   1  319.97   38.10
  10  -1  -1  332.17   39.00
 -10   1  -1  365.86   42.60
 -10  -1   1  330.67   40.40
 -10   1   2  242.78   30.90
 -10   1   2  236.88   32.10
  10   1  -2  241.78   31.20
 -10  -1  -2  187.08   30.50
  10  -1  -2  232.08   30.20
 -10   1  -2  209.38   31.10
  10  -1  -2  198.48   30.60
 -10  -1  -3  219.68   32.60
  10   1  -3  200.48   31.30
 -10   1   3  173.48   30.80
 -10   1  -3  217.68   32.50
  10  -1  -3  312.97   36.70
  10   1  -4  117.29   22.80
 -10  -1  -4   83.09   21.20
  10  -1  -4   58.79   20.70
 -10   1  -4  117.39   21.60
 -11  -1   0   73.39   16.20
 -11   1   0  122.59   19.80
 -11   1   1   27.00   10.80
 -11   1   1    8.10    9.10
 -11  -1  -1   14.30   10.10
 -11   1  -1   11.70   10.60
 -11  -1   1    6.40    8.80
  11  -1  -1   28.70    9.70
 -11   1   2   80.79   17.10
 -11   1   2   58.09   15.00
  11   1  -2   87.99   16.90
 -11  -1  -2   62.39   16.00
  11  -1  -2   64.89   14.70
 -11   1  -2   86.69   18.30
  11  -1  -2   75.89   16.20
  11   1  -3    4.30   11.70
 -11   1   3   -6.70   11.50
 -11  -1  -3    0.60   12.40
 -11   1  -3   -2.30   11.10
  11  -1  -3   20.20   13.30
 -11  -1  -4   13.80   16.10
  11   1  -4   40.80   17.80
  11  -1  -4   50.99   19.10
 -11   1  -4   23.90   17.60
 -12   1   0   -4.10    9.40
 -12  -1   0   -3.90    8.80
 -12   1   1   60.79   14.50
 -12  -1  -1   63.09   15.60
 -12   1  -1   53.09   15.80
 -12  -1   1   50.09   13.60
 -12  -1  -2   13.10   11.10
 -12   1   2   -1.20   11.00
 -12   1  -2   -5.20   10.70
  12  -1  -2   -6.70    8.80
  12  -1  -2    7.90   10.40
  12   1  -3   40.00   15.90
 -12   1   3   14.40   14.60
 -12  -1  -3   18.70   15.40
 -12   1  -3   41.90   17.10
  12  -1  -3   44.50   16.70
 -12  -1  -4   20.70   15.60
  12   1  -4    4.90   14.90
  12  -1  -4   -1.60   14.70
 -12   1  -4   42.30   18.00
 -13  -1   0  271.97   33.30
 -13   1   0  160.28   28.60
 -13   1   1    1.20   10.80
 -13  -1  -1   -2.70   10.80
 -13  -1   1   18.70   11.30
 -13   1  -1   15.30   11.10
 -13  -1  -2  188.58   29.60
 -13   1  -2  140.19   27.10
 -13  -1  -3   15.30   13.90
 -13   1  -3   22.60   17.60
  13  -1  -3    2.10   14.30
 -14  -1   0   13.90   13.50
 -14   1   0   17.40   14.00
 -14   1   1   22.30   13.50
 -14  -1  -1   -2.90   11.40
 -14   1  -1   -1.40   11.30
 -14  -1  -2   -2.10   14.50
 -14   1  -2    6.10   15.30
 -14  -1  -3   -2.60   14.40
 -14   1  -3    6.70   14.30
 -15   1   0   18.90   14.40
 -15  -1   0   24.10   15.00
 -15  -1  -1   13.00   14.90
 -15   1   1   29.00   15.00
 -15   1  -1   22.80   15.10
 -15  -1  -2   27.30   15.80
 -15   1  -2   42.40   18.40
 -16  -1   0  381.76   52.49
 -16   1   0  391.66   52.69
 -16  -1  -1   37.20   17.40
 -16   1  -1   19.20   15.30
   0   2   0  171.58   18.80
   0  -2   0  174.08   18.70
   0   2   0  168.48   19.90
   0   2  -1   82.09    9.30
   0   2   1   76.39   11.30
   0  -2  -1   64.09   10.30
   0   2  -1   93.49   11.50
   0   2  -2   78.09   14.40
   0   2   2   76.49   14.30
   0   2  -2  121.89   13.50
   0  -2  -2  118.09   15.60
   0  -2  -2  101.09   14.20
   0  -2  -3   24.40   10.20
   0  -2  -3   38.00    9.80
   0   2  -3   39.60   10.70
   0   2  -3   24.90    7.60
   0  -2  -4   34.50   11.00
   0   2  -4   29.60   13.50
   0   2  -4   34.90    9.40
   0  -2  -4   29.10   12.70
   0   2  -5    9.70   12.80
   0  -2  -5    7.90   10.40
   0  -2  -5  -11.60   10.70
   0  -2  -6    5.00   15.80
   0   2  -6    9.40   17.60
   1   2   0  213.88   22.50
  -1   2   0  173.58   22.50
  -1  -2   0  215.18   22.20
  -1   2   0  223.08   25.70
  -1  -2  -1 1018.20  108.09
   1   2  -1 1035.20  107.19
  -1  -2  -1 1006.10  108.49
   1   2  -1  990.20  108.29
  -1   2   1 1019.20  108.89
   1   2   1 1029.90  108.09
  -1   2  -1 1014.50  107.79
  -1   2  -1  996.30  108.39
   1  -2  -1 1013.60  108.09
  -1  -2  -2  112.29   16.20
   1   2  -2  106.19   13.70
  -1   2   2  124.99   16.60
   1   2  -2  105.79   15.90
  -1  -2  -2  104.29   15.60
  -1   2  -2  109.49   16.00
   1  -2  -2  119.59   16.60
   1  -2  -2  105.29   14.90
  -1   2  -2  113.29   14.40
   1   2   2  102.49   15.20
  -1  -2  -3  395.26   46.60
   1   2  -3  445.76   47.30
   1   2  -3  370.26   44.60
  -1  -2  -3  422.46   46.10
  -1   2   3  377.66   46.40
  -1   2  -3  397.86   45.10
   1  -2  -3  371.86   45.40
  -1   2  -3  440.96   47.00
   1  -2  -3  427.06   47.00
  -1  -2  -4   29.50   12.20
   1   2  -4   41.90   15.60
   1   2  -4   42.10   14.40
  -1  -2  -4   50.09   12.80
  -1   2  -4   52.19   15.10
  -1   2  -4   37.50   10.40
   1  -2  -4   40.60   11.40
   1  -2  -4   53.09   13.90
   1   2  -5  185.18   27.90
  -1  -2  -5  160.68   25.70
  -1  -2  -5  148.29   23.60
  -1   2  -5  124.59   25.10
   1  -2  -5  128.99   23.30
   1  -2  -5  131.99   25.00
   1   2  -6   45.10   19.00
  -1  -2  -6    4.70   14.50
   1  -2  -6    4.10   15.70
  -1   2  -6    0.40   15.50
   2   2   0  192.78   21.20
  -2   2   0  192.28   26.00
  -2   2   0  190.08   22.30
  -2  -2   0  201.88   21.80
  -2  -2  -1  557.34   59.69
  -2   2   1  558.84   61.09
   2   2  -1  571.74   60.29
  -2  -2  -1  545.75   60.39
  -2   2   1  575.04   60.29
  -2   2  -1  574.24   60.59
   2   2   1  549.15   59.69
  -2   2  -1  549.54   59.89
   2  -2  -1  543.15   60.09
  -2   2   2  100.19   17.20
  -2  -2  -2  110.29   16.40
   2   2  -2  117.49   13.80
  -2  -2  -2  122.39   16.00
   2   2  -2  105.09   16.20
  -2   2  -2  127.69   17.00
  -2   2  -2   99.49   14.70
   2  -2  -2  118.09   15.00
   2  -2  -2  110.79   16.90
   2   2  -3  236.58   32.70
  -2  -2  -3  220.58   31.50
  -2  -2  -3  272.87   31.90
  -2   2   3  224.68   32.30
   2   2  -3  237.18   28.40
   2  -2  -3  271.67   29.90
  -2   2  -3  272.77   29.80
   2  -2  -3  282.27   34.10
  -2   2  -3  210.18   31.40
  -2  -2  -4   48.10   13.50
  -2  -2  -4   18.00   10.90
   2   2  -4   44.50   15.10
   2  -2  -4   41.30   14.30
   2  -2  -4   35.00   11.20
  -2   2  -4   35.80   10.20
  -2   2  -4   31.00   14.30
   2   2  -5   75.99   20.50
  -2  -2  -5   83.29   17.10
  -2  -2  -5   64.89   17.10
   2  -2  -5   73.69   20.10
  -2   2  -5  103.59   22.50
   2   2  -6   19.40   16.70
  -2  -2  -6    2.20   14.70
  -2   2  -6  -13.50   16.10
   2  -2  -6    5.30   16.40
  -3   2   0   29.30   10.40
  -3  -2   0   31.70    5.30
   3   2   0   35.90    4.40
  -3   2   0   24.10    6.10
  -3  -2  -1    0.40    2.20
  -3   2   1   -1.90    4.90
  -3  -2  -1   -1.80    3.70
   3   2  -1   -4.00    2.70
  -3   2   1   -3.90    3.40
  -3  -2   1   -0.80    1.60
  -3   2  -1    2.10    4.40
   3  -2  -1    1.00    3.20
  -3   2  -1   -0.10    2.90
   3   2  -2   17.60    7.70
  -3   2   2    8.20    6.70
  -3  -2  -2    9.20    5.20
  -3  -2  -2   16.50    7.00
   3   2  -2   14.90    3.70
   3  -2  -2   16.20    7.60
  -3   2  -2   10.10    4.90
  -3   2  -2    7.90    5.70
   3  -2  -2   18.30    5.00
   3   2  -3   -1.50    7.10
  -3  -2  -3   -3.40    7.10
  -3  -2  -3   -0.10    6.40
  -3   2   3    4.60    7.70
   3   2  -3    1.20    4.40
  -3   2  -3   -1.50    7.30
   3  -2  -3    6.80    5.70
   3  -2  -3    9.30    9.20
  -3   2  -3    0.40    6.20
   3   2  -4   -8.70    9.60
  -3  -2  -4   -1.10    9.30
  -3  -2  -4    4.70    9.10
  -3   2  -4    4.10    8.50
   3  -2  -4    2.20    8.10
  -3   2  -4    7.90   11.60
   3  -2  -4   14.50   12.40
  -3  -2  -5    7.50   11.40
  -3  -2  -5   -4.60   10.80
   3   2  -5   -3.30   13.00
   3  -2  -5   -1.50   12.30
  -3   2  -5    4.50   14.00
  -3   2  -5  -10.60   10.10
   3   2  -6   -8.20   14.40
  -3  -2  -6    0.00   13.40
   3  -2  -6    8.00   16.10
  -3   2  -6   12.50   17.90
  -4  -2   0 1032.60  112.29
  -4   2   0 1044.50  112.79
   4   2   0 1063.49  111.39
  -4   2   0 1074.09  114.39
  -4  -2  -1   69.39   11.40
   4   2  -1   84.59   11.20
  -4   2   1   70.59   11.40
  -4   2   1   94.49   14.00
  -4  -2  -1   76.29    9.10
  -4  -2   1   81.19    9.90
  -4   2  -1   80.79   12.60
  -4   2  -1   72.79   11.30
   4  -2  -1   69.19   11.10
   4   2  -2  618.54   68.19
  -4  -2  -2  667.53   70.69
   4   2  -2  643.44   70.39
  -4   2   2  683.73   71.29
  -4  -2  -2  650.13   69.09
   4  -2  -2  622.64   69.39
  -4   2  -2  621.74   69.89
  -4   2  -2  637.84   69.99
   4  -2  -2  619.04   70.89
  -4  -2  -3   43.30    9.60
  -4  -2  -3   28.00   10.60
  -4   2   3   24.70   11.20
   4   2  -3   32.50   11.40
   4   2  -3   26.80    6.80
   4  -2  -3   25.50   11.00
  -4   2  -3   18.40    8.40
   4  -2  -3   31.00    8.10
  -4   2  -3   32.40   10.70
  -4  -2  -4  285.87   36.30
  -4  -2  -4  217.78   35.10
   4   2  -4  297.47   39.40
   4  -2  -4  218.28   37.00
  -4   2  -4  335.17   39.60
   4  -2  -4  301.37   35.40
  -4   2  -4  273.57   35.50
  -4  -2  -5   46.50   14.70
  -4  -2  -5    2.30   12.10
   4   2  -5   -2.10   14.80
  -4   2  -5   26.20   14.10
   4  -2  -5   50.49   18.30
  -4   2  -5   18.00   12.50
  -5  -2   0  435.06   49.80
  -5   2   0  491.35   52.29
  -5   2   0  465.25   50.69
   5   2   0  453.85   48.70
  -5   2   1 1324.47  144.89
  -5  -2  -1 1305.77  144.69
  -5   2   1 1361.86  145.69
   5   2  -1 1356.96  144.29
  -5   2  -1 1379.96  145.29
  -5   2  -1 1354.16  144.89
  -5  -2   1 1380.06  143.79
  -5  -2  -2  291.87   33.10
  -5  -2  -2  301.07   37.30
   5   2  -2  247.48   35.50
  -5   2   2  290.67   37.60
   5   2  -2  303.87   32.70
  -5   2  -2  310.47   34.80
   5  -2  -2  306.17   35.90
   5  -2  -2  311.87   34.20
  -5   2  -2  291.07   34.90
  -5  -2  -3  703.33   80.99
  -5   2   3  726.93   81.59
   5   2  -3  699.63   80.99
  -5  -2  -3  751.42   79.29
   5  -2  -3  763.52   79.19
  -5   2  -3  667.93   79.79
   5  -2  -3  734.53   81.69
  -5   2  -3  709.73   80.19
   5   2  -4  132.69   24.40
  -5  -2  -4  168.38   22.90
  -5  -2  -4  143.69   23.40
  -5   2  -4  187.48   26.00
  -5   2  -4  126.89   22.30
   5  -2  -4  103.19   20.10
   5  -2  -4  138.69   25.60
   5   2  -5  232.18   37.60
  -5  -2  -5  257.37   36.10
   5  -2  -5  285.17   42.60
  -5   2  -5  232.88   35.40
   6   2   0  376.36   40.60
  -6  -2   0  393.96   42.10
  -6   2   0  328.47   42.70
  -6   2   0  428.96   44.50
  -6   2   1 1380.46  151.18
  -6   2   1 1460.45  150.78
   6   2  -1 1400.56  149.69
  -6  -2  -1 1423.56  150.58
  -6   2  -1 1373.16  151.48
  -6   2  -1 1366.96  150.58
  -6  -2   1 1406.36  149.39
  -6   2   2  251.87   30.20
   6   2  -2  255.07   31.10
  -6   2   2  235.08   32.10
  -6  -2  -2  226.48   27.20
  -6  -2  -2  224.68   30.70
   6   2  -2  260.07   27.40
   6  -2  -2  245.88   28.90
  -6   2  -2  218.98   30.00
   6  -2  -2  250.57   32.30
  -6  -2   2  236.58   27.00
  -6   2  -2  263.07   31.00
  -6  -2  -3  662.23   74.99
  -6   2   3  731.83   78.79
  -6  -2  -3  654.33   77.39
   6   2  -3  693.13   77.39
   6  -2  -3  623.94   78.19
   6  -2  -3  664.53   75.39
  -6   2  -3  728.53   76.69
  -6   2  -3  749.23   77.49
  -6  -2  -4   67.89   17.90
  -6   2   4  132.79   23.20
   6   2  -4  112.99   21.30
   6  -2  -4  112.09   22.70
  -6   2  -4   71.89   17.90
  -6   2  -4  143.89   22.20
   6   2  -5  242.08   39.20
  -6  -2  -5  252.77   36.60
  -6   2  -5  283.07   38.50
  -6   2  -5  303.27   50.49
   6  -2  -5  236.58   40.60
  -7   2   0   -2.80    5.80
   7   2   0    1.60    2.70
  -7  -2   0   -0.80    4.40
  -7   2   0   -5.50    6.90
   7   2  -1   98.89   13.60
  -7   2   1   77.39   15.40
  -7   2   1   90.39   14.90
  -7  -2  -1   87.09   14.80
  -7   2  -1   72.99   15.70
  -7   2  -1  109.29   16.00
  -7  -2   1   95.79   13.30
  -7  -2  -2   -3.60    6.40
  -7   2   2   -5.10    6.00
   7   2  -2    1.60    6.60
  -7   2   2    1.50    8.60
   7   2  -2    4.70    4.50
   7  -2  -2    3.10    6.00
   7  -2  -2    1.00    8.70
  -7  -2   2    3.10    3.90
  -7   2  -2   13.50    7.60
  -7   2  -2    5.90    7.50
  -7   2   3   49.80   15.60
  -7  -2  -3   61.29   14.80
   7   2  -3   42.20   13.70
  -7   2  -3   50.39   12.60
   7  -2  -3   49.30   11.30
  -7   2  -3   58.49   13.50
   7  -2  -3   33.10   14.50
  -7   2   4   -2.10   12.00
  -7  -2  -4    2.40   10.90
   7   2  -4    4.80   11.50
  -7   2  -4   -3.30    9.30
   7  -2  -4   -8.60   12.00
  -7   2  -4    3.80   10.50
   7   2  -5    4.00   15.90
  -7  -2  -5   55.69   18.20
  -7   2  -5   25.70   14.90
   7  -2  -5   -0.80   18.00
  -8  -2   0  288.37   36.30
   8   2   0  316.97   34.20
  -8   2   0  336.57   39.60
  -8   2   0  316.47   37.70
  -8  -2  -1  111.39   19.30
  -8   2   1  133.49   20.90
  -8   2   1  117.09   19.90
   8   2  -1  136.69   18.50
  -8   2  -1  171.18   23.20
  -8   2  -1  125.89   20.00
  -8  -2   1  172.58   19.40
  -8  -2  -2  204.08   28.80
  -8   2   2  204.18   28.00
  -8   2   2  245.38   31.00
   8   2  -2  213.38   26.20
   8   2  -2  226.28   29.00
  -8   2  -2  245.08   29.40
   8  -2  -2  183.38   27.30
  -8  -2   2  214.68   25.30
  -8   2  -2  184.98   28.20
   8  -2  -2  235.78   31.30
  -8   2   3   63.09   17.50
  -8  -2  -3   67.59   16.40
   8   2  -3   46.50   14.50
  -8   2  -3   83.29   16.00
   8  -2  -3  121.09   16.40
   8  -2  -3   97.99   19.90
  -8   2  -3   63.59   16.20
   8   2  -4   55.69   16.40
  -8   2   4   86.29   19.90
  -8  -2  -4   74.39   18.70
   8  -2  -4   50.49   18.70
  -8   2  -4   71.69   16.70
   8   2  -5   26.00   17.90
  -8  -2  -5   55.69   17.90
   8  -2  -5   -4.60   16.70
  -8   2  -5   54.89   17.40
  -9  -2   0   44.20   11.30
  -9   2   0   77.59   13.80
  -9   2   0   33.40   11.50
   9   2  -1    8.00    6.30
  -9   2   1    1.00    7.40
  -9   2   1    8.00    8.40
  -9  -2  -1    0.30    6.60
  -9   2  -1   -8.10    8.00
  -9   2  -1   -9.10    8.20
  -9  -2   1    6.10    6.50
  -9   2   2   -7.00   10.00
  -9   2   2   20.00    9.60
  -9  -2  -2   12.70    9.10
   9   2  -2   28.80    9.70
  -9   2  -2   25.70   10.50
   9  -2  -2   28.10    9.20
   9  -2  -2   22.50   11.00
  -9   2   3   -8.90   11.50
   9   2  -3   -1.10   10.60
  -9  -2  -3    0.40    9.80
   9  -2  -3  -10.40    7.00
   9  -2  -3   -2.50   11.30
  -9   2  -3   12.40   10.60
  -9  -2  -4   20.00   15.10
   9   2  -4   -9.60   10.50
   9  -2  -4   25.60   16.40
  -9   2  -4   10.90   12.20
   9   2  -5    7.90   15.40
  -9  -2  -5   12.20   15.50
  -9   2  -5    4.30   13.50
   9  -2  -5   11.30   20.00
 -10  -2   0   27.50    8.90
 -10   2   0   20.90    9.50
 -10   2   0   16.40    9.20
 -10   2   1    5.30    9.40
 -10  -2  -1    5.80    7.50
  10   2  -1   -6.00    6.60
 -10   2   1   10.50    9.10
 -10   2  -1   12.10    9.60
 -10  -2   1   -2.50    6.50
 -10   2   2   36.20   13.20
 -10   2   2   31.20   11.20
 -10  -2  -2    7.30    9.10
  10   2  -2   10.20    9.10
 -10   2  -2   22.30   10.90
  10  -2  -2    0.90    9.40
  10  -2  -2    5.70    8.80
 -10  -2  -3    9.00   11.40
 -10   2   3   20.30   13.80
  10   2  -3    4.90    9.70
 -10   2  -3    9.10   10.60
  10  -2  -3   -2.80   11.90
 -10  -2  -4   26.60   15.90
  10   2  -4    2.00   13.70
  10  -2  -4   17.40   15.60
 -10   2  -4    6.60   12.30
 -11   2   0  227.08   31.80
 -11  -2   0  218.88   30.90
 -11   2   1  631.64   79.19
 -11   2   1  751.42   79.49
 -11  -2  -1  701.33   79.39
 -11   2  -1  712.93   80.19
  11  -2  -1  678.63   79.09
 -11  -2   1  741.33   78.69
 -11   2   2  143.59   22.40
 -11   2   2  175.28   25.00
  11   2  -2  147.59   21.90
 -11  -2  -2  129.49   21.60
  11  -2  -2   91.19   21.30
 -11   2  -2  139.89   23.30
  11  -2  -2  100.39   20.20
 -11   2   3  429.06   52.39
 -11  -2  -3  458.35   52.89
  11   2  -3  403.66   51.19
 -11   2  -3  354.86   51.29
  11  -2  -3  350.36   51.29
 -11  -2  -4   77.09   22.00
  11   2  -4   24.20   16.70
  11  -2  -4   73.99   20.60
 -11   2  -4   62.39   19.00
 -12  -2   0  124.29   19.90
 -12   2   0  108.79   21.50
 -12  -2  -1   21.10   11.80
 -12   2   1   42.60   14.00
 -12  -2   1   22.30   10.90
 -12   2  -1   18.50   12.00
 -12   2   2   63.19   16.00
 -12  -2  -2   31.40   15.00
 -12   2   2  112.99   19.30
 -12   2  -2   74.89   17.40
  12  -2  -2   86.79   16.40
  12  -2  -2   41.80   14.50
  12   2  -3   25.50   19.40
 -12  -2  -3    5.40   13.50
 -12   2   3    4.80   13.20
 -12   2  -3   32.10   15.90
  12  -2  -3    9.30   14.30
  12   2  -4   30.30   17.40
 -12  -2  -4   62.99   18.80
 -12   2  -4   38.60   18.70
  12  -2  -4   19.20   18.30
 -13   2   0   16.50   12.90
 -13  -2   0   13.40   11.60
 -13   2   1   28.40   13.00
 -13  -2  -1    3.00   10.50
 -13   2  -1  -12.10   10.30
 -13  -2  -2   16.50   14.30
 -13   2  -2   19.70   13.90
  13  -2  -2    3.10   16.10
 -13  -2  -3    2.30   15.10
 -13   2   3  -18.90   13.00
 -13   2  -3   -8.00   12.30
  13  -2  -3  -17.50   12.20
 -14   2   0   21.40   14.30
 -14  -2   0   15.20   13.70
 -14   2   1  183.98   28.70
 -14  -2  -1  143.29   27.00
 -14   2  -1  206.78   32.60
 -14  -2  -2   13.00   15.30
 -14   2  -2  -12.30   11.80
 -14  -2  -3   79.69   21.10
 -14   2  -3  105.99   23.40
 -15   2   0   -6.00   12.50
 -15  -2   0   24.40   13.70
 -15   2   1  -23.30   11.60
 -15  -2  -1    5.50   15.10
 -15   2  -1   20.70   14.00
 -15  -2  -2    5.20   13.60
 -15   2  -2   37.20   17.60
 -16   2   0  125.59   25.30
 -16   2   1  177.68   41.30
 -16  -2  -1  324.57   40.50
 -16   2  -1  227.08   37.90
   0   3   0   -0.20    2.70
   0   3   0  -14.10    7.40
   0  -3   0    0.30    2.60
   0   3  -1   -0.10    3.90
   0   3  -1   -0.50    1.90
   0   3   1    1.40    3.90
   0  -3  -1   -2.80    2.80
   0  -3  -2    2.80    5.40
   0   3   2   -0.70    5.30
   0  -3  -2  -10.70    4.50
   0   3  -2   -2.80    2.70
   0   3  -2   -3.90    5.10
   0  -3  -3   -3.90    6.20
   0   3   3    3.90    6.80
   0   3  -3    1.60    7.10
   0  -3  -3    2.40    6.60
   0   3  -3   -2.70    4.10
   0  -3  -4  -14.80    9.10
   0  -3  -4    7.80    9.00
   0   3  -4    1.40   11.00
   0   3  -5   13.60   13.90
   0  -3  -5    8.00   10.50
   0  -3  -5   -1.00   12.80
   0   3  -6  -15.80   15.80
   0  -3  -6    5.30   14.90
   1  -3   0   -5.80    4.10
  -1   3   0   -8.30    4.00
   1   3   0   -5.30    5.60
  -1  -3   0   -4.50    3.00
  -1   3   0   -5.60    9.40
   1   3  -1  163.58   20.00
  -1   3   1  199.78   22.30
  -1  -3  -1  164.28   20.00
   1   3  -1  170.58   18.50
  -1   3  -1  161.18   19.20
   1   3   1  166.68   20.00
  -1   3  -1  179.38   20.60
   1  -3  -1  180.18   19.80
  -1  -3  -2  -10.00    4.70
   1   3  -2   -0.10    5.60
  -1   3   2   -3.50    6.20
  -1  -3  -2   -2.50    5.00
   1   3  -2    2.10    2.60
   1   3   2    0.40    4.70
   1  -3  -2   -6.60    3.80
  -1   3  -2    2.50    6.40
  -1   3  -2    0.40    3.50
   1  -3  -2   -5.50    5.00
  -1  -3  -3   80.49   13.80
  -1  -3  -3   97.29   15.30
   1   3  -3   87.69   11.00
  -1   3   3   56.39   13.80
   1   3  -3   69.99   14.00
   1   3   3   71.29   13.70
  -1   3  -3   81.69   12.00
  -1   3  -3   47.00   13.20
   1  -3  -3   56.99   12.30
   1  -3  -3   70.29   14.90
  -1  -3  -4    9.90    8.50
   1   3  -4  -10.60   10.40
  -1  -3  -4    9.20   10.40
   1  -3  -4   17.30   12.30
  -1   3  -4   10.90   12.00
   1  -3  -4    3.80    9.00
  -1   3  -4   -8.80    6.60
   1   3  -5   38.60   16.80
  -1  -3  -5   21.40   11.40
  -1  -3  -5   23.60   14.10
   1  -3  -5   15.20   14.70
  -1   3  -5   19.50   14.60
   1  -3  -5   44.00   13.40
  -1  -3  -6   27.20   15.70
   1   3  -6    2.40   18.20
   1  -3  -6  -29.80   12.40
  -1   3  -6   17.50   19.60
  -2  -3   0  430.96   45.10
  -2   3   0  423.36   46.00
   2   3   0  409.06   45.20
  -2   3   0  396.66   48.30
  -2   3   1 2749.92  287.67
   2   3  -1 2631.74  286.47
  -2  -3  -1 2714.53  286.77
  -2   3   1 2657.73  286.67
   2   3   1 2715.03  286.17
  -2   3  -1 2738.73  286.37
   2  -3  -1 2743.63  286.57
  -2   3  -1 2709.13  286.97
   2   3  -2  224.88   28.50
   2   3  -2  218.08   24.50
  -2  -3  -2  230.48   27.30
  -2  -3  -2  214.28   26.40
  -2   3   2  256.67   30.30
  -2   3  -2  235.48   26.20
   2  -3  -2  231.48   29.70
   2  -3  -2  219.48   26.50
   2   3   2  230.48   26.40
  -2   3  -2  252.07   29.40
  -2  -3  -3 1210.38  132.99
   2   3  -3 1236.98  130.69
  -2  -3  -3 1220.38  132.69
   2   3  -3 1210.98  133.59
  -2   3   3 1234.58  133.89
  -2   3  -3 1233.28  133.59
   2  -3  -3 1205.88  133.69
   2  -3  -3 1256.77  132.49
  -2   3  -3 1225.08  131.89
  -2  -3  -4  105.59   17.90
  -2  -3  -4  110.99   18.80
   2   3  -4  134.39   21.60
  -2   3  -4   56.59   14.40
  -2   3  -4  109.79   21.10
   2  -3  -4   91.49   16.80
   2  -3  -4   94.49   19.60
  -2  -3  -5  436.26   57.59
  -2  -3  -5  543.45   57.39
   2  -3  -5  489.65   61.29
  -2   3  -5  471.45   61.79
   2  -3  -5  420.86   56.89
   2   3  -6   26.40   20.10
  -2  -3  -6   40.30   17.00
   2  -3  -6   57.29   20.70
  -2   3  -6   28.40   20.00
  -3   3   0 1266.27  134.79
   3   3   0 1231.98  130.99
  -3   3   0 1227.28  132.19
  -3  -3   0 1236.98  131.39
   3   3  -1 2550.34  264.37
  -3  -3  -1 2538.75  264.77
  -3  -3  -1 2488.85  263.47
  -3   3   1 2521.15  264.67
  -3   3   1 2390.26  265.67
   3  -3  -1 2495.95  264.57
  -3   3  -1 2467.55  264.47
   3   3   1 2498.35  263.47
  -3   3  -1 2489.95  265.17
  -3  -3  -2  723.93   80.39
  -3  -3  -2  742.03   81.59
  -3   3   2  768.32   82.39
   3   3  -2  748.13   78.79
   3   3  -2  719.93   81.29
   3  -3  -2  742.13   82.59
  -3   3  -2  763.02   80.59
  -3   3  -2  770.62   81.59
   3  -3  -2  724.63   80.59
   3   3  -3 1083.39  124.79
  -3  -3  -3 1168.18  125.09
  -3   3   3 1144.49  125.89
  -3  -3  -3 1147.59  123.79
  -3   3  -3 1156.48  124.99
  -3   3  -3 1180.88  123.89
   3  -3  -3 1102.69  123.69
   3  -3  -3 1191.78  125.59
   3   3  -4  367.56   44.40
  -3  -3  -4  317.37   40.10
  -3  -3  -4  299.27   40.30
  -3   3   4  275.67   42.20
   3  -3  -4  269.77   41.80
   3  -3  -4  356.56   40.70
  -3   3  -4  345.87   38.50
  -3   3  -4  283.87   41.30
  -3  -3  -5  467.35   53.89
   3   3  -5  319.27   52.29
  -3  -3  -5  425.06   52.09
   3  -3  -5  375.76   56.09
  -3   3  -5  506.35   57.29
   4   3   0 1086.49  114.09
  -4   3   0 1076.89  115.69
  -4  -3   0 1083.39  114.79
  -4   3   0 1039.70  118.39
  -4   3   1   61.09   10.80
   4   3  -1   44.60    8.20
  -4   3   1   45.70   11.10
  -4  -3  -1   55.89    9.70
  -4  -3  -1   46.40    6.60
  -4  -3   1   59.19    7.10
  -4   3  -1   63.69   11.80
  -4   3  -1   63.79   10.00
   4  -3  -1   70.49   10.40
   4   3  -2  723.73   76.39
  -4  -3  -2  719.73   79.29
  -4  -3  -2  724.23   77.79
  -4   3   2  739.93   80.19
   4   3  -2  713.33   79.09
   4  -3  -2  728.13   78.39
  -4   3  -2  694.73   78.49
   4  -3  -2  748.13   80.69
  -4   3  -2  701.73   79.09
  -4   3   3   30.40   11.70
  -4  -3  -3   23.80    8.40
   4   3  -3   16.60   11.10
  -4  -3  -3   23.80   10.70
  -4   3  -3   26.30    8.90
  -4   3  -3   22.40   10.80
   4  -3  -3   21.70    8.30
   4  -3  -3   16.70   11.80
  -4  -3  -4  266.17   38.10
  -4  -3  -4  282.07   39.40
   4   3  -4  381.46   44.50
  -4   3   4  285.87   41.80
  -4   3  -4  350.66   39.70
   4  -3  -4  255.77   40.70
  -4   3  -4  292.87   40.10
   4  -3  -4  348.57   39.30
  -4  -3  -5   25.50   12.80
  -4  -3  -5   27.30   13.80
   4   3  -5   18.60   15.80
   4  -3  -5    9.70   13.50
  -4   3  -5   29.50   16.20
  -5   3   0    6.50    9.50
  -5  -3   0    4.80    4.30
   5   3   0   -0.90    2.20
  -5   3   0    0.70    5.20
  -5  -3  -1  327.27   36.40
   5   3  -1  305.57   35.10
  -5   3   1  313.67   36.50
  -5   3   1  335.27   37.90
  -5   3  -1  328.47   36.10
  -5   3  -1  301.27   37.30
   5  -3  -1  298.37   36.10
  -5  -3   1  313.87   34.50
  -5  -3  -2   12.40    6.80
  -5  -3  -2   -0.90    3.90
   5   3  -2   -1.20    5.40
   5   3  -2    1.00    2.40
  -5   3   2    1.30    8.00
   5  -3  -2   -2.20    8.30
  -5   3  -2  -10.20    6.20
   5  -3  -2   -1.30    4.80
  -5   3  -2   -0.40    4.90
  -5   3   3  157.68   25.50
  -5  -3  -3  140.09   21.60
   5   3  -3  163.58   24.50
  -5  -3  -3  175.38   24.50
   5  -3  -3  179.38   22.50
  -5   3  -3  161.08   23.70
   5  -3  -3  183.38   26.90
  -5   3  -3  150.58   22.90
  -5  -3  -4   -9.60    8.60
   5   3  -4    9.00   11.40
  -5   3   4    6.40   12.00
  -5  -3  -4    0.60    8.20
   5  -3  -4   -7.70    8.30
   5  -3  -4   13.80   13.50
  -5   3  -4    8.20   12.20
  -5   3  -4    8.40    9.50
   5   3  -5   71.09   19.90
  -5  -3  -5   48.20   16.60
   5  -3  -5   70.89   19.90
  -5   3  -5   49.99   18.70
  -5   3  -5   60.49   16.60
   6   3   0   38.20    5.00
  -6  -3   0   33.50    7.10
  -6   3   0   18.30    7.40
  -6   3   0   19.20   11.20
   6   3  -1   36.60    6.80
  -6   3   1   40.20    9.20
  -6  -3  -1   28.60    8.00
  -6   3   1   22.60   10.30
  -6  -3   1   33.90    6.50
  -6   3  -1   21.70   11.10
  -6   3  -1   29.80    8.20
   6   3  -2    7.60    7.40
  -6  -3  -2   22.30    5.10
  -6   3   2   26.30    8.90
  -6   3   2   13.10    9.20
   6   3  -2   28.90    5.00
  -6  -3  -2   23.50    9.00
  -6   3  -2   19.80    8.70
  -6   3  -2   22.90    7.90
   6  -3  -2   15.40    7.10
   6  -3  -2   35.00   11.50
  -6  -3  -3    0.70    9.60
  -6   3   3   15.50   11.90
   6   3  -3   14.10   10.80
   6  -3  -3   14.70   12.20
  -6   3  -3    6.50    9.70
  -6   3  -3    7.00    8.50
   6  -3  -3    8.60    7.90
  -6   3   4   18.00   12.90
  -6  -3  -4   28.50   12.50
   6   3  -4    2.20   10.50
  -6   3  -4    4.70    8.90
   6  -3  -4   12.60   13.70
  -6   3  -4   -5.10   10.50
   6  -3  -4    1.70    9.40
   6   3  -5   19.00   16.80
  -6  -3  -5   15.50   14.10
   6  -3  -5   17.20   18.70
  -6   3  -5   12.90   14.80
  -6   3  -5   19.50   13.10
   7   3   0    2.50    2.40
  -7   3   0   19.80   10.50
  -7   3   0    2.10    6.20
  -7  -3   0    9.60    5.30
  -7   3   1    6.60    8.20
   7   3  -1   14.80    5.70
  -7   3   1   21.00    8.80
  -7  -3  -1   14.20    7.40
  -7  -3   1   19.70    6.10
  -7   3  -1    9.20    7.00
  -7   3  -1   22.40   10.90
  -7   3   2   10.60    7.20
   7   3  -2   16.10    8.00
  -7   3   2   -5.00    9.30
  -7  -3  -2   -0.50    6.80
   7  -3  -2   -6.20   10.20
  -7   3  -2    4.80    7.70
  -7   3  -2    0.60    8.00
   7  -3  -2    7.40    6.10
  -7  -3  -3   19.20   11.10
  -7   3   3   17.30   12.90
   7   3  -3    6.00    9.90
   7  -3  -3    3.40   12.40
  -7   3  -3    4.40    9.20
   7  -3  -3   13.10    7.90
  -7   3  -3   13.10   10.60
   7   3  -4   -4.10   12.00
  -7  -3  -4   -2.50   10.30
  -7   3   4  -19.90   10.30
  -7   3  -4   19.30   11.60
  -7   3  -4   -6.20   10.60
   7  -3  -4    3.20   14.20
   7   3  -5   27.30   17.10
  -7  -3  -5   -8.70   12.70
   7  -3  -5    5.20   15.50
  -7   3  -5    8.90   12.20
  -8   3   0 1928.11  209.98
   8   3   0 1932.71  205.78
  -8   3   0 1958.50  208.88
  -8  -3   0 1978.30  207.98
  -8   3   1  360.36   42.90
  -8  -3  -1  308.67   39.80
   8   3  -1  332.27   38.50
  -8   3   1  397.96   44.90
  -8   3  -1  318.67   44.20
  -8  -3   1  370.66   39.20
  -8   3  -1  319.67   42.20
  -8   3   2 1362.16  157.58
  -8  -3  -2 1377.76  156.78
   8   3  -2 1451.55  156.08
  -8   3   2 1476.15  156.68
   8  -3  -2 1468.15  156.08
  -8   3  -2 1488.45  156.88
  -8   3  -2 1483.85  156.98
   8  -3  -2 1453.85  158.08
  -8  -3  -3  193.08   27.90
  -8   3   3  128.49   26.70
   8   3  -3  186.68   27.30
   8  -3  -3  209.58   26.00
  -8   3  -3  176.18   26.80
  -8   3  -3  172.18   26.20
   8  -3  -3  185.78   29.90
  -8   3   4  621.94   78.79
  -8  -3  -4  702.43   77.89
   8   3  -4  687.33   78.49
  -8   3  -4  667.03   77.89
   8  -3  -4  678.93   80.79
  -8  -3  -5   59.29   19.00
   8   3  -5   85.89   23.50
  -8   3  -5   85.89   20.30
   8  -3  -5   65.89   22.90
  -9  -3   0  387.76   43.90
  -9   3   0  360.56   44.70
  -9   3   0  393.36   48.50
   9   3  -1 1046.60  113.79
  -9  -3  -1 1059.19  115.69
  -9   3   1 1079.59  116.19
  -9   3   1 1072.49  117.09
  -9  -3   1 1060.09  114.49
  -9   3  -1 1039.60  116.09
  -9   3  -1 1060.59  117.09
  -9  -3  -2  280.67   37.20
   9   3  -2  325.27   35.80
  -9   3   2  277.27   39.10
  -9   3   2  290.77   37.50
  -9   3  -2  274.57   39.40
   9  -3  -2  280.77   39.40
   9  -3  -2  282.57   36.40
  -9   3  -2  271.47   38.00
   9   3  -3  573.14   67.59
  -9  -3  -3  636.54   69.09
  -9   3   3  561.84   69.19
  -9   3  -3  576.94   68.69
   9  -3  -3  629.14   66.89
   9  -3  -3  520.55   71.49
  -9   3   4  175.28   30.80
  -9  -3  -4  169.78   29.40
   9   3  -4  141.19   27.20
  -9   3  -4  152.78   27.70
   9  -3  -4  200.88   34.50
  -9  -3  -5  233.78   38.20
   9   3  -5  264.87   41.50
   9  -3  -5  210.68   40.30
  -9   3  -5  276.37   38.40
 -10   3   0   19.30   11.90
 -10  -3   0   23.60    9.70
 -10   3   0    9.90    8.90
 -10   3   1  173.08   26.30
 -10   3   1  190.28   28.70
 -10  -3  -1  207.38   27.20
 -10   3  -1  208.58   28.80
 -10  -3   1  166.38   24.60
 -10   3  -1  180.08   27.40
  10   3  -2   17.60    9.80
 -10   3   2    9.60   11.30
 -10  -3  -2   21.40   11.20
 -10   3   2   32.40   11.40
 -10   3  -2   -5.30   10.20
  10  -3  -2   19.50    9.50
  10  -3  -2   18.00   10.90
 -10   3   3  139.19   23.70
 -10  -3  -3  116.69   21.00
  10   3  -3   99.19   19.50
  10  -3  -3  102.39   21.00
 -10   3  -3  113.09   20.90
  10  -3  -3   62.49   15.90
 -10   3   4   26.90   17.60
 -10  -3  -4   14.30   15.90
  10   3  -4   27.30   15.90
 -10   3  -4   27.20   14.90
  10  -3  -4   30.70   18.20
 -11   3   0   13.50   10.50
 -11  -3   0    6.70    8.70
 -11   3   0    4.00    9.90
 -11   3   1  109.29   20.60
 -11   3   1  151.28   23.10
 -11  -3  -1  141.19   21.90
 -11   3  -1  158.98   24.00
 -11  -3   1  110.79   19.70
 -11   3   2    1.30   11.30
 -11  -3  -2   13.80   11.80
 -11   3   2   -6.60    9.90
 -11   3  -2   12.20   11.10
  11  -3  -2   18.60   11.80
  11  -3  -2   10.60    9.70
 -11   3   3  110.89   24.30
  11   3  -3   88.19   19.60
 -11  -3  -3  107.09   21.30
  11  -3  -3   90.59   22.20
 -11   3  -3   82.49   20.60
 -11  -3  -4    3.50   15.80
 -11   3   4   -3.90   16.40
  11   3  -4   -9.80   13.10
 -11   3  -4   18.70   15.80
  11  -3  -4  -14.70   15.40
 -12   3   0  -17.30    8.20
 -12  -3   0   -3.40    9.20
 -12   3   1   75.09   18.10
 -12  -3  -1   76.39   17.20
 -12   3   1   86.19   18.40
 -12   3  -1   78.09   18.20
 -12  -3  -2  -14.30    9.10
 -12   3   2    0.80   11.40
 -12   3   2  -18.10   11.80
 -12   3  -2   14.90   12.60
  12  -3  -2  -15.10    9.00
  12  -3  -2    2.10   10.60
 -12  -3  -3   54.89   18.00
 -12   3   3   60.49   18.80
  12  -3  -3   35.70   17.10
 -12   3  -3   29.20   15.60
 -12  -3  -4   -1.80   16.20
  12   3  -4   -7.30   13.90
 -12   3   4   -5.90   16.80
  12  -3  -4   -4.70   16.40
 -12   3  -4   14.90   17.90
 -13  -3   0    2.00    9.80
 -13   3   0   -1.50   11.20
 -13   3   1    4.20   11.50
 -13  -3  -1    3.70   10.60
 -13   3  -1  -10.50   13.30
 -13   3   2   -1.70   12.00
 -13  -3  -2  -11.50   11.20
 -13   3   2    6.40   13.90
  13  -3  -2    1.20   10.50
 -13   3  -2   -7.70   12.30
  13  -3  -2   -0.30   11.10
 -13  -3  -3    9.80   14.70
 -13   3   3    3.50   15.20
  13  -3  -3    3.60   14.90
 -13   3  -3    3.70   15.70
 -14   3   0   71.09   19.30
 -14  -3   0   90.89   18.90
 -14  -3  -1  433.26   59.29
 -14   3   1  530.95   62.19
 -14   3  -1  511.45   62.79
 -14  -3  -2  128.09   24.50
 -14   3  -2  104.19   23.70
 -14  -3  -3  400.16   52.79
 -14   3  -3  350.76   53.29
 -15   3   0   81.59   21.10
 -15   3   1  351.26   42.60
 -15  -3  -1  239.28   37.90
 -15   3  -1  235.98   38.40
 -15  -3  -2  105.89   23.80
 -15   3  -2   55.19   20.80
 -16   3   0    8.90   15.90
 -16   3   1   17.30   14.60
 -16  -3  -1   -6.80   13.20
 -16   3  -1    9.80   16.20
   0   4   0 1284.37  129.79
   0  -4   0 1168.48  127.39
   0   4   0 1183.38  127.59
   0   4   1 2312.67  245.28
   0  -4  -1 2320.77  244.38
   0   4  -1 2253.87  244.78
   0   4  -1 2331.67  243.78
   0  -4  -2  705.73   78.89
   0  -4  -2  730.13   78.39
   0   4  -2  773.62   79.19
   0   4  -2  717.03   76.99
   0   4   2  675.93   78.79
   0  -4  -3 1151.48  119.09
   0  -4  -3 1052.59  118.29
   0   4  -3 1113.99  119.19
   0   4   3 1070.69  118.89
   0   4  -3 1071.29  116.49
   0  -4  -4  267.47   33.60
   0   4  -4  305.77   36.30
   0  -4  -4  176.88   29.80
   0  -4  -5  356.96   46.70
   0  -4  -5  368.96   48.20
   0   4  -5  343.37   49.40
   0  -4  -6  128.29   27.10
   0   4  -6  115.29   28.90
   1   4   0  102.49   15.90
  -1  -4   0  112.29   13.80
  -1   4   0  142.89   20.10
  -1   4   0  132.79   15.30
   1  -4   0  117.49   14.70
   1   4  -1  877.51   95.49
   1   4  -1  890.91   93.99
  -1  -4  -1  884.61   95.29
  -1   4   1  912.31   96.69
   1   4   1  882.81   95.69
  -1  -4   1  884.91   93.99
   1  -4  -1  892.61   95.19
  -1   4  -1  894.61   94.79
  -1   4  -1  871.21   95.79
  -1  -4  -2   49.20   11.40
  -1  -4  -2   63.89   11.60
  -1   4   2   54.89   12.40
   1   4  -2   88.09    9.30
   1   4  -2   79.39   12.80
  -1   4  -2  100.89   14.00
   1  -4  -2   73.89   11.40
   1   4   2   85.79   13.00
  -1   4  -2   56.49    9.80
   1   4  -3  396.16   45.60
  -1  -4  -3  372.96   44.90
  -1  -4  -3  343.27   44.50
  -1   4   3  441.96   46.40
   1   4  -3  381.36   42.30
  -1   4  -3  370.76   45.60
   1  -4  -3  396.86   45.70
   1   4   3  414.46   44.90
  -1   4  -3  375.36   43.00
   1  -4  -3  385.76   44.40
   1   4  -4   23.90   12.90
  -1  -4  -4   10.10   10.90
  -1  -4  -4   17.30   10.60
  -1   4   4   17.60   11.90
  -1   4  -4   18.50   12.40
   1  -4  -4   45.30   12.00
   1  -4  -4   35.40   13.50
  -1  -4  -5  192.28   26.10
   1   4  -5   61.79   24.00
  -1  -4  -5  135.99   23.80
  -1   4  -5  158.18   27.60
   1  -4  -5  123.89   25.20
   1  -4  -5  136.59   23.60
  -1  -4  -6   22.30   15.50
   1   4  -6   -5.20   16.20
   1  -4  -6    1.00   14.10
  -1   4  -6    8.50   17.00
  -2  -4   0   26.40    4.80
  -2   4   0   29.20    6.70
  -2   4   0   38.60   12.40
   2   4   0   17.40    5.60
  -2   4   1  530.05   53.49
   2   4  -1  489.85   53.29
  -2   4   1  441.46   54.69
  -2  -4  -1  484.85   53.49
  -2   4  -1  451.55   53.99
  -2   4  -1  490.35   52.89
   2  -4  -1  507.95   53.19
   2   4   1  472.35   52.79
   2   4  -2   12.90    2.50
  -2  -4  -2   14.40    5.80
  -2  -4  -2   21.40    7.00
  -2   4   2   14.90    7.80
   2   4  -2   18.30    6.60
   2  -4  -2   10.10    5.90
  -2   4  -2   11.50    5.00
   2   4   2    9.50    5.70
  -2   4  -2   23.30    8.00
   2   4  -3  217.78   30.20
  -2  -4  -3  238.38   30.10
  -2  -4  -3  322.87   31.60
  -2   4   3  236.18   31.50
  -2   4  -3  255.07   31.20
  -2   4  -3  178.18   26.70
   2  -4  -3  249.18   32.30
   2   4   3  237.68   29.50
   2  -4  -3  170.98   27.30
  -2  -4  -4    3.60    8.70
  -2   4   4   -7.40    9.30
   2   4  -4   -6.30   10.50
  -2  -4  -4   16.60   10.30
   2  -4  -4    2.20   10.90
  -2   4  -4   -2.70   11.10
  -2   4  -4   13.70    7.30
   2  -4  -4   11.20   10.00
  -2  -4  -5   33.40   14.90
   2   4  -5   70.09   19.20
  -2  -4  -5   65.29   17.00
   2  -4  -5   86.89   17.30
   2  -4  -5   34.90   15.70
  -2   4  -5   47.10   19.40
   3   4   0    0.40    3.20
  -3  -4   0    4.00    3.20
  -3   4   0   -0.80    4.50
  -3   4   0   21.10   11.50
   3   4  -1   10.70    4.60
  -3   4   1    5.00    4.90
  -3  -4  -1    3.40    5.10
  -3   4   1  -10.80    7.50
   3   4   1    5.80    3.60
  -3   4  -1    8.90    7.10
   3  -4  -1    5.10    4.40
  -3   4  -1    3.90    4.10
  -3   4   2    6.40    8.40
  -3  -4  -2    1.20    5.50
  -3  -4  -2    4.00    4.30
   3   4  -2   -1.00    4.90
  -3   4  -2    2.30    6.70
   3   4   2    1.30    4.10
   3  -4  -2   -1.00    4.30
  -3   4  -2    2.80    4.50
  -3   4   3   -9.90    8.40
  -3  -4  -3    0.80    7.40
   3   4  -3   -8.70    8.10
  -3  -4  -3   -1.20    6.20
  -3   4  -3   21.60   10.60
   3  -4  -3    3.70    6.60
  -3   4  -3    1.10    5.30
   3  -4  -3   11.70    9.10
   3   4  -4    5.60   11.70
  -3  -4  -4   15.00   10.30
  -3  -4  -4   -3.90    8.10
  -3   4   4    3.90   10.70
   3  -4  -4    7.40   11.40
  -3   4  -4    9.30   12.90
   3  -4  -4   12.20    9.00
  -3   4  -4   -1.10    7.30
  -3  -4  -5   17.10   12.90
   3   4  -5   26.50   16.60
  -3  -4  -5    3.50   11.20
   3  -4  -5    7.60   13.60
  -3   4  -5   34.00   16.90
   3  -4  -5   -7.60   11.00
  -4  -4   0   66.99   10.20
   4   4   0   73.49    9.70
  -4   4   0   87.79   18.40
  -4   4   0   76.89   12.20
  -4  -4  -1    3.30    4.90
  -4   4   1   21.20    9.40
  -4   4   1    7.60    5.30
  -4  -4  -1    1.40    2.50
   4   4  -1   -2.00    3.60
  -4  -4   1    3.50    2.00
  -4   4  -1   -2.90    7.50
   4  -4  -1    7.70    5.20
   4   4   1    4.20    2.60
  -4   4  -1    0.50    4.10
  -4   4   2   39.80   12.00
  -4  -4  -2   65.49   11.80
  -4  -4  -2   49.99    8.00
   4   4  -2   39.10    9.70
   4  -4  -2   34.20    8.20
  -4   4  -2   26.90    9.40
  -4   4  -2   26.50    7.60
  -4  -4  -3    1.90    6.30
   4   4  -3   14.90    9.60
  -4   4   3  -16.10    8.50
  -4  -4  -3  -11.00    7.20
   4  -4  -3   -5.10    6.00
  -4   4  -3    0.70    6.30
   4  -4  -3   11.20    9.40
  -4   4  -3    5.70    9.40
   4   4  -4   -6.40   10.10
  -4  -4  -4   16.30   11.60
  -4  -4  -4   26.40   10.50
  -4   4   4   31.30   13.20
  -4   4  -4   15.40    8.90
   4  -4  -4   26.50   13.40
   4  -4  -4   16.10   10.30
  -4   4  -4   21.00   14.40
  -4  -4  -5   16.30   12.50
   4   4  -5    2.00   13.80
   4  -4  -5  -19.10   12.40
  -4   4  -5    9.20   16.50
  -5   4   0  331.27   39.30
  -5  -4   0  353.36   38.30
   5   4   0  349.96   37.20
  -5   4   0  295.57   44.70
  -5   4   1  177.78   25.80
   5   4  -1  168.98   19.40
  -5  -4  -1  160.08   21.10
  -5   4   1  125.89   21.20
   5  -4  -1  148.59   20.90
  -5  -4   1  164.18   18.30
  -5   4  -1  179.38   25.00
  -5   4  -1  173.58   21.50
  -5   4   2  251.77   34.80
  -5  -4  -2  271.27   28.80
   5   4  -2  252.57   32.20
  -5  -4  -2  231.38   32.20
  -5   4  -2  234.08   31.70
   5  -4  -2  263.07   30.70
  -5   4  -2  268.37   33.60
  -5  -4  -3   82.39   14.30
  -5   4   3   84.89   19.30
   5   4  -3   75.29   16.90
  -5  -4  -3  111.19   18.70
  -5   4  -3   94.29   17.70
   5  -4  -3  107.19   16.00
  -5   4  -3   75.89   15.30
   5  -4  -3  105.59   19.70
   5   4  -4  119.49   22.10
  -5  -4  -4   89.79   19.50
  -5   4   4  107.99   22.60
  -5   4  -4  103.39   19.10
  -5   4  -4   91.49   21.00
   5  -4  -4  116.79   22.80
   5  -4  -4  128.79   19.50
  -5  -4  -5   53.99   17.00
   5   4  -5   14.60   17.20
   5  -4  -5   41.10   18.40
  -5   4  -5   30.80   16.80
  -6  -4   0    3.70    4.80
  -6   4   0   15.20   12.20
   6   4   0    2.50    2.70
  -6   4   0   -4.80    4.70
  -6  -4  -1   15.60    7.90
   6   4  -1   33.70    6.90
  -6   4   1   20.70   11.00
  -6   4   1   33.80    9.50
  -6   4  -1   27.10    7.90
   6  -4  -1   20.20    8.60
  -6   4  -1   41.00   14.10
  -6  -4   1   40.50    6.30
  -6   4   2    9.80   11.30
  -6   4   2    3.40    7.10
  -6  -4  -2    0.50    6.60
   6   4  -2    9.60    6.80
  -6   4  -2    0.20    6.60
  -6   4  -2    2.70    9.20
   6  -4  -2   -0.70    6.00
  -6  -4  -3   14.80    9.50
   6   4  -3   19.90    9.90
  -6   4   3   30.90   13.60
   6  -4  -3   16.90   11.90
   6  -4  -3   13.70    8.40
  -6   4  -3   10.50    8.10
  -6   4  -3   12.00   11.10
   6   4  -4    9.10   11.80
  -6  -4  -4    0.90   11.10
  -6   4   4   -0.10   14.10
   6  -4  -4    6.30   14.50
   6  -4  -4   -1.20    9.20
  -6   4  -4   19.50   10.90
  -6   4  -4   18.10   12.60
   6   4  -5   -3.60   14.20
  -6  -4  -5   30.10   15.00
  -6   4  -5   -1.00   11.20
  -6   4  -5   22.30   15.80
   6  -4  -5   18.40   17.00
   7   4   0   20.20    3.70
  -7   4   0   15.20   12.20
  -7  -4   0   14.50    6.10
  -7   4   0   10.80    6.80
  -7   4   1  849.91   91.59
  -7   4   1  821.12   93.19
   7   4  -1  813.72   89.29
  -7  -4  -1  787.42   90.49
  -7   4  -1  817.52   91.09
  -7  -4   1  854.91   89.09
  -7   4  -1  871.51   94.19
   7   4  -2   13.60    7.30
  -7   4   2    8.50    9.40
  -7  -4  -2   15.30    8.90
  -7   4   2   -4.30   10.50
   7  -4  -2    6.80    7.60
  -7   4  -2    5.80   10.00
  -7   4  -2   12.80    8.00
   7   4  -3  457.35   54.99
  -7   4   3  465.05   59.39
  -7  -4  -3  483.25   55.09
   7  -4  -3  438.16   53.49
   7  -4  -3  504.55   57.09
  -7   4  -3  460.05   55.29
  -7   4  -3  469.15   54.79
  -7   4   4   -6.50   12.20
  -7  -4  -4   11.20   12.30
   7   4  -4   12.10   13.80
  -7   4  -4    1.40    9.30
   7  -4  -4    1.70    8.80
   7  -4  -4    8.70   13.60
  -7   4  -4   18.60   13.70
  -7  -4  -5  233.58   32.90
   7   4  -5  148.49   30.30
   7  -4  -5  164.18   34.20
  -7   4  -5  203.38   30.90
  -8   4   0  337.97   43.40
  -8  -4   0  400.56   42.40
  -8   4   0  358.66   48.70
   8   4  -1   11.80    6.00
  -8   4   1   32.20   11.90
  -8  -4  -1   18.30    8.10
  -8   4   1   16.30    9.20
  -8   4  -1   32.90   10.00
  -8   4  -1    4.30   13.20
  -8  -4   1   19.50    6.60
   8   4  -2  322.47   37.20
  -8   4   2  268.17   38.90
  -8  -4  -2  363.46   41.30
  -8   4   2  258.67   41.10
   8  -4  -2  285.07   38.30
  -8   4  -2  319.57   41.40
  -8   4  -2  357.36   38.60
  -8   4   3   26.40   15.60
  -8  -4  -3   14.30   10.10
   8   4  -3    0.00   10.00
  -8   4  -3    6.70   11.50
   8  -4  -3    8.10    9.30
  -8   4  -3    7.00   10.10
   8  -4  -3   10.00   13.20
  -8  -4  -4  145.89   25.60
  -8   4   4  153.98   29.90
   8   4  -4  140.09   25.70
   8  -4  -4  133.79   29.30
  -8   4  -4  153.58   26.20
   8   4  -5   10.20   16.80
  -8  -4  -5   29.50   16.30
  -8   4  -5   17.80   13.90
   8  -4  -5   18.40   18.40
  -9   4   0   13.60   12.10
  -9   4   0    9.50    7.90
  -9  -4   0    7.10    6.30
   9   4  -1    0.90    5.30
  -9   4   1   -9.00   10.30
  -9   4   1   -0.90    7.70
  -9  -4  -1   -0.90    7.00
  -9  -4   1    2.70    6.10
  -9   4  -1   -5.30    7.40
  -9   4  -1    7.30   13.50
  -9   4   2   19.90   13.70
  -9  -4  -2   -3.00    8.10
   9   4  -2    6.80    7.70
  -9   4   2   -8.20    8.80
  -9   4  -2  -22.10   10.20
   9  -4  -2    5.90    8.20
  -9   4  -2   -2.80    8.30
  -9   4   3  -13.50   13.00
  -9  -4  -3   -0.60   10.40
   9   4  -3    5.90    9.60
  -9   4  -3  -18.00    9.30
   9  -4  -3   -6.90   11.90
   9  -4  -3    8.50    8.60
   9   4  -4    8.20   12.30
  -9   4   4    9.50   14.90
  -9  -4  -4    5.80   14.50
   9  -4  -4   -1.00   14.30
  -9   4  -4  -14.00   11.10
   9   4  -5   -0.60   15.40
  -9  -4  -5   -3.00   14.00
  -9   4  -5    2.50   15.80
   9  -4  -5    4.40   17.30
 -10  -4   0  366.26   41.90
 -10   4   0  305.77   45.60
 -10   4   0  372.86   45.00
 -10   4   1  101.39   21.80
 -10   4   1  132.19   24.70
 -10  -4  -1  157.98   22.70
 -10   4  -1  162.88   24.20
 -10   4  -1  131.49   24.40
 -10  -4   1  153.38   20.80
 -10   4   2  278.07   38.90
 -10   4   2  260.77   36.10
  10   4  -2  273.27   33.80
 -10  -4  -2  285.07   36.60
 -10   4  -2  205.58   34.80
  10  -4  -2  279.17   35.70
  10  -4  -2  284.07   39.40
  10   4  -3   42.00   14.50
 -10  -4  -3   82.79   19.20
 -10   4   3   72.29   19.80
  10  -4  -3   46.30   13.20
  10  -4  -3   56.19   18.10
 -10   4  -3   83.69   18.10
 -10   4   4   91.99   26.90
  10   4  -4  181.48   30.00
 -10  -4  -4  170.48   30.30
 -10   4  -4  172.38   29.60
  10  -4  -4  145.99   30.40
 -11   4   0  278.47   34.00
 -11  -4   0  224.88   31.50
 -11   4   0  203.08   33.80
 -11  -4  -1   20.20   10.80
 -11   4   1   53.19   15.60
 -11   4   1    1.70    9.80
 -11   4  -1   10.40   11.30
 -11   4   2  199.98   32.00
 -11  -4  -2  212.28   30.20
 -11   4   2  184.28   29.30
 -11   4  -2  260.17   32.20
  11  -4  -2  214.18   28.80
  11  -4  -2  132.49   28.50
 -11  -4  -3    4.30   11.80
 -11   4   3   22.20   15.90
  11   4  -3   18.20   13.20
 -11   4  -3   11.00   12.80
  11  -4  -3   14.60   15.90
  11  -4  -3   21.40   11.10
 -11   4   4  101.49   24.40
 -11  -4  -4   97.79   22.80
  11   4  -4  106.69   23.20
  11  -4  -4   70.79   23.30
 -11   4  -4   75.99   21.00
 -12  -4   0  412.66   48.30
 -12   4   0  384.16   51.19
 -12   4   1  232.68   34.80
 -12  -4  -1  265.37   34.50
 -12   4   1  265.27   37.20
 -12   4  -1  218.88   34.30
 -12   4   2  328.27   44.70
 -12  -4  -2  252.67   39.70
 -12   4   2  377.16   43.20
 -12   4  -2  287.37   42.30
  12  -4  -2  334.07   41.20
  12  -4  -2  294.07   41.50
 -12  -4  -3  132.59   26.20
 -12   4   3   99.29   26.40
 -12   4  -3  126.29   26.60
  12  -4  -3  171.98   27.60
 -12   4   4  207.98   36.00
 -12  -4  -4  156.08   31.10
 -12   4  -4  187.88   33.50
  12  -4  -4  188.48   34.60
 -13   4   0   11.90   12.10
 -13  -4   0   53.69   14.20
 -13  -4  -1  484.75   54.89
 -13   4   1  413.06   56.29
 -13   4  -1  448.16   57.79
 -13   4   2   32.10   15.20
 -13   4   2   59.69   17.50
 -13  -4  -2   10.30   13.10
  13  -4  -2    3.10   12.60
 -13   4  -2   21.20   14.50
  13  -4  -2   19.60   12.00
 -13   4   3  346.57   47.90
 -13  -4  -3  301.57   43.10
  13  -4  -3  338.67   44.90
 -13   4  -3  242.08   42.60
 -14   4   0   79.89   20.20
 -14  -4   0   64.19   18.80
 -14   4   1   59.49   17.50
 -14  -4  -1   38.30   16.70
 -14   4  -1   34.00   15.90
 -14  -4  -2   38.60   15.10
 -14   4   2   57.49   18.20
 -14   4  -2   39.30   19.80
  14  -4  -2   70.19   17.00
 -14  -4  -3   17.60   14.80
 -14   4  -3   42.00   19.20
  14  -4  -3   35.50   18.30
 -15   4   0   40.40   17.20
 -15   4   1   17.40   13.50
 -15  -4  -1    0.40   13.00
 -15   4  -1   -0.40   14.50
 -15  -4  -2    4.80   13.60
 -15   4  -2   23.30   16.80
 -16   4   0   43.00   17.80
 -16  -4  -1   21.50   15.80
 -16   4   1   11.40   15.00
 -16   4  -1   21.10   18.40
   0  -5   0    1.40    2.90
   0   5   0   12.20    9.20
   0   5   1    3.90    6.00
   0   5  -1    2.90    5.60
   0  -5  -1   -1.60    3.70
   0   5  -1   -3.10    3.00
   0   5   2   -1.10    5.80
   0   5  -2    0.30    3.00
   0  -5  -2   -0.50    5.30
   0   5  -2   -0.20    6.10
   0  -5  -3    6.40    6.80
   0   5  -3   17.90    9.80
   0   5  -3    2.30    4.00
   0   5   3    5.40    7.60
   0  -5  -3    4.30    7.50
   0   5  -4    6.90   12.90
   0  -5  -4    5.10    9.00
   0  -5  -4    6.70    9.70
   0   5   4   12.30   10.30
   0  -5  -5   19.00   14.30
   0   5  -5   13.10   17.30
   0  -5  -5    8.80   12.30
  -1  -5   0   11.30    3.40
   1   5   0   16.80    7.70
   1  -5   0    1.90    3.10
  -1   5   0   14.70    4.60
  -1   5   0   10.90   10.70
   1   5  -1  122.19   16.10
  -1   5   1  114.89   18.70
  -1  -5  -1  114.29   15.00
   1   5  -1  106.49   12.90
  -1   5  -1  102.39   15.90
   1  -5  -1  103.39   14.80
   1   5   1  101.99   15.90
  -1   5  -1  120.79   14.90
  -1  -5   1  113.59   12.70
   1   5  -2    0.40    2.60
  -1  -5  -2    7.70    6.10
   1   5  -2   -2.10    5.70
  -1   5   2    5.80    8.20
   1  -5  -2   -9.60    4.70
  -1   5  -2    4.80    3.90
   1   5   2    4.50    5.90
  -1   5  -2    9.40    7.70
  -1  -5  -3   43.50   11.30
   1   5  -3   47.40   12.50
  -1  -5  -3   30.10   11.00
  -1   5   3   11.00   10.30
  -1   5  -3   54.59    8.80
   1  -5  -3   53.29   11.20
   1  -5  -3   44.00   11.50
   1   5   3   23.00   10.50
  -1   5  -3   49.10   12.50
  -1  -5  -4   10.40    9.10
  -1   5   4    4.70   10.80
   1   5  -4   -1.00   11.90
  -1  -5  -4   -2.00   10.10
  -1   5  -4    4.00   11.20
   1  -5  -4   -1.60   10.40
   1  -5  -4   -0.50    8.20
   1   5  -5   20.00   15.80
  -1  -5  -5   26.80   14.30
  -1  -5  -5   23.70   13.10
  -1   5  -5   29.20   16.20
   1  -5  -5   21.60   12.70
   1  -5  -5    9.70   12.70
  -2   5   0  107.19   15.60
   2  -5   0  106.09   15.00
  -2  -5   0  118.89   14.00
   2   5   0  124.09   16.60
  -2   5   0  150.88   22.90
   2   5  -1  602.54   63.19
  -2   5   1  578.04   65.39
  -2  -5  -1  556.44   62.69
  -2  -5   1  579.84   61.09
   2  -5  -1  528.85   62.69
  -2   5  -1  585.74   62.69
  -2   5  -1  589.54   64.19
   2   5   1  585.04   63.09
   2   5  -2  108.99   15.40
  -2  -5  -2   70.99   14.00
  -2   5   2   89.19   16.80
  -2  -5  -2   86.49   13.90
   2  -5  -2   73.09   13.00
   2   5   2  101.69   14.90
  -2   5  -2  111.39   13.40
  -2   5  -2   82.89   14.80
  -2   5   3  271.57   39.80
   2   5  -3  291.67   39.10
  -2  -5  -3  315.67   38.00
  -2  -5  -3  333.67   37.10
   2  -5  -3  245.58   38.60
  -2   5  -3  328.57   35.10
   2  -5  -3  279.77   37.00
  -2   5  -3  308.37   39.80
   2   5   3  305.37   37.70
  -2   5   4   27.00   12.80
  -2  -5  -4   21.00   11.70
   2   5  -4   32.90   13.70
  -2  -5  -4   38.80   12.80
   2  -5  -4   35.40   13.70
   2  -5  -4   33.50   11.90
  -2   5  -4   26.80   14.40
  -2  -5  -5  123.29   22.10
  -2  -5  -5  101.29   20.80
   2   5  -5   88.19   25.10
   2  -5  -5  116.49   25.10
   2  -5  -5  117.69   21.80
  -2   5  -5  115.79   26.20
  -3   5   0 3818.92  400.16
   3   5   0 3768.42  399.46
  -3   5   0 3722.03  403.76
  -3  -5   0 3779.62  398.96
   3   5  -1 1290.97  138.49
  -3  -5  -1 1286.87  138.69
  -3   5   1 1270.67  139.19
  -3   5   1 1321.97  141.39
  -3   5  -1 1286.77  138.59
   3  -5  -1 1293.97  138.79
  -3   5  -1 1294.57  140.29
  -3  -5   1 1305.17  136.69
   3   5   1 1297.57  138.09
   3   5  -2 2378.96  257.77
  -3  -5  -2 2421.26  256.67
  -3   5   2 2422.66  259.57
  -3  -5  -2 2447.56  257.97
   3   5   2 2415.86  256.97
  -3   5  -2 2419.26  258.47
   3  -5  -2 2386.56  257.37
  -3   5  -2 2462.75  257.07
  -3  -5  -3  709.93   72.59
  -3  -5  -3  621.74   73.29
   3   5  -3  658.73   73.79
  -3   5   3  691.63   75.09
  -3   5  -3  645.54   71.99
   3  -5  -3  634.34   72.39
   3  -5  -3  663.13   74.99
  -3   5  -3  627.04   74.19
   3   5   3  639.24   72.29
  -3  -5  -4 1097.09  121.29
   3   5  -4 1127.89  123.29
  -3  -5  -4 1109.49  122.29
  -3   5   4 1046.10  123.79
  -3   5  -4 1039.70  123.29
   3  -5  -4 1128.09  123.99
   3  -5  -4 1121.09  121.29
  -3   5  -4 1159.38  120.49
  -3  -5  -5  276.97   36.00
  -3  -5  -5  296.07   37.40
   3   5  -5  197.88   38.00
   3  -5  -5  217.98   36.90
   3  -5  -5  231.98   35.20
  -4   5   0  530.95   59.29
  -4  -5   0  526.45   57.79
  -4   5   0  575.34   64.89
   4   5   0  527.05   57.89
  -4  -5  -1   -0.20    5.20
  -4   5   1   11.90   10.80
   4   5  -1    4.30    4.70
  -4   5   1   -6.10    5.10
   4   5   1   -0.90    3.30
  -4  -5   1    3.00    2.20
  -4   5  -1   -1.60    4.00
   4  -5  -1    6.20    5.00
  -4   5  -1   12.20   10.00
  -4  -5  -2  334.27   41.70
  -4  -5  -2  357.46   40.10
   4   5  -2  382.86   41.80
  -4   5   2  415.56   47.70
  -4   5  -2  361.26   41.00
   4   5   2  367.06   40.20
   4  -5  -2  323.87   40.90
  -4   5  -2  382.76   42.90
  -4  -5  -3   14.60    9.10
   4   5  -3   -7.30    7.70
  -4  -5  -3    6.10    6.70
  -4   5   3    4.80   10.90
  -4   5  -3    8.20    9.60
   4  -5  -3    1.40    6.30
  -4   5  -3   -2.80    6.30
   4  -5  -3    4.40   10.10
  -4   5   4  169.78   28.30
  -4  -5  -4  174.08   25.60
   4   5  -4  125.59   25.10
  -4  -5  -4  152.08   22.50
   4  -5  -4  131.59   25.80
   4  -5  -4  154.98   23.40
  -4   5  -4  124.79   21.80
  -4   5  -4  182.88   28.10
   4   5  -5  -15.60   13.60
  -4  -5  -5   -1.90   11.70
   4  -5  -5  -12.80   14.30
   4  -5  -5   -3.00   11.70
  -4   5  -5  -20.30   13.20
   5   5   0   -2.90    3.60
  -5   5   0   -7.80    5.90
  -5   5   0   17.40   13.70
  -5  -5   0   -1.00    3.70
  -5  -5  -1   29.30    4.80
  -5   5   1   22.80    9.50
  -5  -5  -1   31.50    7.80
  -5   5   1   16.60   12.20
   5   5  -1   22.80    6.70
  -5  -5   1   36.00    5.00
   5   5   1   36.00    4.80
  -5   5  -1   23.70    8.50
   5  -5  -1   20.40    8.20
  -5   5  -1    6.90   11.30
  -5  -5  -2    0.00    4.30
  -5   5   2  -16.40    8.70
   5   5  -2   -4.00    5.50
  -5  -5  -2    2.60    6.10
   5  -5  -2   -1.70    5.40
  -5   5  -2   -8.60    8.10
  -5   5  -2    3.40    5.90
  -5  -5  -3   10.30    8.80
  -5   5   3   20.70   12.50
  -5  -5  -3   33.60    8.70
   5   5  -3    6.10    8.80
   5  -5  -3   17.20    8.20
   5  -5  -3   20.00   12.10
  -5   5  -3    7.90   10.20
  -5   5  -3   16.20    8.90
  -5  -5  -4   -1.20    9.60
   5   5  -4    7.80   12.30
  -5   5   4   -2.90   13.90
  -5   5  -4  -19.50   12.00
   5  -5  -4   -1.30   12.00
   5  -5  -4   -6.20    9.00
  -5   5  -4   -1.20    8.60
  -5  -5  -5    3.80   12.00
   5   5  -5  -12.50   13.20
  -5   5  -5  -10.10   14.80
   5  -5  -5  -10.00   14.90
  -6  -5   0   15.30    5.40
   6   5   0    6.60    3.70
  -6   5   0    9.90   14.00
  -6   5   0   11.00    7.00
  -6   5   1   26.10    9.90
   6   5  -1   22.20    6.70
  -6  -5  -1   21.00    7.60
  -6   5   1   39.30   14.50
   6  -5  -1   36.50    8.70
  -6  -5   1   33.70    5.80
  -6   5  -1   25.70   13.30
  -6   5  -1   24.60    8.80
  -6  -5  -2    8.90    7.80
  -6   5   2   -6.80    6.70
  -6   5   2    2.80   11.60
   6   5  -2    4.80    6.70
   6  -5  -2    0.30    5.60
  -6   5  -2    1.10   10.50
  -6   5  -2   15.70    8.20
  -6   5   3   27.70   14.40
  -6  -5  -3   13.10    9.60
   6   5  -3   20.00   11.10
  -6   5  -3   27.60   13.10
   6  -5  -3   19.30   12.70
   6  -5  -3    6.40    7.10
  -6   5  -3   19.00   10.20
   6   5  -4   10.80   12.60
  -6   5   4   -1.30   12.80
  -6  -5  -4    4.40   10.20
   6  -5  -4   19.50   10.30
   6  -5  -4   -6.20   12.00
  -6   5  -4   -9.10   10.40
  -6   5  -4    7.60   10.50
  -6   5   5   23.40   17.50
  -6  -5  -5   16.60   13.90
   6   5  -5   -4.00   13.10
  -6   5  -5   33.70   18.20
   6  -5  -5    7.20   16.40
  -7  -5   0   26.30    7.70
   7   5   0   28.70    5.10
  -7   5   0   42.80   16.60
  -7   5   0   18.10    9.10
   7   5  -1  407.56   42.90
  -7   5   1  397.66   45.40
  -7   5   1  337.27   50.39
  -7  -5  -1  389.36   44.30
  -7  -5   1  365.06   42.30
  -7   5  -1  372.66   45.10
   7  -5  -1  401.86   44.90
  -7   5  -1  370.56   50.69
  -7  -5  -2   21.10   10.40
   7   5  -2    6.80    7.50
  -7   5   2   -1.60   12.00
  -7   5   2   12.60    9.20
   7  -5  -2    8.80    7.60
  -7   5  -2    6.30   11.60
  -7   5  -2   22.00    9.20
  -7   5   3  167.58   31.90
  -7  -5  -3  243.48   31.60
   7   5  -3  244.18   30.50
  -7   5  -3  258.07   32.80
   7  -5  -3  161.58   31.10
   7  -5  -3  184.68   27.50
  -7   5  -3  205.88   29.50
  -7  -5  -4    7.00   13.40
   7   5  -4    4.80   12.10
  -7   5   4  -15.60   12.40
   7  -5  -4   13.10   11.00
   7  -5  -4   22.80   15.80
  -7   5  -4    0.40   11.50
  -7   5  -4   13.30   14.30
   7   5  -5   62.89   20.90
  -7  -5  -5   99.59   21.10
  -7   5   5  101.89   24.80
  -7   5  -5   56.79   24.20
  -7   5  -5   77.19   19.80
   7  -5  -5   57.69   22.30
  -8   5   0   62.39   19.10
  -8  -5   0   65.69   12.40
  -8   5   0   87.69   15.30
   8   5  -1   26.40    7.00
  -8   5   1   11.80    8.70
  -8  -5  -1   38.20    9.80
  -8   5   1   45.90   16.60
  -8   5  -1    8.60    8.80
   8  -5  -1   24.40    9.10
  -8   5  -1   -1.00   14.30
  -8  -5   1   13.40    6.20
   8   5  -2   82.49   12.80
  -8   5   2   60.29   14.90
  -8   5   2   49.60   17.50
  -8  -5  -2   20.70   10.30
  -8   5  -2   88.69   18.60
   8  -5  -2   30.10   11.20
  -8   5  -2   65.09   14.40
  -8  -5  -3   14.50   11.20
  -8   5   3   27.40   14.70
   8   5  -3   19.60   10.60
  -8   5  -3    7.20    9.30
  -8   5  -3   17.50   13.40
   8  -5  -3   18.20   10.30
   8  -5  -3   13.10   12.70
  -8  -5  -4   23.30   13.40
   8   5  -4   34.20   14.60
  -8   5   4   78.29   20.80
  -8   5  -4   39.60   15.50
  -8   5  -4   24.50   14.80
   8  -5  -4   19.70   11.80
   8  -5  -4    2.40   14.80
  -8  -5  -5   24.40   16.50
  -8   5   5   -2.10   16.90
   8   5  -5    0.70   14.60
  -8   5  -5    5.80   15.70
   8  -5  -5    7.80   16.90
  -9   5   0  903.11  112.59
  -9  -5   0 1059.49  108.29
  -9   5   0  979.20  109.99
  -9  -5  -1  320.47   42.80
  -9   5   1  384.36   45.50
  -9   5   1  359.66   48.20
  -9   5  -1  367.16   44.80
  -9   5  -1  331.07   48.40
  -9  -5  -2  729.13   86.49
  -9   5   2  787.92   89.69
  -9   5   2  777.02   87.69
   9   5  -2  807.52   85.39
  -9   5  -2  796.12   90.69
  -9   5  -2  762.72   86.69
   9  -5  -2  760.92   86.49
  -9  -5  -3  130.69   26.60
   9   5  -3  216.08   28.20
  -9   5   3  184.28   31.70
   9  -5  -3  218.28   27.50
  -9   5  -3  158.68   27.10
   9  -5  -3  147.29   29.90
  -9   5  -3  254.67   32.80
  -9  -5  -4  391.66   52.49
  -9   5   4  449.06   58.79
   9   5  -4  369.26   51.69
  -9   5  -4  396.36   52.49
   9  -5  -4  428.76   57.69
 -10  -5   0    2.10    7.30
 -10   5   0  -22.80   11.40
 -10   5   0   -2.50    9.00
 -10   5   1  301.47   40.20
 -10  -5  -1  271.37   35.20
 -10   5   1  290.67   37.20
 -10   5  -1  236.28   35.20
 -10   5  -1  234.28   38.20
 -10   5   2    7.80   13.90
  10   5  -2   10.50   12.50
 -10   5   2    6.60   11.70
 -10  -5  -2    9.90    9.90
 -10   5  -2   -8.70    8.80
 -10   5  -2   -6.80   13.10
  10  -5  -2   -6.70    7.80
  10   5  -3  151.28   24.70
 -10   5   3  222.78   33.00
 -10  -5  -3  214.08   28.80
  10  -5  -3  120.99   22.90
 -10   5  -3  134.39   25.60
  10  -5  -3  124.39   26.70
 -10   5   4    2.00   18.60
 -10  -5  -4   -5.00   12.10
  10   5  -4   10.90   13.90
 -10   5  -4   17.20   14.90
  10  -5  -4   19.40   17.60
 -11   5   0   43.60   17.10
 -11   5   0   16.40   10.80
 -11  -5   0   13.60    9.50
 -11  -5  -1   -7.50    8.70
 -11   5   1    9.00   13.90
 -11   5   1    4.80    9.30
 -11   5  -1   -9.40   10.10
 -11   5  -1  -23.80   11.60
 -11   5   2   24.50   13.20
 -11   5   2   58.89   18.30
 -11  -5  -2   15.50   11.40
 -11   5  -2   46.20   14.80
  11  -5  -2    8.60   10.00
 -11   5   3  -12.50   16.00
 -11  -5  -3   -4.90   12.60
  11  -5  -3   12.30   10.50
  11  -5  -3    9.70   13.10
 -11   5  -3   -1.30   12.90
 -11  -5  -4   39.60   17.30
  11   5  -4   20.10   15.90
 -11   5   4   -1.50   19.40
  11  -5  -4   24.60   19.70
 -11   5  -4   24.30   15.90
 -12   5   0    4.00   10.40
 -12  -5   0   -1.00    9.50
 -12   5   0   -4.30   13.80
 -12   5   1   17.30   12.00
 -12   5   1   18.20   15.40
 -12  -5  -1   17.80   10.70
 -12   5  -1   -8.30    9.90
 -12   5   2   24.70   16.20
 -12  -5  -2   -0.60   10.10
 -12   5   2   -2.70   11.80
 -12   5  -2   27.20   14.20
  12  -5  -2    1.90   12.20
  12  -5  -2    2.50    9.80
 -12  -5  -3   16.10   13.30
 -12   5   3    9.40   18.20
  12  -5  -3   30.40   15.40
  12  -5  -3    8.50   11.90
 -12   5  -3    8.90   14.50
 -12   5   4   -2.90   15.70
 -12  -5  -4   17.10   16.70
  12  -5  -4  -13.60   14.60
 -12   5  -4    1.00   16.60
 -13  -5   0   -0.40   10.00
 -13   5   0    6.70   11.90
 -13   5   1  225.68   39.10
 -13  -5  -1  299.17   38.60
 -13   5  -1  329.87   41.90
 -13  -5  -2  -16.90    9.00
 -13   5   2    4.50   12.70
 -13   5   2    0.10   16.30
  13  -5  -2   -3.10   10.00
  13  -5  -2    0.50   10.80
 -13   5  -2  -12.10   13.00
 -13  -5  -3  183.78   30.40
 -13   5   3  163.98   32.00
 -13   5  -3  163.28   30.20
  13  -5  -3  153.18   29.60
 -14   5   0  106.09   24.00
 -14  -5  -1   67.79   19.00
 -14   5   1   88.89   20.70
 -14   5  -1   72.69   21.10
 -14  -5  -2   83.29   19.70
 -14   5   2   65.49   19.30
 -14   5  -2   66.39   20.30
  14  -5  -2   85.29   18.70
 -14  -5  -3   57.59   19.30
 -14   5   3   72.69   24.40
  14  -5  -3   35.70   17.30
 -14   5  -3  113.19   25.20
 -15   5   0  106.79   23.60
 -15  -5  -1   28.20   14.90
 -15   5   1   15.50   15.40
 -15   5  -1   38.40   18.30
  15  -5  -1   30.20   18.40
 -15   5   2   93.49   22.50
 -15  -5  -2   68.19   19.80
 -15   5  -2  101.59   25.10
  15  -5  -2  105.09   21.30
 -16   5   0   59.19   20.60
 -16  -5  -1   -8.40   15.50
 -16   5   1   15.70   15.90
  16  -5  -1  -31.70   15.60
 -16   5  -1   10.80   16.70
   0  -6   0  182.78   20.80
   0   6   0  161.28   27.60
   0   6   1 2638.84  281.67
   0  -6  -1 2639.64  279.47
   0   6  -1 2632.64  280.57
   0  -6   1 2635.24  278.67
   0   6  -1 2630.24  278.97
   0  -6  -2   93.99   17.20
   0   6   2  148.79   20.50
   0   6  -2  134.49   15.90
   0   6  -2  125.09   18.90
   0   6  -3 1377.56  145.69
   0  -6  -3 1385.66  148.09
   0   6   3 1358.66  148.39
   0   6  -3 1319.37  148.69
   0  -6  -3 1358.46  147.29
   0   6  -4   23.60   15.10
   0  -6  -4   80.29   15.50
   0  -6  -4   44.30   13.60
   0   6   4   25.30   12.30
   0  -6  -5  500.85   65.79
   0   6  -5  526.25   68.49
   0  -6  -5  538.45   62.19
  -1  -6   0  165.68   20.80
   1   6   0  229.38   27.00
  -1   6   0  194.48   22.20
   1  -6   0  179.58   21.50
  -1   6   0  181.78   29.20
  -1  -6  -1  120.59   16.00
   1   6  -1  132.29   14.60
  -1   6   1  110.29   20.30
   1   6  -1   96.29   16.30
  -1   6  -1  129.79   18.60
  -1   6  -1  128.49   16.00
  -1  -6   1  109.79   13.60
   1  -6  -1  107.99   15.60
   1   6   1  112.89   18.10
  -1  -6  -2  128.89   18.00
  -1   6   2  142.49   21.00
   1   6  -2  158.88   20.20
   1   6  -2  123.49   14.90
  -1   6  -2  130.99   16.30
   1   6   2  141.79   20.00
  -1   6  -2   89.29   18.00
   1  -6  -2  100.49   16.90
   1   6  -3   51.89   13.70
  -1  -6  -3   48.90   12.10
  -1  -6  -3   88.39   14.70
  -1   6   3   42.70   14.60
   1  -6  -3   68.49   15.30
  -1   6  -3   58.89   10.00
   1  -6  -3   47.80   11.80
   1   6   3   54.19   14.10
  -1   6  -3   56.99   15.00
  -1  -6  -4   38.10   13.10
  -1   6   4   59.19   16.40
   1   6  -4   27.90   16.20
  -1  -6  -4   33.90   13.00
  -1   6  -4   67.19   16.90
   1  -6  -4   26.00   12.70
   1  -6  -4   43.90   15.60
   1   6   4   39.70   13.90
   1   6  -5   27.00   16.90
  -1  -6  -5   21.00   11.90
  -1  -6  -5   33.40   14.90
   1  -6  -5   17.60   15.90
   1  -6  -5    4.70   11.00
  -1   6  -5   17.50   15.80
  -2   6   0  418.56   49.70
   2   6   0  421.16   50.69
  -2  -6   0  451.25   48.60
   2  -6   0  459.95   49.20
  -2   6   0  512.25   58.99
  -2   6   1   -0.30   10.40
   2   6  -1   38.60    9.20
  -2  -6  -1   41.70    8.50
  -2   6  -1   41.30    8.70
  -2  -6   1   52.49    6.00
  -2   6  -1   46.00   12.40
   2   6   1   18.60    8.60
   2  -6  -1   42.80    8.50
   2   6  -2  280.97   33.50
  -2   6   2  283.47   36.90
  -2  -6  -2  282.37   33.10
   2  -6  -2  238.28   32.00
  -2   6  -2  269.97   31.90
   2   6   2  296.67   33.00
  -2   6  -2  304.77   36.00
  -2   6   3   30.00   13.40
   2   6  -3   15.50   10.30
  -2   6  -3   15.80    7.00
   2  -6  -3   24.00    8.80
  -2   6  -3   23.20   11.30
   2  -6  -3   18.80   11.60
  -2  -6  -4  153.38   21.80
  -2   6   4  107.79   22.50
  -2  -6  -4  105.79   19.40
   2   6  -4   76.79   20.10
   2  -6  -4   81.89   17.90
  -2   6  -4  106.19   23.80
   2  -6  -4  141.79   23.50
  -2  -6  -5   12.20   11.80
  -2  -6  -5   14.20   11.60
   2   6  -5   11.90   16.70
  -2   6  -5   -3.50   17.20
   2  -6  -5   -5.70   14.40
   2  -6  -5   21.70   14.20
   3  -6   0   70.59   10.10
  -3   6   0   63.29   18.50
  -3  -6   0   32.10    7.40
   3   6   0   44.20    9.90
  -3   6   0   61.99   10.40
   3   6  -1    5.30    5.60
  -3   6   1    3.30    5.50
  -3  -6  -1   -8.60    4.50
  -3   6   1   -5.40   11.70
   3  -6  -1   -3.80    4.40
  -3   6  -1    0.40    4.90
  -3  -6   1   12.30    2.70
   3   6   1    9.70    5.30
  -3   6  -1  -15.70    7.50
  -3  -6  -2   51.79    8.30
  -3   6   2   23.40   12.60
   3   6  -2   34.60   10.00
  -3   6  -2    8.10   10.30
   3  -6  -2   13.90    7.40
  -3   6  -2   28.40    7.70
  -3  -6  -3   -8.10    6.40
  -3   6   3    8.90   11.50
   3   6  -3   -3.30    8.50
  -3  -6  -3  -11.50    6.20
   3  -6  -3   -1.00    7.30
  -3   6  -3   -4.00   10.20
   3  -6  -3   14.00   10.30
  -3   6  -3    5.40    6.30
   3   6   3   -7.20    6.30
   3   6  -4   13.60   12.90
  -3  -6  -4    9.40    9.60
  -3   6   4   15.90   13.60
  -3  -6  -4   15.50   11.90
  -3   6  -4   19.20   14.60
   3  -6  -4    7.90   11.70
   3  -6  -4   16.60    9.80
   3   6  -5   -3.40   14.80
  -3  -6  -5    0.00   10.50
  -3   6   5    9.30   14.50
   3  -6  -5    5.00   13.00
   3  -6  -5    5.90   14.50
  -3   6  -5  -12.50   13.60
  -4   6   0    8.60    6.20
  -4  -6   0    9.60    4.40
   4   6   0   10.10    6.10
  -4   6   0  -19.40   11.80
  -4  -6  -1   32.20    8.20
   4   6  -1   39.50    8.30
  -4   6   1    4.80   12.30
  -4   6   1   23.30    8.50
  -4   6  -1   24.40    7.50
   4   6   1   28.60    6.90
   4  -6  -1   30.20    8.20
  -4   6  -1   31.50   12.20
  -4  -6   1   46.00    5.50
  -4  -6  -2    0.20    6.80
  -4  -6  -2    6.60    4.60
  -4   6   2    0.30   11.10
   4   6  -2   11.80    7.70
   4   6   2   -5.80    4.60
   4  -6  -2   -1.60    6.10
  -4   6  -2    4.50    6.00
  -4   6  -2  -11.10    7.40
  -4  -6  -3   26.40    9.90
  -4   6   3   14.70   13.00
   4   6  -3    8.70    9.40
  -4  -6  -3    8.20    7.10
  -4   6  -3   10.20   11.60
   4  -6  -3   20.50   12.50
   4  -6  -3    3.50    6.90
  -4   6  -3   20.70    8.40
  -4   6   4    5.00   12.80
   4   6  -4   23.60   12.70
  -4  -6  -4    6.50   11.70
  -4   6  -4   -1.10    8.80
   4  -6  -4   12.30   13.50
   4  -6  -4   10.60   10.10
  -4   6  -4    1.70   12.60
   4   6  -5   17.10   17.90
  -4   6   5   -1.10   14.20
  -4  -6  -5   14.60   14.00
   4  -6  -5   16.50   16.30
  -4   6  -5   17.80   17.80
   4  -6  -5   18.10   13.00
  -5   6   0   30.90    9.60
  -5  -6   0   38.30    7.80
  -5   6   0   54.09   20.10
   5   6   0   45.50    8.80
  -5   6   1   15.50   12.80
   5   6  -1   17.10    6.80
  -5   6   1    8.40    7.50
  -5  -6  -1   30.70    7.90
  -5  -6   1   23.20    4.40
  -5   6  -1    8.10   11.10
  -5   6  -1   17.20    7.20
   5  -6  -1   18.60    7.00
  -5  -6  -2   20.00    9.00
  -5   6   2   21.20   13.90
   5   6  -2   21.30    9.10
  -5  -6  -2   22.70    6.00
  -5   6  -2   25.10    7.90
   5  -6  -2   15.60    7.60
   5   6   2   29.10    6.20
  -5   6  -2   27.40   12.90
  -5  -6  -3   11.80    9.90
  -5   6   3   17.70   12.90
   5   6  -3  -13.60    9.20
   5  -6  -3    5.90    8.10
  -5   6  -3    8.40    7.40
  -5   6  -3    2.70   10.80
   5  -6  -3    4.10   11.60
   5   6  -4   15.90   14.00
  -5  -6  -4   10.10   12.10
  -5   6   4   35.00   16.00
   5  -6  -4    9.60   13.50
   5  -6  -4   14.40   11.00
  -5   6  -4   19.00   14.60
  -5   6  -4    3.50    9.70
  -5  -6  -5   20.80   14.20
  -5   6   5   14.30   15.50
   5   6  -5  -17.10   12.90
   5  -6  -5   21.20   16.30
   5  -6  -5    3.00   12.30
  -5   6  -5   -9.00   15.20
  -6  -6   0  392.66   42.40
   6   6   0  388.76   42.00
  -6   6   0  287.57   49.80
  -6   6   0  368.66   44.10
   6   6  -1 4031.50  424.16
  -6  -6  -1 4012.10  425.06
  -6   6   1 4014.90  426.46
  -6   6   1 3970.90  429.56
  -6  -6   1 4025.40  423.16
  -6   6  -1 3989.80  429.36
  -6   6  -1 4000.50  425.66
   6  -6  -1 3995.40  425.46
  -6   6   2  290.07   38.40
  -6  -6  -2  270.47   36.80
  -6   6   2  238.78   40.60
   6   6  -2  310.47   36.70
  -6   6  -2  287.57   37.00
  -6   6  -2  281.27   40.50
   6  -6  -2  328.57   37.60
  -6   6   3 2290.37  244.08
   6   6  -3 2262.87  241.28
  -6  -6  -3 2159.18  241.58
   6  -6  -3 2263.07  243.48
  -6   6  -3 2248.28  242.78
   6  -6  -3 2272.87  240.58
  -6   6  -3 2234.48  240.78
   6   6  -4  117.59   23.70
  -6   6   4  119.69   25.60
  -6  -6  -4  114.69   21.90
   6  -6  -4   87.89   18.70
  -6   6  -4  157.48   27.20
  -6   6  -4  112.19   20.10
   6  -6  -4   96.39   24.60
  -6  -6  -5  916.51  105.99
  -6   6   5 1001.90  108.89
   6   6  -5  876.81  106.19
  -6   6  -5  956.40  107.89
   6  -6  -5  885.71  108.19
  -7  -6   0  329.27   33.40
  -7   6   0  287.57   37.70
  -7   6   0  219.88   41.80
   7   6   0  270.07   32.40
  -7   6   1  103.29   25.00
   7   6  -1   93.49   14.90
  -7   6   1  130.09   20.00
  -7  -6  -1   71.19   15.40
  -7  -6   1  139.99   14.70
  -7   6  -1  101.79   17.20
  -7   6  -1   81.79   22.10
   7  -6  -1  111.99   17.60
  -7   6   2  248.68   37.70
  -7   6   2  235.08   32.90
  -7  -6  -2  207.68   29.90
   7   6  -2  251.57   30.50
  -7   6  -2  204.88   30.40
  -7   6  -2  218.68   34.20
   7  -6  -2  256.77   31.40
  -7  -6  -3   70.69   15.20
   7   6  -3   40.50   13.10
  -7   6   3   69.99   21.60
   7  -6  -3   82.99   14.70
  -7   6  -3   57.39   17.90
  -7   6  -3   43.90   13.30
   7  -6  -3   75.29   19.70
   7   6  -4   85.29   20.50
  -7  -6  -4  102.79   20.50
  -7   6   4   68.99   23.10
   7  -6  -4  131.49   21.40
   7  -6  -4   87.49   24.00
  -7   6  -4  112.19   19.00
  -7   6  -4   94.99   22.70
  -7   6   5   38.00   20.70
   7   6  -5   24.90   18.10
  -7  -6  -5    8.50   15.00
  -7   6  -5   40.80   20.90
   7  -6  -5   25.90   18.80
  -8   6   0   26.90   15.90
  -8   6   0   14.50    9.00
  -8  -6   0   19.60    7.40
  -8   6   1   21.60   15.90
  -8   6   1   13.00   10.30
  -8  -6  -1    3.30    7.40
   8   6  -1    9.10    6.00
   8  -6  -1    6.80    8.10
  -8   6  -1    7.00   13.70
  -8   6  -1    1.10    7.90
  -8  -6  -2    5.20    9.80
  -8   6   2   26.70   12.80
  -8   6   2   26.70   17.50
   8   6  -2   14.20    8.40
  -8   6  -2   19.80   14.90
   8  -6  -2   21.60   10.30
  -8   6  -2   29.00   10.80
   8   6  -3    1.20    9.60
  -8   6   3    4.20   15.70
  -8  -6  -3    6.80   10.30
  -8   6  -3   -1.30   10.40
   8  -6  -3   -0.70    8.30
   8  -6  -3   19.90   15.70
  -8   6  -3   -2.20   12.40
  -8  -6  -4   20.50   14.20
   8   6  -4    1.70   13.10
  -8   6   4    5.60   16.80
   8  -6  -4   -2.40   10.80
  -8   6  -4   26.70   16.30
  -8   6  -4    6.50   11.90
   8  -6  -4   33.10   17.60
  -8   6   5   13.70   20.30
  -8  -6  -5    0.90   14.50
   8   6  -5   11.20   16.20
   8  -6  -5   -1.60   17.80
  -9   6   0   55.79   19.60
  -9  -6   0   37.20   10.30
  -9   6   0   76.79   15.00
  -9  -6  -1   12.40    8.20
  -9   6   1   11.00    9.20
  -9   6   1   18.10   15.80
  -9   6  -1   14.60    9.30
   9  -6  -1    2.50    9.30
  -9   6  -1   22.90   16.70
  -9   6   2   21.10   19.00
  -9   6   2   35.00   14.50
  -9  -6  -2   52.89   13.10
   9   6  -2   39.00   10.70
   9  -6  -2   52.89   13.10
  -9   6  -2   43.80   12.90
  -9   6  -2   27.20   17.70
  -9   6   3   32.90   20.10
   9   6  -3    3.20   10.30
  -9  -6  -3    7.00   10.20
   9  -6  -3   28.40   16.70
  -9   6  -3   19.60   14.60
  -9   6  -3   15.30   11.10
   9  -6  -3   15.00   10.10
   9   6  -4   19.20   14.70
  -9  -6  -4   15.60   13.30
  -9   6   4    9.00   19.90
   9  -6  -4   44.80   19.20
  -9   6  -4   36.50   16.60
   9  -6  -4   32.70   13.10
 -10   6   0   -9.40   14.90
 -10  -6   0    8.30    7.70
 -10   6   0   -6.30    8.30
 -10  -6  -1  100.49   18.20
 -10   6   1  114.19   20.70
 -10   6   1   70.19   22.90
 -10   6  -1  103.19   23.90
 -10   6  -1  127.19   21.40
  10  -6  -1  123.29   20.50
 -10   6   2   -9.00   11.20
 -10   6   2    5.10   16.30
 -10  -6  -2   -0.70    9.00
 -10   6  -2   24.90   13.80
  10  -6  -2   -1.80    9.50
 -10   6  -2    0.20   15.00
 -10  -6  -3   45.10   14.30
 -10   6   3   77.89   22.60
  10   6  -3   50.59   15.10
  10  -6  -3   50.39   13.30
 -10   6  -3   60.69   15.30
  10  -6  -3   39.90   16.40
 -10   6   4   11.00   20.50
 -10  -6  -4    6.70   13.50
  10   6  -4   10.90   14.20
  10  -6  -4   13.30   17.00
 -10   6  -4   -5.70   13.40
 -11  -6   0    0.00    7.50
 -11   6   0   -8.40   12.90
 -11   6   0   -7.50    9.50
 -11   6   1   14.80   15.40
 -11   6   1   -3.30    8.80
 -11  -6  -1   -8.90    8.00
  11  -6  -1    6.10    9.90
 -11   6  -1   11.80   11.90
 -11   6  -1    5.00   15.60
 -11   6   2   -8.50   11.70
 -11   6   2    2.90   14.40
 -11  -6  -2   10.20   10.70
 -11   6  -2   13.00   12.80
  11  -6  -2   10.40    9.90
 -11   6   3   26.00   19.80
 -11  -6  -3    1.00   11.30
 -11   6  -3   -3.70   13.60
  11  -6  -3  -10.80   14.10
  11  -6  -3   15.40   11.30
  11   6  -4    2.30   21.40
 -11  -6  -4  -10.20   12.90
 -11   6   4    5.00   20.80
  11  -6  -4   -7.30   15.80
 -11   6  -4   15.70   13.80
 -12  -6   0  -15.70    9.10
 -12   6   0   27.50   16.30
 -12   6   0    2.60   12.30
 -12   6   1  156.18   28.50
 -12   6   1  243.88   35.50
 -12  -6  -1  209.78   29.00
 -12   6  -1  174.78   29.90
  12  -6  -1  216.48   30.10
 -12   6   2   13.50   17.50
 -12  -6  -2   -7.20   10.90
 -12   6   2    7.50   13.10
  12  -6  -2   21.50   11.80
 -12   6  -2  -13.50   10.30
 -12  -6  -3  127.39   26.80
 -12   6   3  210.68   37.20
 -12   6  -3  128.49   28.00
  12  -6  -3  154.18   25.20
  12  -6  -3  195.38   31.30
 -13   6   0  185.88   31.90
 -13   6   1   64.79   18.20
 -13  -6  -1   91.59   18.60
 -13   6   1   52.59   21.70
  13  -6  -1   91.09   20.20
 -13   6  -1  100.59   21.00
 -13   6   2  105.79   26.50
 -13   6   2   64.09   19.80
 -13  -6  -2  113.19   22.10
  13  -6  -2   97.79   19.30
 -13   6  -2  126.89   25.10
  13  -6  -2   95.69   21.50
 -13   6   3   51.19   24.30
 -13  -6  -3   56.89   17.50
 -13   6  -3   80.19   22.80
  13  -6  -3   18.50   15.30
 -14   6   0   31.40   17.20
 -14   6   1   49.20   15.10
 -14  -6  -1   37.00   14.90
  14  -6  -1    3.10   14.70
 -14   6  -1   20.40   14.40
 -14  -6  -2   29.30   13.60
 -14   6   2    2.50   28.10
 -14   6   2    4.90   14.40
 -14   6  -2    6.70   16.80
  14  -6  -2   29.70   14.10
  14  -6  -2   17.40   12.70
 -15   6   0  111.39   23.80
 -15   6   1  -19.30   12.20
 -15  -6  -1    3.10   12.90
 -15   6  -1   15.30   16.50
  15  -6  -1   19.90   18.00
 -15  -6  -2   74.99   19.60
 -15   6   2  105.79   24.30
  15  -6  -2   77.69   20.10
 -15   6  -2   85.39   24.40
 -16   6   0  166.78   32.00
   0   7   0   -8.00   11.40
   0  -7   0    1.70    3.40
   0   7  -1    4.80    3.70
   0   7   1    0.10    7.90
   0  -7  -1    0.50    4.30
   0   7  -1   19.00    7.60
   0  -7   1    3.40    3.20
   0   7  -2   23.10    5.40
   0   7  -2    7.30    7.60
   0  -7  -2    2.10    5.70
   0   7   2   -3.20    8.50
   0  -7  -3   13.20    9.60
   0   7   3   12.90   10.40
   0   7  -3    4.50   10.00
   0  -7  -3    3.20    7.30
   0   7   4  -16.80   10.70
   0  -7  -4    0.90   10.40
   0  -7  -4   -3.00   11.00
   0   7  -4    0.40   11.50
   0  -7  -5   -1.40   10.90
   0  -7  -5   -1.30   13.50
   0   7  -5    2.40   17.00
  -1   7   0  434.06   58.89
   1  -7   0  448.16   50.49
  -1   7   0  459.75   51.19
   1   7   0  479.15   55.29
  -1  -7   0  471.35   50.29
   1  -7   1  109.39   17.10
  -1   7   1  137.99   24.40
  -1  -7  -1  113.09   17.50
   1   7  -1  156.48   20.40
   1   7   1  141.19   22.20
  -1  -7   1  152.88   16.10
  -1   7  -1  170.08   22.40
  -1   7  -1  148.59   18.20
   1  -7  -1  129.79   18.10
   1   7  -2  314.87   34.90
   1   7  -2  347.47   38.60
  -1  -7  -2  270.57   36.90
  -1   7   2  279.97   40.80
  -1   7  -2  300.57   36.00
  -1   7  -2  392.36   42.00
  -1  -7   2  327.97   34.60
   1   7   2  330.67   38.70
   1  -7  -2  338.17   37.30
   1   7  -3   43.30   14.30
  -1   7   3   64.49   16.60
  -1  -7  -3   67.59   14.50
  -1  -7  -3   49.40   13.30
   1   7   3   51.89   13.30
  -1   7  -3   97.79   13.00
  -1   7  -3   59.09   15.00
   1  -7  -3  109.09   17.90
   1  -7  -3   59.49   12.90
  -1  -7  -4  123.59   23.30
  -1  -7  -4  200.18   26.10
  -1   7   4  131.59   24.70
   1   7  -4  139.29   27.00
   1   7   4   86.09   21.30
   1  -7  -4  131.59   23.50
   1  -7  -4  166.68   23.60
  -1   7  -4  205.38   29.10
  -1  -7  -5   29.70   13.70
   1   7  -5    3.10   15.70
  -1  -7  -5   31.80   14.70
  -1   7  -5   38.30   18.20
   1  -7  -5   23.60   15.00
   1  -7  -5   42.80   14.20
  -2   7   0 2314.17  241.48
  -2   7   0 2335.67  246.18
   2   7   0 2146.49  242.68
   2  -7   0 2287.87  240.88
  -2  -7   0 2260.87  240.18
  -2  -7  -1  293.07   36.00
   2   7  -1  313.57   37.10
  -2   7   1  427.86   46.60
   2   7   1  308.87   39.30
  -2  -7   1  321.57   34.40
   2  -7  -1  304.77   36.30
  -2   7  -1  314.87   36.60
  -2   7  -1  338.57   41.20
  -2  -7  -2 1657.83  175.58
  -2   7   2 1633.04  177.98
   2   7  -2 1663.73  176.38
   2  -7  -2 1699.73  175.38
  -2   7  -2 1567.84  176.88
   2   7   2 1637.54  175.98
  -2   7  -2 1588.64  174.58
  -2  -7  -3  147.39   23.00
   2   7  -3  174.38   25.30
  -2   7   3  110.09   24.30
  -2  -7  -3  211.68   23.80
  -2   7  -3  166.38   25.80
   2   7   3  138.19   23.20
   2  -7  -3  189.68   27.90
  -2   7  -3  207.78   22.30
   2  -7  -3  107.59   21.10
   2   7  -4  668.43   85.39
  -2   7   4  658.03   85.69
  -2  -7  -4  827.52   84.89
  -2  -7  -4  818.52   84.29
  -2   7  -4  772.92   86.39
   2   7   4  755.02   84.09
   2  -7  -4  705.83   85.49
  -2   7   5   51.29   18.10
  -2  -7  -5   35.50   15.20
  -2  -7  -5   73.19   17.50
   2   7  -5   44.00   18.40
  -2   7  -5   61.79   20.60
   2  -7  -5   61.29   17.30
   2  -7  -5   49.70   18.10
  -3   7   0  192.98   31.90
  -3  -7   0  160.38   20.00
   3  -7   0  155.38   21.10
   3   7   0  161.38   23.20
  -3   7   0  171.28   22.70
   3   7  -1  643.94   62.79
  -3   7   1  528.35   69.89
  -3   7   1  521.15   62.89
  -3  -7  -1  562.54   62.29
  -3   7  -1  521.35   62.39
   3   7   1  580.74   62.89
  -3  -7   1  568.54   60.09
   3  -7  -1  555.14   62.09
  -3   7  -1  536.05   65.59
  -3   7   2  106.19   21.80
   3   7  -2  140.69   19.40
  -3  -7  -2  112.99   17.80
  -3   7  -2  162.78   18.20
   3  -7  -2   86.89   16.30
   3   7   2  125.59   17.50
  -3   7  -2   80.59   18.50
  -3   7   3  347.87   43.30
  -3  -7  -3  290.57   34.90
  -3  -7  -3  293.77   37.40
   3   7  -3  274.57   38.50
  -3   7  -3  269.97   38.80
   3  -7  -3  278.07   40.40
   3  -7  -3  309.67   37.90
  -3   7  -3  285.57   34.80
   3   7   3  289.47   36.90
  -3  -7  -4   52.19   13.80
  -3  -7  -4   58.39   15.50
  -3   7   4   57.19   17.40
   3   7  -4   49.50   16.60
   3  -7  -4   33.80   13.60
  -3   7  -4   77.59   20.40
   3  -7  -4   42.70   17.00
  -3   7   5  111.29   25.20
   3   7  -5   61.59   22.30
  -3  -7  -5  149.79   22.80
   3  -7  -5   91.89   21.60
   3  -7  -5  138.39   26.80
  -3   7  -5   74.09   24.50
   4  -7   0  125.49   17.20
  -4  -7   0  109.99   14.70
  -4   7   0   69.59   23.90
  -4   7   0  130.79   18.00
   4   7   0   97.19   16.70
   4   7  -1   16.30    6.60
  -4   7   1   13.10    7.80
  -4   7   1    6.40   14.60
  -4  -7  -1   10.80    5.70
  -4  -7   1   10.60    3.50
   4   7   1   14.30    6.10
   4  -7  -1   14.10    6.80
  -4   7  -1   15.90    6.70
  -4   7  -1   12.80   11.80
   4   7  -2   40.70   11.60
  -4  -7  -2   77.99   11.20
  -4   7   2   32.10   15.40
  -4  -7  -2   83.99   13.60
  -4   7  -2   37.40   10.90
   4  -7  -2   65.19   12.40
   4   7   2   83.99   12.00
  -4   7  -2   73.19   15.50
  -4   7   3   23.10   13.90
  -4  -7  -3    0.10    6.90
   4   7  -3    7.70   10.00
  -4  -7  -3   -7.60    8.90
   4  -7  -3    3.20   11.50
  -4   7  -3   11.60    7.50
  -4   7  -3    6.70   12.00
   4  -7  -3   16.20    8.80
   4   7   3    5.10    7.00
   4   7  -4   18.30   13.40
  -4   7   4   41.40   17.10
  -4  -7  -4   28.30   12.90
   4  -7  -4   28.40   15.90
  -4   7  -4    7.10   15.00
   4  -7  -4   39.20   13.30
   4   7  -5    4.50   17.50
  -4  -7  -5    0.60   11.50
  -4   7   5  -13.30   14.30
  -4   7  -5   -4.50   17.30
   4  -7  -5   -5.10   13.00
   4  -7  -5    4.80   14.90
  -5  -7   0  212.68   25.90
  -5   7   0  229.18   29.60
  -5   7   0  238.18   39.10
   5   7   0  222.68   27.90
  -5   7   1  397.46   55.99
   5   7  -1  411.36   45.80
  -5   7   1  366.06   47.50
  -5  -7  -1  374.16   45.80
  -5   7  -1  372.46   53.59
  -5  -7   1  403.26   43.80
   5   7   1  429.56   44.90
   5  -7  -1  405.46   46.40
  -5   7  -1  442.76   47.00
   5   7  -2  143.49   22.10
  -5  -7  -2  145.89   22.40
  -5  -7  -2  144.69   20.40
  -5   7   2  258.87   33.90
   5   7   2  149.29   20.00
  -5   7  -2  195.38   23.50
  -5   7  -2  175.88   27.80
   5  -7  -2  162.88   22.40
  -5   7   3  259.57   37.60
  -5  -7  -3  263.87   33.20
   5   7  -3  251.67   33.50
   5  -7  -3  270.47   37.70
  -5   7  -3  231.88   34.00
   5  -7  -3  196.18   29.80
  -5   7  -3  211.68   30.10
  -5  -7  -4   66.49   15.90
  -5   7   4   74.89   20.60
   5   7  -4   55.29   17.90
  -5   7  -4   68.59   15.40
   5  -7  -4   50.69   17.20
  -5   7  -4   40.50   17.80
   5  -7  -4   71.59   16.10
  -5  -7  -5  112.59   23.20
   5   7  -5  123.69   28.70
  -5   7   5   91.29   26.60
  -5   7  -5  107.69   28.00
   5  -7  -5  129.19   22.90
   5  -7  -5  147.79   30.10
   6   7   0   -1.30    5.70
  -6   7   0  -12.90   14.80
  -6   7   0    4.10    7.20
  -6  -7   0    2.60    4.70
  -6   7   1    2.50    8.00
  -6  -7  -1   -5.30    5.30
   6   7  -1    0.00    5.60
  -6   7   1    9.30   15.00
  -6   7  -1    4.80   16.20
  -6  -7   1   -1.20    3.60
   6  -7  -1    1.50    6.20
  -6   7  -1   -0.40    6.40
  -6   7   2    5.50    9.80
  -6  -7  -2   -1.80    7.60
   6   7  -2   -7.10    7.20
  -6   7   2   -3.10   16.30
   6  -7  -2    7.90    7.60
  -6   7  -2  -12.20   12.60
  -6   7  -2   11.30    8.10
  -6  -7  -3   11.70    9.60
   6   7  -3    2.50   11.00
  -6   7   3    8.40   14.00
   6  -7  -3   -2.80    7.40
  -6   7  -3   -3.30   10.50
   6  -7  -3    2.50   12.20
  -6   7  -3   -5.60    8.00
  -6   7   4   10.20   15.30
   6   7  -4   -1.00   13.70
  -6  -7  -4    1.20   10.80
   6  -7  -4    3.50    9.00
  -6   7  -4   29.50   11.60
  -6   7  -4   23.20   15.60
   6  -7  -4    6.70   13.90
  -6  -7  -5   -3.90   13.70
   6   7  -5   11.20   18.10
  -6   7   5   10.10   15.80
   6  -7  -5   11.10   16.20
   6  -7  -5  -14.30   11.70
  -6   7  -5   22.80   20.10
  -7   7   0  107.79   19.20
  -7   7   0   74.49   24.20
  -7  -7   0  133.19   17.00
  -7   7   1   33.40   19.20
  -7   7   1   -9.40    8.30
   7   7  -1   11.00    6.80
  -7  -7  -1   14.90    6.80
  -7   7  -1   33.70   18.80
  -7   7  -1    7.10    7.70
   7  -7  -1   11.20    7.90
  -7  -7  -2   66.49   14.20
   7   7  -2   70.49   14.40
  -7   7   2   52.59   20.30
  -7   7   2   77.59   17.90
   7  -7  -2   93.69   15.70
  -7   7  -2   52.09   13.90
  -7   7  -2   80.19   19.70
  -7   7   3    8.40   16.70
  -7  -7  -3   26.40   11.10
   7   7  -3    4.80   11.00
   7  -7  -3   14.60   10.10
   7  -7  -3   -1.50   13.80
  -7   7  -3   -4.10   14.10
  -7   7  -3   13.30    9.50
   7   7  -4   62.89   16.90
  -7   7   4    1.30   16.30
  -7  -7  -4   34.00   13.40
  -7   7  -4   78.69   20.10
  -7   7  -4   23.70   12.80
   7  -7  -4   30.20   12.70
   7  -7  -4   14.20   15.00
   7   7  -5   -6.80   14.00
  -7  -7  -5    9.80   16.30
  -7   7   5   14.80   18.30
   7  -7  -5    3.70   18.00
  -7   7  -5   24.40   17.80
  -8  -7   0  379.66   42.90
  -8   7   0  345.27   53.49
  -8   7   0  368.76   46.60
   8   7  -1  160.68   18.90
  -8  -7  -1  104.09   18.50
  -8   7   1  139.99   22.90
  -8   7   1   77.29   26.90
   8  -7  -1  145.29   21.20
  -8   7  -1   87.39   26.60
  -8   7  -1  117.49   20.70
  -8   7   2  376.76   43.50
  -8   7   2  254.47   45.30
   8   7  -2  286.17   37.20
  -8  -7  -2  357.06   40.10
   8  -7  -2  341.77   39.60
  -8   7  -2  256.07   38.60
  -8   7  -2  205.28   42.00
  -8  -7  -3  103.99   18.80
  -8   7   3  103.89   26.50
   8   7  -3   74.89   16.80
  -8   7  -3   95.59   24.00
   8  -7  -3   61.69   21.40
   8  -7  -3   97.29   18.80
  -8   7  -3   67.49   16.20
  -8  -7  -4  134.69   25.00
   8   7  -4  123.59   25.00
  -8   7   4   89.49   27.10
   8  -7  -4  114.59   26.50
  -8   7  -4   81.99   19.90
   8  -7  -4  104.39   19.90
  -8   7  -4  136.49   27.10
  -9   7   0  -11.10   15.80
  -9   7   0   14.10   10.10
  -9  -7   0   29.90    9.00
  -9   7   1  351.46   51.39
  -9   7   1  281.17   43.00
  -9  -7  -1  331.27   40.20
  -9   7  -1  407.46   53.39
   9  -7  -1  349.67   42.80
  -9   7  -1  352.86   44.20
   9   7  -2   14.00    9.80
  -9   7   2   33.70   21.70
  -9   7   2   13.00   13.00
  -9  -7  -2   20.40   10.50
  -9   7  -2   23.70   17.70
  -9   7  -2    7.80    9.80
   9  -7  -2   15.80   10.50
   9   7  -3  232.88   32.20
  -9   7   3  275.77   42.50
  -9  -7  -3  218.68   32.20
   9  -7  -3  159.08   33.60
  -9   7  -3  270.07   37.40
   9  -7  -3  186.48   29.50
  -9   7  -3  216.48   31.80
   9   7  -4   -6.70   14.30
  -9  -7  -4   18.30   13.10
  -9   7   4   23.80   19.20
   9  -7  -4  -14.90   14.40
  -9   7  -4   15.80   13.30
   9  -7  -4   11.10   12.70
 -10   7   0  159.18   35.70
 -10  -7   0  273.07   31.10
 -10   7   0  221.28   33.30
 -10   7   1  442.26   62.99
 -10  -7  -1  488.05   54.59
 -10   7   1  457.15   57.99
  10  -7  -1  456.85   54.69
 -10   7  -1  484.15   55.59
 -10   7  -1  422.16   61.69
 -10   7   2  202.18   29.60
 -10  -7  -2  146.99   24.40
 -10   7   2  188.18   35.10
 -10   7  -2  146.59   30.70
  10  -7  -2  153.08   25.60
 -10   7  -2  135.39   24.90
 -10   7   3  250.17   43.70
 -10  -7  -3  308.77   39.70
  10   7  -3  342.17   41.70
  10  -7  -3  274.87   36.60
  10  -7  -3  162.08   37.20
 -10   7  -3  355.46   63.99
 -10   7  -3  330.97   41.20
  10   7  -4   87.09   21.20
 -10   7   4  108.59   28.00
 -10  -7  -4  109.29   22.70
  10  -7  -4  111.89   22.70
  10  -7  -4   58.19   23.10
 -10   7  -4   86.09   22.30
 -11   7   0   91.09   24.80
 -11   7   0   80.59   19.40
 -11  -7   0  137.69   20.70
 -11  -7  -1   94.49   17.40
 -11   7   1   74.69   18.50
 -11   7   1   75.99   22.10
  11  -7  -1  113.29   19.00
 -11   7  -1  105.49   20.30
 -11   7  -1  108.29   26.00
 -11  -7  -2   76.09   16.10
 -11   7   2   74.19   19.40
 -11   7   2   61.49   22.00
 -11   7  -2  135.09   43.00
  11  -7  -2   38.30   15.00
 -11   7  -2   62.49   18.50
 -11  -7  -3  109.39   21.40
 -11   7   3   54.79   26.10
 -11   7  -3   85.79   21.10
  11  -7  -3   73.69   17.90
  11  -7  -3   87.49   22.50
 -11   7   4   44.50   25.80
 -11  -7  -4   31.60   16.20
 -11   7  -4   33.10   18.30
  11  -7  -4   20.70   17.70
 -12   7   0    7.10   16.20
 -12   7   0    5.30   11.50
 -12   7   1   10.10   11.60
 -12   7   1   38.10   20.00
 -12  -7  -1   -8.30    9.60
 -12   7  -1   12.50   12.40
  12  -7  -1   -5.80   10.30
 -12   7   2  -17.70   16.80
 -12   7   2    3.60   13.90
 -12  -7  -2   -2.20    9.70
 -12   7  -2    3.00   12.00
  12  -7  -2   15.50   12.60
 -12   7   3  -11.70   19.30
 -12  -7  -3   17.50   13.90
  12  -7  -3    7.90   14.00
 -12   7  -3   -3.50   13.20
  12  -7  -3   -8.10   11.00
 -13   7   0   32.30   15.20
 -13  -7  -1   30.60   12.50
 -13   7   1   28.70   19.20
 -13   7   1   25.30   14.40
 -13   7  -1   33.50   15.30
  13  -7  -1   50.69   15.70
 -13  -7  -2   32.20   13.70
 -13   7   2    8.80   19.10
 -13   7   2   22.80   14.80
  13  -7  -2   19.00   12.30
 -13   7  -2   30.20   17.30
 -13  -7  -3   20.30   14.00
 -13   7   3   25.40   21.90
  13  -7  -3   30.10   14.70
 -13   7  -3   19.90   17.70
  13  -7  -3   41.40   16.50
 -14   7   0  521.45   66.79
 -14   7   1    5.50   14.90
 -14  -7  -1   19.50   12.70
  14  -7  -1   20.60   15.50
 -14   7  -1   27.30   17.40
 -14   7   2  377.26   49.40
 -14  -7  -2  300.37   45.00
 -14   7   2  347.27   52.59
 -14   7  -2  481.25   53.29
  14  -7  -2  341.27   48.60
 -15   7   0   -7.50   13.90
 -15   7   1  127.89   26.50
  15  -7  -1  147.09   26.40
 -15   7  -1  122.99   27.20
   0   8   0  336.57   43.60
   0  -8   0  281.87   32.90
   0   8  -1  540.35   57.09
   0  -8  -1  518.05   57.49
   0   8   1  540.35   62.09
   0  -8   1  506.95   56.39
   0   8  -1  497.65   59.89
   0  -8   2  158.28   20.10
   0  -8  -2  233.98   24.50
   0   8  -2  184.08   20.60
   0   8   2  123.59   24.10
   0   8  -2  165.08   25.20
   0  -8  -3  341.47   37.50
   0  -8  -3  268.77   36.90
   0   8  -3  298.07   38.20
   0   8   3  216.68   36.40
   0   8  -4   60.89   20.20
   0  -8  -4  133.19   22.00
   0   8   4  136.59   24.10
   0  -8  -4  129.59   20.70
   0  -8  -5  134.89   24.20
   0   8  -5  110.49   28.30
   0  -8  -5  149.39   26.80
  -1  -8   0  473.35   49.20
  -1   8   0  440.56   50.39
  -1   8   0  404.36   58.59
   1  -8   0  457.05   49.50
   1   8   0  376.66   55.49
   1  -8   1  763.02   85.79
   1   8  -1  803.32   88.19
  -1   8   1  815.22   92.29
  -1  -8  -1  803.92   86.39
  -1   8  -1  814.42   86.59
  -1   8  -1  787.92   88.99
   1  -8  -1  868.51   86.69
  -1  -8   1  779.52   85.09
   1   8   1  724.03   89.49
  -1  -8  -2  282.97   39.70
   1   8  -2  330.77   40.10
  -1   8   2  405.96   45.30
   1   8  -2  319.17   36.60
   1  -8  -2  348.77   38.80
   1   8   2  293.67   41.60
  -1   8  -2  378.56   44.10
  -1   8  -2  345.57   38.10
  -1  -8   2  338.07   36.20
  -1  -8  -3  452.75   53.09
   1   8  -3  453.55   53.89
  -1  -8  -3  442.96   52.79
  -1   8   3  338.17   54.59
   1  -8  -3  447.96   54.19
   1   8   3  504.65   54.09
   1  -8  -3  502.05   52.69
  -1   8  -3  455.05   56.69
  -1   8   4  128.69   26.20
  -1  -8  -4  146.59   25.00
   1   8  -4  144.49   27.40
  -1  -8  -4  193.48   27.10
  -1   8  -4  177.88   29.40
   1  -8  -4  207.08   27.10
   1  -8  -4  154.28   26.50
   1   8   4  144.49   26.50
  -1  -8  -5  217.68   30.10
  -1   8   5  192.88   32.80
  -1  -8  -5  177.08   31.30
   1   8  -5  123.09   31.40
   1  -8  -5  203.88   33.20
   1  -8  -5  214.88   31.80
  -1   8  -5  187.98   33.80
  -2   8   0   88.99   23.00
  -2  -8   0   81.09   11.90
   2   8   0   79.79   17.60
  -2   8   0  109.99   15.20
   2  -8   0   76.69   12.70
  -2  -8  -1  210.48   26.10
  -2   8   1  227.28   35.90
   2  -8   1  237.28   26.40
   2   8  -1  253.17   29.10
  -2  -8   1  182.38   23.30
  -2   8  -1  287.17   34.10
  -2   8  -1  217.18   26.70
   2   8   1  221.18   30.00
   2  -8  -1  179.08   25.90
  -2  -8  -2   54.19   11.70
  -2   8   2   69.49   16.90
   2   8  -2   54.49   13.00
   2  -8  -2   57.39   11.60
  -2   8  -2   84.49   12.50
   2   8   2   67.59   13.60
  -2   8  -2   62.09   15.00
  -2  -8  -3  121.89   20.40
   2   8  -3  176.68   25.30
  -2  -8  -3  135.19   20.70
  -2   8   3  109.19   24.00
  -2   8  -3  125.59   18.30
   2   8   3  104.19   20.00
   2  -8  -3  137.19   20.20
  -2   8  -3   93.49   21.90
   2   8  -4   13.30   13.50
  -2   8   4   18.90   13.30
  -2  -8  -4   14.20   10.90
  -2  -8  -4   23.20   12.20
   2  -8  -4    4.80   11.70
   2  -8  -4   12.80   10.10
   2   8   4   27.90   12.20
  -2   8  -4    5.10   13.30
   2   8  -5   -1.80   15.90
  -2  -8  -5   43.50   15.20
  -2   8   5   36.40   18.20
  -2   8  -5   54.19   20.40
   2  -8  -5   43.30   19.80
   2  -8  -5   16.90   13.90
  -3   8   0   24.80   17.90
  -3  -8   0    3.80    4.40
   3  -8   0    9.90    5.40
   3   8   0   19.90   10.60
  -3   8   0   16.30    7.20
   3   8  -1   -6.40    7.00
  -3  -8  -1   12.30    6.10
  -3   8   1    2.80    7.80
  -3   8   1   17.80   14.60
  -3   8  -1   12.90   11.60
   3  -8  -1   16.90    7.20
  -3  -8   1    6.20    3.20
  -3   8  -1    2.10    6.30
   3   8   1   -5.10    7.10
   3   8  -2   26.60   10.30
  -3   8   2   18.90   13.00
  -3  -8  -2   11.40    7.60
  -3   8  -2    4.50    6.30
  -3   8  -2   13.50   10.70
   3  -8  -2    9.00    7.00
   3   8   2   17.60    8.40
   3   8  -3   -0.90    9.20
  -3  -8  -3    8.00    9.30
  -3   8   3   15.90   14.60
  -3  -8  -3    5.50    7.80
   3   8   3    2.70    8.20
  -3   8  -3  -11.30   12.00
  -3   8  -3    1.70    7.10
   3  -8  -3   -4.30    8.30
  -3  -8  -4    6.40   10.30
  -3  -8  -4    3.20   11.20
   3   8  -4   16.40   13.60
  -3   8   4   10.20   13.20
   3  -8  -4   12.60   12.30
  -3   8  -4   15.80   16.00
   3  -8  -4    8.00   10.70
   3   8   4  -15.10    8.50
  -3   8   5    1.80   12.90
  -3  -8  -5    5.80   12.20
   3   8  -5    4.90   17.30
   3  -8  -5   45.70   15.80
  -3   8  -5   -7.20   15.10
   3  -8  -5   -1.10   13.40
  -4  -8   0    2.20    4.60
   4   8   0    6.30    8.20
   4  -8   0    3.90    6.10
  -4   8   0    3.00    7.60
  -4   8   0  -11.20   15.40
  -4   8   1   37.60   11.20
  -4  -8  -1   29.10    8.60
   4   8  -1   37.30   10.30
  -4   8   1   78.29   20.90
  -4   8  -1   37.50   16.00
   4  -8  -1   39.00    9.90
  -4  -8   1   54.39    6.80
  -4   8  -1   40.20   10.40
   4   8   1   25.10    9.60
  -4  -8  -2   -2.20    7.70
  -4   8   2   -4.40   12.20
   4   8  -2   -3.00    6.80
   4  -8  -2    5.90    8.10
   4   8   2    7.70    6.60
  -4   8  -2    0.20    6.50
  -4   8  -2    9.10   12.40
  -4   8   3    7.30   13.70
  -4  -8  -3   36.00   11.60
   4   8  -3   26.40   11.70
  -4  -8  -3   17.40    9.00
   4  -8  -3   14.70    9.80
  -4   8  -3   30.20   14.60
  -4   8  -3   17.40    9.10
   4   8   3   25.30    9.50
   4   8  -4  -12.20   11.30
  -4  -8  -4   18.20   12.30
  -4   8   4    2.80   14.50
   4  -8  -4    9.60   11.00
  -4   8  -4    5.10   16.10
   4  -8  -4    6.90   12.10
  -4   8   5   11.40   14.70
  -4  -8  -5   -8.60   11.40
   4   8  -5  -18.50   13.80
   4  -8  -5    5.50   12.00
   4  -8  -5   22.20   16.50
  -4   8  -5  -14.00   16.90
  -5   8   0  957.80  110.69
   5  -8   0  924.71  101.59
  -5  -8   0  945.81  100.29
   5   8   0  932.31  102.29
  -5   8   0  903.41  102.29
  -5  -8  -1  859.01   92.49
  -5   8   1  862.81   94.89
  -5   8   1  704.23  102.49
   5   8  -1  847.22   92.79
  -5  -8   1  853.71   90.99
   5  -8  -1  835.12   93.29
  -5   8  -1  824.82   99.29
   5   8   1  857.51   92.09
  -5   8  -1  883.31   93.79
  -5   8   2  701.23   83.89
   5   8  -2  704.23   79.09
  -5  -8  -2  756.02   79.29
  -5   8  -2  698.43   78.69
  -5   8  -2  662.33   81.99
   5  -8  -2  708.93   78.69
  -5  -8  -3  540.55   59.19
   5   8  -3  533.85   59.89
  -5   8   3  485.95   65.99
  -5   8  -3  497.65   64.69
   5  -8  -3  500.55   58.49
  -5   8  -3  470.75   58.29
  -5  -8  -4  404.66   45.30
   5   8  -4  282.77   45.50
  -5   8   4  407.16   53.59
   5  -8  -4  364.56   48.30
   5  -8  -4  285.87   42.40
  -5   8  -4  345.47   49.60
   5   8  -5  234.38   37.30
  -5   8   5  155.88   33.00
  -5  -8  -5  202.88   32.90
   5  -8  -5  214.68   35.40
   5  -8  -5  186.58   30.30
  -5   8  -5  251.47   40.80
  -6   8   0   93.49   16.70
   6  -8   0   73.59   14.60
  -6  -8   0   94.39   13.90
  -6   8   0  101.09   29.20
   6   8   0   86.29   16.10
  -6   8   1    9.00    9.40
  -6  -8  -1   18.00    8.00
  -6   8   1   15.50   18.90
   6   8  -1    6.90    7.50
  -6   8  -1   10.50   17.40
  -6   8  -1   17.30    9.20
   6  -8  -1    9.90    7.50
   6   8  -2   65.19   14.40
  -6  -8  -2   49.50   13.40
  -6   8   2   68.49   21.70
  -6   8  -2   27.40   16.30
   6  -8  -2   80.29   15.10
  -6   8  -2   84.09   14.70
  -6   8   3   27.40   16.60
   6   8  -3    8.40   11.40
  -6  -8  -3   -2.80    8.00
   6  -8  -3    7.10    9.60
  -6   8  -3    1.90   15.60
  -6   8  -3    1.50   10.00
   6   8  -4   48.90   16.80
  -6   8   4   -2.60   17.00
  -6  -8  -4   -6.30   11.00
   6  -8  -4   37.20   13.00
   6  -8  -4   43.30   16.60
  -6   8  -4   28.40   12.40
  -6   8  -4   47.20   17.90
   6   8  -5   -6.70   14.50
  -6  -8  -5   20.30   15.20
  -6   8   5   16.40   18.70
   6  -8  -5    2.60   17.10
   6  -8  -5   11.50   13.60
  -6   8  -5    7.00   19.00
  -7   8   0   51.59   24.50
  -7   8   0   87.49   16.30
  -7  -8   0   84.19   13.50
  -7   8   1  134.79   23.50
  -7   8   1  174.98   34.20
  -7  -8  -1  170.88   22.00
   7   8  -1  178.08   21.90
   7  -8  -1  121.39   21.30
  -7   8  -1  150.08   23.10
  -7   8  -1  138.89   31.90
  -7  -8  -2   83.69   15.60
  -7   8   2   36.30   22.60
  -7   8   2   64.29   17.50
   7   8  -2   57.79   12.80
   7  -8  -2   59.49   14.30
  -7   8  -2   35.50   11.90
  -7   8  -2   24.50   17.50
   7   8  -3  149.29   22.90
  -7   8   3   82.79   25.00
  -7  -8  -3  131.99   22.40
  -7   8  -3  122.79   20.60
  -7   8  -3  101.29   25.30
   7  -8  -3   93.19   19.40
   7   8  -4   19.50   14.80
  -7   8   4    7.20   20.90
  -7  -8  -4   26.30   13.60
  -7   8  -4   45.70   14.70
   7  -8  -4   34.70   17.30
   7  -8  -4   36.90   14.50
  -7   8  -4   19.70   17.50
  -8  -8   0    2.70    6.20
  -8   8   0    7.60    9.50
  -8   8   0   21.00   20.20
  -8  -8  -1    3.30    8.50
  -8   8   1    5.60   10.30
  -8   8   1   36.10   22.80
  -8   8  -1   16.20   10.40
  -8   8  -1  -10.10   19.30
   8  -8  -1    9.90    8.90
  -8  -8  -2    7.90    8.40
   8   8  -2    3.80    9.20
  -8   8   2   -2.80   17.70
  -8   8   2   -3.80   12.80
  -8   8  -2   -8.60    8.20
   8  -8  -2    9.40    9.70
  -8   8  -2   -2.90   18.40
  -8   8   3  -17.50   16.10
  -8  -8  -3    9.10    9.70
   8   8  -3    1.40   11.20
  -8   8  -3   -6.30   10.80
   8  -8  -3   -8.90   10.20
  -8   8  -3  -13.30   16.30
  -8   8   4  -17.30   18.50
   8   8  -4   -0.10   13.60
  -8  -8  -4   36.20   15.00
   8  -8  -4   15.80   14.40
  -8   8  -4    8.50   17.00
   8  -8  -4   15.30   11.50
  -8   8  -4    6.20   13.00
  -9  -8   0    9.70    7.30
  -9   8   0  -10.50   18.50
  -9   8   0    2.40    9.40
  -9  -8  -1  128.39   19.70
  -9   8   1   99.69   29.70
  -9   8   1   93.79   20.90
   9  -8  -1  140.59   21.00
  -9   8  -1  182.28   34.70
  -9   8  -1  116.99   21.30
  -9   8   2   11.40   14.00
  -9  -8  -2  -16.00    6.90
  -9   8   2   10.00   17.90
  -9   8  -2  -10.50   15.50
  -9   8  -2   -8.00    9.10
   9  -8  -2   14.80   10.40
   9   8  -3   74.39   17.60
  -9  -8  -3   86.89   18.40
  -9   8   3   93.89   26.20
  -9   8  -3   61.09   23.20
  -9   8  -3   73.99   18.00
   9  -8  -3   57.29   15.40
   9  -8  -3   59.69   19.40
  -9   8   4   -1.00   22.70
  -9  -8  -4   -4.20   11.50
   9   8  -4    5.40   15.20
  -9   8  -4    2.30   14.00
   9  -8  -4   -7.50   14.60
   9  -8  -4   -9.80   11.70
  -9   8  -4   26.20   20.50
 -10   8   0  215.58   33.00
 -10  -8   0  196.58   34.80
 -10   8   0  267.97   41.90
 -10   8   1  328.47   52.49
 -10  -8  -1  362.26   42.50
 -10   8   1  337.17   45.20
 -10   8  -1  338.37   44.70
  10  -8  -1  345.07   43.80
 -10   8  -1  259.07   49.70
 -10   8   2  164.38   34.70
 -10  -8  -2  119.19   22.30
 -10   8   2  214.68   30.60
 -10   8  -2  132.09   24.60
 -10   8  -2  131.49   32.40
  10  -8  -2  193.08   26.50
 -10  -8  -3  196.38   30.40
 -10   8   3  263.37   43.50
  10  -8  -3  135.49   32.40
 -10   8  -3  170.18   36.90
  10  -8  -3  203.18   29.00
 -10   8  -3  233.28   32.40
 -10  -8  -4   72.69   20.30
 -10   8   4   36.30   27.60
  10   8  -4   84.19   22.10
  10  -8  -4   78.69   19.30
 -10   8  -4  110.69   24.60
  10  -8  -4   52.89   22.00
 -11   8   0  487.65   57.69
 -11   8   0  379.46   60.59
 -11  -8  -1  431.66   47.20
 -11   8   1  387.46   57.49
 -11   8   1  377.46   50.79
  11  -8  -1  394.86   49.20
 -11   8  -1  382.06   51.49
 -11   8  -1  310.57   53.99
 -11  -8  -2  383.76   51.69
 -11   8   2  405.06   55.09
 -11   8   2  399.16   61.99
 -11   8  -2  379.56   60.09
 -11   8  -2  419.86   53.69
  11  -8  -2  471.85   53.39
 -11   8   3  256.77   45.00
 -11  -8  -3  213.38   34.30
 -11   8  -3  279.27   38.70
  11  -8  -3  293.57   36.40
  11  -8  -3  185.78   35.00
 -12   8   0   97.39   24.40
 -12   8   0   23.90   16.30
 -12  -8  -1  139.69   21.70
 -12   8   1  116.49   27.50
 -12   8   1  104.09   23.70
  12  -8  -1  123.19   22.80
 -12   8  -1  114.69   24.40
 -12   8  -1   93.69   27.30
 -12   8   2  102.79   22.80
 -12  -8  -2   44.00   14.20
 -12   8   2   76.79   25.20
  12  -8  -2   72.19   18.10
 -12   8  -2   34.70   16.30
 -12  -8  -3   75.69   20.50
 -12   8   3   56.59   28.00
  12  -8  -3   43.60   18.30
 -12   8  -3   89.69   21.10
  12  -8  -3   92.79   18.70
 -13   8   0   -0.50   17.90
 -13   8   0   -0.90   12.70
 -13   8   1   52.89   18.00
 -13  -8  -1   38.60   13.00
 -13   8   1   63.49   23.40
 -13   8  -1   31.50   17.80
  13  -8  -1   20.50   14.30
 -13   8   2   32.30   21.10
 -13  -8  -2    3.60   11.40
 -13   8   2    2.40   14.40
  13  -8  -2    5.20   11.80
 -13   8  -2    0.40   15.90
  13  -8  -3   36.80   15.00
 -14   8   0    7.50   14.00
 -14   8   1   16.20   14.90
  14  -8  -1   31.10   14.90
 -14   8  -1   13.20   14.80
 -14   8   2   24.20   16.40
 -14   8   2   13.80   20.40
 -14  -8  -2    0.90   11.30
 -14   8  -2   28.30   16.40
  14  -8  -2    9.10   13.40
 -15   8   0    2.80   13.70
 -15   8   1   48.70   21.00
 -15   8  -1   83.39   22.50
  15  -8  -1   49.80   20.60
   0  -9   0   -5.30    4.40
   0   9   0  -12.30   13.40
   0   9  -1    0.10    5.00
   0   9   1   -7.70   11.30
   0  -9  -1   -1.30    5.70
   0  -9   1   -0.60    3.70
   0   9  -1   14.30   10.00
   0   9  -2   -9.50    8.60
   0  -9  -2    4.80    6.40
   0   9  -2   -1.70    4.40
   0   9   2   20.30   10.90
   0  -9   2    0.70    3.90
   0   9  -3   -3.70   10.20
   0  -9  -3    0.70    7.50
   0   9   3   -5.10    9.30
   0   9   4    8.50   12.90
   0  -9  -4    1.20    9.50
   0   9  -4    9.90   12.70
   0  -9  -4   -4.50   11.10
   0  -9  -5  -10.90   13.20
   0   9  -5  -11.70   17.80
   0  -9  -5   15.10   12.60
   0   9   5   -2.60   14.50
   1   9   0  139.19   25.40
  -1  -9   0  122.29   15.40
   1  -9   0   97.69   15.10
  -1   9   0   96.39   24.10
   1  -9   1    0.20    3.90
   1   9  -1   10.90    9.80
  -1   9   1   12.20   15.40
  -1  -9  -1    5.40    5.30
   1  -9  -1   -7.80    5.10
   1   9   1   17.60   11.80
  -1   9  -1    9.90   10.80
  -1  -9   1    3.30    3.80
  -1   9  -1    1.70    5.60
  -1   9   2   72.59   18.70
   1   9  -2   69.79   16.40
   1  -9   2   96.69   13.00
  -1  -9  -2   76.79   14.10
   1   9   2   62.09   16.20
   1  -9  -2  106.09   15.40
  -1   9  -2   82.99   18.30
  -1   9  -2   81.69   13.10
   1   9  -3  -12.30   10.00
  -1   9   3   -6.60    9.80
  -1  -9  -3    5.90   10.30
  -1  -9  -3    0.90    7.30
  -1   9  -3   -2.80   11.50
   1  -9  -3    2.40    8.40
   1   9   3   -1.40   10.30
  -1   9   4   53.19   18.30
  -1  -9  -4   70.79   15.90
  -1  -9  -4   68.49   16.00
   1   9  -4   38.40   17.10
   1  -9  -4   69.79   15.50
   1  -9  -4   68.99   17.10
  -1   9  -4   -5.40   13.70
   1   9   4   46.00   16.60
  -1  -9  -5  -10.00   11.20
  -1   9   5   19.10   14.30
   1   9  -5   28.90   17.90
  -1  -9  -5    6.30   13.30
   1  -9  -5    8.60   14.60
  -1   9  -5  -13.50   15.80
   1  -9  -5  -26.40   11.20
   2  -9   0   23.90    7.30
   2   9   0   22.80   13.90
  -2  -9   0   37.80    7.10
  -2   9   0   44.80   19.10
  -2   9   0   31.50    9.30
   2   9  -1  150.88   25.20
   2  -9   1  156.58   22.60
  -2   9   1  139.59   32.40
  -2  -9  -1  212.08   24.20
  -2   9  -1  165.68   23.90
  -2  -9   1  177.98   20.80
  -2   9  -1  187.08   28.80
   2   9   1  221.28   29.60
   2  -9  -1  222.08   24.60
  -2   9   2   48.70   17.40
  -2  -9  -2    7.40    7.60
   2   9  -2   34.10   11.40
   2   9   2   30.50   12.10
  -2   9  -2   26.60    8.80
   2  -9  -2   30.90    9.00
  -2   9  -2   46.50   14.80
  -2  -9  -3   97.99   17.10
  -2  -9  -3  104.99   17.30
   2   9  -3   64.39   17.80
  -2   9   3   97.19   21.90
   2  -9  -3   88.29   16.10
  -2   9  -3  112.69   21.60
   2   9   3   69.29   17.20
  -2  -9  -4   24.70   11.90
  -2   9   4   36.80   17.90
   2   9  -4   11.70   14.70
  -2  -9  -4   10.50   11.40
   2  -9  -4   22.70   11.40
   2   9   4   21.40   12.80
   2  -9  -4    9.10   13.30
  -2   9  -4   25.00   15.50
   2   9  -5   27.30   18.40
  -2  -9  -5   52.49   17.50
  -2   9   5   46.90   18.20
   2  -9  -5   44.60   16.60
   2  -9  -5   31.20   16.50
  -2   9  -5   -3.80   18.00
  -3   9   0  791.52   87.79
   3  -9   0  788.92   86.49
  -3   9   0  826.92  100.69
  -3  -9   0  767.02   85.59
   3   9   0  841.02   90.49
   3  -9   1  381.16   46.30
  -3   9   1  393.56   58.09
   3   9  -1  396.56   47.80
  -3  -9  -1  421.26   46.40
  -3  -9   1  415.06   44.60
  -3   9  -1  394.06   47.00
  -3   9  -1  384.16   53.99
   3   9   1  439.96   49.00
   3  -9  -1  432.06   47.10
  -3   9   2  676.53   72.99
  -3  -9  -2  579.94   66.19
   3   9  -2  609.14   66.99
   3   9   2  583.24   66.59
  -3   9  -2  523.95   71.39
   3  -9  -2  555.94   65.59
  -3   9  -2  601.84   66.09
  -3   9   3  221.58   40.10
  -3  -9  -3  293.27   36.40
  -3  -9  -3  261.77   36.90
   3   9  -3  312.07   39.60
  -3   9  -3  270.27   35.00
  -3   9  -3  290.77   41.50
   3   9   3  273.47   36.70
   3  -9  -3  310.07   37.40
  -3  -9  -4  235.18   37.10
   3   9  -4  400.66   46.10
  -3   9   4  303.57   44.70
  -3   9  -4  288.17   43.70
   3  -9  -4  275.17   41.30
  -3   9   5   34.80   20.50
  -3  -9  -5  112.79   22.60
   3   9  -5  105.79   26.40
   3  -9  -5   74.59   20.10
   3  -9  -5   99.99   24.20
  -3   9  -5   90.99   26.50
   4   9   0   38.90   14.40
  -4   9   0   53.99   23.10
   4  -9   0   27.00    8.40
  -4   9   0   36.60   11.00
  -4  -9   0   36.70    7.70
  -4  -9  -1  314.47   38.80
  -4   9   1  350.16   53.09
  -4   9   1  392.46   44.60
   4   9  -1  363.06   42.40
  -4   9  -1  331.47   39.90
   4  -9  -1  355.66   40.00
  -4  -9   1  340.17   37.00
   4   9   1  350.06   40.80
  -4   9  -1  217.38   45.50
   4   9  -2   28.60   11.50
  -4  -9  -2   15.10    9.70
  -4   9   2   21.00   17.40
  -4   9  -2   34.70   16.20
   4   9   2   26.70    9.80
  -4   9  -2   29.00   10.00
   4  -9  -2   29.40   10.50
  -4  -9  -3  191.58   27.30
   4   9  -3  165.98   27.70
  -4   9   3  178.88   33.40
   4  -9  -3  158.78   25.80
  -4   9  -3  219.38   26.70
  -4   9  -3  176.38   31.50
  -4  -9  -4   28.50   12.50
  -4   9   4   52.49   20.20
   4   9  -4   20.10   15.00
   4  -9  -4   12.90   11.80
  -4   9  -4   14.30   15.90
   4  -9  -4   -5.90   14.50
  -4  -9  -5   94.89   20.90
   4   9  -5   52.49   21.30
  -4   9   5   64.19   23.70
  -4   9  -5   64.19   24.40
   4  -9  -5  117.09   26.20
   4  -9  -5   91.79   19.30
  -5   9   0  128.19   21.90
  -5  -9   0  120.59   18.10
   5   9   0  153.48   24.60
   5  -9   0  191.48   22.00
  -5   9   0  146.89   33.50
   5   9  -1   61.49   13.70
  -5   9   1   45.60   15.00
  -5   9   1   75.59   26.80
  -5  -9  -1   74.29   12.60
   5  -9  -1   88.79   15.00
  -5   9  -1   89.49   16.20
   5   9   1   94.19   14.70
  -5   9  -1   35.90   21.50
  -5  -9  -2  103.49   17.60
   5   9  -2   99.49   17.50
  -5   9   2  101.99   25.80
  -5   9  -2   87.39   16.20
   5  -9  -2  119.69   17.60
  -5   9  -2   75.39   22.30
  -5   9   3   21.30   19.20
  -5  -9  -3   37.30   13.10
   5   9  -3   66.09   16.80
   5  -9  -3   17.10   10.70
  -5   9  -3   50.29   12.50
  -5   9  -3   44.80   17.00
  -5  -9  -4  107.99   19.60
   5   9  -4   26.70   15.80
  -5   9   4   56.19   20.50
   5  -9  -4   72.89   16.10
  -5   9  -4   -0.70   15.40
   5  -9  -4   33.10   16.80
  -5  -9  -5    6.80   15.20
   5   9  -5   27.90   17.20
  -5   9   5   24.80   19.00
   5  -9  -5   -0.90   12.20
   5  -9  -5   18.30   17.10
  -5   9  -5   21.30   22.30
  -6   9   0   67.29   15.20
   6  -9   0   67.79   12.90
  -6  -9   0   45.40    9.10
  -6   9   0   44.30   26.10
   6   9   0   14.70   12.90
   6   9  -1    4.80    7.90
  -6   9   1  115.79   28.50
  -6  -9  -1    0.80    6.80
   6  -9  -1   75.89   12.60
  -6   9  -1   -7.60   17.50
  -6   9  -1    7.40    8.50
   6   9  -2   54.59   13.20
  -6   9   2   25.40   18.90
  -6  -9  -2   47.30   13.10
   6  -9  -2   36.30   12.30
  -6   9  -2   62.49   13.40
  -6   9  -2   58.39   20.50
  -6  -9  -3    0.20    9.10
  -6   9   3  -12.10   15.30
   6   9  -3    8.70   12.20
  -6   9  -3   10.20   16.70
  -6   9  -3   -7.20    8.40
   6  -9  -3    4.70    9.90
  -6   9   4   21.40   18.30
   6   9  -4   23.30   14.60
  -6  -9  -4   14.50   13.60
  -6   9  -4   23.60   19.40
   6  -9  -4   33.50   13.50
   6  -9  -4   33.20   16.30
  -7  -9   0    6.20    6.30
  -7   9   0   -2.50    8.20
  -7   9   0   15.80   20.40
   7  -9   0   -3.00    7.50
  -7   9   1   -2.50   19.30
  -7   9   1   -8.20    9.00
  -7  -9  -1   -6.40    5.70
   7   9  -1   -0.70    7.80
  -7   9  -1   -0.50   19.90
  -7   9  -1   -7.60    9.20
   7  -9  -1  -10.40    6.60
  -7   9   2   10.20   19.10
   7   9  -2    0.90    8.40
  -7  -9  -2    1.70    8.10
  -7   9   2   -1.00   11.30
  -7   9  -2   12.40   19.20
   7  -9  -2   -5.60    8.00
  -7   9  -2    4.50    9.50
  -7  -9  -3   -7.00    8.70
  -7   9   3   31.00   21.50
   7   9  -3   19.80   12.60
  -7   9  -3  -12.30    9.00
  -7   9  -3  -16.20   14.00
   7  -9  -3    1.40    9.60
   7   9  -4    8.70   14.40
  -7  -9  -4   -1.10   11.20
  -7   9   4   17.50   18.50
   7  -9  -4    8.20   12.90
  -7   9  -4   10.00   19.40
  -7   9  -4   -3.10   11.20
   7  -9  -4   -6.60   13.90
  -8   9   0  268.37   37.20
  -8   9   0  242.28   46.80
  -8  -9   0  293.27   33.40
   8  -9   0  279.87   36.00
  -8   9   1   -7.90    9.30
  -8   9   1  -27.90   18.10
  -8  -9  -1    3.00    7.50
  -8   9  -1   -1.40   18.50
   8  -9  -1    0.80    7.60
  -8   9  -1   -0.40   10.60
   8   9  -2  238.28   31.20
  -8  -9  -2  257.17   31.90
  -8   9   2  231.18   36.20
  -8   9   2  181.98   40.30
  -8   9  -2  192.18   30.50
   8  -9  -2  219.98   31.70
  -8   9  -2  258.37   44.00
  -8  -9  -3   15.60   11.00
   8   9  -3   -4.10   11.10
  -8   9   3   -0.60   20.10
  -8   9  -3   21.90   17.30
   8  -9  -3   10.70   11.90
  -8   9  -3   -1.30   10.90
   8   9  -4   97.99   22.50
  -8   9   4   61.29   29.10
  -8  -9  -4  139.99   23.60
  -8   9  -4  115.89   22.10
   8  -9  -4   89.89   20.20
  -8   9  -4  115.89   28.60
   8  -9  -4   84.79   23.80
  -9   9   0  380.96   50.79
  -9   9   0  475.15   64.19
  -9  -9  -1   98.09   17.20
  -9   9   1  102.59   21.30
  -9   9   1  101.79   31.20
   9  -9  -1  138.19   19.90
  -9   9  -1  127.69   31.60
  -9   9  -1  100.69   20.60
  -9   9   2  373.66   58.09
  -9  -9  -2  336.17   45.60
  -9   9   2  359.96   49.99
  -9   9  -2  388.36   47.30
   9  -9  -2  369.36   46.70
  -9   9  -2  400.56   59.09
  -9  -9  -3   55.89   17.90
   9   9  -3   83.29   18.40
  -9   9   3   52.79   25.80
  -9   9  -3  105.29   20.30
   9  -9  -3   67.99   16.80
  -9   9  -3   66.99   25.90
  -9  -9  -4  205.68   32.00
  -9   9   4  223.88   43.30
   9   9  -4  188.78   30.20
   9  -9  -4  147.09   27.90
  -9   9  -4  216.08   31.70
  -9   9  -4  188.08   37.10
   9  -9  -4  158.68   33.20
 -10   9   0  211.98   30.90
 -10   9   0  170.88   37.50
 -10   9   1   34.60   24.60
 -10  -9  -1   17.10    9.20
 -10   9   1   24.40   13.80
 -10   9  -1   24.40   13.00
 -10   9  -1   38.60   23.70
  10  -9  -1   14.80   10.50
 -10   9   2  113.49   25.70
 -10  -9  -2   98.09   19.90
 -10   9   2  148.59   34.60
 -10   9  -2  171.78   34.90
 -10   9  -2  155.78   24.90
  10  -9  -2  159.28   24.10
 -10  -9  -3   37.50   13.70
 -10   9   3   25.40   25.40
 -10   9  -3   42.50   26.20
 -10   9  -3   -0.80   11.90
  10  -9  -3   -3.70   11.70
 -10  -9  -4   70.59   18.20
 -10   9   4   88.09   33.30
  10  -9  -4   46.50   20.00
 -10   9  -4   69.59   19.30
  10  -9  -4   53.09   17.70
 -11   9   0  112.59   24.70
 -11   9   0  288.57   40.10
 -11   9   1   37.90   15.70
 -11  -9  -1   16.50   10.10
 -11   9   1   29.90   22.70
 -11   9  -1   40.80   22.80
  11  -9  -1   25.60   12.80
 -11   9  -1   35.90   14.90
 -11   9   2  145.29   28.60
 -11   9   2  133.29   35.60
 -11  -9  -2  145.09   23.70
  11  -9  -2  189.08   27.10
 -11   9  -2  106.09   23.90
 -11   9  -2  176.08   35.70
 -11  -9  -3   14.50   12.40
 -11   9   3   29.40   23.40
 -11   9  -3   17.90   14.40
  11  -9  -3   36.60   14.80
  11  -9  -3    4.00   14.20
 -12   9   0   18.30   13.60
 -12   9   0   -5.90   18.20
 -12   9   1   -1.70   13.80
 -12   9   1   -6.00   16.80
 -12  -9  -1   -4.80    9.20
  12  -9  -1  -14.60   11.10
 -12   9  -1   24.70   21.40
 -12   9  -1  -17.10   13.30
 -12   9   2   -5.50   15.40
 -12  -9  -2   13.80   10.80
 -12   9   2   11.30   22.40
  12  -9  -2   39.70   15.20
 -12   9  -2   14.80   13.40
 -12  -9  -3   -2.50   12.10
 -12   9   3   18.60   23.20
 -12   9  -3   -9.70   12.40
  12  -9  -3   -6.00   11.50
  12  -9  -3   -6.30   11.90
 -13   9   0   17.10   19.50
 -13   9   0   45.40   17.30
 -13   9   1   -0.60   15.60
 -13   9   1   20.60   22.30
 -13   9  -1   -6.10   14.20
  13  -9  -1    7.00   14.80
 -13   9   2   23.30   16.20
 -13  -9  -2   34.60   13.60
 -13   9   2  -10.60   23.10
 -13   9  -2   33.00   16.10
  13  -9  -2    0.20   12.10
 -14   9   0    9.00   14.10
 -14   9   1  202.88   39.40
 -14   9   1  183.68   35.30
  14  -9  -1  276.27   37.80
 -14   9  -1  205.28   35.40
   0 -10   0 1155.38  124.49
   0  10   0 1168.58  131.59
   0 -10  -1  635.94   70.09
   0  10  -1  620.34   73.89
   0  10   1  607.94   79.89
   0 -10   1  643.64   68.99
   0  10  -2  814.92   98.59
   0  10   2  946.01  100.39
   0 -10  -2  881.41   96.19
   0 -10  -3  349.27   47.10
   0  10   3  468.95   52.49
   0  10  -3  376.36   50.49
   0  10  -4  437.56   55.99
   0 -10  -4  432.56   51.89
   0 -10  -4  425.76   52.29
   0  10   4  348.27   52.69
   0 -10  -5  158.08   27.00
   0  10  -5  224.28   36.10
   0  10   5  109.19   27.10
   0 -10  -5  175.48   29.40
  -1 -10   0  817.32   88.59
   1 -10   0  824.72   88.89
  -1  10   0  869.51   97.09
   1  10   0  765.12   94.89
  -1  10   1   14.10   16.60
   1 -10   1   17.70    6.10
   1  10  -1   17.90   11.20
  -1 -10  -1   14.10    7.00
  -1 -10   1   17.60    5.30
  -1  10  -1    6.00   11.70
   1 -10  -1   18.20    6.80
  -1  10  -1   13.60    7.40
   1  10   1   11.30   14.70
   1 -10   2  604.74   64.39
  -1 -10  -2  582.34   66.29
   1  10  -2  581.74   68.39
  -1  10   2  591.14   70.79
  -1  10  -2  556.64   65.09
  -1  10  -2  600.94   69.09
   1  10   2  615.44   68.89
   1 -10  -2  585.74   65.99
  -1 -10  -3    6.40    8.80
  -1  10   3  -11.60   13.70
   1  10  -3   44.90   14.00
   1 -10  -3    9.10    8.90
  -1  10  -3    3.30   12.30
   1  10   3   -9.60   10.20
  -1 -10  -4  350.46   41.90
   1  10  -4  299.37   43.00
  -1  10   4  299.37   44.20
  -1 -10  -4  353.66   43.10
  -1  10  -4  273.17   42.90
   1 -10  -4  250.07   40.40
   1  10   4  290.87   42.00
   1 -10  -4  301.17   39.90
  -1  10   5   -4.90   13.10
   1  10  -5  -24.00   14.60
  -1 -10  -5   -9.70   12.40
   1  10   5    3.80   14.20
  -1  10  -5   11.40   19.20
   1 -10  -5   22.80   15.20
   1 -10  -5    5.10   14.90
   2  10   0   12.00   15.20
  -2 -10   0   28.00    7.10
  -2  10   0   23.20   19.40
   2 -10   0   26.30    7.90
  -2  10   0   12.40    9.10
  -2 -10  -1    1.60    5.90
  -2  10   1   36.70   19.80
   2  10  -1   -3.80    9.60
   2 -10   1    8.40    5.60
  -2  10  -1   -0.70   12.10
  -2  10  -1    6.70    7.40
   2 -10  -1   22.10    8.30
  -2 -10   1   17.10    5.00
   2  10   1   14.70   14.20
   2 -10   2   19.30    7.50
   2  10  -2   17.20   11.60
  -2 -10  -2   11.50    8.50
  -2  10   2    2.60   15.90
  -2  10  -2   13.70    7.60
  -2  10  -2   10.10   13.50
   2  10   2   12.90   11.60
   2 -10  -2   30.90    9.50
  -2 -10  -3   30.70   12.10
  -2  10   3   18.00   16.40
   2  10  -3   19.00   12.10
  -2 -10  -3    0.40    8.80
   2  10   3    7.50   11.00
   2 -10  -3    1.40    8.30
  -2  10  -3   16.00   13.80
  -2 -10  -4    9.80   10.80
  -2  10   4   11.30   16.00
   2  10  -4   20.50   14.00
  -2 -10  -4   -3.20   10.30
  -2  10  -4    6.90   16.00
   2 -10  -4   16.30   14.50
   2 -10  -4  -11.80   10.40
   2  10   4   -1.60   12.60
  -2 -10  -5    7.60   13.90
  -2  10   5   17.50   15.70
   2  10  -5  -15.50   17.00
   2 -10  -5    7.50   14.30
   2 -10  -5   -6.90   13.00
  -2  10  -5    8.60   19.90
  -3  10   0   -2.30   18.00
  -3  10   0    3.50    8.50
  -3 -10   0    7.60    5.60
   3  10   0   -4.80   12.70
   3 -10   0   -2.60    5.90
  -3 -10  -1   10.20    6.90
  -3  10   1    2.10   18.90
   3  10  -1   -1.80    9.50
   3 -10   1   11.10    7.00
  -3 -10   1    6.80    4.60
  -3  10  -1    1.30    8.20
   3  10   1    3.60   11.10
   3 -10  -1    5.50    7.60
  -3  10  -1   30.10   18.70
   3  10  -2    7.30   10.90
  -3  10   2   11.10   17.70
  -3 -10  -2    0.20    7.50
  -3  10  -2   -3.40    7.30
   3 -10  -2    0.80    6.90
   3  10   2   -4.40    9.80
  -3  10  -2   11.50   12.80
  -3  10   3   -8.50   14.60
  -3 -10  -3   17.80   10.00
  -3 -10  -3    1.30    8.10
   3  10  -3    5.70   11.00
   3  10   3    5.60   10.20
   3 -10  -3   -2.10    9.70
  -3  10  -3   17.80   15.50
  -3 -10  -4    0.90   10.10
  -3  10   4   18.50   15.60
   3  10  -4    1.40   14.40
  -3  10  -4   -4.60   17.20
   3 -10  -4  -12.90   10.70
   3 -10  -4   -0.80   12.50
  -3 -10  -5   -2.30   13.20
  -3  10   5   15.50   17.30
   3  10  -5   -0.70   16.70
   3 -10  -5   -6.50   14.10
   3 -10  -5   -1.00   15.80
  -3  10  -5  -14.20   21.40
   4  10   0    4.70   13.00
   4 -10   0   20.30    7.60
  -4  10   0   14.10   23.30
  -4  10   0   23.80   10.00
  -4 -10   0   20.70    7.00
   4  10  -1  167.68   24.90
  -4  10   1  135.49   24.50
  -4  10   1  121.79   32.70
   4 -10   1  181.38   22.70
  -4 -10  -1  183.38   22.70
   4 -10  -1  168.18   23.10
  -4  10  -1  153.58   23.00
  -4  10  -1  112.39   31.00
   4  10   1  114.79   23.20
  -4 -10  -2    3.40    8.10
  -4  10   2   12.20   18.10
   4  10  -2    9.90   11.00
   4  10   2   20.50   10.20
   4 -10  -2   28.00    9.50
  -4  10  -2    0.50   15.30
  -4  10  -2   28.80    9.90
   4  10  -3   82.99   19.40
  -4 -10  -3   78.99   18.10
  -4  10   3   59.39   24.90
  -4  10  -3  127.99   24.10
   4 -10  -3  113.89   19.20
  -4  10  -3  129.29   19.10
  -4  10   4   -2.10   17.60
  -4 -10  -4   18.50   13.70
   4  10  -4   -3.20   12.20
   4 -10  -4  -11.70    9.90
   4 -10  -4    7.90   14.10
  -4  10  -4   24.70   17.70
   4  10  -5   45.80   21.80
  -4 -10  -5   37.00   18.00
  -4  10   5   16.70   19.30
   4 -10  -5   73.39   18.60
   4 -10  -5   53.29   20.60
  -4  10  -5   72.19   26.80
   5 -10   0  471.55   52.19
  -5  10   0  617.84   74.09
  -5 -10   0  466.05   50.59
   5  10   0  411.46   56.89
  -5  10   0  393.66   54.99
  -5  10   1  116.59   33.10
   5  10  -1  112.79   20.40
  -5 -10  -1  137.49   18.70
  -5  10   1  106.89   21.50
   5  10   1  129.19   23.20
  -5  10  -1  126.99   30.30
   5 -10  -1  103.29   18.60
  -5  10  -1  139.99   20.40
  -5 -10  -2  307.77   38.60
   5  10  -2  338.17   40.50
  -5  10   2  188.58   45.40
  -5  10  -2  280.17   45.10
   5 -10  -2  302.87   39.50
  -5  10  -2  390.46   41.60
  -5 -10  -3   44.50   13.80
  -5  10   3   59.09   25.00
   5  10  -3   56.29   15.40
   5 -10  -3   87.39   16.80
  -5  10  -3   96.49   16.00
  -5  10  -3   31.40   18.70
   5  10  -4  178.48   30.20
  -5  10   4  143.19   32.10
  -5 -10  -4  182.88   27.60
  -5  10  -4  215.08   36.00
   5 -10  -4  100.59   26.40
   5 -10  -4  213.88   29.20
   6 -10   0 2346.37  250.57
  -6 -10   0 2291.47  249.18
  -6  10   0 2353.06  261.07
  -6  10   0 2406.26  252.37
  -6  10   1    2.90   11.30
   6  10  -1   -2.60    8.50
  -6 -10  -1    5.10    7.30
  -6  10   1    2.10   21.70
   6 -10  -1   -3.10    7.10
  -6  10  -1    8.60    9.80
  -6  10  -1    9.50   20.20
  -6 -10  -2 1715.63  189.28
  -6  10   2 1748.33  197.48
   6  10  -2 1718.63  189.78
   6 -10  -2 1809.82  189.98
  -6  10  -2 1787.02  190.08
  -6  10  -2 1774.62  195.78
  -6  10   3   10.20   20.00
   6  10  -3   -2.40   10.00
  -6 -10  -3   -9.60    9.80
  -6  10  -3   15.40   18.90
  -6  10  -3   18.00   10.70
   6 -10  -3   -8.20    8.80
  -6 -10  -4  894.91   97.99
   6  10  -4  802.42   99.09
  -6  10   4  732.43  105.79
   6 -10  -4  974.20   98.49
  -6  10  -4  891.51  105.09
   6 -10  -4  844.22   99.79
   7 -10   0  912.01   96.79
  -7  10   0  910.71   98.59
  -7 -10   0  878.21   95.09
  -7  10   0  684.13  107.79
   7  10  -1    1.90   11.80
  -7  10   1  -21.10   19.60
  -7  10   1   -9.40   11.00
  -7 -10  -1   -1.60    7.10
  -7  10  -1   -2.40   21.10
   7 -10  -1   -2.20    8.60
  -7  10  -1   11.60   11.00
  -7 -10  -2  693.03   76.89
   7  10  -2  672.73   77.09
  -7  10   2  739.73   92.79
  -7  10  -2  706.93   78.09
   7 -10  -2  618.24   77.19
  -7  10  -2  802.52   92.79
   7  10  -3    5.20   12.20
  -7 -10  -3    6.50    9.90
  -7  10   3    7.10   23.70
   7 -10  -3    8.30   10.00
  -7  10  -3   12.80   19.80
  -7  10  -3    5.90   10.70
  -7  10   4  329.47   55.09
  -7 -10  -4  448.56   49.70
   7  10  -4  361.66   48.60
   7 -10  -4  241.08   46.60
  -7  10  -4  415.96   56.59
   7 -10  -4  357.36   46.60
  -8  10   0    3.90   10.40
   8 -10   0    5.10    8.50
  -8  10   0   20.90   23.30
  -8  10   1   -4.80   22.20
  -8  10   1   -8.40   10.70
  -8 -10  -1   12.60    8.00
   8 -10  -1    1.40    7.80
  -8  10  -1    8.80   10.10
  -8  10  -1  -20.50   19.00
  -8  10   2   -8.00   19.50
  -8 -10  -2   -3.10    8.00
   8  10  -2   -8.60   13.40
  -8  10   2   36.30   17.10
  -8  10  -2   -2.60   10.40
   8 -10  -2   -0.40   10.60
  -8  10  -2   24.60   22.10
  -8 -10  -3   -2.40   10.60
  -8  10   3  -17.90   22.30
   8  10  -3    3.70   11.30
  -8  10  -3   23.40   23.10
   8 -10  -3   25.30   13.00
  -8  10  -3    4.70   11.90
   8  10  -4  -19.00   12.30
  -8 -10  -4    1.40   12.90
  -8  10   4    1.70   20.70
   8 -10  -4   10.40   13.30
   8 -10  -4   22.60   15.60
  -8  10  -4   -5.10   19.60
   9 -10   0   17.30   10.50
  -9  10   0   15.00   11.70
  -9  10   0   35.10   22.70
  -9  10   1   23.20   24.90
  -9  10   1    3.60   11.00
  -9 -10  -1   -0.60    7.70
  -9  10  -1   -6.10   24.30
   9 -10  -1    2.00    8.30
  -9  10  -1  -11.30   10.20
  -9  10   2   14.80   16.40
  -9 -10  -2   10.20    9.30
  -9  10   2  -41.30   18.30
   9 -10  -2    6.40   10.80
  -9  10  -2  -10.50   10.10
  -9  10  -2   24.70   23.90
  -9  10   3   -6.60   21.60
  -9 -10  -3    0.30    9.90
   9 -10  -3   11.40   13.50
  -9  10  -3   35.90   14.60
  -9  10  -3    1.70   21.60
   9  10  -4   10.40   15.80
  -9 -10  -4   -4.90   13.00
  -9  10   4    3.60   25.00
  -9  10  -4   10.20   21.30
   9 -10  -4   18.40   17.70
   9 -10  -4   -2.60   13.80
  -9  10  -4   40.10   16.20
 -10  10   0   47.30   14.90
  10 -10   0   71.59   15.70
 -10  10   0   29.00   23.60
 -10 -10  -1   20.70    9.90
 -10  10   1   15.70   12.60
 -10  10   1   24.90   24.70
  10 -10  -1   21.20   11.00
 -10  10  -1    7.50   12.00
 -10  10  -1   29.90   24.80
 -10 -10  -2   47.50   12.20
 -10  10   2   26.70   15.80
 -10  10   2  -12.90   24.30
  10 -10  -2   36.90   13.40
 -10  10  -2   70.49   29.50
 -10  10  -2    9.80   12.50
 -10  10   3   10.70   25.50
 -10 -10  -3   33.10   12.30
  10 -10  -3   27.60   15.10
 -10  10  -3   59.89   30.00
 -10  10  -3   12.30   13.80
 -11  10   0   68.19   19.90
  11 -10   0   69.19   18.60
 -11  10   0   98.89   30.90
 -11 -10  -1   52.49   13.80
 -11  10   1   51.99   29.50
 -11  10   1   61.49   18.20
 -11  10  -1   63.19   17.50
  11 -10  -1   69.59   15.60
 -11  10  -1   57.29   26.80
 -11 -10  -2   58.99   14.60
 -11  10   2   93.79   32.50
 -11  10   2   98.39   23.50
  11 -10  -2   44.10   15.80
 -11  10  -2   63.89   19.90
 -11  10  -2   87.29   31.30
 -11 -10  -3    9.60   12.20
 -11  10   3   56.49   32.10
 -11  10  -3   48.40   16.90
  11 -10  -3   28.20   14.40
  12 -10   0  107.69   22.90
 -12  10   0   86.79   28.80
 -12  10   0   94.49   22.30
 -12  10   1   54.99   19.50
 -12  10   1   46.50   26.30
 -12  10  -1   63.59   25.90
  12 -10  -1   56.89   17.00
 -12  10  -1   75.69   19.60
 -12 -10  -2   96.99   19.50
 -12  10   2   99.59   33.50
 -12  10   2   94.29   24.80
 -12  10  -2   94.99   22.70
  12 -10  -2   90.49   21.10
  13 -10   0  414.96   53.99
 -13  10   0  424.86   53.99
 -13  10   0  304.67   55.79
 -13  10   1   19.30   20.20
 -13  10   1   17.80   15.20
  13 -10  -1    0.70   11.90
 -13  10  -1   20.10   15.30
 -13 -10  -2  165.98   30.30
 -13  10   2  253.37   45.80
 -13  10  -2  267.77   37.40
  13 -10  -2  277.77   35.50
 -14  10   0   36.10   16.70
  14 -10   0   -6.40   14.60
 -14  10   1    9.60   23.60
 -14  10   1  -10.60   14.70
 -14  10  -1   -9.40   17.20
  14 -10  -1   -5.60   13.70
   0  11   0  -16.90   16.30
   0 -11   0   -2.70    5.30
   0  11  -1   13.60   14.10
   0 -11   1   -0.80    4.70
   0 -11  -1   -4.00    6.40
   0  11   1  -10.40   15.20
   0 -11  -2    3.60    8.20
   0  11  -2   -4.60   10.10
   0  11   2    6.00   14.20
   0 -11  -3   -0.60    8.90
   0  11   3   -4.20   13.20
   0  11  -3   -4.40   13.50
   0  11  -4  -12.70   13.80
   0  11   4    8.40   14.30
   0 -11  -4   16.20   13.20
   0 -11  -4   -7.60   11.10
   0 -11  -5   -6.50   13.60
   0  11   5  -12.30   14.00
   0  11  -5  -18.60   16.30
   0 -11  -5   16.10   13.30
   1 -11   0   79.19   13.50
  -1  11   0   87.49   28.80
  -1 -11   0   97.19   14.10
   1  11   0   85.29   23.60
  -1  11   1  105.59   30.30
   1  11  -1   97.29   24.30
   1 -11   1  135.69   17.90
  -1 -11  -1  137.59   18.70
  -1 -11   1  155.78   17.60
  -1  11  -1  113.69   19.20
   1  11   1   88.99   26.10
  -1  11  -1  131.49   26.70
   1 -11  -1  136.89   19.60
  -1  11   2   63.89   22.20
  -1 -11  -2   83.99   14.70
   1  11  -2   21.90   14.60
  -1  11  -2   93.59   18.00
   1  11   2   53.39   18.00
   1 -11  -2   60.89   13.80
  -1  11  -2   65.59   18.90
  -1 -11  -3   36.40   12.20
  -1  11   3   41.50   19.60
   1  11  -3   68.09   18.40
   1  11   3   63.69   17.60
  -1  11  -3   76.29   19.30
   1 -11  -3   79.09   15.10
  -1  11   4    7.40   14.90
   1  11  -4   18.70   17.00
  -1 -11  -4   30.10   14.20
  -1 -11  -4   17.80   12.60
   1  11   4   40.20   17.30
   1 -11  -4   20.50   12.60
   1 -11  -4   35.10   14.60
  -1  11  -4   34.10   18.60
  -1  11   5   12.70   14.90
  -1 -11  -5   18.50   13.80
   1  11  -5    3.40   17.70
   1 -11  -5   15.70   14.90
   1 -11  -5   26.20   15.50
  -1  11  -5   12.60   21.00
  -2  11   0  309.67   43.30
  -2  11   0  450.55   59.29
   2 -11   0  375.26   40.80
  -2 -11   0  346.57   39.90
   2  11   0  328.27   49.30
  -2 -11  -1   92.29   15.10
  -2  11   1   98.39   30.30
   2 -11   1   82.39   14.40
   2  11  -1  112.79   22.30
   2 -11  -1  122.59   17.40
   2  11   1   75.99   22.10
  -2  11  -1   98.79   16.90
  -2 -11   1  104.09   13.70
  -2  11  -1   81.59   23.00
  -2 -11  -2  210.78   32.60
  -2  11   2  234.88   41.80
   2  11  -2  345.27   40.20
   2 -11   2  268.37   31.40
   2  11   2  323.17   39.30
  -2  11  -2  285.27   33.90
   2 -11  -2  233.28   33.10
  -2  11  -2  243.28   38.40
  -2  11   3   45.40   20.70
   2  11  -3   45.20   15.20
  -2 -11  -3   60.19   14.70
   2 -11  -3   40.90   12.90
   2  11   3   59.59   16.40
  -2  11  -3    7.90   15.00
   2  11  -4  118.39   26.80
  -2  11   4  121.89   28.50
  -2 -11  -4  135.29   24.90
  -2  11  -4  116.49   28.60
   2 -11  -4  183.88   28.00
   2 -11  -4  180.78   27.10
   2  11  -5   34.80   21.30
  -2 -11  -5    5.70   15.20
  -2  11   5   50.49   21.20
   2 -11  -5   32.80   16.50
   2 -11  -5   34.20   17.70
  -2  11  -5   61.39   23.00
   3 -11   0  704.63   75.39
  -3  11   0  586.54   88.49
  -3 -11   0  691.33   74.59
   3  11   0  678.03   81.69
  -3  11   0  667.03   77.09
  -3  11   1  819.22  101.89
   3 -11   1  795.92   85.19
  -3 -11  -1  795.72   85.49
   3  11  -1  894.71   89.19
  -3  11  -1  738.03   86.49
   3  11   1  706.83   89.99
  -3  11  -1  684.13   95.89
   3 -11  -1  767.22   85.89
  -3  11   2  544.65   75.09
   3  11  -2  584.14   65.29
   3 -11   2  591.64   61.99
  -3 -11  -2  516.75   62.89
   3 -11  -2  556.14   62.79
  -3  11  -2  473.45   70.29
  -3  11  -2  543.75   62.39
   3  11   2  537.65   64.09
  -3 -11  -3  467.25   54.29
   3  11  -3  410.16   56.99
  -3  11   3  474.75   63.99
  -3  11  -3  489.75   61.89
   3 -11  -3  464.95   54.29
   3  11  -4  232.78   37.80
  -3  11   4  187.68   39.20
  -3 -11  -4  258.47   35.60
   3 -11  -4  333.67   38.00
   3 -11  -4  263.67   37.50
  -3  11  -4  194.58   38.50
  -4 -11   0    8.50    6.10
  -4  11   0   -7.40   24.60
  -4  11   0   16.70   10.80
   4  11   0    9.80   14.90
   4 -11   0    8.50    7.30
  -4 -11  -1   67.29   12.70
   4  11  -1   58.39   16.10
   4 -11   1   71.79   12.40
  -4  11   1   54.29   27.00
  -4  11  -1   53.89   13.00
   4  11   1   73.39   17.70
  -4  11  -1   70.19   28.10
   4 -11  -1   35.50   11.50
  -4  11   2   -5.40   19.20
   4  11  -2    0.70   10.30
  -4 -11  -2   14.60    9.40
   4 -11  -2    1.10    8.00
  -4  11  -2   23.80   10.00
  -4  11  -2    0.10   15.10
  -4 -11  -3   17.00   11.50
   4  11  -3   22.10   13.80
  -4  11   3   56.79   24.00
   4 -11  -3   21.40   11.00
  -4  11  -3   41.30   19.30
  -4 -11  -4   -7.40   11.70
   4  11  -4    2.10   14.60
  -4  11   4   20.60   19.20
   4 -11  -4    0.30   11.10
  -4  11  -4   -8.40   19.00
   4 -11  -4   -3.40   13.30
  -5  11   0    3.00    9.70
  -5 -11   0    2.80    5.50
   5 -11   0    6.10    7.10
   5  11   0   -0.40   14.20
  -5  11   0   11.60   23.50
   5 -11   1   10.30    8.10
  -5  11   1   -9.70   10.30
  -5  11   1  -38.50   17.60
   5  11  -1    8.10   10.90
  -5 -11  -1    3.90    6.80
  -5  11  -1   -5.90    8.80
   5 -11  -1   13.60    8.30
  -5  11  -1   -0.40   21.10
  -5 -11  -2    1.10    7.60
   5  11  -2    1.80   10.30
  -5  11   2    7.10   20.70
   5 -11  -2   -6.50    8.10
  -5  11  -2    3.20   17.10
  -5  11  -2   -7.60    9.00
  -5  11   3   45.30   24.20
   5  11  -3   19.00   12.90
  -5 -11  -3   -2.90    9.10
  -5  11  -3    2.10   10.50
  -5  11  -3   -6.30   18.50
   5 -11  -3   -7.50   10.20
   5  11  -4   -4.80   13.90
  -5 -11  -4   12.30   11.90
  -5  11   4  -22.00   18.00
  -5  11  -4  -10.70   18.60
   5 -11  -4  -13.60   12.60
   5 -11  -4   11.60   11.50
  -6  11   0   32.50   13.00
  -6  11   0   36.40   25.60
  -6 -11   0   31.90    8.80
   6 -11   0   41.80   11.30
   6 -11   1    6.80    9.20
  -6 -11  -1   -2.30    7.20
  -6  11   1    7.60   24.70
   6  11  -1    1.70   10.40
  -6  11   1    0.70   11.40
  -6  11  -1   25.00   25.00
   6 -11  -1   12.50    8.40
  -6  11  -1    7.70   10.00
  -6  11   2    6.50   23.30
   6  11  -2   56.09   14.70
  -6 -11  -2   47.70   12.60
  -6  11  -2   41.80   24.00
  -6  11  -2   24.10   11.10
   6 -11  -2   34.10   11.40
  -6  11   3   48.70   27.10
   6  11  -3   12.50   13.30
  -6 -11  -3   -9.40   10.70
  -6  11  -3    1.20   10.80
   6 -11  -3    3.10   10.10
  -6  11  -3    9.00   20.20
   6  11  -4   26.50   15.90
  -6 -11  -4   17.80   12.90
  -6  11   4   14.50   22.70
  -6  11  -4   24.40   22.60
   6 -11  -4    7.50   14.90
   6 -11  -4   11.10   11.90
  -7  11   0   97.29   31.00
  -7  11   0  104.39   20.30
   7 -11   0   93.99   17.40
  -7 -11  -1   21.80    8.20
  -7  11   1   39.70   16.20
  -7  11   1   -6.10   25.40
  -7  11  -1   21.10   24.70
  -7  11  -1   30.50   11.60
   7 -11  -1   18.50   10.90
  -7 -11  -2   63.99   14.80
  -7  11   2   58.89   28.20
   7  11  -2  103.89   19.30
   7 -11  -2   88.29   17.00
  -7  11  -2   96.59   19.60
  -7  11  -2   93.29   32.60
  -7  11   3    7.30   23.20
  -7 -11  -3    1.60    9.50
   7  11  -3    4.40   11.40
  -7  11  -3    5.30   11.70
  -7  11  -3   30.10   22.70
   7 -11  -3   -8.30   10.40
  -7 -11  -4   70.59   19.60
   7  11  -4   11.60   16.30
  -7  11   4   90.69   31.20
   7 -11  -4   47.00   18.80
   7 -11  -4   63.29   20.00
  -7  11  -4   70.09   28.10
  -8  11   0  -32.50   20.80
  -8  11   0   10.20   11.70
   8 -11   0   25.00   10.10
  -8 -11  -1  121.09   16.50
  -8  11   1   81.69   30.10
  -8  11   1   61.59   19.20
  -8  11  -1   73.29   29.40
   8 -11  -1   52.59   15.10
  -8  11  -1   82.69   18.10
  -8 -11  -2    7.90   10.10
  -8  11   2   22.40   24.50
  -8  11  -2   19.00   13.70
  -8  11  -2  -28.50   20.30
   8 -11  -2    7.70   10.30
  -8  11   3   70.19   30.60
   8  11  -3   68.29   17.30
  -8 -11  -3   45.80   15.50
  -8  11  -3  100.89   30.70
   8 -11  -3   36.60   14.90
  -8  11  -3   89.19   19.00
  -8 -11  -4    4.00   11.50
  -8  11   4  -10.90   25.00
   8  11  -4   -2.80   13.30
  -8  11  -4   47.80   25.90
   8 -11  -4    8.20   13.50
   8 -11  -4    3.30   12.70
  -9  11   0  266.87   35.10
  -9  11   0  170.38   40.50
   9 -11   0  187.08   29.40
  -9 -11  -1  221.58   31.20
  -9  11   1  248.58   36.50
  -9  11   1  267.97   49.70
   9 -11  -1  251.37   33.00
  -9  11  -1  259.47   35.90
  -9  11  -1  164.38   45.00
  -9  11   2  147.49   38.00
  -9  11   2  152.58   30.70
  -9 -11  -2  159.88   24.00
  -9  11  -2  174.68   39.40
   9 -11  -2  131.39   24.70
  -9  11  -2  136.79   26.40
  -9 -11  -3  198.88   28.00
  -9  11   3  135.89   41.00
  -9  11  -3  145.29   41.30
  -9  11  -3  181.28   29.10
   9 -11  -3  134.79   26.80
  10 -11   0  241.58   35.70
 -10  11   0  257.87   38.80
 -10  11   0  309.37   51.49
 -10 -11  -1   21.00    9.60
 -10  11   1   11.50   26.90
 -10  11   1   22.20   15.10
 -10  11  -1   31.90   14.30
 -10  11  -1   33.80   28.00
  10 -11  -1   25.70   11.40
 -10  11   2  189.48   46.00
 -10 -11  -2  209.18   30.40
 -10  11   2  231.58   37.20
 -10  11  -2  219.98   46.30
  10 -11  -2  209.98   31.40
 -10  11  -2  238.88   36.20
 -10  11   3    4.30   26.00
 -10 -11  -3   15.20   11.40
 -10  11  -3   29.00   16.60
  10 -11  -3    5.30   12.70
 -10  11  -3   55.19   28.10
  11 -11   0   34.00   13.60
 -11  11   0   37.00   16.20
 -11  11   0   40.40   26.40
 -11  11   1    4.80   14.00
 -11  11   1   -4.10   26.30
  11 -11  -1    4.20   10.30
 -11  11  -1   -3.70   12.70
 -11  11  -1   19.40   25.10
 -11 -11  -2   16.60   11.20
 -11  11   2  -18.80   24.70
 -11  11   2   35.40   17.90
 -11  11  -2   37.60   17.00
  11 -11  -2   18.30   12.30
 -11  11  -2   96.39   34.50
 -11  11   3    0.30   27.90
 -11 -11  -3    8.40   10.40
 -11  11  -3   32.80   16.40
  11 -11  -3   11.10   14.50
 -11  11  -3  -15.60   23.70
  12 -11   0  132.59   23.00
 -12  11   0   83.69   29.40
 -12  11   0  104.59   24.40
 -12  11   1  -26.50   22.40
 -12  11   1   22.50   15.20
  12 -11  -1   -8.70   10.00
 -12  11  -1   -7.90   13.10
 -12  11  -1   17.40   22.10
 -12  11   2  164.88   39.90
 -12  11   2   55.29   22.70
 -12 -11  -2   98.39   18.80
 -12  11  -2   92.99   24.60
 -12  11  -2  174.88   41.00
  12 -11  -2  115.69   20.70
  13 -11   0  252.47   35.10
 -13  11   0  274.77   38.30
 -13  11   0  118.69   37.70
 -13  11   1   63.49   27.80
 -13  11   1   34.20   17.30
 -13  11  -1   13.80   17.80
  13 -11  -1   20.30   13.40
 -13  11  -1   53.29   26.80
   0 -12   0  751.72   81.79
   0  12   0  737.83   95.09
   0  12   1  661.83   86.79
   0  12  -1  682.13   79.59
   0 -12  -1  641.44   73.29
   0 -12   1  671.03   72.29
   0 -12  -2  610.64   66.49
   0  12   2  465.35   72.69
   0  12  -2  648.54   71.99
   0  12  -3  430.96   59.39
   0  12   3  414.86   59.29
   0 -12  -3  469.25   53.29
   0  12  -4  255.87   42.60
   0  12   4  256.57   41.20
   0 -12  -4  356.36   41.50
   0 -12  -4  260.37   38.90
  -1 -12   0    2.80    6.00
  -1  12   0   24.10   23.00
   1  12   0   13.10   20.30
   1 -12   0   17.20    6.90
   1 -12   1    4.20    5.80
  -1  12   1  -31.60   17.40
   1  12  -1   -5.40   12.20
  -1 -12  -1    3.10    6.10
  -1 -12   1   15.10    5.70
   1 -12  -1   -0.40    7.10
   1  12   1  -35.10   14.00
  -1  12  -1   10.00   17.90
   1  12  -2    5.60   12.80
  -1  12   2    6.80   19.00
  -1 -12  -2    9.90    8.50
   1  12   2   -1.30   14.60
   1 -12  -2   17.10   10.10
  -1  12  -2   11.70   14.50
   1  12  -3   -9.50   13.10
  -1 -12  -3   -3.50    8.70
  -1  12   3   17.00   15.70
   1 -12  -3  -16.00    8.60
   1  12   3   -0.10   13.30
  -1  12  -3   14.90   15.40
  -1 -12  -4   10.10   12.50
  -1  12   4   43.30   17.80
   1  12  -4    8.20   17.20
  -1 -12  -4   17.80   14.00
   1  12   4    7.20   16.50
   1 -12  -4    2.50   11.90
   1 -12  -4   -1.00   11.70
  -1  12  -4   -3.50   15.20
  -2  12   0  261.77   48.60
  -2 -12   0  292.87   33.50
   2  12   0  282.97   44.70
   2 -12   0  281.27   34.10
   2  12  -1   66.59   20.50
   2 -12   1   90.69   14.50
  -2  12   1   83.89   28.90
  -2 -12  -1   95.29   15.00
   2 -12  -1   72.89   15.30
   2  12   1   89.99   24.40
  -2  12  -1   90.79   16.90
  -2  12  -1   65.19   24.40
  -2  12   2  240.28   41.50
   2  12  -2  224.18   35.10
  -2 -12  -2  182.98   30.20
  -2  12  -2  259.07   32.50
  -2  12  -2  195.88   37.70
   2 -12  -2  282.37   32.90
   2  12   2  307.97   38.40
   2  12  -3   12.60   15.50
  -2 -12  -3   50.49   13.70
  -2  12   3   65.59   21.90
   2 -12  -3   44.70   13.10
  -2  12  -3   33.70   18.10
   2  12   3   31.20   15.30
  -2 -12  -4  125.99   21.90
  -2  12   4   79.89   25.80
   2  12  -4  116.29   25.20
  -2  12  -4   61.79   25.40
   2 -12  -4  139.19   25.20
   2 -12  -4  144.29   24.10
  -3 -12   0   -1.10    6.20
   3  12   0   26.70   18.30
   3 -12   0    5.10    7.20
  -3  12   0   -1.30   10.30
  -3  12   0   11.90   22.20
   3 -12   1    8.00    7.20
   3  12  -1    4.10   12.20
  -3 -12  -1    0.20    6.30
  -3  12   1   11.00   22.20
  -3  12  -1  -20.10   18.10
  -3  12  -1    6.80    9.50
   3 -12  -1    0.30    7.20
   3  12   1  -10.10   13.90
  -3  12   2  -28.90   19.00
   3  12  -2  -12.10   12.50
   3 -12   2    1.00    7.50
  -3 -12  -2   -3.70    8.50
   3  12   2   -1.20   11.70
   3 -12  -2   -8.30    8.00
  -3  12  -2   -5.20    8.40
  -3  12  -2   -9.70   14.50
   3  12  -3   17.40   13.10
  -3  12   3   -5.70   18.60
  -3 -12  -3   -6.50   10.00
   3 -12  -3    7.70    9.80
  -3  12  -3   18.20   17.60
   3  12  -4    4.50   15.90
  -3  12   4    8.20   18.10
  -3 -12  -4   14.90   12.70
   3 -12  -4    5.70   13.80
  -3  12  -4   -2.30   17.90
   3 -12  -4    4.40   11.70
  -4 -12   0   12.50    7.10
  -4  12   0   12.10   26.00
   4  12   0   35.90   18.50
   4 -12   0   12.80    7.80
  -4  12   0    5.50   10.60
  -4 -12  -1  183.08   26.30
   4 -12   1  205.58   26.70
   4  12  -1  195.28   32.00
  -4  12   1  197.58   42.40
   4  12   1  227.38   33.80
  -4  12  -1  161.98   39.00
   4 -12  -1  227.28   28.60
  -4  12  -1  206.88   28.80
   4  12  -2   20.90   14.00
   4 -12   2    9.70    9.10
  -4  12   2   17.70   22.90
  -4 -12  -2   39.60   11.40
  -4  12  -2    5.10    9.80
  -4  12  -2   28.60   18.70
   4 -12  -2   16.10   10.10
  -4 -12  -3  114.79   20.10
   4  12  -3   85.99   23.30
  -4  12   3  152.88   34.00
   4 -12  -3  104.29   19.30
  -4  12  -3   90.69   25.70
   4  12  -4    3.60   13.70
  -4  12   4  -11.30   16.70
  -4 -12  -4    9.30   12.00
   4 -12  -4   -6.10   12.40
   4 -12  -4    6.60   12.80
  -4  12  -4  -18.70   20.80
   5 -12   0   17.90    8.40
  -5 -12   0   20.30    7.30
   5  12   0   17.00   17.90
  -5  12   0   -0.60   10.80
  -5  12   0   17.70   26.60
   5  12  -1   39.60   15.90
  -5  12   1   54.59   27.90
   5 -12   1   44.50   11.10
  -5 -12  -1   42.60   10.30
  -5  12  -1   46.00   25.40
  -5  12  -1   46.90   13.20
   5 -12  -1   35.90   12.10
   5 -12   2   20.10   10.40
  -5  12   2    3.10   22.30
   5  12  -2   19.40   13.60
  -5 -12  -2   13.10    8.70
   5 -12  -2  -11.90    9.30
  -5  12  -2   40.00   24.20
  -5  12  -2   14.00   10.40
  -5 -12  -3   19.70   11.50
   5  12  -3   40.20   16.90
  -5  12   3   74.09   28.60
   5 -12  -3   40.80   15.10
  -5  12  -3   44.70   24.70
  -5 -12  -4   21.80   14.40
  -5  12   4    7.80   20.20
   5  12  -4   10.60   13.80
   5 -12  -4    5.30   13.20
   5 -12  -4  -13.20   13.00
  -5  12  -4   -7.80   18.60
  -6  12   0    0.40   11.80
  -6  12   0   12.30   24.60
   6 -12   0   14.80    9.10
   6  12  -1   69.19   17.50
  -6  12   1   29.90   14.90
  -6 -12  -1   39.50   10.20
   6 -12   1   39.10   10.50
  -6  12   1   33.00   28.70
   6 -12  -1   26.20   10.80
  -6  12  -1   23.00   12.10
  -6  12  -1   12.90   24.10
  -6 -12  -2    0.10    9.30
  -6  12   2    3.20   23.70
   6  12  -2   -0.40   12.10
  -6  12  -2   37.70   23.60
   6 -12  -2   13.00   10.20
  -6  12  -2   13.10   11.40
   6  12  -3   19.70   15.10
  -6  12   3   18.40   24.90
  -6 -12  -3   31.90   13.30
  -6  12  -3   25.00   19.90
  -6  12  -3   48.50   22.00
   6 -12  -3   -3.80   11.60
  -6 -12  -4   11.30   12.80
  -6  12   4    8.70   21.50
   6  12  -4   10.30   15.40
  -6  12  -4    3.50   23.30
   6 -12  -4   -4.20   12.60
   6 -12  -4    1.10   12.90
  -7  12   0    1.60   10.70
  -7  12   0    0.70   23.70
   7 -12   0   11.20    8.50
  -7  12   1   18.60   27.20
  -7 -12  -1   35.60   10.60
   7 -12   1   25.90   10.00
  -7  12   1   48.70   17.00
  -7  12  -1    3.50   10.40
   7 -12  -1    8.20    9.40
  -7  12  -1   10.20   26.90
  -7 -12  -2    1.70    8.30
   7  12  -2    5.20   12.40
  -7  12   2   -3.20   26.30
  -7  12  -2    3.40   12.10
   7 -12  -2    0.90   10.70
  -7  12  -2   53.09   27.80
   7  12  -3    6.40   15.10
  -7 -12  -3   20.40   11.10
  -7  12   3   22.80   27.70
   7 -12  -3   22.90   14.40
  -7  12  -3   36.30   14.80
  -7  12  -3   61.19   25.90
  -7 -12  -4   -0.60   13.80
  -7  12   4  -16.30   25.10
   7  12  -4   18.30   14.50
   7 -12  -4   -4.00   12.30
  -7  12  -4   37.00   27.20
   7 -12  -4   20.10   14.80
  -8  12   0   32.60   14.40
   8 -12   0   31.70   11.00
  -8  12   0   44.40   26.50
  -8  12   1  143.09   40.60
  -8 -12  -1  164.18   23.30
  -8  12   1  188.48   30.70
   8 -12   1  138.99   24.40
  -8  12  -1  222.68   46.10
  -8  12  -1  198.88   27.50
   8 -12  -1  151.28   25.10
  -8 -12  -2   38.10   12.80
  -8  12   2   65.59   29.70
  -8  12  -2   20.60   26.20
   8 -12  -2   42.00   13.20
  -8  12  -2   35.30   15.80
  -8  12   3  146.89   39.80
  -8 -12  -3  108.79   21.30
  -8  12  -3  104.79   22.20
  -8  12  -3  153.78   35.60
   8 -12  -3   82.29   20.20
  -9  12   0   10.90   14.60
   9 -12   0    8.70   10.90
  -9  12   0   29.00   25.90
  -9  12   1  108.89   35.60
  -9 -12  -1   97.69   17.10
  -9  12   1   99.89   23.00
   9 -12   1   95.59   19.40
  -9  12  -1  124.09   37.60
   9 -12  -1  111.19   19.60
  -9  12  -1   80.69   19.60
  -9 -12  -2   14.40    9.70
  -9  12   2   70.89   30.70
  -9  12  -2    3.10   14.10
   9 -12  -2   21.30   12.90
  -9  12  -2   78.89   30.10
  -9 -12  -3   47.70   14.90
  -9  12   3   70.19   33.50
  -9  12  -3   69.69   19.90
   9 -12  -3   47.40   17.00
  -9  12  -3   61.39   35.40
 -10  12   0   72.09   19.80
 -10  12   0   69.09   32.90
  10 -12   0   64.89   16.10
  10 -12   1    3.40   11.30
 -10  12   1   18.90   28.50
 -10  12   1   35.50   17.80
 -10  12  -1   24.50   26.60
 -10  12  -1   -1.70   11.60
  10 -12  -1   15.90   12.80
 -10 -12  -2   42.50   13.50
 -10  12   2   40.50   30.90
  10 -12  -2    8.10   14.00
 -10  12  -2   42.70   15.90
 -10  12  -2   89.59   34.40
 -10  12   3  -46.80   26.60
 -10 -12  -3   -5.60   11.10
  10 -12  -3    4.80   14.70
 -10  12  -3    1.70   15.40
 -10  12  -3   40.90   30.20
 -11  12   0   50.49   28.60
  11 -12   0   10.20   13.10
 -11  12   0    4.60   15.80
  11 -12   1   43.10   15.40
 -11  12   1   26.00   17.60
 -11  12   1   57.79   32.30
  11 -12  -1   35.40   14.30
 -11  12  -1   36.20   26.60
 -11  12  -1   28.80   15.90
 -11 -12  -2   -3.30    9.20
 -11  12   2   23.70   18.40
 -11  12   2   33.10   28.40
  11 -12  -2   21.90   13.60
 -11  12  -2    9.00   14.70
 -11  12  -2   42.60   30.70
  12 -12   0   84.49   20.30
 -12  12   0  131.99   25.70
 -12  12   0  133.19   35.90
 -12  12   1  455.55   65.19
 -12  12   1  216.18   46.00
  12 -12   1  458.15   51.09
 -12  12  -1  381.36   49.99
 -12  12  -1  402.56   60.99
 -12  12   2   71.09   23.70
 -12  12   2  153.08   40.10
 -12 -12  -2   57.69   15.60
 -12  12  -2  103.89   24.70
 -12  12  -2   48.30   33.30
  12 -12  -2   70.79   18.10
  13 -12   0   24.40   14.60
 -13  12   0   -9.80   25.90
 -13  12   0   -7.50   14.20
 -13  12   1   61.69   23.10
 -13  12   1   45.00   29.30
  13 -12   1  108.69   23.10
 -13  12  -1   82.19   32.60
 -13  12  -1   66.19   21.30
  13 -12  -1   77.09   20.90
   0 -13   0   -5.90    5.90
   0  13   0    6.60   19.20
   0 -13   1   -8.90    5.50
   0  13   1   -1.10   18.40
   0  13  -1  -11.40   17.30
   0 -13  -1    7.80    7.60
   0 -13  -2   19.80    9.60
   0  13   2   -6.20   18.00
   0  13  -2    1.00   15.70
   0  13   3   14.10   17.90
   0  13  -3    4.50   14.20
   0 -13  -3   -8.40    9.90
   0  13   4   -0.50   16.90
   0 -13  -4  -11.10   13.10
   0  13  -4   -1.20   16.50
   0 -13  -4    3.60   12.40
   1  13   0   49.90   22.70
  -1 -13   0   57.79   10.90
   1 -13   0   59.19   11.40
  -1  13   0   36.90   26.30
  -1 -13  -1   27.50    9.60
   1  13  -1   34.40   17.90
   1 -13   1   55.59    9.80
  -1  13   1   51.49   26.90
   1  13   1   20.30   19.30
   1 -13  -1   42.40   10.70
  -1  13  -1   49.00   24.80
  -1  13   2   16.10   21.70
   1  13  -2   46.50   19.80
  -1 -13  -2  110.59   16.70
   1  13   2   93.49   24.80
   1 -13  -2   61.89   14.40
  -1  13  -2   50.19   21.30
  -1  13   3   26.00   20.10
   1  13  -3   31.10   16.50
  -1 -13  -3   25.80   11.20
   1 -13  -3   34.20   12.20
  -1  13  -3   15.90   17.90
   1  13   3   36.70   18.70
  -1  13   4   15.50   17.90
  -1 -13  -4   39.30   16.20
   1  13  -4   35.20   19.50
  -1  13  -4   24.30   19.70
   1 -13  -4   50.39   15.80
   1 -13  -4   43.40   15.60
   2  13   0  191.48   38.20
  -2  13   0  131.79   37.60
   2 -13   0  199.28   26.10
  -2 -13   0  204.08   25.40
  -2  13   1  611.54   86.99
  -2 -13  -1  617.44   70.49
   2 -13   1  603.74   69.89
   2  13  -1  616.04   79.69
   2  13   1  621.74   83.19
   2 -13  -1  665.03   71.29
  -2  13  -1  687.13   72.59
  -2  13  -1  624.54   84.49
   2  13  -2  195.28   29.50
  -2 -13  -2   78.89   17.90
  -2  13   2  121.59   33.60
   2  13   2  101.29   24.80
   2 -13  -2  156.18   21.70
  -2  13  -2  151.48   30.70
  -2  13   3  366.66   57.99
   2  13  -3  378.16   53.79
  -2 -13  -3  428.56   48.80
   2 -13  -3  445.56   51.59
  -2  13  -3  389.66   57.39
   2  13   3  345.57   52.79
  -2 -13  -4   70.99   19.80
   2  13  -4   51.69   20.50
  -2  13   4   44.20   24.00
   2 -13  -4   75.99   20.10
  -2  13  -4  102.99   27.20
   2 -13  -4  106.99   21.40
   3  13   0  117.79   29.90
  -3  13   0  148.09   38.00
  -3 -13   0  146.29   19.20
   3 -13   0  112.59   19.20
   3 -13   1  124.49   19.00
  -3  13   1  100.49   32.80
   3  13  -1  118.89   26.10
  -3 -13  -1  132.99   19.30
   3 -13  -1  141.49   21.20
   3  13   1   74.69   25.80
  -3  13  -1  152.88   23.10
  -3  13  -1   69.09   31.10
  -3 -13  -2  152.38   20.60
   3  13  -2   95.49   23.80
  -3  13   2   41.20   27.30
   3  13   2  113.99   23.30
   3 -13  -2   99.29   18.30
  -3  13  -2  103.39   26.80
  -3  13  -2   93.69   24.60
   3  13  -3   99.29   22.60
  -3 -13  -3   58.79   15.30
  -3  13   3   76.59   28.40
  -3  13  -3   72.89   24.70
   3 -13  -3   47.30   14.70
  -3  13   4   58.69   25.10
   3  13  -4   33.20   19.90
  -3 -13  -4   41.10   15.00
   3 -13  -4   50.79   18.00
  -3  13  -4   54.69   24.00
   3 -13  -4   57.59   17.70
  -4  13   0   74.29   18.70
  -4  13   0   41.30   29.20
   4  13   0   66.29   23.80
  -4 -13   0   58.79   12.20
   4 -13   0   83.29   14.60
   4  13  -1 1118.39  125.99
   4 -13   1 1137.59  121.89
  -4 -13  -1 1178.28  122.09
  -4  13   1 1181.58  136.79
   4 -13  -1 1146.19  122.49
  -4  13  -1 1032.50  132.89
  -4  13  -1 1068.99  123.79
   4  13   1 1026.50  128.79
  -4  13   2   24.90   27.80
   4 -13   2   89.49   14.20
  -4 -13  -2   26.30   12.40
   4  13  -2   66.09   19.80
  -4  13  -2   38.20   23.20
   4 -13  -2   43.20   12.50
  -4  13  -2   47.50   14.60
  -4 -13  -3  809.52   92.09
   4  13  -3  810.92   94.69
  -4  13   3  833.82  106.79
  -4  13  -3  826.22  104.69
  -4  13   4   17.40   20.60
  -4 -13  -4   39.80   16.10
   4  13  -4    6.20   16.90
  -4  13  -4    2.80   20.10
   4 -13  -4   44.30   15.70
   4 -13  -4   31.20   15.60
   5 -13   0    8.80    8.90
  -5  13   0   40.30   14.90
  -5  13   0  -11.90   24.20
  -5  13   1   58.39   31.10
   5  13  -1   62.29   19.50
  -5 -13  -1   86.69   15.70
   5 -13   1   82.89   15.00
  -5  13  -1   91.89   18.20
   5 -13  -1   64.59   15.10
  -5  13  -1  109.79   31.70
  -5 -13  -2   13.70    9.90
   5  13  -2  -10.80   12.60
   5 -13   2   25.40   10.70
  -5  13   2    1.70   24.20
   5 -13  -2    7.80   10.80
  -5  13  -2   -8.30   20.70
  -5  13  -2    6.90   11.30
  -5  13   3   67.09   31.40
   5  13  -3   45.70   18.40
  -5 -13  -3   34.70   14.10
   5 -13  -3   39.60   14.40
  -5  13  -3  103.69   28.70
  -5 -13  -4    0.00   11.50
   5  13  -4   -6.90   15.80
  -5  13   4   32.80   24.50
  -5  13  -4    3.50   21.20
   5 -13  -4   10.90   14.80
   5 -13  -4    0.20   13.00
  -6  13   0   11.30   13.80
   6 -13   0    3.80    9.00
  -6  13   0  -10.40   24.60
  -6  13   1   19.80   14.70
  -6  13   1   39.60   30.50
   6 -13   1   21.10   10.70
  -6 -13  -1   13.30    8.80
  -6  13  -1   17.10   26.50
  -6  13  -1   33.20   14.20
   6 -13  -1   27.50   10.80
   6 -13   2   -9.70    9.60
  -6 -13  -2    0.00    8.30
   6  13  -2   -7.50   13.30
  -6  13   2    1.70   28.40
   6 -13  -2    9.10   10.60
  -6  13  -2   -8.50    9.70
  -6  13  -2   20.90   29.10
  -6  13   3   29.00   26.80
  -6 -13  -3   -1.10    9.70
   6  13  -3   20.90   15.50
  -6  13  -3   38.10   24.30
   6 -13  -3    4.70   11.80
   6  13  -4  -15.40   13.40
  -6 -13  -4  -14.20   13.50
  -6  13   4    0.50   22.70
   6 -13  -4   -3.00   13.00
  -6  13  -4    8.50   26.10
   6 -13  -4    6.30   14.10
  -7  13   0    3.10   13.20
  -7  13   0  -25.80   26.00
   7 -13   0   -5.20    8.60
  -7 -13  -1   75.19   15.40
   7 -13   1   66.59   16.10
  -7  13   1   52.39   33.60
  -7  13   1  101.19   22.40
  -7  13  -1   87.69   34.50
   7 -13  -1   89.59   16.80
  -7  13  -1   89.39   19.60
  -7  13   2   14.70   28.10
   7 -13   2    0.00   10.80
  -7 -13  -2   -5.00    9.60
  -7  13  -2   -7.60   10.60
  -7  13  -2   -8.50   24.60
   7 -13  -2   -9.50   10.40
  -7 -13  -3   33.80   14.30
   7  13  -3   55.69   18.80
  -7  13   3  106.29   35.10
  -7  13  -3   14.10   26.60
   7 -13  -3   41.10   15.30
  -8  13   0  -14.60   11.90
  -8  13   0   21.20   29.70
   8 -13   0   10.30   10.00
  -8  13   1 1396.26  160.08
  -8  13   1 1329.87  148.29
   8 -13   1 1324.37  144.69
  -8 -13  -1 1353.26  143.59
  -8  13  -1 1356.56  146.69
   8 -13  -1 1282.17  144.59
  -8  13  -1 1145.39  162.58
  -8  13   2   46.20   32.80
  -8 -13  -2   13.50   10.10
  -8  13  -2   12.70   13.00
   8 -13  -2    1.20   10.40
  -8  13  -2   15.00   27.80
  -8  13   3  764.42  121.09
  -8 -13  -3  989.40  105.39
  -8  13  -3  875.61  106.09
  -8  13  -3  995.00  125.89
   8 -13  -3  961.50  105.19
   9 -13   0   74.29   15.70
  -9  13   0   58.29   18.00
  -9  13   0   91.99   35.60
  -9  13   1   60.49   32.90
  -9  13   1   18.10   16.70
   9 -13   1   31.50   12.50
   9 -13  -1   30.50   12.40
  -9  13  -1   48.20   16.10
  -9  13  -1    3.00   28.80
  -9 -13  -2   75.19   15.50
  -9  13   2   75.59   33.00
   9 -13  -2   78.69   16.80
  -9  13  -2   20.00   33.50
  -9  13  -2   43.40   16.40
  -9  13   3   13.10   30.50
  -9 -13  -3   15.20   11.90
  -9  13  -3    9.20   31.40
  -9  13  -3   32.30   17.40
   9 -13  -3   18.80   14.40
 -10  13   0    3.80   15.20
 -10  13   0   10.50   27.60
  10 -13   0    2.20   10.60
  10 -13   1  135.49   22.70
 -10  13   1  141.99   28.80
 -10  13   1   38.90   36.00
  10 -13  -1  102.69   21.90
 -10  13  -1  101.89   38.50
 -10  13  -1  107.99   23.80
 -10 -13  -2    5.00   11.00
 -10  13   2   18.50   29.30
 -10  13  -2  -14.40   31.30
 -10  13  -2   -2.30   13.80
  10 -13  -2   12.90   13.60
  11 -13   0   24.40   12.40
 -11  13   0   14.90   16.00
 -11  13   0   44.40   30.70
  11 -13   1   -1.90   13.40
 -11  13   1    8.00   26.20
 -11  13   1   11.80   18.80
  11 -13  -1   -1.00   12.50
 -11  13  -1   40.90   31.50
 -11  13  -1   -2.60   14.20
 -11  13   2    1.10   32.70
 -11 -13  -2    0.80    9.50
 -11  13  -2   34.70   16.90
  11 -13  -2   15.30   14.80
 -11  13  -2   21.50   31.60
 -12  13   0   45.50   31.40
  12 -13   0   -7.10   13.80
 -12  13   0    5.80   17.50
 -12  13   1   28.10   28.50
  12 -13   1   38.70   17.80
 -12  13   1   12.40   17.60
 -12  13  -1   47.20   31.30
  12 -13  -1   22.40   13.30
 -12  13  -1   26.50   18.40
   0 -14   0    8.40    7.30
   0  14   0   -0.50   21.20
   0  14  -1  206.48   40.20
   0  14   1  252.17   43.90
   0 -14  -1  208.38   28.60
   0 -14  -2   17.10   10.20
   0  14  -2   19.80   19.40
   0  14   2   15.60   19.60
   0  14  -3  103.09   28.50
   0 -14  -3  170.18   24.70
   0  14   3  139.19   30.10
   0  14   4  -15.10   16.70
   0  14  -4   17.80   20.00
   0 -14  -4   38.00   14.50
   0 -14  -4    5.90   14.80
  -1 -14   0   73.69   13.10
   1 -14   0   64.19   13.20
   1  14   0  101.29   29.40
  -1  14   0  116.19   31.80
   1 -14   1   10.50    6.60
   1  14  -1  -14.50   19.70
  -1 -14  -1   -1.60    7.60
  -1  14   1    3.60   21.20
   1 -14  -1    0.60    7.70
   1  14   1   -6.60   19.00
  -1  14  -1   -5.30   21.60
  -1  14   2  100.49   30.50
   1  14  -2   49.50   21.10
  -1 -14  -2   67.19   13.50
   1 -14  -2   49.80   12.70
  -1  14  -2   -6.80   18.90
   1  14   2   42.00   22.60
  -1  14   3    5.90   18.00
  -1 -14  -3    2.80   11.10
   1  14  -3   17.80   16.90
   1  14   3    6.30   17.20
   1 -14  -3   11.20   11.90
  -1  14  -3  -13.00   15.30
  -1  14   4   20.70   20.80
   1  14  -4   41.60   21.00
  -1 -14  -4   19.00   16.50
   1 -14  -4   49.10   15.70
   1 -14  -4   85.19   18.90
  -1  14  -4   42.90   22.70
  -2 -14   0   -4.30    6.20
   2 -14   0    4.40    7.80
  -2  14   0   15.90   26.80
   2  14   0    8.20   22.10
   2 -14   1   34.80    9.60
  -2 -14  -1   23.80    9.40
  -2  14   1   31.70   24.90
   2  14  -1   32.00   19.40
  -2  14  -1   21.20   24.80
   2 -14  -1   21.40    9.30
   2  14   1   26.10   22.80
  -2  14   2  -35.50   21.30
  -2 -14  -2   -2.80    8.80
   2  14  -2    9.20   15.10
  -2  14  -2    2.10   19.40
   2  14   2   -5.70   16.80
   2 -14  -2    9.10    9.10
   2  14  -3   27.60   17.80
  -2 -14  -3   15.10   13.10
  -2  14   3   28.10   22.10
   2 -14  -3   55.39   15.60
  -2  14  -3    8.80   18.30
  -2 -14  -4  -12.90   12.70
  -2  14   4   25.70   21.10
   2  14  -4   -0.60   18.00
   2 -14  -4   22.10   14.60
   2 -14  -4  -15.00   11.70
  -2  14  -4    2.90   19.80
  -3 -14   0   21.90    8.70
   3  14   0   28.50   23.30
  -3  14   0   30.50   31.30
   3 -14   0   23.60    9.80
  -3  14   1   18.00   24.70
   3  14  -1    0.30   17.40
   3 -14   1    8.00    7.70
  -3 -14  -1    8.30    7.80
  -3  14  -1    5.90   10.60
  -3  14  -1    5.80   23.80
   3 -14  -1    6.80    8.10
   3  14   1   -3.50   18.70
  -3 -14  -2   27.60   12.20
  -3  14   2   -1.50   24.60
   3  14  -2   21.90   16.70
  -3  14  -2   26.00   21.60
   3 -14  -2    9.00    9.90
   3  14  -3    5.80   14.70
  -3 -14  -3    9.50   11.20
  -3  14   3   14.10   23.60
  -3  14  -3  -14.90   18.60
   3 -14  -3   17.50   11.40
   3  14  -4   17.20   16.70
  -3 -14  -4   -2.40   11.30
  -3  14   4   26.70   24.20
   3 -14  -4    1.30   12.80
   3 -14  -4   28.30   16.50
  -3  14  -4   50.19   25.50
   4 -14   0  145.69   21.30
   4  14   0  190.38   34.80
  -4  14   0   49.70   35.80
  -4  14   0  151.88   26.10
  -4 -14  -1  149.69   20.70
   4 -14   1  123.69   19.70
  -4  14   1  132.59   36.90
   4  14  -1  129.99   28.40
   4 -14  -1  128.19   21.50
  -4  14  -1  102.99   34.60
  -4  14  -1  135.59   23.80
  -4  14   2  109.69   35.60
   4  14  -2  126.89   27.10
  -4 -14  -2  185.18   24.30
  -4  14  -2   84.69   32.40
   4 -14  -2  127.49   22.10
  -4  14   3  112.09   36.30
  -4 -14  -3  102.29   20.10
   4  14  -3   88.89   23.20
   4 -14  -3   77.99   20.00
  -4  14  -3  143.29   32.60
  -4 -14  -4   73.19   17.60
  -4  14   4   40.20   24.70
   4  14  -4   49.20   19.80
   4 -14  -4  101.79   20.90
   4 -14  -4   23.20   15.40
  -4  14  -4   81.39   30.60
  -5  14   0  263.47   34.70
  -5  14   0  149.59   45.30
   5 -14   0  203.08   28.50
   5 -14   1   18.30    9.60
  -5 -14  -1    8.20    9.20
  -5  14   1  -27.20   27.40
   5  14  -1  -10.90   16.20
   5 -14  -1   13.20    9.30
  -5  14  -1   33.70   28.40
  -5  14  -1   18.60   13.20
   5 -14   2  203.08   27.70
  -5 -14  -2  242.68   29.60
  -5  14   2  114.99   40.60
   5  14  -2  181.58   32.60
   5 -14  -2  191.88   29.10
  -5  14  -2  150.18   41.80
  -5  14  -2  185.08   29.40
   5  14  -3  -13.00   12.50
  -5  14   3  -12.90   24.40
  -5 -14  -3    2.20   11.30
   5 -14  -3    3.40   11.60
  -5  14  -3   42.70   26.10
   6 -14   0  141.99   21.20
  -6  14   0  132.59   25.50
  -6  14   0   71.79   34.90
  -6  14   1  -14.60   29.10
   6 -14   1    6.70    8.80
  -6 -14  -1    5.20    8.10
  -6  14  -1    8.00   11.70
  -6  14  -1   -6.60   25.60
   6 -14  -1   12.90    9.60
  -6 -14  -2   86.49   18.40
   6 -14   2  129.69   20.00
  -6  14   2  101.89   37.70
   6  14  -2   83.79   23.30
   6 -14  -2  110.09   20.80
  -6  14  -2   57.49   32.00
  -6  14  -2  135.19   22.30
  -6 -14  -3   12.40   12.30
  -6  14   3  -11.90   29.60
   6  14  -3   34.10   18.30
  -6  14  -3    2.40   24.40
   6 -14  -3    5.10   12.50
  -7  14   0   81.69   34.50
  -7  14   0   33.20   16.00
   7 -14   0   -0.60    9.80
  -7  14   1   68.49   22.60
   7 -14   1   77.69   17.10
  -7  14   1  118.49   39.40
  -7 -14  -1  136.09   18.40
  -7  14  -1  113.09   21.80
  -7  14  -1   75.29   34.70
   7 -14  -1   61.49   16.20
  -7  14   2  -11.40   31.20
  -7 -14  -2   17.00   11.10
   7 -14   2   42.80   13.20
  -7  14  -2   20.60   15.20
  -7  14  -2    9.90   31.50
   7 -14  -2   17.10   13.20
  -7 -14  -3   80.39   18.00
  -7  14   3   88.59   36.50
  -7  14  -3   89.89   38.70
   7 -14  -3  103.49   21.80
  -8  14   0   -1.50   26.90
   8 -14   0   -4.80    8.60
  -8  14   0    2.70   13.00
   8 -14   1  230.38   28.30
  -8  14   1  135.89   30.50
  -8  14   1  128.79   43.20
  -8  14  -1  198.48   30.20
   8 -14  -1  132.09   24.50
  -8  14  -1   94.59   39.80
   8 -14   2   -2.50   11.10
  -8 -14  -2   -6.10    8.60
  -8  14   2   51.99   33.10
  -8  14  -2   36.20   32.20
   8 -14  -2    2.90   12.80
  -8  14  -2    9.80   13.10
  -8  14   3   97.29   39.20
  -8 -14  -3  100.99   20.30
   8 -14  -3  104.79   23.80
  -8  14  -3  124.79   41.50
  -9  14   0   25.30   17.30
   9 -14   0   25.50   12.50
  -9  14   0   23.30   31.70
  -9  14   1  -18.40   14.10
  -9  14   1  -55.49   23.40
   9 -14   1   16.80   12.40
  -9  14  -1   25.50   15.60
  -9  14  -1    0.40   34.00
   9 -14  -1    6.70   10.30
   9 -14   2    7.00   14.30
  -9  14   2   29.40   33.70
  -9 -14  -2   24.30   11.00
  -9  14  -2  -34.30   32.50
  -9  14  -2   37.40   16.50
   9 -14  -2    6.70   12.60
 -10  14   0   22.00   16.20
 -10  14   0   22.50   29.10
  10 -14   0   24.80   12.20
  10 -14   1  -14.10    9.80
 -10  14   1   -8.10   17.50
 -10  14   1  -13.30   25.80
 -10  14  -1   44.80   34.50
 -10  14  -1   -5.20   12.70
  10 -14  -1    7.80   12.50
 -10  14   2   24.60   35.90
  10 -14   2   24.60   16.20
 -10 -14  -2   40.40   13.90
 -10  14  -2   51.89   16.90
 -10  14  -2   64.39   35.70
  10 -14  -2   44.50   14.40
 -11  14   0   98.49   40.60
  11 -14   0   53.19   17.40
 -11  14   0  140.19   26.30
 -11  14   1   75.89   24.90
  11 -14   1   65.09   18.60
 -11  14   1   96.39   36.50
  11 -14  -1   43.50   17.60
 -11  14  -1   77.49   21.40
 -11  14  -1    9.70   32.30
   0  15   0  -21.40   23.20
   0 -15   0   12.30    7.50
   0 -15  -1   -3.40    8.00
   0  15  -1   -4.10   19.70
   0  15   1   17.50   24.70
   0 -15  -2    4.10    9.80
   0  15  -2   -2.30   16.70
   0  15   2  -22.60   19.60
   0  15  -3   14.50   20.90
   0  15   3  -13.60   19.70
   0 -15  -3    5.20   11.10
  -1  15   0   28.10   27.00
  -1 -15   0   -3.20    6.60
   1 -15   0   10.90    8.20
   1  15   0   24.30   24.90
   1  15  -1   35.40   25.90
  -1  15   1   60.39   28.00
  -1 -15  -1   11.30    9.60
   1 -15  -1    7.00    8.10
  -1  15  -1   27.00   26.50
   1  15   1   64.59   25.70
  -1  15   2  -16.90   22.70
   1  15  -2   21.50   20.30
  -1 -15  -2   -8.90    8.20
  -1  15  -2   15.60   19.90
   1  15   2    4.90   21.00
   1 -15  -2   12.40    9.40
  -1 -15  -3   22.40   11.20
   1  15  -3  -18.30   14.80
  -1  15   3   36.30   25.10
   1  15   3   37.60   22.80
   1 -15  -3    2.50   11.90
  -1  15  -3   19.40   21.80
  -2  15   0   97.89   38.00
   2 -15   0  127.19   20.70
  -2 -15   0  171.68   21.40
   2  15   0  171.98   37.70
   2  15  -1  -21.80   20.40
  -2 -15  -1   -0.70    7.50
  -2  15   1   12.10   25.00
   2 -15   1   -8.10    6.10
  -2  15  -1    9.00   26.80
   2  15   1   17.60   21.40
   2 -15  -1   -9.20    7.00
   2  15  -2   75.99   25.60
  -2 -15  -2  120.69   21.30
  -2  15   2  141.39   37.60
   2  15   2  172.98   32.60
  -2  15  -2  151.08   33.80
   2 -15  -2  163.08   23.90
   2  15  -3   35.40   20.90
  -2 -15  -3    0.60   10.30
  -2  15   3  -29.70   21.40
   2 -15  -3   17.00   14.20
  -2  15  -3   16.00   21.30
   3 -15   0  437.26   48.00
   3  15   0  511.75   65.39
  -3  15   0  231.48   60.29
  -3 -15  -1   -0.30    7.80
   3  15  -1  -11.30   19.00
   3 -15   1    4.30    7.70
  -3  15   1   27.60   27.90
  -3  15  -1   -4.10   24.30
   3 -15  -1    6.70    9.70
   3  15   1   -8.00   17.90
  -3  15   2  257.27   59.19
  -3 -15  -2  413.86   46.30
   3  15  -2  372.96   54.19
  -3  15  -2  410.26   61.99
   3 -15  -2  374.96   48.20
   3  15  -3    2.40   17.80
  -3  15   3   -7.40   20.70
  -3 -15  -3   -3.60   11.50
   3 -15  -3    0.90   11.20
  -3  15  -3  -16.50   18.00
   4  15   0   49.99   24.60
  -4  15   0   24.20   28.30
   4 -15   0   26.00   10.80
   4 -15   1  262.37   32.50
  -4  15   1  153.18   45.20
  -4 -15  -1  207.78   31.80
   4  15  -1  244.98   44.40
  -4  15  -1  313.77   37.90
   4 -15  -1  267.37   34.20
  -4  15  -1  230.78   50.39
  -4  15   2   60.69   31.20
   4  15  -2   16.20   20.00
  -4 -15  -2   35.10   12.50
   4 -15  -2   43.30   13.30
  -4  15  -2   24.10   28.10
  -4 -15  -3  141.29   25.60
  -4  15   3  133.89   37.90
   4  15  -3  156.18   31.80
   4 -15  -3  163.88   27.50
  -4  15  -3  148.69   36.70
  -5  15   0   -9.20   14.70
   5 -15   0  -14.00    8.30
  -5  15   0   -8.60   25.50
   5  15  -1   -7.30   31.10
  -5  15   1  -25.00   24.70
  -5 -15  -1    8.10    9.10
   5 -15   1   -7.50    8.70
   5 -15  -1   10.60    9.10
  -5  15  -1   -1.90   12.50
  -5  15  -1   -2.20   25.80
  -5  15   2  -10.40   26.90
   5  15  -2   17.30   18.10
  -5 -15  -2   -8.00    9.20
  -5  15  -2  -65.99   24.30
   5 -15  -2   -2.90   11.20
  -5  15   3   21.40   31.30
  -5 -15  -3   -6.40   11.30
   5  15  -3   18.10   17.60
   5 -15  -3   12.60   13.70
  -5  15  -3  -13.00   26.40
   6 -15   0   -7.40    8.50
  -6  15   0   55.99   32.20
  -6  15   0    5.20   14.80
  -6  15   1   -4.30   29.70
  -6 -15  -1   17.50    9.80
   6 -15   1   20.40   10.90
  -6  15  -1   45.70   32.20
   6 -15  -1   20.50   11.00
  -6  15  -1   43.10   16.70
  -6 -15  -2   -7.20    9.50
   6 -15   2   13.20   10.50
  -6  15   2  -14.50   28.60
  -6  15  -2   -7.30   11.10
  -6  15  -2   32.10   33.50
   6 -15  -2   -9.20   11.20
  -6 -15  -3   39.00   13.80
  -6  15   3  -46.40   22.80
   6  15  -3    2.70   16.80
  -6  15  -3   -1.10   32.20
   6 -15  -3    1.40   13.20
  -7  15   0   -3.20   29.30
   7 -15   0   24.70   10.50
  -7  15   0   12.90   15.10
   7 -15   1   15.60   10.50
  -7  15   1   17.40   32.10
  -7  15  -1  -46.80   30.80
   7 -15  -1   12.20   10.60
  -7  15  -1    9.70   14.10
   7 -15   2   12.70   13.10
  -7 -15  -2   35.70   12.40
  -7  15   2   31.00   36.70
  -7  15  -2    5.10   14.80
   7 -15  -2    3.80   11.60
  -7  15  -2   42.20   33.00
   8 -15   0   55.09   15.30
  -8  15   0   36.90   19.50
  -8  15   0   33.40   31.20
  -8  15   1   55.39   36.40
   8 -15   1   88.99   17.60
   8 -15  -1   77.19   18.20
  -8  15  -1   49.00   38.50
  -8  15  -1   90.69   20.30
  -8  15   2   79.19   36.20
  -8 -15  -2   42.80   13.10
   8 -15   2   25.60   14.50
  -8  15  -2   54.29   18.10
   8 -15  -2   23.90   15.20
  -8  15  -2    8.50   34.10
   9 -15   0  187.88   28.00
  -9  15   0  180.58   32.40
  -9  15   0  164.08   48.50
  -9  15   1   78.49   22.70
  -9  15   1  188.48   44.70
   9 -15   1    0.70   11.40
   9 -15  -1   35.00   13.10
  -9  15  -1   -9.90   13.70
  -9  15  -1  -61.29   27.20
  -9 -15  -2  182.98   26.80
  -9  15   2  134.69   47.30
  -9  15  -2  128.39   28.00
   9 -15  -2  201.88   29.40
  -9  15  -2  157.78   47.80
 -10  15   0  415.76   57.49
  10 -15   0  433.56   53.49
 -10  15   0  305.77   68.19
  10 -15   1   23.30   12.80
 -10  15   1   38.40   21.90
 -10  15   1   85.69   41.30
 -10  15  -1   -2.30   14.90
  10 -15  -1   15.00   13.20
 -10  15  -1   62.89   35.00
   0  16   0   10.80   28.20
   0 -16   0    7.00    8.30
   0  16  -1 1246.78  154.18
   0 -16  -1 1324.57  143.49
   0  16   1 1397.16  154.88
   0  16  -2   40.80   25.50
   0 -16  -2   20.00   11.90
   0  16   2   16.80   26.20
   0  16  -3 1138.49  127.39
   0 -16  -3 1031.30  118.59
   0  16   3 1051.59  126.39
   1 -16   0  162.58   21.30
  -1 -16   0  118.99   19.70
  -1  16   0  144.99   40.30
   1  16   0  140.09   38.00
  -1 -16  -1  113.09   19.00
   1  16  -1  105.29   33.70
  -1  16   1   93.09   33.90
   1 -16  -1   94.29   18.30
   1  16   1  212.68   39.30
  -1  16  -1  161.08   36.50
  -1 -16  -2   94.59   18.20
  -1  16   2   77.39   32.40
   1  16  -2   99.59   29.00
   1 -16  -2  119.59   20.00
  -1  16  -2   60.99   28.20
   1  16   2   89.79   30.60
   1  16  -3   73.69   26.70
  -1 -16  -3   94.79   19.00
  -1  16   3   73.29   28.20
   1 -16  -3  104.29   21.00
  -1  16  -3   50.69   25.10
  -2  16   0   12.30   29.10
   2 -16   0   15.30    8.50
   2  16   0   16.20   26.20
   2  16  -1   -2.10   20.00
  -2  16   1   46.20   29.20
  -2 -16  -1   15.70   10.40
   2 -16  -1    4.20    9.80
  -2  16  -1   30.10   25.50
   2  16   1   -9.40   22.30
   2  16  -2    0.10   17.90
  -2  16   2   19.50   29.10
  -2 -16  -2   37.30   12.60
   2 -16  -2   28.80   13.30
  -2  16  -2   49.60   28.50
  -2 -16  -3   -7.50   12.30
   2  16  -3  -23.20   17.80
  -2  16   3   54.39   29.50
   2 -16  -3    3.90   12.30
  -2  16  -3    3.60   20.70
   3  16   0   -5.90   24.50
  -3  16   0   15.20   26.40
   3 -16   0   15.00    9.40
  -3 -16  -1   22.30   10.50
  -3  16   1  -34.10   25.30
   3  16  -1   26.70   24.40
   3 -16   1   16.10    8.70
  -3  16  -1   19.80   27.50
   3 -16  -1    3.70    9.00
   3  16  -2   28.40   18.70
  -3 -16  -2    3.30   10.70
  -3  16   2   17.50   27.50
  -3  16  -2   -1.30   25.40
   3 -16  -2   16.10   11.70
  -3  16   3   22.70   25.40
   3  16  -3   -8.60   18.30
  -3 -16  -3    2.30   10.70
  -3  16  -3   -3.20   24.40
   3 -16  -3    8.20   13.60
  -4  16   0  -15.70   28.70
   4 -16   0    4.10    8.10
   4 -16   1   26.80   10.80
  -4  16   1   10.80   30.80
   4  16  -1   -5.00   22.80
  -4 -16  -1   30.00   11.20
  -4  16  -1   74.79   34.10
   4 -16  -1    9.00   10.00
  -4  16  -1   34.40   16.50
   4  16  -2    3.80   18.80
  -4  16   2   13.50   32.30
  -4 -16  -2   -4.90    9.70
   4 -16  -2   -6.90    9.70
  -4  16  -2   40.50   31.20
  -4  16   3   11.20   26.20
   4  16  -3   24.70   20.60
  -4 -16  -3    8.00   12.30
  -4  16  -3   31.80   27.10
   4 -16  -3    3.70   12.50
   5 -16   0   81.09   16.20
  -5  16   0  122.29   40.80
   5 -16   1   39.60   11.90
  -5  16   1   25.50   31.30
  -5  16  -1   48.50   16.60
   5 -16  -1   19.50   12.70
  -5  16  -1   16.40   29.40
   5  16  -2   49.60   22.90
  -5 -16  -2   91.19   15.80
  -5  16   2  106.19   37.30
  -5  16  -2   11.20   28.70
   5 -16  -2   38.60   16.20
  -5 -16  -3   40.40   14.70
  -5  16   3   20.80   28.50
   5  16  -3   21.60   20.30
  -5  16  -3   89.99   37.60
   5 -16  -3   20.80   14.90
  -6  16   0  203.78   34.70
  -6  16   0  162.98   48.10
   6 -16   0  212.58   29.20
   6 -16   1  335.27   46.00
  -6  16   1  300.27   65.99
  -6  16  -1  387.66   70.09
   6 -16  -1  384.26   47.80
  -6  16  -1  429.66   52.69
  -6 -16  -2  156.08   25.50
  -6  16   2   71.49   40.60
   6 -16  -2  218.28   28.90
  -6  16  -2  210.48   47.40
   7 -16   0   65.49   16.40
  -7  16   0  111.99   24.20
  -7  16   0   30.50   35.30
   7 -16   1   65.19   15.00
  -7  16   1   58.69   38.40
   7 -16  -1   71.49   15.50
  -7  16  -1   47.90   40.80
  -7  16  -1   41.70   17.30
  -7  16   2   90.49   40.20
  -7 -16  -2   84.39   17.20
  -7  16  -2   30.10   36.40
   7 -16  -2   61.49   17.00
  -8  16   0   -9.80   30.00
   8 -16   0    4.40    9.70
  -8  16   0    9.80   16.00
  -8  16   1    0.10   28.50
   8 -16   1   26.80   12.30
  -8  16  -1  -33.30   28.80
  -8  16  -1   31.60   17.00
   8 -16  -1   18.10   12.40
  -9  16   0   56.69   22.60
   9 -16   0   64.89   16.50
  -9  16   0   30.00   36.20
   9 -16   1   -3.40   10.90
  -9  16   1   23.80   39.10
  -9  16  -1  -18.00   29.50
  -9  16  -1    0.40   16.20
   9 -16  -1  -13.90    9.90
   0 -17   0   -1.90    9.20
   0  17   0  -56.29   21.70
   0  17  -1    6.00   21.90
   0  17   1   18.90   27.00
   0 -17  -1    0.50    9.00
   0 -17  -2   -3.20   10.20
   0  17  -2   -1.80   24.30
   0  17   2    6.40   24.70
   0 -17  -3   -1.80   11.70
   0  17  -3    8.00   21.60
   1 -17   0  152.98   21.80
   1  17   0  108.09   36.40
  -1  17   0  121.29   40.00
   1  17  -1   -7.90   20.80
  -1  17   1    2.10   27.50
  -1 -17  -1    6.70    8.50
   1 -17  -1   -4.00    9.70
   1  17   1  -37.20   22.10
  -1  17  -1   35.90   25.80
  -1  17   2  122.89   38.50
   1  17  -2   83.69   32.40
  -1 -17  -2   85.49   19.80
   1 -17  -2  125.29   21.50
   1  17   2  129.19   34.20
  -1  17  -2  131.19   40.40
   1  17  -3   10.90   21.80
  -1 -17  -3  -14.90   10.00
   1 -17  -3   17.40   13.40
  -1  17  -3   -5.70   22.30
   2  17   0   14.50   26.10
   2 -17   0   -7.30    7.60
  -2  17   0   24.70   30.20
   2  17  -1   -6.40   24.20
  -2  17   1   35.40   29.00
  -2 -17  -1   10.70    9.40
   2 -17  -1    7.80    9.50
   2  17   1   26.60   25.60
  -2  17  -1   -5.00   28.20
  -2  17   2    1.20   28.50
   2  17  -2   21.40   24.50
  -2 -17  -2    9.30   11.00
   2 -17  -2  -12.70    8.60
  -2  17  -2   32.60   28.80
  -3  17   0    2.70   28.20
   3 -17   0    8.60    9.30
   3  17   0  -33.80   24.40
  -3  17   1   24.60   32.20
  -3 -17  -1   28.00   10.80
   3  17  -1   62.09   27.60
  -3  17  -1  106.79   37.70
   3 -17  -1   15.90   11.10
  -3 -17  -2    3.80   10.70
  -3  17   2   10.40   32.40
   3  17  -2   32.60   22.90
   3 -17  -2   -1.90   12.00
  -3  17  -2    3.10   26.60
  -4  17   0   76.29   33.70
   4 -17   0   85.69   17.00
  -4  17   1  167.08   47.80
  -4  17  -1  269.97   51.29
   4 -17  -1  167.48   26.50
  -4  17   2  -15.40   29.70
   4  17  -2   89.89   28.30
  -4 -17  -2   85.49   16.60
   4 -17  -2   47.80   15.30
  -4  17  -2   68.39   38.20
   5 -17   0  159.48   24.80
  -5  17   0  195.58   46.00
  -5  17   1   16.30   31.90
   5 -17   1  -13.50    8.30
  -5  17  -1  -11.90   14.20
  -5  17  -1   -6.10   34.80
   5 -17  -1   10.10   10.90
  -5 -17  -2  156.68   24.20
  -5  17   2  141.99   47.30
   5 -17  -2  153.58   25.90
  -5  17  -2   87.89   38.40
   6 -17   0   -9.90    9.10
  -6  17   0  -11.30   29.00
  -6  17   1   42.80   38.10
   6 -17   1   32.50   12.10
   6 -17  -1    7.60   12.70
  -6  17  -1   34.10   18.70
  -6  17  -1   13.60   37.70
  -6 -17  -2    1.70   10.60
  -6  17   2  -40.50   32.60
  -6  17  -2  -22.00   32.00
   6 -17  -2    1.20   11.40
   7 -17   0  122.59   20.80
  -7  17   0   57.39   35.70
  -7  17   1   44.60   33.80
   7 -17   1   15.90   10.70
  -7  17  -1   58.49   38.00
   7 -17  -1   25.10   13.40
  -7  17  -1   32.90   16.60
   8 -17   0  103.89   20.40
  -8  17   0  127.19   29.00
  -8  17   0   62.39   43.00
   0  18   0   20.30   26.40
   0  18  -1   -7.40   25.70
   0  18   1   43.10   29.10
   0 -18  -1    7.40   10.40
   0  18   2   35.50   30.40
   0  18  -2  -38.20   26.80
   0 -18  -2    5.60   11.70
   1  18   0   63.19   34.50
  -1  18   0  149.69   41.70
  -1 -18  -1   74.49   14.60
   1  18  -1   45.00   28.50
  -1  18   1   59.89   31.00
  -1  18  -1   81.89   33.40
   1  18   1   62.69   31.10
   1 -18  -1   43.20   13.00
  -1 -18  -2   52.49   14.30
   1  18  -2   73.99   33.40
  -1  18   2   61.59   32.60
  -1  18  -2   38.60   32.50
   1 -18  -2   77.69   16.40
   2 -18   0   54.49   12.70
  -2  18   0   28.70   32.40
   2  18   0   32.40   29.80
   2  18  -1   79.59   32.70
  -2  18   1   79.89   35.00
  -2 -18  -1   41.60   13.00
   2 -18  -1   39.10   12.60
  -2  18  -1   75.89   34.80
  -2 -18  -2   41.50   13.80
  -2  18   2    0.00   28.70
   2  18  -2   50.59   31.30
  -2  18  -2   53.59   33.80
   2 -18  -2   26.30   12.60
  -3  18   0   14.80   30.00
   3 -18   0   17.60   10.30
  -3  18   1   10.90   29.90
   3  18  -1   19.00   27.70
   3 -18  -1   23.20   10.90
  -3  18  -1  -36.30   24.90
  -3 -18  -2   13.30   11.50
   3  18  -2    1.10   26.40
  -3  18   2   -6.60   27.30
  -3  18  -2   68.19   32.30
   3 -18  -2   -4.40   12.30
  -4  18   0    5.00   27.20
   4 -18   0   18.60   11.30
  -4  18   1   51.89   36.10
   4 -18  -1  129.69   21.80
  -4  18  -1  219.78   50.49
   5 -18   0   86.29   17.60
  -5  18   0  136.89   43.60
  -5  18   1   69.19   36.20
  -5  18  -1  102.69   43.90
   5 -18  -1   87.49   17.30
  -6  18   0  151.98   46.40
   6 -18   0  110.39   19.80
   0  19   0  -15.50   25.70
   0 -19  -1   -1.40    9.70
   0  19  -1   54.99   31.90
   0  19   1    8.20   31.20
   1  19   0   -3.30   25.50
  -1  19   0    5.40   28.70
  -1  19   1  -16.90   28.80
   1  19  -1   28.20   28.00
  -1 -19  -1    7.50   11.40
   1  19   1  -19.40   28.50
   1 -19  -1   -0.40    8.10
  -1  19  -1   -1.20   30.90
   2  19   0  367.46   83.19
  -2  19   0  260.87   55.49
  -2  19   1   -9.10   30.80
   2  19  -1    8.90   29.10
  -2  19  -1   49.20   31.50
   2 -19  -1   21.60   12.80
   3 -19   0   84.29   16.60
  -3  19   0   79.99   35.90
   0   0   0    0.00    0.00

_computing_structure_solution     'SHELXT 2018/2 (Sheldrick, 2018)'
;
_shelx_hkl_checksum              45805
loop_
_space_group_symop_operation_xyz
'x, y, z'
'-x, -y, z'
'-x+1/2, y+1/2, -z'
'x+1/2, -y+1/2, -z'
'-x, -y, -z'
'x, y, -z'
'x-1/2, -y-1/2, z'
'-x-1/2, y-1/2, z'
loop_
_atom_site_label
_atom_site_type_symbol
_atom_site_fract_x
_atom_site_fract_y
_atom_site_fract_z
_atom_site_U_iso_or_equiv
_atom_site_adp_type
_atom_site_occupancy
_atom_site_site_symmetry_order
_atom_site_calc_flag
_atom_site_refinement_flags_posn
_atom_site_refinement_flags_adp
_atom_site_refinement_flags_occupancy
_atom_site_disorder_assembly
_atom_site_disorder_group
Sr3 Sr 0.000000 0.000000 0.000000 0.0133(3) Uani 1 4 d S T P . .
Sr2 Sr 0.32405(10) 0.01403(9) 0.000000 0.0139(3) Uani 1 2 d S T P . .
Sr1 Sr 0.08630(10) 0.25347(9) 0.000000 0.0132(3) Uani 1 2 d S T P . .
In In 0.32850(7) 0.21500(6) 0.500000 0.0134(2) Uani 1 2 d S T P . .
As3 As 0.33777(12) 0.32215(9) 0.000000 0.0130(3) Uani 1 2 d S T P . .
As2 As 0.15440(10) 0.09903(9) 0.500000 0.0125(3) Uani 1 2 d S T P . .
As1 As 0.01896(10) 0.41124(9) 0.500000 0.0130(3) Uani 1 2 d S T P . .
loop_
_atom_site_aniso_label
_atom_site_aniso_U_11
_atom_site_aniso_U_22
_atom_site_aniso_U_33
_atom_site_aniso_U_23
_atom_site_aniso_U_13
_atom_site_aniso_U_12
In 0.0127(4) 0.0157(4) 0.0119(4) 0.000 0.000 -0.0015(4)
Sr1 0.0115(6) 0.0145(6) 0.0137(5) 0.000 0.000 -0.0002(4)
Sr3 0.0110(8) 0.0130(8) 0.0160(8) 0.000 0.000 0.0000(6)
Sr2 0.0129(6) 0.0173(6) 0.0115(5) 0.000 0.000 0.0020(5)
As2 0.0121(7) 0.0149(6) 0.0106(6) 0.000 0.000 -0.0012(5)
As1 0.0124(7) 0.0129(6) 0.0137(6) 0.000 0.000 -0.0008(5)
As3 0.0119(7) 0.0134(6) 0.0137(6) 0.000 0.000 0.0003(5)
loop_
_atom_type_symbol
_atom_type_description
_atom_type_scat_dispersion_real
_atom_type_scat_dispersion_imag
_atom_type_scat_source
As As 0.0499 2.0058 'International Tables Vol C Tables 4.2.6.8 and 6.1.1.4'
In In -0.7276 1.3100 'International Tables Vol C Tables 4.2.6.8 and 6.1.1.4'
Sr Sr -1.5307 3.2498 'International Tables Vol C Tables 4.2.6.8 and 6.1.1.4'
loop_
_geom_angle_atom_site_label_1
_geom_angle_atom_site_label_2
_geom_angle_atom_site_label_3
_geom_angle
_geom_angle_site_symmetry_1
_geom_angle_site_symmetry_3
Sr1 In Sr1 106.543(15) . 7_665
Sr1 In Sr1 69.90(3) 7_666 7_665
Sr1 In Sr1 72.93(3) 1_556 .
Sr1 In Sr1 164.94(3) . 7_666
Sr1 In Sr1 164.94(3) 1_556 7_665
Sr1 In Sr1 106.542(15) 1_556 7_666
Sr2 In Sr1 117.11(3) . 7_666
Sr2 In Sr1 117.96(4) . 1_556
Sr2 In Sr1 75.51(3) 1_556 7_666
Sr2 In Sr1 75.51(3) . 7_665
Sr2 In Sr1 74.72(3) . .
Sr2 In Sr1 117.11(3) 1_556 7_665
Sr2 In Sr1 117.96(4) 1_556 .
Sr2 In Sr1 74.72(3) 1_556 1_556
Sr2 In Sr2 76.06(3) 1_556 .
As2 In Sr1 57.48(3) . .
As2 In Sr1 135.47(3) . 7_665
As2 In Sr1 57.48(3) . 1_556
As2 In Sr1 135.47(3) . 7_666
As2 In Sr2 60.47(3) . 1_556
As2 In Sr2 60.47(3) . .
As2 In As1 104.87(5) . 7_665
As2 In As3 112.14(4) . 1_556
As2 In As3 112.14(4) . .
As1 In Sr1 135.73(3) 7_665 1_556
As1 In Sr1 54.97(3) 7_665 7_666
As1 In Sr1 135.73(3) 7_665 .
As1 In Sr1 54.97(3) 7_665 7_665
As1 In Sr2 62.13(3) 7_665 1_556
As1 In Sr2 62.13(3) 7_665 .
As3 In Sr1 116.24(4) . 1_556
As3 In Sr1 57.37(4) 1_556 1_556
As3 In Sr1 111.97(4) . 7_666
As3 In Sr1 111.97(4) 1_556 7_665
As3 In Sr1 55.13(4) . 7_665
As3 In Sr1 116.24(4) 1_556 .
As3 In Sr1 55.13(4) 1_556 7_666
As3 In Sr1 57.37(4) . .
As3 In Sr2 86.28(3) . .
As3 In Sr2 162.25(3) 1_556 .
As3 In Sr2 86.28(3) 1_556 1_556
As3 In Sr2 162.25(3) . 1_556
As3 In As1 108.01(4) . 7_665
As3 In As1 108.01(4) 1_556 7_665
As3 In As3 111.30(6) . 1_556
In Sr1 In 177.56(3) 1_554 7_565
In Sr1 In 108.551(15) 1_554 7_564
In Sr1 In 69.90(3) 7_564 7_565
In Sr1 In 72.93(3) . 1_554
In Sr1 In 108.551(14) . 7_565
In Sr1 In 177.56(3) . 7_564
In Sr1 Sr2 85.07(3) 1_554 3
In Sr1 Sr2 85.07(3) . 3
Sr3 Sr1 In 94.80(3) . 1_554
Sr3 Sr1 In 94.80(3) . .
Sr3 Sr1 In 83.18(3) . 7_565
Sr3 Sr1 In 83.18(3) . 7_564
Sr3 Sr1 Sr2 179.83(4) . 3
Sr2 Sr1 In 96.96(3) 3 7_564
Sr2 Sr1 In 96.96(3) 3 7_565
As2 Sr1 In 133.00(4) 1_554 7_565
As2 Sr1 In 96.15(4) . 1_554
As2 Sr1 In 96.15(4) 1_554 .
As2 Sr1 In 44.59(3) 1_554 1_554
As2 Sr1 In 83.82(3) 1_554 7_564
As2 Sr1 In 83.82(3) . 7_565
As2 Sr1 In 133.00(4) . 7_564
As2 Sr1 In 44.59(3) . .
As2 Sr1 Sr3 54.78(3) 1_554 .
As2 Sr1 Sr3 54.78(3) . .
As2 Sr1 Sr2 125.14(3) . 3
As2 Sr1 Sr2 125.14(3) 1_554 3
As2 Sr1 As2 87.14(5) . 1_554
As2 Sr1 As1 93.35(3) . .
As2 Sr1 As1 93.35(3) 1_554 1_554
As2 Sr1 As1 179.33(5) 1_554 .
As2 Sr1 As1 179.33(5) . 1_554
As1 Sr1 In 47.54(3) . 7_565
As1 Sr1 In 96.17(4) . 7_564
As1 Sr1 In 96.17(4) 1_554 7_565
As1 Sr1 In 83.90(3) . .
As1 Sr1 In 83.90(3) 1_554 1_554
As1 Sr1 In 47.54(3) 1_554 7_564
As1 Sr1 In 134.87(5) 1_554 .
As1 Sr1 In 134.87(5) . 1_554
As1 Sr1 Sr3 125.89(3) . .
As1 Sr1 Sr3 125.89(3) 1_554 .
As1 Sr1 Sr2 54.20(3) . 3
As1 Sr1 Sr2 54.20(3) 1_554 3
As1 Sr1 As1 86.15(4) 1_554 .
As3 Sr1 In 137.66(3) . 7_565
As3 Sr1 In 134.24(3) 7_565 1_554
As3 Sr1 In 44.74(2) . .
As3 Sr1 In 134.24(3) 7_565 .
As3 Sr1 In 137.66(3) . 7_564
As3 Sr1 In 44.74(2) . 1_554
As3 Sr1 In 43.34(2) 7_565 7_564
As3 Sr1 In 43.34(2) 7_565 7_565
As3 Sr1 Sr3 54.21(3) 7_565 .
As3 Sr1 Sr3 123.93(4) . .
As3 Sr1 Sr2 125.96(5) 7_565 3
As3 Sr1 Sr2 55.90(3) . 3
As3 Sr1 As2 91.05(4) 7_565 1_554
As3 Sr1 As2 87.60(4) . .
As3 Sr1 As2 87.60(4) . 1_554
As3 Sr1 As2 91.05(4) 7_565 .
As3 Sr1 As1 91.97(4) . 1_554
As3 Sr1 As1 89.39(4) 7_565 1_554
As3 Sr1 As1 91.97(4) . .
As3 Sr1 As1 89.39(4) 7_565 .
As3 Sr1 As3 178.14(5) 7_565 .
Sr1 Sr3 Sr1 180.0 . 5
Sr1 Sr3 Sr3 90.0 5 1_556
Sr1 Sr3 Sr3 90.0 . 1_556
Sr1 Sr3 Sr3 90.0 . 1_554
Sr1 Sr3 Sr3 90.0 5 1_554
Sr1 Sr3 Sr2 70.74(3) . .
Sr1 Sr3 Sr2 70.74(3) 5 5
Sr1 Sr3 Sr2 109.26(3) 5 .
Sr1 Sr3 Sr2 109.26(3) . 5
Sr3 Sr3 Sr3 180.0 1_554 1_556
Sr2 Sr3 Sr3 90.0 5 1_554
Sr2 Sr3 Sr3 90.0 . 1_556
Sr2 Sr3 Sr3 90.0 5 1_556
Sr2 Sr3 Sr3 90.0 . 1_554
Sr2 Sr3 Sr2 180.0 . 5
As2 Sr3 Sr1 125.45(2) 1_554 5
As2 Sr3 Sr1 54.55(2) 5 5
As2 Sr3 Sr1 125.45(2) . 5
As2 Sr3 Sr1 54.55(2) 1_554 .
As2 Sr3 Sr1 54.55(2) 5_556 5
As2 Sr3 Sr1 125.45(2) 5 .
As2 Sr3 Sr1 54.55(2) . .
As2 Sr3 Sr1 125.45(2) 5_556 .
As2 Sr3 Sr3 133.421(17) . 1_554
As2 Sr3 Sr3 133.421(17) 5_556 1_554
As2 Sr3 Sr3 133.421(16) 5 1_556
As2 Sr3 Sr3 46.579(17) . 1_556
As2 Sr3 Sr3 46.579(17) 1_554 1_554
As2 Sr3 Sr3 133.421(17) 1_554 1_556
As2 Sr3 Sr3 46.579(17) 5_556 1_556
As2 Sr3 Sr3 46.579(17) 5 1_554
As2 Sr3 Sr2 52.84(2) . .
As2 Sr3 Sr2 127.17(2) 5 .
As2 Sr3 Sr2 52.83(2) 5 5
As2 Sr3 Sr2 52.83(2) 1_554 .
As2 Sr3 Sr2 127.17(2) 5_556 .
As2 Sr3 Sr2 52.83(2) 5_556 5
As2 Sr3 Sr2 127.16(2) . 5
As2 Sr3 Sr2 127.17(2) 1_554 5
As2 Sr3 As2 180.0 . 5
As2 Sr3 As2 86.84(3) 5 5_556
As2 Sr3 As2 86.84(3) . 1_554
As2 Sr3 As2 180.00(5) 5_556 1_554
As2 Sr3 As2 93.16(3) 5 1_554
As2 Sr3 As2 93.16(3) . 5_556
As3 Sr3 Sr1 54.63(3) 3_545 5
As3 Sr3 Sr1 54.63(3) 7_565 .
As3 Sr3 Sr1 125.37(3) 7_565 5
As3 Sr3 Sr1 125.37(3) 3_545 .
As3 Sr3 Sr3 90.0 3_545 1_556
As3 Sr3 Sr3 90.0 7_565 1_554
As3 Sr3 Sr3 90.0 7_565 1_556
As3 Sr3 Sr3 90.0 3_545 1_554
As3 Sr3 Sr2 125.37(3) 7_565 .
As3 Sr3 Sr2 54.63(3) 7_565 5
As3 Sr3 Sr2 125.37(3) 3_545 5
As3 Sr3 Sr2 54.63(3) 3_545 .
As3 Sr3 As2 91.20(3) 7_565 .
As3 Sr3 As2 91.20(3) 3_545 5
As3 Sr3 As2 91.20(3) 7_565 1_554
As3 Sr3 As2 88.80(3) 7_565 5
As3 Sr3 As2 88.80(3) 7_565 5_556
As3 Sr3 As2 88.80(3) 3_545 1_554
As3 Sr3 As2 88.80(3) 3_545 .
As3 Sr3 As2 91.20(3) 3_545 5_556
As3 Sr3 As3 180.00(4) 7_565 3_545
In Sr2 In 76.06(3) 1_554 .
In Sr2 Sr1 138.64(2) . 3_545
In Sr2 Sr1 138.64(2) 1_554 3_545
In Sr2 Sr3 93.12(3) . .
In Sr2 Sr3 93.12(3) 1_554 .
In Sr2 Sr2 93.29(4) . 5_655
In Sr2 Sr2 93.29(4) 1_554 5_655
Sr1 Sr2 Sr3 103.69(3) 3_545 .
Sr1 Sr2 Sr2 68.17(4) 3_545 5_655
Sr3 Sr2 Sr2 171.86(5) . 5_655
As2 Sr2 In 97.99(4) . 1_554
As2 Sr2 In 97.99(4) 1_554 .
As2 Sr2 In 45.64(3) . .
As2 Sr2 In 45.64(3) 1_554 1_554
As2 Sr2 Sr1 122.22(3) . 3_545
As2 Sr2 Sr1 122.22(3) 1_554 3_545
As2 Sr2 Sr3 52.06(3) . .
As2 Sr2 Sr3 52.06(3) 1_554 .
As2 Sr2 Sr2 131.70(3) 1_554 5_655
As2 Sr2 Sr2 131.70(3) . 5_655
As2 Sr2 As2 85.72(4) 1_554 .
As2 Sr2 As1 83.44(3) . 7_665
As2 Sr2 As1 174.83(5) 1_554 3_546
As2 Sr2 As1 94.17(3) . 3_546
As2 Sr2 As1 94.17(3) 1_554 3_545
As2 Sr2 As1 140.26(5) . 7_664
As2 Sr2 As1 83.44(3) 1_554 7_664
As2 Sr2 As1 140.26(5) 1_554 7_665
As2 Sr2 As1 174.83(5) . 3_545
As2 Sr2 As3 85.63(4) . 3_545
As2 Sr2 As3 85.63(4) 1_554 3_545
As1 Sr2 In 85.56(3) 3_545 1_554
As1 Sr2 In 139.34(5) 3_545 .
As1 Sr2 In 98.42(4) 7_664 .
As1 Sr2 In 49.20(3) 7_665 .
As1 Sr2 In 85.56(3) 3_546 .
As1 Sr2 In 98.42(4) 7_665 1_554
As1 Sr2 In 49.20(3) 7_664 1_554
As1 Sr2 In 139.34(5) 3_546 1_554
As1 Sr2 Sr1 95.60(4) 7_665 3_545
As1 Sr2 Sr1 53.70(3) 3_545 3_545
As1 Sr2 Sr1 53.70(3) 3_546 3_545
As1 Sr2 Sr1 95.60(4) 7_664 3_545
As1 Sr2 Sr3 135.22(3) 7_664 .
As1 Sr2 Sr3 135.22(3) 7_665 .
As1 Sr2 Sr3 124.23(3) 3_545 .
As1 Sr2 Sr3 124.23(3) 3_546 .
As1 Sr2 Sr2 48.40(3) 7_664 5_655
As1 Sr2 Sr2 51.41(3) 3_545 5_655
As1 Sr2 Sr2 48.40(3) 7_665 5_655
As1 Sr2 Sr2 51.41(3) 3_546 5_655
As1 Sr2 As1 44.71(4) 3_545 7_664
As1 Sr2 As1 99.81(4) 3_546 7_664
As1 Sr2 As1 99.81(4) 3_545 7_665
As1 Sr2 As1 44.71(4) 3_546 7_665
As1 Sr2 As1 80.96(4) 7_665 7_664
As1 Sr2 As1 85.46(4) 3_546 3_545
As1 Sr2 As3 89.20(4) 3_546 3_545
As1 Sr2 As3 89.20(4) 3_545 3_545
As3 Sr2 In 130.20(3) 3_545 1_554
As3 Sr2 In 130.20(3) 3_545 .
As3 Sr2 Sr1 52.63(4) 3_545 3_545
As3 Sr2 Sr3 51.06(3) 3_545 .
As3 Sr2 Sr2 120.80(6) 3_545 5_655
As3 Sr2 As1 131.21(3) 3_545 7_665
As3 Sr2 As1 131.21(3) 3_545 7_664
In As2 Sr1 77.93(4) . .
In As2 Sr1 77.92(4) . 1_556
In As2 Sr3 136.569(17) . .
In As2 Sr3 136.569(17) . 1_556
In As2 Sr2 73.88(4) . 1_556
In As2 Sr2 73.88(4) . .
Sr1 As2 Sr1 87.14(5) . 1_556
Sr1 As2 Sr3 128.06(5) 1_556 .
Sr1 As2 Sr3 70.67(3) 1_556 1_556
Sr1 As2 Sr3 128.06(5) . 1_556
Sr1 As2 Sr3 70.67(3) . .
Sr1 As2 Sr2 86.77(3) 1_556 1_556
Sr1 As2 Sr2 151.81(5) . 1_556
Sr1 As2 Sr2 151.81(5) 1_556 .
Sr1 As2 Sr2 86.77(3) . .
Sr3 As2 Sr3 86.84(3) . 1_556
Sr3 As2 Sr2 132.70(5) . 1_556
Sr3 As2 Sr2 75.11(3) 1_556 1_556
Sr3 As2 Sr2 132.70(5) 1_556 .
Sr3 As2 Sr2 75.11(3) . .
Sr2 As2 Sr2 85.72(4) . 1_556
In As1 Sr1 77.49(4) 7_565 1_556
In As1 Sr1 77.49(4) 7_565 .
In As1 Sr2 137.27(2) 7_565 3
In As1 Sr2 68.67(3) 7_565 7_565
In As1 Sr2 68.67(3) 7_565 7_566
In As1 Sr2 137.27(2) 7_565 3_556
Sr1 As1 Sr1 86.15(4) 1_556 .
Sr1 As1 Sr2 146.15(5) . 7_566
Sr1 As1 Sr2 72.10(3) . 3
Sr1 As1 Sr2 128.28(5) 1_556 3
Sr1 As1 Sr2 86.78(3) 1_556 7_566
Sr1 As1 Sr2 128.28(5) . 3_556
Sr1 As1 Sr2 86.78(3) . 7_565
Sr1 As1 Sr2 72.10(3) 1_556 3_556
Sr1 As1 Sr2 146.15(5) 1_556 7_565
Sr2 As1 Sr2 80.96(4) 7_565 7_566
Sr2 As1 Sr2 80.19(4) 3 7_565
Sr2 As1 Sr2 135.29(4) 3 7_566
Sr2 As1 Sr2 85.46(4) 3_556 3
Sr2 As1 Sr2 135.29(4) 3_556 7_565
Sr2 As1 Sr2 80.19(4) 3_556 7_566
As1 As1 In 117.04(8) 5_566 7_565
As1 As1 Sr1 136.04(3) 5_566 1_556
As1 As1 Sr1 136.04(3) 5_566 .
As1 As1 Sr2 64.56(4) 5_566 7_565
As1 As1 Sr2 64.56(4) 5_566 7_566
As1 As1 Sr2 70.73(5) 5_566 3
As1 As1 Sr2 70.73(5) 5_566 3_556
In As3 In 111.30(6) . 1_554
In As3 Sr1 77.89(4) . .
In As3 Sr1 77.89(4) 1_554 .
In As3 Sr1 81.53(4) . 7_665
In As3 Sr1 81.53(4) 1_554 7_665
In As3 Sr3 117.90(4) . 3
In As3 Sr3 117.90(4) 1_554 3
In As3 Sr2 115.47(4) 1_554 3
In As3 Sr2 115.47(4) . 3
Sr1 As3 Sr1 143.05(4) 7_665 .
Sr1 As3 Sr2 71.47(4) . 3
Sr1 As3 Sr2 145.48(6) 7_665 3
Sr3 As3 Sr1 71.16(4) 3 7_665
Sr3 As3 Sr1 145.78(5) 3 .
Sr3 As3 Sr2 74.31(4) 3 3
loop_
_geom_bond_atom_site_label_1
_geom_bond_atom_site_label_2
_geom_bond_distance
_geom_bond_site_symmetry_2
In Sr1 3.6865(13) 1_556
In Sr1 3.8246(13) 7_665
In Sr1 3.8246(13) 7_666
In Sr1 3.6866(13) .
In Sr2 3.5563(13) .
In Sr2 3.5563(13) 1_556
In As2 2.6468(16) .
In As1 2.8902(16) 7_665
In As3 2.6539(9) .
In As3 2.6539(9) 1_556
Sr1 Sr3 3.6821(14) .
Sr1 Sr2 3.7883(18) 3
Sr1 As2 3.1789(13) .
Sr1 As2 3.1789(13) 1_554
Sr1 As1 3.2082(13) .
Sr1 As1 3.2081(13) 1_554
Sr1 As3 3.1724(19) 7_565
Sr1 As3 3.1752(19) .
Sr3 Sr3 4.3820(8) 1_554
Sr3 Sr3 4.3820(8) 1_556
Sr3 Sr2 3.9063(14) 5
Sr3 Sr2 3.9062(14) .
Sr3 As2 3.1876(10) .
Sr3 As2 3.1876(10) 1_554
Sr3 As2 3.1876(10) 5
Sr3 As2 3.1876(10) 5_556
Sr3 As3 3.1557(14) 7_565
Sr3 As3 3.1557(14) 3_545
Sr2 Sr2 4.255(2) 5_655
Sr2 As2 3.2211(13) .
Sr2 As2 3.2210(13) 1_554
Sr2 As1 3.2288(14) 3_545
Sr2 As1 3.2288(14) 3_546
Sr2 As1 3.3751(14) 7_665
Sr2 As1 3.3751(14) 7_664
Sr2 As3 3.3085(18) 3_545
As1 As1 2.516(3) 5_566
