#------------------------------------------------------------------------------
#$Date: 2021-04-12 12:26:45 +0300 (Mon, 12 Apr 2021) $
#$Revision: 264059 $
#$URL: file:///home/coder/svn-repositories/cod/cif/1/56/16/1561664.cif $
#------------------------------------------------------------------------------
#
# This file is available in the Crystallography Open Database (COD),
# http://www.crystallography.net/
#
# All data on this site have been placed in the public domain by the
# contributors.
#
data_1561664
loop_
_publ_author_name
'Mao, Yuanlv'
'Fang, Yuqiang'
'Pan, Jie'
'Wang, Dong'
'Bu, Kejun'
'Che, Xiangli'
'Zhao, Wei'
'Huang, Fuqiang'
_publ_section_title
;
 Synthesis, crystal structures and physical properties of A(H2O) MoS2
 (A&#x00A0;=&#x00A0;K, Rb, Cs)
;
_journal_name_full               'Journal of Solid State Chemistry'
_journal_page_first              120937
_journal_paper_doi               10.1016/j.jssc.2019.120937
_journal_volume                  279
_journal_year                    2019
_chemical_formula_sum            'Cs0.12 H1.02 Mo O0.51 S2'
_chemical_formula_weight         185.20
_space_group_crystal_system      monoclinic
_space_group_IT_number           11
_space_group_name_Hall           '-P 2yb'
_space_group_name_H-M_alt        'P 1 21/m 1'
_atom_sites_solution_hydrogens   .
_cell_angle_alpha                90
_cell_angle_beta                 99.497(19)
_cell_angle_gamma                90
_cell_formula_units_Z            2
_cell_length_a                   5.7338(17)
_cell_length_b                   3.2511(10)
_cell_length_c                   9.519(7)
_cell_measurement_reflns_used    1955
_cell_measurement_temperature    298(2)
_cell_measurement_theta_max      15
_cell_measurement_theta_min      7
_cell_volume                     175.01(15)
_computing_structure_refinement  'SHELXL-2014/7 (Sheldrick, 2014)'
_diffrn_ambient_temperature      298(2)
_diffrn_measured_fraction_theta_full 0.984
_diffrn_measured_fraction_theta_max 0.984
_diffrn_measurement_device_type  'CCD area detector'
_diffrn_measurement_method       'phi and omega scans'
_diffrn_radiation_type           MoK\a
_diffrn_radiation_wavelength     0.71073
_diffrn_reflns_av_R_equivalents  0.0185
_diffrn_reflns_av_unetI/netI     0.0126
_diffrn_reflns_Laue_measured_fraction_full 0.984
_diffrn_reflns_Laue_measured_fraction_max 0.984
_diffrn_reflns_limit_h_max       6
_diffrn_reflns_limit_h_min       -6
_diffrn_reflns_limit_k_max       3
_diffrn_reflns_limit_k_min       -3
_diffrn_reflns_limit_l_max       11
_diffrn_reflns_limit_l_min       -10
_diffrn_reflns_number            1955
_diffrn_reflns_point_group_measured_fraction_full 0.984
_diffrn_reflns_point_group_measured_fraction_max 0.984
_diffrn_reflns_theta_full        24.969
_diffrn_reflns_theta_max         24.969
_diffrn_reflns_theta_min         3.603
_exptl_absorpt_coefficient_mu    5.896
_exptl_absorpt_correction_type   multi-scan
_exptl_crystal_colour            black
_exptl_crystal_density_diffrn    3.514
_exptl_crystal_description       plate
_exptl_crystal_F_000             171
_exptl_crystal_size_max          0.050
_exptl_crystal_size_mid          0.030
_exptl_crystal_size_min          0.020
_exptl_transmission_factor_max   0.889
_exptl_transmission_factor_min   0.809
_refine_diff_density_max         1.711
_refine_diff_density_min         -0.597
_refine_diff_density_rms         0.234
_refine_ls_extinction_coef       .
_refine_ls_extinction_method     none
_refine_ls_goodness_of_fit_ref   1.150
_refine_ls_hydrogen_treatment    undef
_refine_ls_matrix_type           full
_refine_ls_number_parameters     33
_refine_ls_number_reflns         358
_refine_ls_number_restraints     1
_refine_ls_restrained_S_all      1.148
_refine_ls_R_factor_all          0.0345
_refine_ls_R_factor_gt           0.0336
_refine_ls_shift/su_max          0.000
_refine_ls_shift/su_mean         0.000
_refine_ls_structure_factor_coef Fsqd
_refine_ls_weighting_details
'w=1/[\s^2^(Fo^2^)+(0.0776P)^2^+0.8980P] where P=(Fo^2^+2Fc^2^)/3'
_refine_ls_weighting_scheme      calc
_refine_ls_wR_factor_gt          0.1112
_refine_ls_wR_factor_ref         0.1120
_reflns_Friedel_coverage         0.000
_reflns_Friedel_fraction_full    .
_reflns_Friedel_fraction_max     .
_reflns_number_gt                341
_reflns_number_total             358
_reflns_threshold_expression     'I > 2\s(I)'
_cod_data_source_file            JSSC-2019-279-120937.cif
_cod_data_source_block           Cs
_cod_original_sg_symbol_H-M      'P 21/m'
_cod_database_code               1561664
_shelx_space_group_comment
;
The symmetry employed for this shelxl refinement is uniquely defined
by the following loop, which should always be used as a source of
symmetry information in preference to the above space-group names.
They are only intended as comments.
;
_shelx_estimated_absorpt_t_min   0.757
_shelx_estimated_absorpt_t_max   0.891
_shelx_res_file
;

    Cs.res created by SHELXL-2014/7


TITL KCsMoS2_1_0m_a.res in P2(1)/m
REM Old TITL KCsMoS2_1_0m in P2(1)
REM SHELXT solution in P2(1)/m
REM R1 0.082,  Rweak 0.009,  Alpha 0.023,  Orientation as input
REM Formula found by SHELXT:  Cs K2 S
CELL  0.71073   5.7338   3.2511   9.5188   90.000   99.497   90.000
ZERR    2.000   0.0017   0.0010   0.0072    0.000    0.019    0.000
LATT  1
SYMM -X, 1/2+Y, -Z
SFAC CS MO S H O
UNIT 0.24004 2 4 2.04 1.02
TEMP 0
L.S. 10
BOND
LIST 4
ACTA
OMIT -2 50
OMIT -3 1 4
OMIT 0 0 3
omit 1 1 1
omit 1 0 1
FMAP 2
PLAN 20
SIZE 0.05 0.03 0.02
SUMP 0.12 0.0001 1.0 2 1.0 3
WGHT    0.077600    0.898000
FVAR       0.95868   0.05028   0.06975
MO    2    0.300771    0.750000    0.993869    10.50000    0.02183    0.02828 =
         0.03263    0.00000    0.00493    0.00000
PART 1
CS1   1    0.269970    0.750000    1.461725    20.50000    0.12603    0.09221 =
         0.01405    0.00000    0.00185    0.00000
PART 2
CS2   1    0.127514    0.750000    1.476264    30.50000    0.06230    0.07057 =
         0.02154    0.00000   -0.01238    0.00000
PART 0
S1    3    0.121830    0.250000    1.139879    10.50000    0.02516    0.02500 =
         0.03403    0.00000    0.00525    0.00000
S2    3    0.637382    0.750000    1.181665    10.50000    0.02624    0.02548 =
         0.03487    0.00000    0.00524    0.00000
HKLF 4

REM  KCsMoS2_1_0m_a.res in P2(1)/m
REM R1 =  0.0336 for     341 Fo > 4sig(Fo)  and  0.0345 for all     358 data
REM     33 parameters refined using      1 restraints

END

WGHT      0.0776      0.8980

REM Highest difference peak  1.711,  deepest hole -0.597,  1-sigma level  0.234
Q1    1   0.2156  0.7500  1.4984  10.50000  0.05    1.71
Q2    1   0.3533  0.7500  1.4860  10.50000  0.05    1.29
Q3    1   0.1496  0.7500  1.4228  10.50000  0.05    0.77
Q4    1   0.2409  0.7500  0.8995  10.50000  0.05    0.57
Q5    1   0.3354  0.7500  1.0777  10.50000  0.05    0.49
Q6    1   0.7292  0.7500  1.2838  10.50000  0.05    0.41
Q7    1   0.4035  0.9341  1.0071  11.00000  0.05    0.40
Q8    1   0.9656  0.7500  1.2260  10.50000  0.05    0.30
Q9    1   0.6637  1.0588  1.2189  11.00000  0.05    0.29
Q10   1   0.0797 -0.2500  1.1404  10.50000  0.05    0.29
Q11   1   0.9131  0.9929  1.2723  11.00000  0.05    0.22
Q12   1   0.6069  0.2500  1.2931  10.50000  0.05    0.21
Q13   1   0.2227  0.2500  1.2488  10.50000  0.05    0.17
Q14   1   0.2718 -0.2500  1.1984  10.50000  0.05    0.17
Q15   1   0.0861 -0.0670  1.2206  11.00000  0.05    0.15
Q16   1   0.3745  0.9395  1.2940  11.00000  0.05    0.15
Q17   1   0.1762  1.0340  1.3231  11.00000  0.05    0.13
Q18   1   0.0616  0.1180  1.0539  11.00000  0.05    0.12
Q19   1   0.1596  0.7500  1.2823  10.50000  0.05    0.12
Q20   1   0.0991  0.2500  0.9677  10.50000  0.05    0.11
;
_shelx_res_checksum              21407
_shelx_hkl_file
;
   1   0   0  240.98    6.70
  -1   0   0  274.87    6.90
   1   0   0  267.57    6.70
  -1   0   0  246.38    6.60
   2   0   0 3137.99   59.99
  -2   0   0 3218.98   60.09
   2   0   0 3162.38   59.69
  -2   0   0 3125.89   60.49
  -2   0   0 3118.29   59.89
   3   0   0 1714.73   35.90
  -3   0   0 1671.13   35.60
   3   0   0 1706.83   35.50
  -3   0   0 1755.32   36.10
  -3   0   0 1742.63   36.60
  -4   0   0  263.17    9.20
   4   0   0  254.67    9.10
  -5   0   0 1145.39   25.50
   5   0   0 1142.89   26.50
  -5   0   0 1155.98   26.40
   6   0   0   97.09    5.60
  -6   0   0  100.69    5.20
  -6   0   0  104.39    5.70
   7   0   0  147.29    6.90
  -7   0   0  148.99    6.40
  -7   0   0  152.48    7.00
  -8   0   0   24.10    3.10
   8   0   0   19.30    3.00
  -8   0   0   14.00    2.40
   0  -1   0    0.60    0.90
   0  -1   0   -1.00    1.00
   0  -1   0    0.30    1.90
   0   1   0   -0.30    0.90
   0   1   0    4.10    2.10
   0   1   0    0.30    0.90
   0   1   0    0.70    0.80
   0   1   0    0.40    1.20
   1  -1   0 1505.05   32.30
   1  -1   0 1503.45   30.90
  -1  -1   0 1498.75   29.90
   1  -1   0 1477.15   31.10
  -1  -1   0 1531.75   27.90
  -1  -1   0 1533.95   31.20
   1  -1   0 1479.15   30.30
  -1  -1   0 1515.05   31.60
   1   1   0 1572.74   31.80
  -1   1   0 1548.25   32.40
  -1   1   0 1512.15   30.80
  -1   1   0 1492.15   31.10
  -1   1   0 1516.75   30.50
   1   1   0 1574.64   29.90
  -2  -1   0  739.03   17.30
   2  -1   0  708.83   18.60
   2  -1   0  714.93   18.00
  -2  -1   0  766.82   17.80
   2  -1   0  727.93   18.30
  -2  -1   0  750.32   17.00
   2  -1   0  733.13   16.10
   2   1   0  753.32   15.90
  -2   1   0  723.13   18.10
  -2   1   0  745.83   16.60
   2   1   0  764.12   17.40
   2   1   0  771.62   17.20
  -2   1   0  735.03   16.80
  -2   1   0  748.73   18.10
  -2   1   0  742.23   18.80
  -3  -1   0 1750.02   35.20
  -3  -1   0 1759.52   35.90
   3  -1   0 1676.13   35.10
  -3  -1   0 1748.82   34.30
   3  -1   0 1721.83   37.00
  -3   1   0 1752.82   34.90
  -3   1   0 1703.03   35.10
  -3   1   0 1586.64   37.20
  -3   1   0 1704.03   33.70
   3   1   0 1740.63   34.40
   3   1   0 1748.63   35.70
   4  -1   0  819.02   21.10
  -4  -1   0  810.02   20.10
  -4  -1   0  842.62   18.90
   4  -1   0  841.42   18.70
  -4  -1   0  823.72   20.00
  -4   1   0  842.72   19.80
   4   1   0  832.12   19.10
  -4   1   0  825.52   18.00
  -4   1   0  794.22   19.40
   5  -1   0  159.38    7.60
  -5  -1   0  163.98    6.40
  -5  -1   0  164.68    7.20
  -5   1   0  160.88    6.70
   5   1   0  170.18    6.50
  -5   1   0  165.88    6.90
  -5   1   0  156.58    6.10
  -6  -1   0  375.26   10.80
  -6  -1   0  383.16   12.00
   6  -1   0  376.46   12.50
  -6   1   0  375.66   11.60
   6   1   0  365.96   10.90
  -6   1   0  377.96   11.40
  -7  -1   0  250.07    8.30
  -7  -1   0  254.17    9.30
  -7  -1   0  251.57    7.80
   7  -1   0  250.17    9.70
  -7   1   0  257.17    9.10
  -7   1   0  249.18    8.70
   7   1   0  254.17    8.70
  -8  -1   0  103.39    5.20
  -8  -1   0  101.89    5.90
   8  -1   0  109.89    6.40
   8   1   0  104.09    5.40
  -8   1   0  111.09    5.90
  -8   1   0  113.59    5.60
   0  -2   0 5775.92  102.39
   0  -2   0 5727.53  104.79
   0  -2   0 5432.66   99.39
   0   2   0 4823.22  101.49
   0   2   0 5325.37  100.09
   0   2   0 5534.55   99.29
   0   2   0 5461.05   98.49
  -1  -2   0   85.09    4.80
   1  -2   0   85.19    4.90
  -1  -2   0   88.39    3.70
  -1  -2   0   90.09    4.20
   1  -2   0   81.89    4.70
  -1  -2   0   72.49    5.70
   1  -2   0   79.79    5.60
   1   2   0   92.59    7.40
  -1   2   0   87.79    5.30
  -1   2   0   82.89    5.10
   1   2   0   85.09    4.30
  -1   2   0   85.19    5.90
  -1   2   0   91.19    3.30
   1   2   0   91.59    3.70
  -2  -2   0 1066.19   24.80
   2  -2   0 1021.60   23.90
   2  -2   0 1009.30   22.60
   2  -2   0  995.70   25.30
  -2  -2   0 1013.50   22.30
  -2  -2   0 1031.30   24.10
   2  -2   0 1044.70   24.20
   2   2   0 1029.10   24.90
  -2   2   0 1023.80   21.40
   2   2   0 1026.40   20.40
   2   2   0 1040.90   22.40
  -2   2   0  997.30   24.30
  -3  -2   0  702.93   17.00
  -3  -2   0  690.33   17.60
   3  -2   0  657.03   18.30
   3  -2   0  671.83   18.30
   3  -2   0  681.43   15.90
   3  -2   0  659.53   18.00
  -3  -2   0  712.43   14.60
   3   2   0  700.43   17.90
   3   2   0  703.53   14.50
  -3   2   0  684.53   16.00
  -3   2   0  670.43   15.90
   4  -2   0  117.19    6.30
  -4  -2   0  115.99    5.60
   4  -2   0  121.39    6.40
  -4  -2   0  118.79    5.70
  -4  -2   0  114.99    5.70
  -4   2   0  119.49    5.20
   4   2   0  110.79    6.50
   4   2   0  126.69    4.70
  -4   2   0  113.89    5.10
  -5  -2   0  643.74   14.70
   5  -2   0  612.34   15.90
   5  -2   0  623.74   17.60
  -5  -2   0  622.74   16.00
  -5  -2   0  623.54   16.40
  -5   2   0  622.14   15.80
   5   2   0  667.33   14.50
  -5   2   0  626.24   15.80
  -6  -2   0   64.39    3.60
  -6  -2   0   63.79    4.10
   6  -2   0   63.29    5.10
  -6  -2   0   67.69    4.50
   6   2   0   65.49    3.70
  -6   2   0   64.59    4.30
  -6   2   0   54.49    4.00
  -7  -2   0   98.89    4.50
  -7  -2   0   94.09    4.80
  -7  -2   0   89.79    5.40
   7  -2   0  101.99    6.40
   7   2   0   94.39    4.60
  -7   2   0   92.59    5.20
  -7   2   0   98.69    5.10
   0  -3   0    1.80    2.50
   0  -3   0    0.90    1.40
   0  -3   0    0.30    1.50
   0   3   0    0.70    2.40
   0   3   0   -0.60    2.10
  -1  -3   0  121.49    7.20
   1  -3   0  127.99    6.20
  -1  -3   0  130.49    4.50
  -1  -3   0  130.39    6.40
   1  -3   0  119.99    7.50
  -1   3   0  130.59    5.20
  -1   3   0  126.09    7.00
   1   3   0  127.69    5.50
   1   3   0  134.89    4.90
  -2  -3   0  159.88    8.00
   2  -3   0  168.98    6.80
   2  -3   0  164.78    6.90
  -2  -3   0  164.98    7.30
   2  -3   0  164.88    8.60
  -2  -3   0  162.48    5.90
  -2   3   0  165.38    5.50
  -2   3   0  171.08    5.10
  -2   3   0  163.68    6.20
   3  -3   0  448.16   12.10
  -3  -3   0  451.05   11.90
  -3  -3   0  459.05   13.50
   3  -3   0  446.56   14.70
  -3   3   0  435.66   10.70
  -3   3   0  455.15   10.90
   4  -3   0  212.78    9.10
  -4  -3   0  211.88    8.20
  -4  -3   0  216.88    7.60
   4  -3   0  219.08    7.10
  -4   3   0  210.38    6.70
  -4   3   0  209.98    6.70
  -5  -3   0   67.49    4.40
   5  -3   0   62.69    5.40
  -5  -3   0   59.99    4.20
  -5  -3   0   67.29    2.80
  -5   3   0   60.59    3.80
  -5   3   0   60.89    3.90
  -6  -3   0  134.99    6.20
  -6  -3   0  133.69    6.20
  -6   3   0  132.19    5.60
  -6   3   0  132.69    5.70
   0  -4   0  748.93   19.20
   0  -4   0  767.52   21.40
  -1  -4   0   14.40    2.40
   1  -4   0   16.50    3.60
   1  -4   0   11.50    2.10
  -1  -4   0   15.80    3.50
   2  -4   0  138.79    6.30
  -2  -4   0  147.19    6.80
   2  -4   0  149.79    8.30
   3  -4   0  118.79    5.50
   3  -4   0  122.09    7.50
  -3  -4   0  111.69    6.10
   4  -4   0   28.20    4.20
  -4  -4   0   27.60    3.80
   4  -4   0   23.50    3.20
  -5  -4   0  150.68    6.20
  -5  -4   0  146.19    6.80
   0  -5   0   -2.80    2.10
   8   0  -1   35.70    4.10
  -8   0   1   30.40    4.00
  -7   0   1  140.89    6.60
   7   0  -1  125.99    6.30
  -7   0   1  132.69    6.00
   6   0  -1    5.00    1.70
  -6   0   1    9.80    2.10
  -6   0   1    2.80    1.40
  -5   0   1  822.72   20.40
   5   0  -1  811.02   20.30
  -5   0   1  835.72   19.70
  -4   0   1   17.90    2.30
  -4   0   1   18.20    2.60
   4   0  -1   10.50    2.10
  -3   0   1 1797.52   37.50
  -3   0   1 1916.81   39.60
   3   0  -1 1859.61   38.00
  -3   0   1 1832.52   38.20
  -3   0   1 1932.71   38.40
   3   0  -1 1865.01   38.30
   2   0  -1   39.60    3.10
  -2   0   1   46.60    3.10
  -2   0   1   44.60    3.30
  -2   0   1   42.30    3.20
  -1   0   1  775.32   15.50
   1   0  -1  750.22   15.20
   1   0  -1  722.53   15.50
   1   0  -1  779.22   15.50
  -1   0   1  712.03   15.20
  -1   0   1  742.83   15.50
   1   0   1  462.35   11.20
  -1   0  -1  446.16   11.00
   1   0   1  438.36   11.20
  -1   0  -1  467.85   10.80
  -1   0  -1  462.55   11.50
  -2   0  -1 6362.66  118.39
  -2   0  -1 6734.23  118.89
   2   0   1 6232.38  118.09
   2   0   1 6358.46  117.59
  -3   0  -1 1261.07   27.90
  -3   0  -1 1286.07   28.90
  -3   0  -1 1303.67   29.00
   3   0   1 1288.47   28.00
   3   0   1 1260.37   28.40
   4   0   1   19.40    3.00
  -4   0  -1   17.40    2.70
   5   0   1 1092.59   25.60
  -5   0  -1 1086.29   25.40
  -6   0  -1  371.86   11.10
  -6   0  -1  366.66   11.70
   6   0   1  352.46   11.60
   7   0   1  265.47    9.70
  -7   0  -1  266.67    9.10
  -7   0  -1  270.97    9.70
  -8   0  -1   78.79    4.70
  -8   0  -1   73.69    5.20
   8   0   1   74.69    5.20
  -8  -1   1   88.99    4.80
   8  -1  -1   86.39    5.80
  -8  -1   1   80.89    5.40
  -8   1   1   79.19    5.10
  -8   1   1   84.99    4.90
   8   1  -1   79.19    4.90
  -7  -1   1  485.75   11.90
   7  -1  -1  489.25   14.70
  -7  -1   1  497.55   14.40
  -7  -1   1  506.95   13.20
   7   1  -1  481.55   13.20
  -7   1   1  488.95   13.60
  -7   1   1  503.55   14.00
  -6  -1   1  449.76   13.50
  -6  -1   1  463.45   12.40
   6  -1  -1  427.36   13.70
  -6  -1   1  458.85   11.40
  -6   1   1  454.05   12.80
   6   1  -1  437.46   12.20
  -6   1   1  453.15   13.00
   5  -1  -1    4.20    1.80
  -5  -1   1    2.30    1.50
  -5  -1   1    7.20    1.60
  -5  -1   1    4.20    1.30
   5   1  -1    6.50    1.70
  -5   1   1    4.80    1.40
  -5   1   1    6.10    1.60
  -5   1   1    4.60    2.00
   4  -1  -1 1036.80   22.90
  -4  -1   1 1055.59   22.50
  -4  -1   1 1021.00   22.90
  -4  -1   1 1033.10   22.40
  -4  -1   1 1013.10   24.00
   4  -1  -1 1028.80   24.80
  -4   1   1 1027.30   23.20
  -4   1   1 1024.30   21.10
   4   1  -1 1042.20   22.40
  -4   1   1 1027.70   23.30
  -3  -1   1 2833.02   54.29
  -3  -1   1 2874.21   54.29
  -3  -1   1 2829.12   54.99
  -3  -1   1 2971.40   56.59
   3  -1  -1 2855.11   55.99
   3  -1  -1 3084.69   57.79
   3   1  -1 2746.83   53.69
   3   1  -1 2964.80   54.79
  -3   1   1 2886.61   55.29
  -3   1   1 2829.72   57.79
   3   1  -1 2867.61   56.19
  -3   1   1 2916.71   55.29
  -3   1   1 2943.91   53.69
  -3   1   1 2795.02   55.39
  -3   1   1 2665.43   56.69
  -2  -1   1 1436.26   27.90
  -2  -1   1 1422.46   29.90
  -2  -1   1 1402.26   29.30
   2  -1  -1 1396.26   30.70
   2  -1  -1 1420.56   30.90
   2  -1  -1 1404.56   27.90
  -2   1   1 1401.66   28.30
  -2   1   1 1438.56   30.40
   2   1  -1 1495.65   30.00
  -2   1   1 1468.95   28.40
   2   1  -1 1441.96   29.80
  -2   1   1 1421.56   30.50
  -2   1   1 1427.46   30.90
   2   1  -1 1399.16   26.90
  -2   1   1 1389.56   28.70
  -1  -1   1 2531.55   49.20
   1  -1  -1 2516.65   51.39
   1  -1  -1 2529.65   49.00
  -1  -1   1 2513.35   46.90
  -1  -1   1 2588.44   49.80
  -1   1   1 2584.84   49.60
  -1   1   1 2523.65   49.80
  -1   1   1 2505.35   47.90
   1   1  -1 2733.53   49.99
  -1   1   1 2646.94   51.29
  -1   1   1 2649.93   49.20
   1   1  -1 2728.63   51.19
   1   1  -1 2642.24   47.00
  -1   1   1 2514.15   47.10
   1   1  -1 2616.24   49.30
   0  -1   1   15.90    2.40
   0  -1   1   15.70    1.70
   0  -1  -1   14.50    2.30
   0  -1   1   18.60    3.40
   0  -1  -1   17.70    3.20
   0  -1   1   17.50    2.50
   0  -1  -1   18.10    1.20
   0   1  -1   15.00    2.20
   0   1  -1   14.70    1.40
   0   1  -1   15.90    2.80
   0   1  -1   16.30    2.10
   0   1  -1   16.30    1.80
   0   1   1   15.30    1.20
   0   1   1   16.40    1.40
   0   1  -1   15.00    2.50
   0   1   1   15.90    3.10
  -1  -1  -1    9.90    2.30
   1  -1   1    5.40    2.50
   1  -1   1    7.80    1.60
  -1  -1  -1    8.70    1.50
   1  -1   1   10.10    2.00
  -1   1  -1    9.20    2.10
   1   1   1    8.90    1.50
  -1   1  -1   11.30    2.20
  -1   1  -1    9.70    1.80
  -1   1  -1    8.30    2.70
   1   1   1    8.80    2.40
  -2  -1  -1 1672.43   32.70
  -2  -1  -1 1749.32   34.00
   2  -1   1 1681.53   35.60
   2  -1   1 1643.54   36.10
   2  -1   1 1676.13   34.80
  -2  -1  -1 1653.83   34.00
   2   1   1 1703.63   34.00
   2   1   1 1739.63   34.30
  -2   1  -1 1651.13   33.60
   2   1   1 1715.63   33.50
  -2   1  -1 1692.63   34.90
  -2   1  -1 1669.43   35.40
  -2   1  -1 1675.53   36.30
   3  -1   1  325.87    9.90
   3  -1   1  332.57   11.50
  -3  -1  -1  341.97   10.00
  -3  -1  -1  366.86   10.70
  -3   1  -1  331.97   10.30
   3   1   1  321.57   10.30
  -3   1  -1  341.27   10.20
  -3   1  -1  320.47    9.40
   3   1   1  340.37   10.00
  -4  -1  -1  727.33   18.10
   4  -1   1  718.43   19.20
  -4  -1  -1  735.83   18.30
  -4   1  -1  742.13   18.10
  -4   1  -1  728.13   16.70
   4   1   1  731.23   17.70
   5  -1   1  237.48    9.50
  -5  -1  -1  257.17    9.20
   5   1   1  253.07    8.60
  -5   1  -1  241.58    8.80
  -6  -1  -1  184.98    6.90
  -6  -1  -1  182.78    7.70
   6  -1   1  198.38    8.50
  -6   1  -1  188.18    7.30
  -6   1  -1  185.08    7.60
   6   1   1  188.68    7.30
   7  -1   1   25.90    3.90
  -7  -1  -1   36.60    3.90
  -7  -1  -1   29.40    3.10
   7   1   1   38.10    3.70
  -7   1  -1   25.60    3.20
  -7   1  -1   37.40    3.80
   8  -1   1   73.39    5.50
  -8  -1  -1   75.69    4.40
  -8  -1  -1   80.69    5.20
  -8  -1  -1   60.59    5.00
   8   1   1   72.49    4.80
  -8   1  -1   73.19    4.70
  -8   1  -1   72.49    5.20
  -8  -2   1   25.10    2.60
  -8  -2   1   22.50    3.10
  -8   2   1   30.10    3.90
  -8   2   1   27.50    3.20
   7  -2  -1   71.09    5.80
  -7  -2   1   77.19    5.20
  -7  -2   1   77.09    4.00
  -7  -2   1   83.49    4.50
  -7   2   1   78.89    4.60
  -7   2   1   76.89    4.70
  -6  -2   1    2.20    1.70
   6  -2  -1    6.50    2.40
   6  -2  -1    5.50    2.20
  -6  -2   1    6.50    2.00
  -6  -2   1    7.00    1.50
  -6   2   1    6.60    1.70
   6   2  -1    6.60    1.60
  -6   2   1    3.90    1.80
  -5  -2   1  468.85   12.80
  -5  -2   1  456.25   13.40
  -5  -2   1  466.25   11.50
   5  -2  -1  460.75   13.20
   5  -2  -1  466.55   14.50
  -5   2   1  461.65   12.40
  -5   2   1  466.65   12.70
   5   2  -1  468.05   10.90
   4  -2  -1   17.10    3.20
  -4  -2   1   15.80    2.10
   4  -2  -1   12.60    2.60
  -4  -2   1   16.90    2.70
  -4  -2   1   13.80    2.40
   4   2  -1   17.70    2.10
  -4   2   1   15.40    2.20
   4   2  -1   19.20    4.20
  -4   2   1   12.20    1.80
   3  -2  -1  773.12   20.00
   3  -2  -1  777.12   20.50
  -3  -2   1  761.82   18.50
   3  -2  -1  777.52   17.20
  -3  -2   1  774.02   18.90
  -3  -2   1  785.32   15.90
  -3   2   1  763.72   17.00
  -3   2   1  725.53   18.00
  -3   2   1  751.92   17.30
   3   2  -1  763.32   19.60
   2  -2  -1   37.10    3.50
   2  -2  -1   28.90    4.10
  -2  -2   1   29.50    3.10
  -2  -2   1   36.60    3.50
  -2   2   1   28.50    2.60
   2   2  -1   36.20    4.10
   2   2  -1   30.70    4.90
  -2   2   1   35.00    2.60
  -2   2   1   33.70    4.50
  -2   2   1   31.40    4.40
   1  -2  -1  199.68    9.10
  -1  -2   1  218.08    9.00
  -1  -2   1  209.68    7.20
   1  -2  -1  208.18    7.30
  -1  -2   1  213.18    7.20
   1  -2  -1  221.28    8.20
  -1  -2   1  208.48    7.90
  -1   2   1  212.78    8.10
  -1   2   1  215.08    5.60
  -1   2   1  213.28    8.50
  -1   2   1  213.88    7.60
  -1   2   1  212.88    5.60
   1   2  -1  214.28    7.40
   0  -2   1 2428.86   48.80
   0  -2  -1 2453.75   51.29
   0  -2  -1 2372.46   45.20
   0  -2   1 2440.66   50.99
   0  -2   1 2378.36   47.50
   0   2   1 2468.65   47.00
   0   2  -1 2472.95   45.90
   0   2   1 2386.06   45.60
   0   2  -1 2431.36   46.40
   0   2   1 2422.16   44.50
   1  -2   1   74.59    5.30
   1  -2   1   72.59    4.60
  -1  -2  -1   73.79    4.60
   1  -2   1   79.79    4.40
  -1  -2  -1   80.29    3.80
   1  -2   1   84.29    5.10
   1   2   1   66.69    6.90
   1   2   1   77.59    3.70
  -1   2  -1   76.49    5.70
  -1   2  -1   82.39    4.90
  -2  -2  -1 2362.06   45.10
  -2  -2  -1 2279.17   47.30
   2  -2   1 2291.67   46.70
  -2  -2  -1 2306.87   42.40
   2  -2   1 2293.07   47.50
  -2  -2  -1 2338.77   42.40
   2  -2   1 2278.17   45.70
   2  -2   1 2247.08   48.30
  -2  -2  -1 2359.16   47.80
   2   2   1 2376.66   44.90
   2   2   1 2355.06   47.60
  -3  -2  -1  556.54   12.20
  -3  -2  -1  554.64   12.10
  -3  -2  -1  536.55   15.00
   3  -2   1  541.75   13.40
   3  -2   1  522.05   15.60
  -3  -2  -1  564.94   14.80
  -3  -2  -1  533.45   13.80
   3  -2   1  533.15   15.40
   3  -2   1  534.75   15.30
   3   2   1  549.74   14.80
  -3   2  -1  531.05   13.70
   3   2   1  542.45   12.90
  -4  -2  -1    0.70    1.40
   4  -2   1    0.30    1.70
   4  -2   1    3.70    2.10
   4  -2   1    4.60    1.70
  -4  -2  -1    2.40    1.40
  -4  -2  -1    3.70    2.10
  -4  -2  -1    3.90    1.10
  -4   2  -1    4.10    1.40
   4   2   1    6.00    1.80
  -4   2  -1    1.40    1.30
   4   2   1    0.90    2.70
  -5  -2  -1  615.34   14.40
  -5  -2  -1  628.34   16.30
  -5  -2  -1  632.14   16.30
   5  -2   1  615.44   17.40
   5   2   1  625.24   14.70
  -5   2  -1  625.64   15.80
  -5   2  -1  611.94   15.60
  -6  -2  -1  219.88    8.00
  -6  -2  -1  217.68    7.00
  -6  -2  -1  216.28    8.20
   6  -2   1  209.58    9.00
   6   2   1  220.68    7.20
  -6   2  -1  212.68    8.00
  -6   2  -1  224.18    7.90
  -7  -2  -1  171.98    7.40
  -7  -2  -1  170.38    6.10
  -7  -2  -1  162.98    6.60
   7  -2   1  167.68    8.00
   7   2   1  174.18    6.40
  -7   2  -1  155.08    6.80
  -7   2  -1  175.78    6.90
  -7  -3   1  209.38    8.10
  -7  -3   1  220.78    7.70
  -7   3   1  215.48    7.40
  -7   3   1  198.78    7.20
  -6  -3   1  158.68    6.90
  -6  -3   1  168.48    6.80
   6  -3  -1  160.98    7.60
  -6   3   1  167.18    6.20
  -6   3   1  168.68    6.30
   5  -3  -1    3.70    2.90
  -5  -3   1    1.40    1.80
  -5  -3   1    2.50    1.20
  -5  -3   1    1.40    1.60
  -5   3   1    4.90    1.50
  -5   3   1    3.50    1.70
  -4  -3   1  279.37    9.70
   4  -3  -1  291.47   11.10
  -4  -3   1  292.57    8.40
  -4  -3   1  279.57    9.20
   4  -3  -1  283.57    8.40
  -4   3   1  281.47    7.80
  -4   3   1  284.37    8.20
   3  -3  -1  673.03   19.40
   3  -3  -1  673.53   16.40
  -3  -3   1  674.13   16.40
  -3  -3   1  696.03   17.90
  -3  -3   1  717.53   15.40
  -3   3   1  688.43   15.10
  -3   3   1  702.03   14.90
   2  -3  -1  229.98   10.20
  -2  -3   1  246.78    9.10
   2  -3  -1  234.18    8.40
  -2  -3   1  244.58    7.20
  -2   3   1  239.18    6.30
  -2   3   1  238.08    6.40
  -2   3   1  240.78    6.20
  -1  -3   1  611.24   14.20
   1  -3  -1  596.14   18.40
  -1  -3   1  627.44   18.20
  -1  -3   1  609.44   16.60
   1  -3  -1  618.04   16.30
  -1   3   1  615.04   15.50
   0  -3   1   -0.40    1.50
   0  -3  -1   -0.90    2.00
   0  -3   1    0.70    2.00
   0  -3  -1   -0.50    1.50
   0  -3   1    1.70    1.40
   0   3   1    0.20    2.50
   0   3   1   -0.20    1.40
   0   3  -1    1.00    2.40
   0   3  -1   -1.60    2.10
   1  -3   1   25.10    3.10
  -1  -3  -1   28.80    3.30
   1  -3   1   22.40    2.90
  -1  -3  -1   30.90    4.40
   1  -3   1   21.10    3.60
  -1   3  -1   31.10    4.20
   1   3   1   26.70    3.90
   1   3   1   25.60    3.20
   2  -3   1  279.17   11.20
  -2  -3  -1  298.57   11.00
   2  -3   1  286.47    9.80
   2  -3   1  286.17    9.30
  -2  -3  -1  287.07   10.10
  -2  -3  -1  236.68    7.70
   2   3   1  293.37    7.80
   2   3   1  279.87    8.40
  -2   3  -1  290.97    7.30
  -3  -3  -1   65.59    3.80
   3  -3   1   61.39    5.40
   3  -3   1   61.39    3.90
  -3  -3  -1   61.89    4.60
   3  -3   1   63.79    4.80
  -3  -3  -1   69.89    5.20
   3  -3   1   59.89    4.70
  -3   3  -1   60.69    3.60
   3   3   1   64.69    3.30
  -3   3  -1   64.09    3.20
  -4  -3  -1  231.88    8.80
   4  -3   1  223.28    9.20
   4  -3   1  226.48    9.00
  -4  -3  -1  221.58    7.60
  -4   3  -1  221.48    7.00
  -4   3  -1  224.98    7.30
  -5  -3  -1   88.49    5.20
   5  -3   1   91.59    5.80
  -5  -3  -1   81.69    4.80
  -5  -3  -1   82.39    3.40
  -5   3  -1   87.69    4.60
  -5   3  -1   90.39    4.40
  -6  -3  -1   76.39    4.70
   6  -3   1   78.09    5.90
  -6  -3  -1   60.79    4.70
  -6   3  -1   66.69    4.20
  -6   3  -1   72.59    4.40
  -5  -4   1  112.29    5.60
   5  -4  -1  114.59    7.50
  -5  -4   1  120.59    6.00
   4  -4  -1    8.50    2.00
   4  -4  -1    5.40    3.30
  -4  -4   1    7.70    2.00
   3  -4  -1  139.49    8.00
  -3  -4   1  138.99    6.60
   3  -4  -1  129.99    5.80
   2  -4  -1    4.30    3.10
   2  -4  -1    1.50    1.60
  -2  -4   1    3.00    1.80
  -1  -4   1   16.90    2.40
   1  -4  -1   26.30    3.30
   1  -4  -1   23.60    4.20
  -1  -4   1   24.60    3.60
   0  -4  -1  416.46   14.60
   0  -4   1  407.36   10.50
   0  -4   1  423.16   14.50
   0  -4   1  422.06   12.70
   0  -4  -1  425.96   12.80
  -1  -4  -1    1.40    1.70
   1  -4   1    5.40    3.00
   1  -4   1    6.60    1.80
  -1  -4  -1    7.90    3.10
   1  -4   1    4.50    1.80
   2  -4   1  420.96   12.00
   2  -4   1  415.56   14.20
  -2  -4  -1  407.76   12.70
  -2  -4  -1  419.96   13.80
  -2   4  -1  408.76    9.90
   3  -4   1   82.89    4.70
  -3  -4  -1   85.29    5.40
  -3   4  -1   87.79    4.00
  -4  -4  -1   -1.40    2.00
  -4  -4  -1    1.50    2.00
  -5  -4  -1  151.38    6.90
  -5  -4  -1  134.69    5.90
   0  -5  -1    5.40    3.40
  -8   0   2  209.68    7.80
   8   0  -2  214.48    8.50
  -8   0   2  220.38    8.60
   7   0  -2  158.98    7.10
  -7   0   2  158.68    7.10
  -7   0   2  169.68    6.80
   6   0  -2   27.60    3.40
  -6   0   2   30.20    3.00
  -6   0   2   31.90    3.40
  -5   0   2  920.71   21.60
  -5   0   2  941.61   22.30
   5   0  -2  927.51   22.10
  -4   0   2  184.88    7.30
  -4   0   2  181.58    6.90
   4   0  -2  203.38    7.50
  -4   0   2  163.58    7.70
  -3   0   2 1423.66   30.30
  -3   0   2 1522.35   31.10
   3   0  -2 1499.05   31.00
   3   0  -2 1437.06   30.80
  -3   0   2 1439.76   30.90
  -2   0   2   90.29    4.50
  -2   0   2  102.99    4.70
   2   0  -2   95.99    4.40
   2   0  -2   98.79    4.80
   1   0  -2  363.56    9.00
   1   0  -2  351.36    8.70
  -1   0   2  353.86    9.00
   1   0   2    3.00    1.20
  -1   0  -2    0.60    1.10
   1   0   2    3.40    1.60
   2   0   2 5503.85  107.79
  -2   0  -2 5799.22  107.49
  -2   0  -2 6045.00  109.39
  -2   0  -2 5912.11  108.19
   2   0   2 5815.72  108.39
  -3   0  -2  446.06   13.30
  -3   0  -2  429.66   14.00
  -3   0  -2  352.86   11.70
   3   0   2  444.16   13.10
   3   0   2  439.16   13.10
   4   0   2  446.56   13.40
  -4   0  -2  443.66   13.00
  -5   0  -2  857.31   21.00
   5   0   2  824.92   21.00
  -6   0  -2  221.08    8.60
   6   0   2  213.58    8.60
  -7   0  -2  376.36   11.90
   7   0   2  374.76   12.00
  -7   0  -2  362.96   11.10
  -8   0  -2  201.48    7.60
  -8   0  -2  207.68    8.40
   8   0   2  218.48    8.70
  -8  -1   2   41.50    3.60
  -8  -1   2   42.40    4.40
  -8   1   2   44.90    3.90
  -8   1   2   48.10    4.20
   7  -1  -2  303.97   10.90
  -7  -1   2  300.97    9.40
  -7  -1   2  316.07   10.60
  -7  -1   2  300.07    7.80
   7   1  -2  298.97    9.40
  -7   1   2  295.07    9.90
  -7   1   2  299.57    9.70
  -6  -1   2  438.86   13.20
  -6  -1   2  432.76   11.90
   6  -1  -2  419.86   13.50
   6   1  -2  426.66   11.70
  -6   1   2  429.36   12.50
  -6   1   2  425.96   12.30
   5  -1  -2  384.06   12.60
  -5  -1   2  391.26   10.10
  -5  -1   2  381.86   10.80
  -5  -1   2  379.86   12.10
   5  -1  -2  402.06   11.20
   5   1  -2  384.56   10.60
  -5   1   2  388.36   11.40
  -5   1   2  388.06   11.40
  -4  -1   2 1070.99   24.90
  -4  -1   2 1074.39   23.00
   4  -1  -2 1041.80   25.50
  -4  -1   2 1098.69   23.30
   4  -1  -2 1090.49   24.30
  -4  -1   2 1105.29   22.70
  -4   1   2 1058.19   23.70
   4   1  -2 1041.20   22.60
   4   1  -2 1101.09   23.00
  -4   1   2 1052.69   23.90
  -3  -1   2 1015.60   22.00
   3  -1  -2 1018.00   24.60
   3  -1  -2 1059.89   24.20
  -3  -1   2 1053.29   23.90
  -3  -1   2 1050.79   22.10
  -3  -1   2 1060.09   21.40
   3  -1  -2 1039.00   22.40
   3   1  -2 1040.20   21.20
  -3   1   2 1022.60   25.00
  -3   1   2 1021.50   22.40
  -3   1   2 1054.19   20.80
  -3   1   2 1040.60   22.90
   3   1  -2 1046.60   22.90
  -2  -1   2 1367.86   26.70
   2  -1  -2 1349.47   26.40
   2  -1  -2 1339.47   26.30
   2  -1  -2 1350.06   27.50
   2  -1  -2 1306.97   29.60
  -2  -1   2 1349.27   28.70
  -2  -1   2 1323.97   27.50
  -2   1   2 1334.57   29.20
   2   1  -2 1310.27   28.60
   2   1  -2 1380.76   27.70
   2   1  -2 1389.86   26.70
   2   1  -2 1348.86   28.50
  -2   1   2 1323.57   26.50
  -2   1   2 1313.27   27.40
  -2   1   2 1345.57   26.50
  -2   1   2 1331.07   29.30
   1  -1  -2 9444.86  177.68
  -1   1   2 9999.00  177.28
   1   1  -2 9653.03  175.48
   1   1  -2 9809.02  175.38
   1   1  -2 9763.82  177.08
   0  -1  -2  210.58    8.30
   0  -1  -2  235.28    5.90
   0  -1   2  222.58    6.40
   0  -1   2  229.18    8.50
   0  -1   2  209.18    7.10
   0   1  -2  228.08    6.30
   0   1   2  230.18    8.40
   0   1   2  227.58    6.10
   0   1  -2  229.88    6.80
   0   1  -2  215.58    8.50
   0   1  -2  228.98    7.50
  -1  -1  -2 2699.63   48.70
  -1  -1  -2 2601.24   48.90
  -1  -1  -2 2623.64   51.39
   1  -1   2 2525.15   49.90
   1  -1   2 2454.15   51.99
   1  -1   2 2553.34   50.59
  -1   1  -2 2562.24   52.09
  -1   1  -2 2643.84   52.19
   1   1   2 2701.03   48.90
  -1   1  -2 2631.24   50.99
  -1   1  -2 2638.74   50.49
   1   1   2 2727.13   50.99
  -2  -1  -2  894.31   18.30
  -2  -1  -2  853.71   19.20
   2  -1   2  834.72   21.50
   2  -1   2  822.32   20.60
  -2  -1  -2  842.22   19.20
  -2   1  -2  866.51   19.40
  -2   1  -2  842.92   21.70
  -2   1  -2  868.91   20.50
   2   1   2  874.21   19.30
  -2   1  -2  829.62   20.90
   3  -1   2    0.00    1.40
  -3  -1  -2    0.90    1.70
  -3  -1  -2    0.30    1.20
   3  -1   2    0.00    1.30
  -3   1  -2   -0.70    1.80
  -3   1  -2    1.30    1.20
  -3   1  -2    0.70    2.20
   3   1   2    1.00    1.70
   3   1   2    1.70    2.20
   4  -1   2 1168.88   28.20
   4  -1   2 1148.29   27.50
  -4  -1  -2 1171.28   26.40
  -4  -1  -2 1209.58   26.30
  -4   1  -2 1151.08   26.40
   4   1   2 1211.48   26.40
   5  -1   2   12.80    2.50
  -5  -1  -2   14.40    2.50
  -5   1  -2   11.20    2.10
   5   1   2   17.00    2.60
   6  -1   2  187.98    8.30
  -6  -1  -2  176.58    7.60
  -6   1  -2  186.38    7.70
   6   1   2  189.78    7.50
  -7  -1  -2   -3.70    1.80
  -7  -1  -2    0.40    1.50
   7  -1   2    0.30    2.20
  -7   1  -2   -0.50    1.80
  -7   1  -2    1.80    1.70
   7   1   2   -0.20    2.00
  -8  -1  -2   22.60    3.10
   8  -1   2   20.80    3.40
  -8  -1  -2   18.50    3.10
   8   1   2   21.00    3.20
  -8   1  -2   17.10    2.60
  -8   1  -2   17.90    3.00
  -8  -2   2  137.59    5.60
  -8  -2   2  139.29    6.90
  -8   2   2  139.59    6.20
  -8   2   2  136.59    6.20
  -7  -2   2   98.09    4.60
  -7  -2   2   98.69    5.70
  -7  -2   2  100.19    4.60
  -7   2   2  108.99    5.40
  -7   2   2  103.69    5.20
  -6  -2   2   19.50    2.70
   6  -2  -2   18.50    3.00
  -6  -2   2   19.00    2.30
  -6  -2   2   19.40    2.90
  -6   2   2   17.30    2.40
  -6   2   2   14.70    2.30
  -5  -2   2  507.25   12.20
   5  -2  -2  511.15   14.60
  -5  -2   2  499.85   14.30
  -5  -2   2  513.65   13.20
  -5   2   2  501.65   13.30
  -5   2   2  484.25   12.80
  -4  -2   2  112.29    5.30
   4  -2  -2  108.99    6.40
  -4  -2   2  109.89    5.70
  -4   2   2  110.79    4.60
  -4   2   2  112.59    5.90
  -4   2   2  107.59    4.90
  -3  -2   2  622.34   13.30
   3  -2  -2  630.14   14.60
  -3  -2   2  609.74   15.70
   3  -2  -2  597.14   17.50
  -3  -2   2  602.74   15.80
  -3   2   2  607.44   14.50
  -3   2   2  618.64   15.20
  -3   2   2  620.04   13.80
   2  -2  -2   37.10    4.40
   2  -2  -2   36.10    3.70
  -2  -2   2   41.00    2.30
  -2  -2   2   40.30    3.40
  -2  -2   2   41.70    3.20
  -2   2   2   38.60    2.30
  -2   2   2   38.80    4.50
  -2   2   2   36.80    2.80
  -2   2   2   46.80    4.60
   1  -2  -2   78.49    5.00
  -1  -2   2   83.99    5.20
  -1  -2   2   73.49    4.40
   1  -2  -2   85.39    5.80
  -1   2   2   78.89    3.20
   1   2  -2   82.69    5.40
  -1   2   2   83.39    5.50
  -1   2   2   77.99    4.40
   0  -2  -2 1015.00   24.00
   0  -2  -2 1044.60   26.00
   0  -2   2 1073.29   21.50
   0  -2  -2 1088.59   19.80
   0  -2   2 1034.70   24.00
   0   2   2  995.90   19.80
   0   2  -2 1002.60   20.00
   0   2  -2 1056.29   21.60
   0   2  -2 1047.20   22.70
   1  -2   2   11.70    2.50
  -1  -2  -2   11.20    1.60
  -1  -2  -2   13.20    2.50
   1  -2   2    9.60    2.00
  -1  -2  -2   11.90    2.60
   1  -2   2   11.50    2.50
  -1  -2  -2   11.80    1.70
   1  -2   2   10.10    2.60
  -1   2  -2   15.30    3.00
  -1   2  -2   13.60    3.40
   1   2   2   10.60    1.60
   2  -2   2 2201.88   45.10
  -2  -2  -2 2273.87   41.40
   2  -2   2 2244.88   44.20
  -2  -2  -2 2243.88   46.00
   2  -2   2 2118.99   46.00
  -2  -2  -2 2221.58   43.00
   2  -2   2 2185.58   46.50
   2   2   2 2270.77   45.60
   2   2   2 2236.88   42.80
  -3  -2  -2  164.38    6.30
   3  -2   2  158.08    7.20
  -3  -2  -2  169.58    7.30
  -3  -2  -2  179.58    7.50
   3  -2   2  173.38    7.90
   3   2   2  175.28    7.80
  -3   2  -2  169.28    6.70
   3   2   2  185.08    7.00
  -4  -2  -2  245.38    8.30
  -4  -2  -2  253.17    8.10
   4  -2   2  230.58    9.30
  -4  -2  -2  240.68    8.90
  -4  -2  -2  240.78    7.50
   4  -2   2  240.58    9.80
  -4   2  -2  243.48    8.40
   4   2   2  253.47    7.90
  -5  -2  -2  450.05   11.40
  -5  -2  -2  450.95   13.00
  -5  -2  -2  439.56   12.60
   5  -2   2  465.05   14.10
   5   2   2  448.16   11.90
  -5   2  -2  442.76   12.60
  -6  -2  -2  127.09    6.10
   6  -2   2  142.09    7.20
  -6  -2  -2  135.49    5.40
  -6  -2  -2  135.29    6.30
   6   2   2  130.79    5.50
  -6   2  -2  127.19    6.00
  -6   2  -2  137.09    5.90
  -7  -2  -2  238.98    7.60
  -7  -2  -2  247.28    8.90
   7  -2   2  244.48    9.70
  -7  -2  -2  245.28    8.40
  -7   2  -2  250.07    8.90
  -7   2  -2  242.38    8.40
   7   2   2  244.48    8.00
  -7  -3   2  116.89    5.50
  -7  -3   2  115.19    6.20
  -7   3   2  117.89    5.40
   6  -3  -2  158.68    7.70
  -6  -3   2  148.99    6.70
  -6  -3   2  151.68    6.30
  -6   3   2  152.88    5.70
  -6   3   2  161.18    6.00
  -5  -3   2  138.59    4.20
   5  -3  -2  135.79    7.40
  -5  -3   2  134.19    6.20
  -5  -3   2  130.69    5.90
  -5   3   2  136.69    5.30
  -5   3   2  129.29    5.00
  -4  -3   2  278.17    9.50
   4  -3  -2  291.77   11.20
   4  -3  -2  280.97    8.30
  -4  -3   2  285.47    8.90
  -4  -3   2  280.97    9.30
  -4   3   2  282.07    8.10
  -4   3   2  290.57    7.70
   3  -3  -2  266.07    8.60
   3  -3  -2  279.07   11.40
  -3  -3   2  295.07    8.90
  -3  -3   2  269.17    8.90
  -3  -3   2  266.47    9.50
  -3   3   2  266.17    7.40
  -2  -3   2  261.67    9.50
   2  -3  -2  261.37    8.90
  -2  -3   2  276.97    8.60
   2  -3  -2  273.07   11.50
  -2   3   2  272.07    7.00
  -1  -3   2 1563.34   34.10
   1  -3  -2 1536.05   33.60
   1  -3  -2 1568.24   37.00
  -1  -3   2 1620.54   32.50
  -1   3   2 1550.24   31.60
   0  -3   2   17.00    2.60
   0  -3   2   21.90    2.80
   0  -3  -2   19.00    3.00
   0  -3  -2   22.40    4.00
   0   3  -2   20.90    2.90
  -1  -3  -2  331.07   11.20
  -1  -3  -2  340.67   12.50
   1  -3   2  336.47   10.80
   1  -3   2  338.37   12.40
   1  -3   2  338.67   10.70
  -1   3  -2  331.87    8.00
   1   3   2  345.07    8.00
  -1   3  -2  336.97    7.60
   1   3   2  333.17   10.10
  -2  -3  -2  218.58    8.80
  -2  -3  -2  226.58    9.50
   2  -3   2  221.08    8.70
  -2  -3  -2  240.68    6.90
   2  -3   2  216.98    8.10
   2  -3   2  237.38    8.20
   2   3   2  219.98    7.20
  -2   3  -2  233.88    6.60
   3  -3   2    0.70    1.70
   3  -3   2    1.80    1.90
  -3  -3  -2    1.20    1.40
  -3  -3  -2    0.50    1.70
  -3  -3  -2   -1.40    2.30
   3  -3   2    1.50    1.40
  -3   3  -2   -1.10    1.20
  -3   3  -2    2.20    1.40
   3   3   2    1.20    1.90
   4  -3   2  344.77   11.90
  -4  -3  -2  350.66   10.00
   4  -3   2  341.47   11.40
  -4  -3  -2  358.66    8.00
  -4  -3  -2  343.97   11.30
  -4   3  -2  352.36    9.60
   4   3   2  345.37    8.90
  -4   3  -2  345.77   10.00
   5  -3   2    3.20    2.30
  -5  -3  -2    7.60    2.10
  -5  -3  -2    4.70    1.40
  -5  -3  -2    6.40    1.90
  -5   3  -2    6.90    1.70
  -5   3  -2    4.90    1.90
  -6  -3  -2   74.29    5.00
  -6  -3  -2   63.99    4.60
   6  -3   2   62.39    5.50
  -6   3  -2   72.39    4.60
  -6   3  -2   65.69    4.20
  -5  -4   2  116.89    5.90
   5  -4  -2  109.49    7.60
  -5  -4   2  115.19    5.70
  -4  -4   2   28.10    3.70
   4  -4  -2   27.40    3.40
   4  -4  -2   32.50    4.70
  -3  -4   2  109.39    5.80
   3  -4  -2  110.59    7.60
   3  -4  -2  112.79    5.30
   2  -4  -2    1.90    3.00
  -2  -4   2   -1.40    1.70
   2  -4  -2   -0.30    1.70
  -1  -4   2    9.80    2.00
   1  -4  -2   13.30    3.50
  -1  -4   2    5.70    1.70
   1  -4  -2    3.60    1.90
   0  -4   2   93.19    5.30
   0  -4  -2  104.59    7.30
   0  -4  -2  101.09    5.70
   0  -4   2  101.99    4.80
   1  -4   2    4.40    1.90
   1  -4   2    1.00    1.60
  -1  -4  -2    2.40    1.80
  -1  -4  -2    4.60    2.80
  -2  -4  -2  402.86   12.50
  -2  -4  -2  398.56   13.50
   2  -4   2  383.66   11.40
   2  -4   2  401.36   11.90
   3  -4   2   32.50    3.40
   3  -4   2   29.80    4.10
  -3  -4  -2   26.90    4.00
  -3  -4  -2   32.40    4.90
  -3   4  -2   36.00    3.40
  -4  -4  -2   65.39    4.90
  -4   4  -2   58.19    4.10
  -8   0   3  474.35   13.00
  -8   0   3  470.35   13.80
  -7   0   3  143.89    6.80
  -7   0   3  152.98    6.40
  -6   0   3   38.80    3.60
  -6   0   3   33.20    3.20
   6   0  -3   34.40    3.50
   5   0  -3  914.51   22.00
  -5   0   3  917.91   22.00
  -5   0   3  927.91   21.40
  -4   0   3  977.20   22.30
  -4   0   3 1000.00   23.10
  -3   0   3 2090.49   41.40
  -3   0   3 2035.10   41.00
   3   0  -3 2079.09   41.10
   3   0  -3 2056.09   41.30
  -3   0   3 2028.50   41.60
   2   0  -3  864.81   19.20
   2   0  -3  880.91   19.40
  -2   0   3  850.71   19.30
  -2   0   3  894.11   19.80
  -2   0   3  874.91   19.60
   1   0  -3   83.79    3.90
  -1   0   3   81.09    3.80
  -1   0   3   86.29    4.00
   1   0  -3   86.09    4.10
   0   0   3    7.90    1.50
   0   0  -3    7.00    1.50
   1   0   3 1302.87   28.50
  -1   0  -3 1300.77   26.80
  -1   0  -3 1329.47   28.50
  -2   0  -3 1834.22   37.60
   2   0   3 1798.62   38.20
  -2   0  -3 1837.72   38.20
   3   0   3  440.26   13.10
  -3   0  -3  390.56   11.90
   3   0   3  412.66   12.80
  -3   0  -3  402.66   13.10
   4   0   3  983.70   23.80
   4   0   3  945.31   23.60
  -4   0  -3  981.00   23.00
   5   0   3  243.18    9.30
  -5   0  -3  241.58    9.00
  -6   0  -3   17.10    2.70
   6   0   3   21.10    3.30
   7   0   3  302.17   10.60
   8   0   3  220.88    8.80
  -8   0  -3  213.98    7.90
  -8   0  -3  216.98    8.70
  -8  -1   3   42.70    4.20
  -8  -1   3   47.90    3.60
  -8   1   3   38.50    4.20
  -8   1   3   43.40    3.70
  -7  -1   3   47.20    3.60
  -7  -1   3   56.59    4.40
  -7   1   3   52.69    4.10
  -7   1   3   52.69    3.90
  -6  -1   3  352.76   10.30
  -6  -1   3  350.96   11.50
  -6   1   3  349.96   10.80
  -6   1   3  352.06   10.70
  -5  -1   3  324.37   10.90
   5  -1  -3  341.27   10.50
  -5  -1   3  333.17    9.80
  -5  -1   3  312.37   10.00
  -5  -1   3  330.37    8.50
   5   1  -3  325.47    9.60
  -5   1   3  331.47   10.20
  -5   1   3  327.07   10.10
  -4  -1   3  796.32   18.00
  -4  -1   3  808.02   17.00
  -4  -1   3  790.12   17.60
   4  -1  -3  801.62   19.60
  -4  -1   3  782.62   19.90
  -4   1   3  764.52   18.60
  -4   1   3  787.22   18.40
  -3  -1   3   32.70    2.80
  -3  -1   3   31.60    2.80
   3  -1  -3   30.00    3.50
  -3  -1   3   32.00    3.00
   3  -1  -3   30.60    4.20
  -3  -1   3   33.00    3.10
   3   1  -3   33.70    3.60
  -3   1   3   27.30    2.50
  -3   1   3   30.40    2.90
  -2  -1   3 1231.88   25.00
   2  -1  -3 1215.48   25.50
   2  -1  -3 1263.27   24.30
  -2  -1   3 1252.87   25.30
   2  -1  -3 1215.48   24.20
   2  -1  -3 1197.78   27.90
   2   1  -3 1231.48   26.80
   2   1  -3 1238.38   25.50
  -2   1   3 1215.88   24.30
  -2   1   3 1231.88   25.70
  -2   1   3 1174.88   27.20
   2   1  -3 1247.98   25.00
  -1  -1   3 3860.41   71.79
   1  -1  -3 3915.01   75.59
   1  -1  -3 3876.41   72.09
  -1  -1   3 3922.61   72.89
   1  -1  -3 3882.91   72.59
   1   1  -3 3986.90   73.19
   1   1  -3 3951.50   71.79
   1   1  -3 4034.10   73.89
  -1   1   3 3758.12   72.09
   0  -1   3  187.08    6.60
   0  -1   3  189.98    8.30
   0  -1  -3  191.78    5.90
   0  -1   3  184.28    6.40
   0  -1  -3  192.68    8.00
   0   1  -3  187.88    7.00
   0   1   3  193.88    6.20
   0   1  -3  201.88    6.40
  -1  -1  -3 3526.65   65.49
  -1  -1  -3 3492.45   65.09
  -1  -1  -3 3469.05   67.59
   1  -1   3 3465.05   67.19
   1  -1   3 3400.96   69.29
  -1   1  -3 3699.53   66.99
  -1   1  -3 3629.74   69.49
  -1   1  -3 3598.44   68.29
   1   1   3 3485.65   64.19
  -1   1  -3 3444.56   68.19
   2  -1   3  730.83   19.10
  -2  -1  -3  772.22   18.00
  -2  -1  -3  781.12   16.90
  -2  -1  -3  767.42   17.60
  -2   1  -3  760.42   19.00
  -2   1  -3  750.02   18.00
   2   1   3  783.92   16.80
  -2   1  -3  774.32   20.10
  -2   1  -3  738.43   20.20
  -3  -1  -3  116.59    5.80
  -3  -1  -3  112.29    5.40
   3  -1   3  103.99    5.80
  -3   1  -3  110.69    6.30
  -3   1  -3  123.19    5.90
   3   1   3  109.69    5.80
   4  -1   3 1257.07   29.70
  -4  -1  -3 1241.68   27.50
   4  -1   3 1206.38   28.70
  -4   1  -3 1236.38   25.80
   4   1   3 1263.07   28.00
  -4   1  -3 1238.08   27.90
   5  -1   3   44.80    4.30
  -5  -1  -3   39.00    3.80
   5  -1   3   49.00    4.50
  -5   1  -3   44.70    4.00
   5   1   3   46.60    3.90
  -6  -1  -3  310.67   10.40
   6  -1   3  313.17   11.10
  -6   1  -3  311.97   10.50
   6   1   3  325.97   10.50
  -7  -1  -3    9.90    2.50
   7  -1   3    8.80    2.60
  -7  -1  -3    7.30    1.80
  -7   1  -3    8.40    2.20
   7   1   3   14.10    2.70
  -8  -1  -3    5.20    2.00
  -8  -1  -3    2.70    2.40
   8  -1   3    7.80    2.80
   8   1   3    9.40    2.70
  -8   1  -3    7.70    2.20
  -8   1  -3   12.40    2.90
  -8  -2   3  295.07   10.40
  -8  -2   3  307.37    8.90
  -8   2   3  308.87    9.70
  -8   2   3  304.27    9.60
  -7  -2   3   88.09    4.20
  -7  -2   3   95.09    4.40
  -7  -2   3   91.89    5.60
   7  -2  -3   78.59    6.50
  -7   2   3   96.09    4.90
  -7   2   3   97.89    5.00
  -6  -2   3   19.10    2.80
  -6  -2   3   20.10    2.60
   6  -2  -3   21.60    3.40
  -6  -2   3   17.10    2.40
  -6   2   3   17.80    2.40
  -6   2   3   20.40    2.80
  -5  -2   3  494.55   12.70
  -5  -2   3  511.85   14.50
  -5  -2   3  520.55   12.40
   5  -2  -3  507.75   14.70
  -5   2   3  493.75   12.60
  -5   2   3  502.95   13.30
   4  -2  -3  500.05   11.40
  -4  -2   3  484.45   12.80
  -4  -2   3  496.25   11.60
  -4  -2   3  495.95   14.10
   4  -2  -3  478.35   14.70
  -4   2   3  480.65   12.60
  -4   2   3  484.35   11.90
   3  -2  -3  856.51   22.70
  -3  -2   3  868.51   21.00
  -3  -2   3  869.91   20.30
  -3  -2   3  887.71   18.20
   3  -2  -3  903.31   19.20
  -3   2   3  863.31   17.90
  -3   2   3  894.21   19.50
  -2  -2   3  353.16   10.80
  -2  -2   3  355.16   10.70
  -2  -2   3  350.46    8.50
   2  -2  -3  370.16   10.50
   2  -2  -3  354.36   12.80
  -2   2   3  337.57   10.90
   2   2  -3  362.26    8.50
  -2   2   3  349.87    9.30
  -1  -2   3   63.19    4.10
   1  -2  -3   69.99    3.60
   1  -2  -3   65.59    4.20
  -1  -2   3   66.19    5.40
   1  -2  -3   63.79    5.30
  -1   2   3   65.69    4.00
  -1   2   3   67.89    3.20
   1   2  -3   64.19    3.00
   0  -2  -3   71.19    3.10
   0  -2   3   74.49    5.50
   0  -2  -3   64.39    5.10
   0  -2   3   70.29    3.70
   0  -2  -3   62.79    4.30
   0  -2   3   66.69    4.10
   0   2  -3   70.99    3.50
   0   2   3   63.89    3.10
   0   2  -3   67.69    5.30
  -1  -2  -3  273.17   10.40
  -1  -2  -3  279.87    9.90
   1  -2   3  287.47    9.10
  -1  -2  -3  292.47    7.20
   1  -2   3  289.87   10.50
  -1  -2  -3  293.77    7.30
   1  -2   3  266.77    8.90
  -1   2  -3  283.37    8.00
  -1   2  -3  287.17    9.90
  -2  -2  -3  747.93   16.50
   2  -2   3  745.43   18.40
  -2  -2  -3  757.12   16.10
   2  -2   3  739.03   17.60
   2  -2   3  705.13   19.70
  -2  -2  -3  750.12   19.20
  -3  -2  -3  192.58    6.50
   3  -2   3  175.38    8.20
  -3  -2  -3  164.48    7.40
  -3  -2  -3  187.98    6.60
   3  -2   3  177.58    7.60
   3   2   3  193.98    7.50
  -4  -2  -3  503.95   13.30
   4  -2   3  483.35   14.70
  -4  -2  -3  513.35   13.00
   4  -2   3  482.05   15.40
  -4  -2  -3  516.25   11.90
   4   2   3  499.25   13.40
  -4   2  -3  511.35   14.00
   5  -2   3  150.68    7.30
   5  -2   3  157.28    7.90
  -5  -2  -3  152.68    6.50
  -5   2  -3  154.18    6.70
   5   2   3  140.19    6.10
  -6  -2  -3   12.80    1.90
  -6  -2  -3   13.70    2.30
   6  -2   3    9.20    2.50
  -6  -2  -3    6.00    2.20
   6   2   3   10.70    2.20
  -6   2  -3   12.80    2.40
  -7  -2  -3  184.18    7.40
  -7  -2  -3  186.28    6.60
  -7  -2  -3  186.08    7.60
   7  -2   3  189.08    8.50
  -7   2  -3  194.08    7.30
  -7   2  -3  183.48    7.60
   7   2   3  180.38    7.10
  -7  -3   3   17.90    2.80
  -7  -3   3   24.50    3.20
  -7   3   3   16.80    2.60
   6  -3  -3  130.99    7.20
  -6  -3   3  138.89    6.50
  -6  -3   3  134.59    5.70
  -6   3   3  133.79    5.50
  -5  -3   3  120.69    5.70
   5  -3  -3  134.69    7.60
  -5  -3   3  133.79    6.20
  -5  -3   3  128.59    4.10
  -5   3   3  129.99    4.70
  -5   3   3  131.89    5.30
  -4  -3   3  230.18    5.70
  -4  -3   3  224.28    8.10
   4  -3  -3  208.18    6.80
  -4  -3   3  210.98    8.00
  -4  -3   3  199.58    7.90
   4  -3  -3  225.88    9.90
  -4   3   3  219.08    5.90
  -4   3   3  212.38    6.70
  -3  -3   3    2.20    1.60
  -3  -3   3    2.70    1.60
  -3  -3   3    2.90    1.50
   3  -3  -3    5.30    3.10
   3  -3  -3    4.50    1.60
  -3   3   3    3.50    1.20
   2  -3  -3  249.68   10.90
  -2  -3   3  254.77    9.00
  -2  -3   3  244.78    8.40
   2  -3  -3  249.97    8.60
  -2   3   3  244.58    6.70
  -1  -3   3  982.10   23.30
   1  -3  -3  998.90   26.00
  -1  -3   3 1006.10   22.90
   1  -3  -3  976.00   23.00
  -1   3   3  984.40   20.60
  -1   3   3  982.70   19.20
   0  -3   3   75.89    4.60
   0  -3   3   68.29    4.60
   0  -3  -3   66.49    5.90
   0  -3  -3   66.39    4.60
   1  -3   3  923.31   20.00
  -1  -3  -3  916.21   23.90
   1  -3   3  875.71   21.80
   1  -3   3  877.51   21.20
  -1  -3  -3  880.81   22.10
  -1   3  -3  893.61   18.20
   2  -3   3  128.49    5.80
   2  -3   3  116.09    6.30
   2  -3   3  129.99    5.80
  -2  -3  -3  128.59    7.20
  -2  -3  -3  132.09    4.90
  -2  -3  -3  124.39    6.40
   3  -3   3   16.60    2.90
  -3  -3  -3   12.90    3.10
   3  -3   3   11.60    2.50
  -3  -3  -3   18.80    2.70
  -3  -3  -3   18.00    2.60
   3   3   3   19.10    2.90
  -4  -3  -3  443.66    9.80
  -4  -3  -3  444.36   11.60
   4  -3   3  448.56   14.00
  -4  -3  -3  428.16   12.50
   4  -3   3  427.46   13.00
  -4  -3  -3  433.76   13.20
   4   3   3  420.76   11.10
  -4   3  -3  438.76   12.10
   5  -3   3   14.90    3.00
   5  -3   3   12.00    2.80
  -5  -3  -3   18.10    2.50
  -5  -3  -3   20.60    2.90
  -5   3  -3   22.70    3.40
  -5   3  -3   17.90    2.30
   5   3   3   18.90    2.40
  -6  -3  -3  127.59    6.00
   6  -3   3  133.99    7.10
  -6  -3  -3  124.89    6.40
  -6   3  -3  129.69    5.70
  -6   3  -3  130.89    6.10
   5  -4  -3  120.69    8.10
  -5  -4   3  117.69    5.80
   4  -4  -3  105.79    7.50
   4  -4  -3  103.99    5.00
  -4  -4   3  107.49    5.60
   3  -4  -3  165.18    8.70
   3  -4  -3  152.18    6.30
  -3  -4   3  154.88    6.80
   2  -4  -3   61.89    4.30
  -2  -4   3   57.69    3.70
  -2  -4   3   50.09    4.20
   2  -4  -3   65.09    6.10
   1  -4  -3    6.90    3.20
  -1  -4   3    7.30    1.90
   1  -4  -3    7.80    2.30
  -1  -4   3    7.80    1.90
   0  -4   3    9.50    1.80
   0  -4  -3   11.50    2.60
   0  -4  -3   12.00    3.60
   0  -4   3   10.70    2.30
   1  -4   3   38.80    3.60
   1  -4   3   35.70    3.90
  -1  -4  -3   37.30    5.30
  -1  -4  -3   27.70    3.80
   2  -4   3  136.19    6.00
  -2  -4  -3  128.69    7.50
   2  -4   3  133.29    6.50
  -2  -4  -3  121.79    6.40
  -3  -4  -3   29.80    4.20
  -3  -4  -3   43.20    5.00
   3  -4   3   38.60    4.30
  -3   4  -3   40.00    3.70
  -4  -4  -3  107.79    6.10
  -4   4  -3   98.69    5.00
  -8   0   4  400.76   12.30
  -8   0   4  398.96   11.60
  -7   0   4   99.79    5.50
  -7   0   4  102.19    5.20
  -6   0   4  389.96   12.00
  -6   0   4  389.66   11.40
  -5   0   4  728.73   18.50
  -5   0   4  732.43   17.70
  -4   0   4  319.57    9.80
  -4   0   4  314.17   10.20
  -3   0   4 2079.79   41.20
   3   0  -4 2016.30   41.10
  -3   0   4 2059.89   41.00
  -3   0   4 2008.20   41.20
  -2   0   4 3308.07   63.79
   2   0  -4 3401.26   63.89
  -2   0   4 3358.66   64.09
   2   0  -4 3400.86   63.69
   1   0  -4 1016.00   21.70
  -1   0   4  959.30   21.30
   0   0   4 2194.68   42.90
   0   0  -4 2133.89   42.60
   0   0   4 2208.08   45.40
  -1   0  -4  209.08    8.60
   1   0   4  217.78    8.50
  -1   0  -4  209.88    7.40
   2   0   4  302.67   11.40
   2   0   4  313.37   10.70
  -2   0  -4  324.67   11.20
  -3   0  -4  761.22   18.90
   3   0   4  734.23   19.30
   3   0   4  761.32   19.90
  -4   0  -4  326.97   10.80
   4   0   4  337.67   11.50
   4   0   4  329.97   11.30
  -5   0  -4  171.68    7.50
   5   0   4  174.78    7.90
  -6   0  -4   12.10    2.60
   6   0   4   14.60    2.80
  -7   0  -4   97.59    5.90
   7   0   4   90.69    5.90
  -8  -1   4   38.70    4.10
  -8  -1   4   39.70    3.70
  -8   1   4   35.30    3.90
  -8   1   4   42.70    3.70
  -7  -1   4    4.40    1.80
  -7   1   4    7.10    1.90
  -7   1   4    1.30    1.50
  -6  -1   4  442.26   12.00
  -6  -1   4  440.46   13.30
   6  -1  -4  422.86   11.80
  -6   1   4  424.56   12.30
  -6   1   4  433.46   12.30
   5  -1  -4   35.60    3.90
  -5  -1   4   32.70    3.40
  -5  -1   4   38.10    3.10
  -5  -1   4   31.90    4.50
  -5   1   4   40.70    3.20
  -5   1   4   30.70    3.00
   4  -1  -4  644.34   17.20
  -4  -1   4  681.03   15.40
  -4  -1   4  673.53   16.00
  -4  -1   4  686.33   14.40
  -4  -1   4  660.23   17.50
  -4   1   4  660.33   16.50
  -4   1   4  653.43   15.90
  -3  -1   4   51.19    3.80
  -3  -1   4   60.79    3.30
  -3  -1   4   61.29    3.40
   3  -1  -4   55.39    4.10
  -3  -1   4   56.49    3.80
  -3   1   4   55.79    3.60
   3   1  -4   49.60    4.00
   3   1  -4   56.69    3.90
  -3   1   4   55.59    3.40
   2  -1  -4  427.76   13.60
  -2  -1   4  451.15   11.20
  -2  -1   4  450.95   12.70
   2  -1  -4  417.76   10.30
   2  -1  -4  435.46   10.30
  -2  -1   4  441.76   10.90
   2  -1  -4  429.76   11.60
   2   1  -4  437.36   12.80
   2   1  -4  437.46   11.30
  -2   1   4  445.86   10.40
  -2   1   4  432.06   11.50
   2   1  -4  425.86   11.00
  -1  -1   4 2119.99   42.60
   1  -1  -4 2138.39   45.60
   1  -1  -4 2249.18   40.80
  -1  -1   4 2183.18   42.60
   1  -1  -4 2202.78   42.70
  -1   1   4 2150.68   42.60
   1   1  -4 2249.07   42.50
   1   1  -4 2281.37   44.60
   1   1  -4 2248.28   43.40
   0  -1   4  575.44   14.70
   0  -1  -4  569.24   15.90
   0  -1  -4  573.24   13.60
   0  -1   4  548.65   16.70
   0  -1   4  559.84   13.90
   0   1  -4  575.94   13.90
   0   1  -4  592.24   14.70
   0   1   4  575.24   13.80
  -1  -1  -4 4811.72   91.49
   1  -1   4 4798.12   93.79
  -1  -1  -4 4820.82   88.99
   1  -1   4 4767.52   91.39
  -1  -1  -4 4843.12   89.79
  -1   1  -4 4814.12   93.39
   1   1   4 4918.91   88.99
  -1   1  -4 4911.31   89.89
  -1   1  -4 4971.20   90.79
   2  -1   4    0.40    1.40
  -2  -1  -4   -0.50    1.70
   2  -1   4   -0.60    1.40
  -2  -1  -4    0.10    1.90
  -2  -1  -4   -0.30    1.50
  -2  -1  -4   -0.20    1.70
  -2   1  -4    1.60    2.90
   2   1   4   -0.50    1.20
   3  -1   4  511.85   15.90
   3  -1   4  516.65   15.30
  -3  -1  -4  519.85   13.80
  -3  -1  -4  532.35   13.90
  -3  -1  -4  530.65   13.20
   3   1   4  571.34   16.10
   3   1   4  534.05   13.60
  -3   1  -4  493.25   14.20
   4  -1   4  884.01   22.90
  -4  -1  -4  896.51   21.10
   4  -1   4  857.71   22.20
   4   1   4  881.21   21.80
  -4   1  -4  881.71   21.60
  -5  -1  -4   46.60    4.10
   5  -1   4   51.39    4.70
   5  -1   4   47.50    4.40
   5   1   4   43.20    4.00
  -5   1  -4   55.69    4.40
   6  -1   4  559.04   16.30
  -6  -1  -4  567.44   15.50
  -6   1  -4  590.44   16.00
   6   1   4  563.74   15.60
  -7  -1  -4   64.79    4.90
   7  -1   4   64.29    5.30
   7   1   4   52.99    4.50
  -7   1  -4   62.09    5.10
  -8  -2   4  268.77    8.10
  -8   2   4  255.67    8.60
  -8   2   4  258.17    8.80
   7  -2  -4   56.69    5.40
  -7  -2   4   63.59    3.70
  -7  -2   4   72.99    4.90
  -7   2   4   61.49    4.40
  -7   2   4   56.19    4.10
  -6  -2   4  242.18    7.40
  -6  -2   4  245.68    7.20
   6  -2  -4  237.78    9.00
  -6  -2   4  239.58    9.10
  -6   2   4  244.98    7.80
  -6   2   4  239.38    8.20
  -5  -2   4  407.76   10.40
  -5  -2   4  400.86   12.40
   5  -2  -4  390.26   12.70
  -5  -2   4  401.56   10.50
  -5   2   4  398.46   10.50
  -5   2   4  397.86   11.30
  -4  -2   4  194.48    7.90
   4  -2  -4  193.68    8.80
  -4  -2   4  192.88    6.10
  -4  -2   4  191.18    6.70
   4  -2  -4  199.68    5.90
  -4   2   4  196.18    6.90
  -4   2   4  205.28    6.40
   3  -2  -4  976.90   20.70
  -3  -2   4  981.00   22.80
  -3  -2   4  978.00   21.70
   3  -2  -4  936.11   24.50
  -3  -2   4  963.90   20.10
  -3   2   4  995.00   19.20
   3   2  -4  974.40   20.30
  -3   2   4  951.70   21.00
   2  -2  -4 1426.06   29.20
   2  -2  -4 1406.06   33.70
  -2  -2   4 1459.95   28.50
  -2  -2   4 1445.06   30.50
   2  -2  -4 1483.75   30.10
  -2   2   4 1408.86   30.60
  -2   2   4 1470.25   29.20
   2   2  -4 1447.56   28.20
  -1  -2   4  253.57   10.00
   1  -2  -4  264.47    7.60
   1  -2  -4  259.77   10.70
   1  -2  -4  269.77    8.80
  -1  -2   4  263.67    8.80
   1   2  -4  271.17    7.20
  -1   2   4  264.57    7.90
  -1   2   4  266.77    7.50
   0  -2  -4  546.55   15.00
   0  -2   4  547.15   14.40
   0  -2   4  575.24   16.30
   0  -2   4  535.85   12.90
   0  -2  -4  534.95   16.50
   0  -2  -4  551.74   12.40
   0   2  -4  545.75   12.80
   0   2   4  546.85   12.50
  -1  -2  -4  172.18    5.90
  -1  -2  -4  189.78    8.30
  -1  -2  -4  180.28    5.30
   1  -2   4  177.48    8.30
   1  -2   4  177.98    6.80
   1  -2   4  181.68    7.00
  -1   2  -4  188.48    6.70
  -2  -2  -4  128.99    6.60
  -2  -2  -4  132.79    5.30
   2  -2   4  127.89    6.10
   2  -2   4  125.19    6.90
  -2  -2  -4  127.69    5.50
   3  -2   4  345.57   11.40
  -3  -2  -4  354.66   10.80
   3  -2   4  339.67   12.20
  -3  -2  -4  348.67    9.80
   3   2   4  345.47   11.40
   4  -2   4  182.28    8.60
  -4  -2  -4  190.48    7.20
  -4  -2  -4  189.18    7.10
   4  -2   4  186.58    8.10
   4   2   4  187.38    7.50
  -4   2  -4  183.08    7.60
   5  -2   4   88.69    6.00
  -5  -2  -4   77.29    4.80
   5  -2   4   89.89    5.60
   5   2   4   88.99    5.00
  -5   2  -4   89.09    5.20
   6  -2   4    8.40    2.70
  -6  -2  -4    9.70    2.20
  -6   2  -4    7.50    2.10
   6   2   4    7.00    2.20
   7  -2   4   56.99    5.90
  -7  -2  -4   67.89    4.80
  -7  -2  -4   57.19    3.90
  -7  -2  -4   65.29    4.90
  -7   2  -4   65.39    5.10
  -7   2  -4   60.29    4.30
   7   2   4   63.29    4.70
  -6  -3   4  166.08    6.20
   6  -3  -4  166.18    8.20
  -6  -3   4  164.68    7.10
  -6   3   4  160.88    6.20
  -5  -3   4    8.50    2.00
  -5  -3   4   10.90    1.50
   5  -3  -4    9.80    3.20
  -5  -3   4    8.50    2.00
  -5   3   4   13.40    1.90
   4  -3  -4  183.78    9.10
   4  -3  -4  192.18    6.30
  -4  -3   4  195.78    7.20
  -4  -3   4  193.58    7.70
  -4  -3   4  201.08    5.60
  -4  -3   4  184.28    7.90
  -4   3   4  188.58    6.30
  -3  -3   4   22.00    3.10
   3  -3  -4   18.50    2.60
  -3  -3   4   21.40    2.80
   3  -3  -4   18.30    3.80
  -3   3   4   21.30    2.20
  -2  -3   4   94.29    5.00
  -2  -3   4   85.99    5.10
   2  -3  -4   79.49    4.80
   2  -3  -4   82.29    6.40
  -2   3   4   75.29    6.40
  -2   3   4   87.19    3.50
  -1  -3   4  346.77   10.80
  -1  -3   4  342.27   11.20
   1  -3  -4  346.27   13.00
   1  -3  -4  331.37   10.80
  -1   3   4  348.17    8.60
  -1   3   4  348.97    8.30
   0  -3  -4   78.79    6.20
   0  -3   4   75.39    4.90
   0  -3  -4   79.69    3.20
   0  -3  -4   88.79    5.20
   0  -3   4   75.69    4.60
   0   3  -4   78.39    3.50
  -1  -3  -4 1065.59   25.30
   1  -3   4 1067.19   25.60
   1  -3   4 1085.59   23.00
   1  -3   4 1099.29   24.40
  -1  -3  -4 1060.19   26.80
  -1   3  -4 1047.30   21.70
   2  -3   4    2.50    1.80
   2  -3   4    0.90    1.80
  -2  -3  -4    3.00    1.70
  -2  -3  -4    6.80    2.70
  -2  -3  -4    2.20    1.60
   2  -3   4    1.40    1.40
   3  -3   4  174.78    8.20
  -3  -3  -4  167.48    7.80
  -3  -3  -4  170.28    5.80
  -3  -3  -4  172.48    7.60
   3  -3   4  167.08    7.20
   3   3   4  168.18    7.00
  -4  -3  -4  290.47    9.70
   4  -3   4  296.67   11.10
   4  -3   4  290.07   10.10
  -4  -3  -4  292.47   10.30
  -4  -3  -4  284.67    8.60
   4   3   4  288.37    9.00
  -4   3  -4  285.47    9.50
  -5  -3  -4   16.70    2.70
   5  -3   4   21.70    3.50
   5  -3   4   17.60    3.30
  -5  -3  -4   22.80    3.40
  -5   3  -4   15.60    2.40
   5   3   4   19.90    2.60
  -6  -3  -4  227.28    8.70
  -6  -3  -4  247.78    8.30
   6  -3   4  237.18    9.50
  -6   3  -4  221.78    8.20
  -6   3  -4  216.28    7.50
   5  -4  -4   88.79    7.40
  -5  -4   4   93.99    5.10
   4  -4  -4   49.60    3.90
   4  -4  -4   45.50    6.30
  -4  -4   4   47.10    4.00
  -3  -4   4  188.68    7.50
   3  -4  -4  198.08    9.80
   3  -4  -4  195.58    7.20
  -3  -4   4  195.78    7.00
   2  -4  -4  248.38    8.70
  -2  -4   4  259.07    8.30
  -2  -4   4  250.97    8.90
   1  -4  -4   36.80    4.00
  -1  -4   4   41.90    3.70
  -1  -4   4   39.30    3.60
   1  -4  -4   45.20    5.80
   0  -4   4   62.19    4.20
   0  -4  -4   61.29    6.10
   0  -4  -4   64.69    4.70
   0  -4   4   59.09    4.50
  -1  -4  -4   46.90    4.40
   1  -4   4   47.30    3.90
   1  -4   4   49.90    4.50
  -1  -4  -4   48.00    5.60
   2  -4   4   20.60    3.00
  -2  -4  -4   16.40    3.60
   2  -4   4   13.30    2.30
  -2  -4  -4   15.50    2.90
   3  -4   4   75.19    5.60
  -3  -4  -4   77.99    6.30
  -3  -4  -4   77.19    5.30
  -3   4  -4   80.69    4.80
   4  -4   4   47.30    5.20
  -4  -4  -4   46.10    5.60
  -4  -4  -4   36.70    4.60
  -4   4  -4   43.40    4.30
  -8   0   5  162.78    6.70
  -8   0   5  145.59    6.90
  -7   0   5   97.29    5.40
  -7   0   5   94.79    5.00
  -6   0   5  550.54   15.10
   6   0  -5  542.95   13.50
  -6   0   5  549.85   14.60
  -5   0   5  380.16   11.60
  -5   0   5  368.46   11.00
  -4   0   5   -0.70    1.20
  -4   0   5    1.20    1.00
  -3   0   5 1684.43   35.30
  -3   0   5 1683.53   35.10
  -3   0   5 1698.83   34.90
   2   0  -5 2492.75   48.90
  -2   0   5 2442.96   48.80
   2   0  -5 2539.35   45.90
   2   0  -5 2429.56   48.50
  -2   0   5 2522.65   48.70
   1   0  -5 1088.59   23.70
  -1   0   5 1061.39   23.40
   0   0   5 1728.23   38.10
   0   0   5 1762.42   35.80
   1   0   5  543.25   15.90
  -1   0  -5  561.94   14.50
  -2   0  -5  298.17   11.00
   2   0   5  304.77   11.20
   2   0   5  242.98    9.90
   3   0   5 1226.98   28.50
   3   0   5 1230.28   29.10
  -3   0  -5 1205.78   27.60
   4   0   5   57.99    4.90
  -4   0  -5   62.49    4.40
   4   0   5   58.19    4.50
   5   0   5  245.88    9.50
   5   0   5  241.68    9.70
  -5   0  -5  238.68    9.10
   6   0   5    9.40    2.40
  -6   0  -5    7.60    2.20
   7   0   5   19.70    3.10
  -7   0  -5   27.00    3.60
  -8  -1   5   20.50    3.20
  -8  -1   5   19.60    2.50
  -8   1   5   25.40    3.40
  -8   1   5   17.80    2.90
   7  -1  -5   28.60    4.30
  -7  -1   5   35.60    3.20
  -7  -1   5   36.00    3.80
  -7   1   5   34.20    3.50
  -7   1   5   36.20    3.50
  -6  -1   5  457.25   13.60
  -6  -1   5  448.86   12.40
   6  -1  -5  463.05   12.80
  -6   1   5  452.55   12.80
  -6   1   5  452.05   12.60
  -5  -1   5   61.09    4.40
  -5  -1   5   57.79    3.70
   5  -1  -5   63.19    4.60
  -5   1   5   56.89    3.90
  -5   1   5   55.59    3.80
  -4  -1   5  976.80   19.00
  -4  -1   5  978.80   21.40
  -4  -1   5  973.50   20.60
   4  -1  -5  918.81   22.90
  -4  -1   5  944.31   22.80
  -4   1   5  935.71   21.00
  -4   1   5  952.50   21.90
   3  -1  -5   22.80    3.50
   3  -1  -5   18.80    3.30
  -3  -1   5   19.60    2.20
  -3  -1   5   19.70    2.70
  -3  -1   5   15.60    2.10
  -3  -1   5   21.80    3.10
  -3   1   5   20.00    2.70
  -3   1   5   19.10    2.30
   3   1  -5   16.80    2.40
  -2  -1   5  224.38    6.70
  -2  -1   5  220.58    8.20
   2  -1  -5  223.48    6.80
   2  -1  -5  225.38    9.10
   2  -1  -5  215.38    6.60
  -2  -1   5  223.68    7.40
   2   1  -5  218.58    7.50
   2   1  -5  216.08    7.40
  -2   1   5  225.18    7.40
   1  -1  -5   87.09    3.90
   1  -1  -5   84.19    5.30
   1  -1  -5   80.49    4.80
  -1  -1   5   79.89    4.60
   1   1  -5   81.39    5.10
   1   1  -5   84.79    4.80
  -1   1   5   80.59    4.30
   0  -1  -5   19.40    2.90
   0  -1   5   13.40    2.20
   0  -1   5   18.80    3.10
   0  -1  -5   14.50    3.10
   0  -1   5   17.90    3.20
   0   1  -5   16.50    2.60
   0   1  -5   17.00    2.70
   0   1   5   16.90    2.50
   1  -1   5 1725.13   37.10
  -1  -1  -5 1761.72   34.60
  -1  -1  -5 1734.93   35.20
   1  -1   5 1739.33   38.90
  -1  -1  -5 1739.53   36.90
   1   1   5 1701.93   34.90
   2  -1   5   18.80    3.10
   2  -1   5   18.50    3.10
  -2  -1  -5   25.00    3.80
  -2  -1  -5   24.10    3.10
   2   1   5   20.70    2.80
  -3  -1  -5 1121.89   25.40
  -3  -1  -5 1151.28   25.40
   3  -1   5 1127.89   27.20
  -3  -1  -5 1168.78   24.90
   3  -1   5 1160.98   28.30
  -3   1  -5 1137.79   26.00
   3   1   5 1179.58   28.10
   3   1   5 1189.38   25.30
  -4  -1  -5  194.18    7.60
   4  -1   5  198.88    9.00
   4  -1   5  201.28    8.60
  -4   1  -5  191.98    8.10
  -4   1  -5  200.28    8.50
   4   1   5  190.78    8.40
   5  -1   5    2.00    1.90
  -5  -1  -5   -0.90    1.70
   5  -1   5    1.00    1.90
   5   1   5   -1.00    1.90
  -5   1  -5    2.70    1.70
   6  -1   5  460.65   14.50
  -6  -1  -5  487.45   13.90
   6   1   5  473.85   14.00
  -6   1  -5  484.65   14.10
  -7  -1  -5  100.59    5.80
   7  -1   5  100.19    6.50
   7   1   5  102.39    5.90
  -7   1  -5   98.39    6.10
  -7  -2   5   60.99    4.60
   7  -2  -5   53.49    5.50
  -7  -2   5   58.79    3.70
  -7   2   5   51.49    4.10
  -7   2   5   51.59    4.00
   6  -2  -5  319.67   11.10
  -6  -2   5  342.57    8.60
  -6  -2   5  332.37    9.40
  -6  -2   5  334.37   11.10
  -6   2   5  343.37    9.60
  -6   2   5  338.97   10.20
  -5  -2   5  193.78    6.20
  -5  -2   5  191.78    8.00
   5  -2  -5  193.58    8.60
  -5  -2   5  205.68    6.60
  -5   2   5  200.98    6.40
  -5   2   5  199.38    7.30
  -4  -2   5    2.10    1.40
  -4  -2   5    1.00    1.10
   4  -2  -5   -1.50    1.40
   4  -2  -5    0.90    2.70
  -4  -2   5   -1.00    1.10
  -4   2   5   -1.10    1.30
  -4   2   5    1.00    1.20
   3  -2  -5  777.82   21.30
  -3  -2   5  780.82   17.90
  -3  -2   5  778.42   16.90
  -3  -2   5  768.12   19.50
   3  -2  -5  785.12   17.20
  -3   2   5  780.42   17.90
  -2  -2   5 1115.19   23.00
  -2  -2   5 1126.69   27.50
   2  -2  -5 1094.59   27.50
   2  -2  -5 1080.69   23.80
  -2  -2   5 1124.69   24.20
  -2   2   5 1094.09   24.50
  -2   2   5 1106.39   23.30
   2   2  -5 1103.49   22.70
  -1  -2   5  563.44   14.40
   1  -2  -5  564.74   17.10
   1  -2  -5  556.64   13.30
   1  -2  -5  563.94   14.80
  -1  -2   5  575.74   12.30
  -1  -2   5  544.95   13.20
  -1  -2   5  540.55   16.60
  -1   2   5  563.54   13.40
   1   2  -5  571.64   13.20
   0  -2   5  988.30   21.00
   0  -2  -5  959.80   20.30
   0  -2   5  959.50   24.70
   0  -2  -5  975.50   24.70
   0  -2   5  982.30   22.10
   0  -2  -5  972.30   23.00
   0   2  -5  953.50   20.70
   0   2   5  956.60   20.40
  -1  -2  -5  133.19    4.50
  -1  -2  -5  118.29    5.40
  -1  -2  -5  129.19    7.00
   1  -2   5  134.89    5.70
   2  -2   5  122.49    6.90
   2  -2   5  121.79    5.90
  -2  -2  -5  125.19    5.10
  -2  -2  -5  119.79    6.40
  -3  -2  -5  658.63   16.90
   3  -2   5  687.93   17.80
   3  -2   5  659.63   19.20
  -3  -2  -5  673.63   15.80
   3   2   5  663.73   18.40
   4  -2   5   34.80    4.40
  -4  -2  -5   33.00    3.40
  -4  -2  -5   30.90    3.80
   4  -2   5   26.90    3.80
  -4   2  -5   39.70    3.90
   4   2   5   27.50    3.70
  -5  -2  -5  151.48    6.50
   5  -2   5  153.78    7.50
   5  -2   5  159.38    8.00
  -5   2  -5  154.28    7.00
   5   2   5  145.09    6.80
   6  -2   5    3.70    2.60
   6  -2   5    2.20    2.50
  -6  -2  -5    3.60    2.10
   6   2   5    0.90    2.20
  -6   2  -5    6.90    2.30
  -6  -3   5  161.48    7.30
  -6  -3   5  181.88    6.20
   6  -3  -5  173.28    8.60
  -6   3   5  166.48    6.30
  -5  -3   5   21.30    2.80
  -5  -3   5   25.40    3.40
  -5  -3   5   17.70    1.80
   5  -3  -5   19.90    4.00
  -5   3   5   20.30    2.70
   4  -3  -5  299.77    8.20
   4  -3  -5  288.97   11.50
  -4  -3   5  280.87   10.40
  -4  -3   5  291.47    7.30
  -4  -3   5  288.87    9.00
  -4   3   5  299.27    8.40
  -3  -3   5    3.00    1.40
   3  -3  -5   -2.20    2.70
  -3  -3   5    0.80    1.30
   3  -3  -5    1.30    1.70
  -3  -3   5   -0.60    1.80
  -3   3   5    1.00    1.20
   2  -3  -5   48.90    5.50
  -2  -3   5   48.10    4.20
   2  -3  -5   51.59    3.90
  -2  -3   5   52.69    3.70
  -2   3   5   51.59    2.80
  -1  -3   5   28.10    3.10
   1  -3  -5   37.30    4.90
   1  -3  -5   22.40    3.20
  -1  -3   5   26.20    3.60
  -1   3   5   30.70    2.70
   0  -3   5    0.40    1.70
   0  -3   5   -1.30    1.30
   0  -3  -5   -2.80    1.70
   0  -3   5   -0.20    1.70
   0  -3  -5   -2.20    2.30
  -1  -3  -5  475.15   15.30
   1  -3   5  492.45   14.90
   1  -3   5  480.55   12.30
   1  -3   5  475.05   13.20
  -1  -3  -5  496.95   14.40
  -2  -3  -5   -2.90    1.80
  -2  -3  -5    2.00    2.80
  -2  -3  -5    1.00    1.60
   2  -3   5    0.60    1.90
   2  -3   5    0.80    1.80
  -3  -3  -5  347.07   11.60
  -3  -3  -5  357.36   11.90
   3  -3   5  340.17   10.80
  -3  -3  -5  331.27    8.90
   3  -3   5  341.77   12.10
   3   3   5  341.07   11.20
  -4  -3  -5   82.09    4.40
   4  -3   5   78.29    5.40
   4  -3   5   70.59    5.70
  -4  -3  -5   68.29    5.10
  -4  -3  -5   69.39    5.50
   4   3   5   78.09    4.90
  -4   3  -5   77.19    5.10
   5  -3   5   -0.70    2.30
  -5  -3  -5    2.50    2.10
  -5  -3  -5    2.50    2.20
   5  -3   5    0.30    2.50
   5   3   5   -0.90    2.20
  -5   3  -5   -0.30    2.20
   4  -4  -5   -4.30    3.40
   4  -4  -5   -0.90    2.00
  -4  -4   5   -1.50    1.70
   3  -4  -5  165.38    9.20
  -3  -4   5  160.68    6.70
  -3  -4   5  158.48    6.70
   3  -4  -5  156.88    6.50
   2  -4  -5  233.18   10.80
  -2  -4   5  233.48    8.40
   2  -4  -5  229.28    8.40
  -2  -4   5  241.88    8.40
   1  -4  -5  118.09    6.00
  -1  -4   5  113.79    5.90
   1  -4  -5  122.09    8.10
  -1  -4   5   91.59    5.20
   0  -4  -5  196.88    9.90
   0  -4   5  197.28    7.60
   0  -4  -5  198.68    8.10
   0  -4   5  213.78    8.30
  -1  -4  -5   14.30    2.80
  -1  -4  -5   20.60    3.80
   1  -4   5   13.20    2.20
   1  -4   5   17.40    2.80
   2  -4   5   15.40    2.90
  -2  -4  -5   20.80    3.90
  -2  -4  -5   16.10    2.90
  -3  -4  -5  122.39    7.60
   3  -4   5  151.88    6.90
  -3  -4  -5  163.08    7.40
   3  -4   5  153.88    7.60
  -8   0   6   36.00    3.60
  -8   0   6   28.30    3.60
  -7   0   6  146.19    6.30
  -7   0   6  149.19    6.70
   7   0  -6  137.69    5.80
  -6   0   6  229.28    8.10
  -6   0   6  225.68    8.50
   6   0  -6  230.68    8.00
  -5   0   6  228.18    8.00
  -5   0   6  229.58    8.40
  -4   0   6  189.38    7.20
  -4   0   6  195.78    7.50
  -3   0   6  498.45   13.40
  -3   0   6  508.35   13.60
   2   0  -6  922.51   21.50
  -2   0   6  942.01   21.20
   2   0  -6  933.21   19.10
  -1   0   6 1539.85   32.40
   1   0  -6 1559.84   32.50
   0   0   6 3602.04   70.59
   0   0   6 3491.55   67.79
   1   0   6  228.18    9.20
   2   0   6  598.04   16.70
   2   0   6  554.44   17.20
   3   0   6  837.32   21.20
  -3   0  -6  801.72   20.30
   3   0   6  814.52   21.80
  -4   0  -6    3.70    1.60
   4   0   6    2.40    1.80
   4   0   6    2.80    2.20
   5   0   6  633.04   17.40
   5   0   6  631.74   17.80
  -5   0  -6  605.94   16.70
   6   0   6    6.50    2.30
  -6   0  -6   -0.40    2.00
  -7   0  -6   42.00    4.70
   7   0   6   28.30    3.70
  -8  -1   6   -1.20    1.70
  -8  -1   6    4.00    2.20
  -8   1   6    0.60    2.20
  -8   1   6    0.60    1.80
  -7  -1   6  212.38    7.40
   7  -1  -6  208.68    7.70
  -7  -1   6  173.58    7.80
  -7   1   6  202.68    7.50
  -7   1   6  190.08    7.40
   6  -1  -6  307.17   10.20
  -6  -1   6  308.37   10.40
  -6  -1   6  309.37    9.40
  -6   1   6  297.87    9.60
  -6   1   6  294.27    9.40
  -5  -1   6   31.70    3.40
  -5  -1   6   27.90    2.80
   5  -1  -6   31.90    4.10
  -5   1   6   28.30    2.90
  -5   1   6   27.20    2.80
  -4  -1   6 1175.58   24.80
   4  -1  -6 1201.48   27.80
  -4  -1   6 1166.78   27.10
  -4  -1   6 1185.08   25.70
  -4   1   6 1210.68   25.30
  -4   1   6 1197.08   26.20
  -3  -1   6  319.97    9.20
   3  -1  -6  314.97   11.30
   3  -1  -6  312.57    9.20
  -3  -1   6  319.87   10.60
  -3  -1   6  318.57    9.40
  -3   1   6  304.67    9.60
   3   1  -6  324.67    8.90
  -3   1   6  321.17    9.10
   2  -1  -6  452.85   11.40
   2  -1  -6  464.45   14.50
  -2  -1   6  468.25   12.20
  -2   1   6  475.95   12.50
   2   1  -6  464.65   12.30
  -1  -1   6  363.76   13.30
   1  -1  -6  377.86    9.70
  -1  -1   6  372.16   10.60
  -1   1   6  349.17   10.30
   1   1  -6  363.26   10.90
   0  -1   6    6.60    2.00
   0  -1   6    8.20    3.00
   0   1   6    6.30    2.20
   0   1   6    8.50    1.70
  -1  -1  -6  627.94   16.70
   1  -1   6  647.04   17.40
   1  -1   6  588.74   18.00
   1   1   6  590.54   15.30
   2  -1   6   24.60    3.70
  -2  -1  -6   24.80    3.30
   2  -1   6   24.00    3.60
  -2  -1  -6   25.90    2.90
   2   1   6   26.20    3.30
  -3  -1  -6  579.14   15.10
   3  -1   6  587.24   17.50
   3  -1   6  565.94   16.50
  -3  -1  -6  577.34   14.80
   3   1   6  558.34   17.10
   3   1   6  594.64   14.80
  -4  -1  -6   46.30    4.10
   4  -1   6   49.30    4.70
   4  -1   6   44.00    4.50
  -4   1  -6   44.00    4.10
   4   1   6   49.10    4.70
   4   1   6   47.00    3.60
  -5  -1  -6   53.89    4.50
   5  -1   6   58.79    4.90
   5  -1   6   44.70    4.80
  -5   1  -6   47.90    4.30
   5   1   6   51.89    4.80
   6  -1   6  196.88    9.00
  -6  -1  -6  200.98    8.10
   6  -1   6  200.68    8.70
  -6   1  -6  216.58    8.60
   6   1   6  191.38    8.40
  -7  -1  -6   42.20    4.60
   7  -1   6   42.90    5.40
  -7   1  -6   47.90    5.00
   7   1   6   43.10    4.80
  -7  -2   6   89.19    4.40
   7  -2  -6   84.39    6.10
  -7  -2   6   87.69    5.60
  -7   2   6   93.79    4.90
  -7   2   6   90.49    4.70
   6  -2  -6  141.69    7.60
  -6  -2   6  145.69    4.60
  -6  -2   6  140.29    5.50
  -6  -2   6  144.89    6.90
  -6   2   6  145.19    5.50
  -6   2   6  145.39    6.00
  -5  -2   6  138.09    4.80
  -5  -2   6  127.69    6.40
  -5  -2   6  130.49    5.20
   5  -2  -6  133.39    7.50
  -5   2   6  128.09    4.80
  -5   2   6  132.69    5.70
  -4  -2   6  110.29    4.60
  -4  -2   6  108.79    4.50
  -4  -2   6  108.39    5.90
   4  -2  -6  110.29    7.10
  -4   2   6  109.49    5.00
  -4   2   6  109.79    4.20
   3  -2  -6  275.67   11.00
  -3  -2   6  258.27    7.70
  -3  -2   6  261.37    7.90
   3  -2  -6  266.77    7.90
  -3   2   6  255.77    8.10
   2  -2  -6  437.56   11.70
   2  -2  -6  432.86   14.70
  -2  -2   6  447.86   11.80
  -2  -2   6  457.05   15.00
  -2  -2   6  437.16   11.20
  -2   2   6  445.36   11.50
  -1  -2   6  625.04   14.10
   1  -2  -6  644.44   16.20
  -1  -2   6  635.24   15.50
   1  -2  -6  630.44   18.50
  -1  -2   6  622.64   18.40
  -1   2   6  620.64   14.90
   0  -2   6 1527.75   31.00
   0  -2  -6 1547.05   34.90
   0  -2   6 1415.36   34.60
   0   2   6 1524.55   30.40
   0   2   6 1512.85   29.40
  -1  -2  -6   53.19    5.00
  -1  -2  -6   52.99    3.30
   1  -2   6   56.29    4.90
   1  -2   6   56.39    4.00
  -2  -2  -6  319.37   10.90
   2  -2   6  326.57   12.10
  -2  -2  -6  283.77    8.30
   2  -2   6  297.47   10.10
  -3  -2  -6  445.46   11.60
   3  -2   6  448.86   14.80
   3  -2   6  439.56   13.30
  -3  -2  -6  445.46   12.90
   3   2   6  434.76   14.20
  -4  -2  -6    1.00    1.60
  -4  -2  -6    2.30    2.40
   4  -2   6    1.20    2.20
   4  -2   6    4.90    2.10
  -4   2  -6    1.20    1.90
   4   2   6    2.60    2.30
  -5  -2  -6  371.06   11.00
   5  -2   6  357.16   13.10
   5  -2   6  386.16   12.60
  -5   2  -6  394.56   12.10
   5   2   6  372.96   11.90
  -6  -2  -6    0.40    2.20
   6  -2   6   -3.70    2.60
   6  -2   6   -4.10    2.40
  -6   2  -6   -0.40    2.30
   6   2   6    2.90    2.30
  -6  -3   6  123.69    6.30
  -6  -3   6  111.59    4.80
   6  -3  -6  113.39    7.60
  -6   3   6  112.49    5.10
  -5  -3   6   18.30    2.60
  -5  -3   6   12.80    2.00
  -5  -3   6   11.70    2.30
   5  -3  -6   15.90    3.60
  -5   3   6   14.20    1.90
   4  -3  -6  402.96   10.00
  -4  -3   6  409.26   11.00
  -4  -3   6  408.76   13.10
  -4  -3   6  367.66    9.30
   4  -3  -6  399.96   13.80
  -4   3   6  394.06   10.40
   3  -3  -6  114.39    7.40
  -3  -3   6  109.09    6.20
  -3  -3   6  100.29    3.70
  -3  -3   6  106.99    5.00
   3  -3  -6  108.39    5.10
  -3   3   6  101.89    4.30
  -2  -3   6  115.79    5.30
   2  -3  -6  104.19    7.30
  -2  -3   6  102.89    6.10
   2  -3  -6  103.89    5.40
  -2   3   6  116.59    4.40
   1  -3  -6   54.59    5.60
  -1  -3   6   49.70    4.60
  -1  -3   6   51.19    3.80
   1  -3  -6   52.59    4.20
  -1   3   6   54.19    2.90
   0  -3   6   16.20    2.70
   0  -3   6   16.10    2.80
   0  -3  -6   20.60    4.10
   0  -3   6   20.50    3.20
   0  -3  -6   15.80    2.80
   1  -3   6  160.28    7.90
   1  -3   6  151.38    5.90
  -1  -3  -6  144.89    7.90
  -1  -3  -6  154.38    7.20
   2  -3   6   14.30    2.80
   2  -3   6   16.10    2.60
  -2  -3  -6   16.50    2.70
  -2  -3  -6   17.00    3.50
   3  -3   6  224.88    9.50
  -3  -3  -6  195.78    6.30
   3  -3   6  204.08    8.10
  -3  -3  -6  210.18    8.70
  -3  -3  -6  221.88    9.00
  -4  -3  -6   10.00    2.10
  -4  -3  -6   13.90    2.70
   4  -3   6    9.90    2.80
   4  -3   6   13.40    2.90
  -4  -3  -6   13.90    3.20
  -4   3  -6   13.70    2.60
   4   3   6   10.80    3.00
   5  -3   6   19.80    3.50
   5  -3   6   19.50    3.60
  -5  -3  -6   16.80    2.80
  -5  -3  -6   19.00    2.80
  -5   3  -6   19.90    2.90
   5   3   6   18.50    3.00
   4  -4  -6   26.00    3.80
  -4  -4   6   23.30    3.40
   4  -4  -6   27.30    4.80
   3  -4  -6   56.09    6.70
  -3  -4   6   56.39    4.60
  -3  -4   6   58.99    4.10
   3  -4  -6   57.99    4.30
   2  -4  -6   90.69    5.20
   2  -4  -6   94.19    7.50
  -2  -4   6   86.99    4.80
  -2  -4   6   82.59    5.40
  -1  -4   6  125.39    6.30
   1  -4  -6  124.59    8.20
  -1  -4   6  123.09    5.80
   1  -4  -6  116.19    6.10
   0  -4  -6  285.67   10.10
   0  -4  -6  306.77   12.10
   0  -4   6  293.97   10.40
   0  -4   6  303.37    9.70
  -1  -4  -6    6.20    2.50
   1  -4   6    8.50    2.60
  -1  -4  -6    6.50    3.60
  -2  -4  -6   73.19    5.50
  -2  -4  -6   67.29    6.70
   2  -4   6   70.99    5.60
   2  -4   6   65.39    5.70
   3  -4   6  108.89    6.60
   3  -4   6  117.89    6.30
  -3  -4  -6  113.79    6.60
  -3  -4  -6  107.99    7.60
  -8   0   7   36.50    3.80
  -8   0   7   37.00    4.10
  -7   0   7  150.88    6.60
  -7   0   7  194.78    7.60
   7   0  -7  199.38    7.30
  -6   0   7   30.90    3.00
  -6   0   7   23.20    3.10
  -5   0   7  377.26   11.40
  -5   0   7  363.96   11.00
  -4   0   7   71.59    4.20
  -4   0   7   67.69    4.10
  -3   0   7  217.58    7.70
  -3   0   7  211.58    7.80
  -2   0   7   79.19    4.30
   2   0  -7   63.89    4.00
  -1   0   7  186.78    7.20
   0   0   7 1257.97   27.40
   0   0   7 1258.37   29.60
   1   0   7   58.09    4.70
   2   0   7 1071.89   25.80
   2   0   7 1021.10   26.60
   3   0   7  160.08    8.10
   3   0   7  165.08    7.70
  -3   0  -7  156.98    7.10
   4   0   7   48.90    4.90
   4   0   7   44.70    4.40
  -4   0  -7   44.00    4.30
   5   0   7  569.34   16.90
   5   0   7  586.14   16.50
  -5   0  -7  575.24   16.00
  -6   0  -7   13.80    2.70
   6   0   7   10.50    2.80
  -8  -1   7    3.40    2.30
  -8  -1   7    1.10    1.70
  -8   1   7   -1.50    1.80
  -8   1   7   -2.20    2.20
  -7  -1   7  346.27   11.30
  -7  -1   7  343.17   10.30
   7  -1  -7  353.36   11.00
  -7   1   7  340.27   10.40
  -7   1   7  350.86   10.60
  -6  -1   7   81.89    5.20
  -6  -1   7   88.59    4.70
   6  -1  -7  100.09    6.00
  -6   1   7   92.19    4.80
  -6   1   7   94.79    4.80
  -5  -1   7   11.30    2.20
  -5  -1   7   13.90    2.30
   5  -1  -7   15.80    3.10
  -5   1   7   12.30    2.00
  -5   1   7   12.00    2.10
  -4  -1   7 1015.80   23.80
  -4  -1   7 1002.70   22.30
   4  -1  -7 1004.30   24.50
   4   1  -7  932.71   20.00
  -4   1   7 1012.00   21.70
  -4   1   7  991.00   22.60
   3  -1  -7  444.36   12.10
  -3  -1   7  480.95   12.60
   3  -1  -7  474.85   14.70
  -3   1   7  479.05   12.80
   3   1  -7  459.95   11.80
   2  -1  -7  934.11   20.20
  -2  -1   7  921.01   21.30
  -2   1   7  961.70   21.50
   2   1  -7  946.41   21.10
  -1  -1   7  422.06   14.70
  -1  -1   7  436.06   11.90
   1  -1  -7  422.26   11.20
  -1   1   7  427.06   12.00
   0  -1   7   68.89    5.40
   0   1   7   76.99    4.20
   0   1   7   72.79    4.90
  -1  -1  -7  243.68    9.30
   1  -1   7  243.18   10.30
   1  -1   7  235.78    9.50
   1   1   7  240.28    8.60
  -2  -1  -7  464.85   13.50
   2  -1   7  463.45   14.50
  -2  -1  -7  472.25   12.80
   2  -1   7  468.95   15.40
   2   1   7  498.45   13.10
  -3  -1  -7  277.47    9.10
   3  -1   7  277.97   10.60
   3  -1   7  290.17   11.30
  -3  -1  -7  280.77    9.20
   3   1   7  260.87   11.00
   3   1   7  292.47    9.20
  -4  -1  -7   57.19    4.50
   4  -1   7   53.69    5.00
   4  -1   7   57.19    4.90
   4   1   7   57.29    4.00
   4   1   7   52.99    5.10
  -4   1  -7   51.59    4.40
   5  -1   7   57.39    5.00
  -5  -1  -7   53.29    4.60
   5  -1   7   54.69    5.20
   5   1   7   43.50    4.70
  -5   1  -7   58.39    4.70
  -6  -1  -7   39.10    4.70
   6  -1   7   37.30    4.90
   6  -1   7   35.30    4.90
  -6   1  -7   40.10    4.50
   6   1   7   29.60    4.60
  -7  -2   7  125.49    6.30
  -7  -2   7  120.99    5.30
   7  -2  -7  130.89    7.20
  -7   2   7  116.79    5.60
  -7   2   7  118.79    5.40
  -6  -2   7   12.30    1.90
  -6  -2   7   14.00    2.60
   6  -2  -7   20.60    3.70
  -6   2   7   14.80    2.20
  -6   2   7   12.30    2.00
  -5  -2   7  222.98    8.70
  -5  -2   7  215.58    7.00
  -5  -2   7  219.38    6.20
   5  -2  -7  211.28    9.50
  -5   2   7  211.98    7.60
  -5   2   7  219.08    6.40
  -4  -2   7   47.30    3.20
   4  -2  -7   39.90    5.30
  -4  -2   7   46.40    4.10
  -4  -2   7   49.40    2.90
  -4   2   7   47.70    3.40
  -3  -2   7   76.89    4.10
   3  -2  -7   96.29    6.60
   3  -2  -7   94.19    4.20
  -3  -2   7   93.89    4.10
  -3   2   7   84.89    4.30
  -2  -2   7   25.60    4.00
   2  -2  -7   29.00    3.20
  -2  -2   7   34.20    3.10
  -2  -2   7   29.40    2.60
   2  -2  -7   32.90    4.70
  -2  -2   7   28.00    2.70
  -2   2   7   30.40    2.70
  -1  -2   7  141.89    5.70
  -1  -2   7  130.49    7.50
   1  -2  -7  130.89    7.50
   1  -2  -7  135.39    6.20
  -1   2   7  139.99    5.50
   0  -2   7  702.03   20.40
   0  -2   7  738.73   17.20
   0  -2  -7  735.83   20.20
   0   2   7  727.03   16.10
   0   2   7  715.13   16.60
   1  -2   7   77.29    4.80
   1  -2   7   81.09    6.00
  -1  -2  -7   84.69    4.10
  -1  -2  -7   85.89    6.00
  -2  -2  -7  572.14   16.30
  -2  -2  -7  580.84   13.50
   2  -2   7  563.84   15.60
   2  -2   7  589.24   17.90
   3  -2   7  103.79    6.00
  -3  -2  -7   99.39    5.80
  -3  -2  -7  113.89    5.00
   3  -2   7   99.89    6.60
   3   2   7  100.29    6.80
  -4  -2  -7   29.30    3.50
   4  -2   7   29.90    4.40
  -4  -2  -7   24.50    3.70
   4  -2   7   33.10    4.20
   4   2   7   29.10    4.50
   5  -2   7  376.46   12.50
  -5  -2  -7  365.36   10.80
   5  -2   7  379.56   13.30
   5   2   7  358.46   12.00
  -5   2  -7  369.66   12.00
   6  -2   7    7.80    3.10
  -6  -2  -7    7.60    2.60
   6  -2   7    8.40    3.00
   6   2   7    7.50    2.80
  -6   2  -7    5.60    2.80
   6  -3  -7   42.00    6.10
  -6   3   7   37.30    3.40
  -5  -3   7    5.80    1.70
  -5  -3   7    7.70    2.70
  -5  -3   7    3.90    1.80
   5  -3  -7    5.10    3.40
  -5   3   7    2.80    1.60
  -4  -3   7  337.57    8.50
  -4  -3   7  342.37    9.60
  -4  -3   7  328.27   11.70
   4  -3  -7  330.27    8.80
   4  -3  -7  337.17   12.70
  -4   3   7  333.67    9.30
  -3  -3   7  146.29    7.50
   3  -3  -7  156.58    6.10
  -3  -3   7  154.58    6.00
  -3  -3   7  148.09    4.90
   3  -3  -7  146.99    8.50
  -3   3   7  150.18    5.40
   2  -3  -7  310.97    9.60
   2  -3  -7  317.07   12.20
  -2  -3   7  306.97    9.40
  -2  -3   7  291.87   11.10
  -2   3   7  300.77    8.50
   1  -3  -7  144.29    6.70
   1  -3  -7  151.08    8.40
  -1  -3   7  140.79    5.90
  -1  -3   7  132.49    7.30
  -1   3   7  148.09    5.00
   0  -3  -7   10.50    2.50
   0  -3   7   10.30    1.80
   0  -3  -7    6.30    2.90
   0  -3   7   10.60    2.60
  -1  -3  -7   82.09    5.30
   1  -3   7   74.39    5.80
  -1  -3  -7   62.79    6.00
   1  -3   7   75.99    4.30
  -2  -3  -7  138.59    7.60
   2  -3   7  140.79    6.30
   2  -3   7  131.29    7.60
  -2  -3  -7  133.99    6.90
  -3  -3  -7  104.29    6.10
   3  -3   7   90.89    6.50
  -3  -3  -7   99.49    6.60
   3  -3   7   92.89    5.60
  -4  -3  -7   18.10    3.60
  -4  -3  -7   22.60    3.30
   4  -3   7   24.40    3.70
   4  -3   7   31.20    4.90
  -4   3  -7   16.50    2.80
   4   3   7   20.70    3.40
  -3  -4   7   17.00    2.40
  -3  -4   7   11.60    2.80
   3  -4  -7   18.10    4.20
   3  -4  -7   14.50    2.70
   2  -4  -7    5.20    2.40
   2  -4  -7    7.80    3.90
  -2  -4   7    3.50    1.90
  -2  -4   7    7.40    2.50
  -1  -4   7   37.40    3.50
  -1  -4   7   35.60    4.50
   1  -4  -7   46.00    6.30
   1  -4  -7   40.70    4.50
   0  -4  -7  169.18    9.20
   0  -4  -7  178.78    7.70
   0  -4   7  165.78    7.80
  -1  -4  -7   33.40    5.20
   1  -4   7   29.60    4.80
  -1  -4  -7   28.90    3.60
  -2  -4  -7  128.09    7.00
   2  -4   7  133.19    7.20
  -2  -4  -7  129.79    8.30
  -8   0   8  108.99    6.10
  -8   0   8  115.69    5.60
   7   0  -8  130.89    6.60
  -7   0   8  129.79    5.90
  -7   0   8  116.49    6.00
  -6   0   8    4.70    1.70
  -6   0   8    3.70    1.80
  -5   0   8  619.04   15.80
  -5   0   8  603.14   15.80
  -4   0   8    0.90    1.40
  -4   0   8   -1.00    1.30
  -3   0   8  215.08    7.80
  -2   0   8   31.80    3.10
   2   0  -8   32.80    3.80
  -1   0   8   38.90    3.40
   0   0   8  634.94   18.10
   0   0   8  625.74   16.00
   1   0   8  161.08    7.70
   2   0   8  552.74   17.20
   2   0   8  550.74   16.20
   3   0   8   -0.30    1.70
  -3   0  -8    1.70    1.70
   3   0   8    2.30    2.20
   4   0   8  102.19    6.10
   4   0   8   98.79    6.40
  -4   0  -8   90.19    5.80
  -5   0  -8  301.47   10.50
   5   0   8  290.17   10.50
   5   0   8  280.97   11.00
   6   0   8    2.00    2.50
  -6   0  -8    4.40    2.50
  -7  -1   8  236.88    8.00
  -7  -1   8  219.28    8.60
   7  -1  -8  229.48    9.00
  -7   1   8  225.28    7.90
  -7   1   8  230.68    8.10
  -6  -1   8   25.40    3.40
   6  -1  -8   33.10    5.00
  -6  -1   8   26.10    3.20
  -6   1   8   29.90    3.10
  -6   1   8   23.40    3.10
  -5  -1   8  148.99    6.80
  -5  -1   8  149.29    6.20
   5  -1  -8  149.59    7.50
  -5   1   8  151.68    6.00
  -5   1   8  143.69    6.20
   4  -1  -8  339.87   12.10
  -4  -1   8  343.87   11.20
  -4  -1   8  349.47   10.30
  -4   1   8  340.07   10.40
   3  -1  -8  154.68    5.40
   3  -1  -8  146.59    7.70
  -3  -1   8  149.79    6.20
   3   1  -8  137.99    6.40
  -3   1   8  152.78    6.30
   2  -1  -8 1075.39   23.20
  -2  -1   8 1079.89   24.40
  -2   1   8 1102.39   24.30
   1  -1  -8  821.32   19.00
  -1  -1   8  863.01   23.20
  -1  -1   8  869.61   19.90
  -1   1   8  831.02   19.90
   0  -1   8  206.68    9.50
   0  -1   8  195.08    8.70
   0   1   8  202.18    7.30
   0   1   8  205.88    7.90
   1  -1   8  358.66   12.90
   1  -1   8  325.77   11.90
   1   1   8  344.97   10.70
  -2  -1  -8  282.47    9.00
  -2  -1  -8  252.97    9.40
   2  -1   8  274.57   10.50
   2  -1   8  269.77   10.90
   2   1   8  265.27    8.90
  -3  -1  -8   71.69    4.80
   3  -1   8   69.89    5.60
   3  -1   8   72.99    5.70
  -3  -1  -8   75.09    5.00
   3   1   8   75.29    6.00
   3   1   8   72.49    4.50
  -4  -1  -8  264.37    8.50
  -4  -1  -8  281.47    9.30
   4  -1   8  269.57   10.50
   4  -1   8  273.27   10.60
  -4   1  -8  246.28    9.60
   4   1   8  258.07   10.40
   4   1   8  279.17    9.10
   5  -1   8   17.40    3.10
  -5  -1  -8   22.70    3.10
   5  -1   8   20.30    3.50
  -5   1  -8   20.30    3.30
   5   1   8   20.40    3.60
   6  -1   8   27.30    4.70
  -6  -1  -8   15.50    3.10
   6  -1   8   17.40    3.20
   6   1   8   19.40    3.30
  -6   1  -8   31.50    4.60
   7  -2  -8   80.89    7.10
  -7  -2   8   94.89    5.80
  -7  -2   8   89.29    4.60
  -7   2   8   80.19    4.80
  -6  -2   8    2.30    1.60
   6  -2  -8    1.10    3.40
  -6  -2   8    1.30    1.90
  -6   2   8   -1.00    1.50
  -6   2   8    1.40    1.70
  -5  -2   8  390.96   12.20
  -5  -2   8  375.96   10.40
   5  -2  -8  374.16   13.00
  -5   2   8  386.56   11.00
  -4  -2   8   -0.40    1.30
   4  -2  -8   -2.10    2.80
  -4   2   8    0.40    1.40
  -3  -2   8  113.69    5.10
   3  -2  -8  119.79    4.80
   3  -2  -8  109.49    7.20
  -3   2   8  122.39    5.30
  -2  -2   8   18.70    2.70
  -2  -2   8   17.70    3.30
   2  -2  -8   22.30    3.10
  -2  -2   8   15.30    2.10
   2  -2  -8   10.50    3.20
  -2   2   8   13.90    2.00
   1  -2  -8    7.20    2.90
  -1  -2   8    7.10    2.30
  -1  -2   8    9.20    1.90
  -1   2   8    6.00    1.40
   0  -2  -8  305.37   11.70
   0  -2   8  301.87    9.50
   0  -2   8  310.47   12.00
   0  -2  -8  307.87    7.50
   0  -2  -8  289.57    7.80
   0   2   8  317.77    9.10
   0   2   8  303.27    8.80
   1  -2   8   53.29    5.10
  -1  -2  -8   54.49    5.40
   1  -2   8   61.69    4.60
  -1  -2  -8   54.39    3.80
   1   2   8   53.89    3.40
   2  -2   8  385.96   12.10
   2  -2   8  380.36   13.80
  -2  -2  -8  379.76   10.00
  -2  -2  -8  394.36   12.70
   3  -2   8   -0.90    2.10
  -3  -2  -8   -1.60    1.80
  -3  -2  -8   -1.30    2.70
   3  -2   8    0.10    2.10
   3   2   8   -0.50    2.60
  -4  -2  -8   60.89    4.60
  -4  -2  -8   65.39    5.10
   4  -2   8   61.49    5.70
   4  -2   8   59.89    5.20
  -4   2  -8   50.59    4.90
   4   2   8   56.49    5.40
  -5  -2  -8  179.68    7.20
   5  -2   8  200.08    9.40
   5  -2   8  190.18    8.60
  -5   2  -8  188.98    8.10
   5   2   8  185.98    8.40
  -5  -3   8   56.19    3.50
  -5  -3   8   56.09    5.80
   5  -3  -8   69.09    6.80
  -5   3   8   51.29    3.70
  -4  -3   8  125.79    6.90
  -4  -3   8  123.59    4.70
  -4  -3   8  125.99    5.10
   4  -3  -8  141.49    8.60
  -4   3   8  113.99    5.00
   3  -3  -8   54.09    6.00
   3  -3  -8   52.29    4.20
  -3  -3   8   56.09    3.60
  -3  -3   8   51.99    5.00
  -3   3   8   58.19    3.60
   2  -3  -8  346.57   10.50
  -2  -3   8  361.96   12.50
   2  -3  -8  360.96   13.30
  -2   3   8  354.86    9.60
   1  -3  -8  258.57   11.10
   1  -3  -8  271.67    9.30
  -1  -3   8  257.67   10.30
  -1   3   8  257.37    7.50
   0  -3  -8   52.79    4.50
   0  -3   8   39.10    4.60
   0  -3  -8   51.99    5.60
   0  -3   8   43.50    3.50
   1  -3   8  107.79    7.00
  -1  -3  -8  117.69    7.40
  -1  -3  -8  119.49    6.50
   1  -3   8  113.69    5.50
   2  -3   8  123.99    6.20
  -2  -3  -8  107.29    6.50
   2  -3   8  116.69    7.20
  -2  -3  -8  136.29    7.50
  -3  -3  -8   35.80    5.70
  -3  -3  -8   43.00    4.70
   3  -3   8   33.80    4.60
   3  -3   8   45.20    5.50
   3   3   8   31.90    4.10
  -4  -3  -8  111.49    6.50
   4  -3   8  113.79    7.50
   4  -3   8  103.59    6.60
   4   3   8   92.79    6.50
  -4   3  -8   94.59    6.00
   3  -4  -8   36.90    5.60
  -3  -4   8   22.40    3.40
   3  -4  -8   23.60    3.10
  -2  -4   8    2.60    2.80
   2  -4  -8   -2.20    4.10
   2  -4  -8    3.60    2.40
  -2  -4   8    0.80    1.70
   1  -4  -8    0.20    2.50
   1  -4  -8    3.50    4.00
  -1  -4   8   -0.50    2.60
   0  -4  -8   61.29    7.10
   0  -4   8   60.89    5.60
   0  -4  -8   54.09    5.30
   1  -4   8   12.80    3.10
  -1  -4  -8   13.80    4.40
  -1  -4  -8    6.90    2.80
  -7   0   9   25.20    3.20
   7   0  -9   22.60    3.70
  -7   0   9   20.30    2.90
  -6   0   9   40.10    3.60
  -6   0   9   40.50    3.80
  -5   0   9  607.54   15.80
  -5   0   9  589.94   15.40
  -4   0   9   31.40    3.20
  -3   0   9  636.44   15.80
   3   0  -9  570.84   13.50
  -2   0   9   78.69    4.70
  -1   0   9    1.50    1.30
  -1   0   9    2.30    1.90
   0   0   9  215.08    9.20
   0   0   9  213.08    7.80
   1   0   9   88.39    5.70
   2   0   9  416.86   13.50
   2   0   9  420.76   14.50
  -3   0  -9   -1.40    1.80
   3   0   9    1.60    2.40
   3   0   9    2.30    1.90
   4   0   9  101.29    6.20
  -4   0  -9   95.49    5.80
   4   0   9  100.49    6.70
   5   0   9   37.10    4.90
  -5   0  -9   38.00    5.00
   5   0   9   43.30    5.30
   7  -1  -9   78.49    6.60
  -7  -1   9   82.99    5.40
  -7  -1   9   81.99    4.70
  -7   1   9   84.49    4.80
  -7   1   9   81.89    4.70
   6  -1  -9   53.59    5.50
  -6  -1   9   57.49    3.90
  -6  -1   9   40.80    4.10
  -6   1   9   53.49    4.00
  -6   1   9   53.29    3.90
  -5  -1   9  133.39    6.40
   5  -1  -9  130.89    7.40
  -5  -1   9  125.89    5.70
  -5   1   9  131.59    5.80
   4  -1  -9   78.09    6.20
  -4  -1   9   80.89    4.60
  -4   1   9   87.89    4.80
  -3  -1   9    6.90    1.80
  -3   1   9    9.50    1.80
  -2  -1   9  457.45   12.70
  -2   1   9  459.75   12.90
  -1  -1   9  419.86   14.40
  -1  -1   9  418.26   11.80
  -1   1   9  422.16   12.00
   0  -1   9  245.58   10.50
   0  -1   9  252.47   10.00
   0   1   9  253.37    8.50
   0   1   9  248.68    9.00
   1  -1   9  480.65   15.60
   1  -1   9  461.65   14.80
   1   1   9  485.05   13.60
  -2  -1  -9   89.49    5.00
   2  -1   9   86.69    6.20
  -2  -1  -9   74.79    5.50
   2  -1   9   94.99    6.20
   2   1   9   79.19    4.90
   3  -1   9  120.49    7.00
  -3  -1  -9  108.99    6.20
   3  -1   9  123.19    7.20
  -3  -1  -9  128.69    6.10
   3   1   9  127.69    7.50
   3   1   9  127.19    5.90
  -4  -1  -9  301.77    9.60
  -4  -1  -9  314.07   10.20
   4  -1   9  316.77   11.60
   4  -1   9  326.17   11.90
   4   1   9  323.57   10.10
   4   1   9  332.07   12.00
  -4   1  -9  305.47   10.80
   5  -1   9    8.40    3.10
   5  -1   9    6.50    2.80
  -5  -1  -9    7.40    2.70
  -5   1  -9    9.80    2.60
   6  -2  -9   21.70    4.30
  -6  -2   9   17.40    2.30
  -6   2   9   24.10    3.20
  -5  -2   9  353.86   10.10
   5  -2  -9  375.66   13.10
  -5   2   9  371.86   10.70
  -4  -2   9   15.90    2.20
   4  -2  -9   17.80    3.90
  -4   2   9   18.70    2.30
  -3  -2   9  342.47    9.80
  -3  -2   9  314.97    9.20
   3  -2  -9  350.76   13.00
   3  -2  -9  358.96    9.30
  -3  -2   9  348.87   13.10
  -3   2   9  342.07   10.10
   2  -2  -9   49.80    5.70
  -2  -2   9   44.90    4.70
  -2  -2   9   43.80    3.30
   2  -2  -9   40.00    3.80
  -2  -2   9   41.50    3.40
  -2   2   9   38.00    3.40
   1  -2  -9    1.80    2.80
  -1  -2   9    1.40    2.00
  -1  -2   9    0.90    1.90
  -1   2   9    1.70    1.60
   0  -2   9  121.19    7.10
   0  -2   9  107.89    5.70
   0  -2  -9  119.59    4.50
   0  -2  -9  111.99    7.20
   0   2   9  109.49    4.80
  -1  -2  -9   30.80    2.80
   1  -2   9   29.40    4.20
  -1  -2  -9   34.60    4.80
   1  -2   9   28.40    4.10
   1   2   9   32.10    3.30
   2  -2   9  238.38    9.00
  -2  -2  -9  231.78    7.10
  -2  -2  -9  232.18    9.60
   2  -2   9  215.48   10.00
   2   2   9  217.78    6.60
   3  -2   9    0.10    2.20
  -3  -2  -9    0.40    2.90
   3  -2   9    2.20    2.40
  -3  -2  -9    0.20    2.00
   3   2   9   -1.80    2.50
   4  -2   9   68.49    6.10
  -4  -2  -9   67.69    6.80
  -4  -2  -9   65.89    4.90
   4  -2   9   83.09    5.90
  -4   2  -9   71.39    5.40
   4   2   9   53.29    5.70
   5  -2   9   40.90    5.80
  -5  -2  -9   32.00    4.50
   5  -2   9   26.80    4.20
   5   2   9   28.70    4.00
  -5   2  -9   20.40    3.30
   5  -3  -9   65.69    7.20
  -5  -3   9   55.19    5.60
  -5   3   9   43.80    3.80
   4  -3  -9   27.80    4.80
  -4  -3   9   23.40    3.60
  -4  -3   9   21.00    2.30
  -4   3   9   24.30    3.20
   3  -3  -9   -1.50    3.60
   3  -3  -9    5.80    2.20
  -3  -3   9   -0.20    2.20
  -3   3   9    3.70    1.80
   2  -3  -9  179.88    7.00
   2  -3  -9  170.08    9.30
  -2  -3   9  172.88    8.30
  -2   3   9  166.58    6.00
  -1  -3   9  162.48    8.20
   1  -3  -9  161.28    9.00
   1  -3  -9  166.78    7.10
  -1   3   9  157.48    5.80
   0  -3   9  123.99    7.30
   0  -3  -9  126.19    6.50
   0  -3   9  122.39    5.20
   0  -3  -9  124.49    7.80
  -1  -3  -9  174.28    8.80
  -1  -3  -9  157.78    7.60
   1  -3   9  169.08    6.70
   1  -3   9  153.38    8.40
  -2  -3  -9   33.50    4.80
   2  -3   9   33.00    4.50
   2  -3   9   25.40    4.00
  -2  -3  -9   35.80    4.60
   3  -3   9   52.59    6.10
  -3  -3  -9   57.79    5.30
   3  -3   9   45.40    5.40
  -3  -3  -9   39.50    6.30
   3   3   9   40.70    5.50
   7   0 -10    2.70    3.50
  -7   0  10   -2.90    1.70
  -7   0  10   -3.10    2.00
  -6   0  10  107.39    5.60
  -6   0  10  113.19    5.50
  -5   0  10  243.58    8.40
  -4   0  10    4.40    1.60
  -3   0  10  732.73   18.20
  -2   0  10  143.19    6.40
  -1   0  10  160.08    6.60
  -1   0  10  159.08    7.90
   0   0  10  219.78    9.30
   1   0  10   55.49    4.70
   2   0  10  142.89    8.00
   2   0  10  144.99    7.30
   3   0  10   55.09    5.50
  -3   0 -10   49.40    4.60
   3   0  10   47.90    4.90
  -4   0 -10   63.49    5.40
   4   0  10   45.80    5.70
   4   0  10   44.30    4.90
   5   0  10    4.10    2.80
   5   0  10    8.90    3.30
  -5   0 -10    9.10    2.90
  -7  -1  10   31.00    4.10
   7  -1 -10   30.20    4.70
  -7  -1  10   21.90    2.70
  -7   1  10   33.70    4.00
  -7   1  10   36.90    3.70
   6  -1 -10  152.58    8.10
  -6  -1  10  155.18    6.40
  -6   1  10  153.18    6.50
  -5  -1  10   47.70    3.70
   5  -1 -10   34.20    5.30
  -5   1  10   48.70    3.90
  -4  -1  10   47.80    3.70
   4  -1 -10   38.10    5.00
  -4   1  10   48.10    3.80
  -3  -1  10   -1.80    1.50
  -3   1  10    0.80    1.50
  -2  -1  10   73.99    5.90
  -2  -1  10   78.39    4.60
  -2   1  10   84.39    4.80
  -1  -1  10  206.38    9.40
  -1  -1  10  204.48    7.50
  -1   1  10  193.28    7.40
  -1   1  10  196.38    8.30
   0  -1  10  317.57   11.90
   0  -1  10  316.27   11.40
   0   1  10  306.07   10.40
  -1  -1 -10  301.67   11.00
   1  -1  10  301.87   11.30
   1  -1  10  292.57   11.50
   1   1  10  300.17   10.00
   2  -1  10   13.90    3.20
   2  -1  10   11.70    2.30
  -2  -1 -10   15.20    2.40
  -2  -1 -10   12.10    3.10
   2   1  10   11.50    2.30
   3  -1  10   89.99    6.50
  -3  -1 -10  101.29    5.70
  -3  -1 -10   90.99    6.10
   3  -1  10   96.89    6.40
   3   1  10   99.49    6.90
   3   1  10   87.79    5.30
  -4  -1 -10  190.48    7.90
   4  -1  10  213.48    9.40
   4  -1  10  193.18    9.10
  -4  -1 -10  186.68    8.50
   4   1  10  214.28    9.60
  -4   1 -10  216.98    8.60
   4   1  10  180.68    7.50
   5  -1  10   10.10    3.30
   5  -1  10   11.60    3.00
  -5  -1 -10   14.10    3.10
   5   1  10    5.90    3.20
  -5   1 -10   14.60    3.20
  -6  -2  10   69.89    4.50
   6  -2 -10   67.69    7.10
  -6   2  10   70.29    4.50
  -5  -2  10  149.79    6.10
   5  -2 -10  163.48    8.90
  -5   2  10  145.29    6.30
  -4  -2  10    2.10    1.70
   4  -2 -10    6.90    3.60
  -4   2  10    2.70    1.60
   3  -2 -10  481.25   15.70
   3  -2 -10  469.25   11.50
  -3  -2  10  472.85   12.30
  -3  -2  10  464.55   15.40
  -3  -2  10  444.06   11.40
  -3   2  10  472.35   12.70
  -2  -2  10   95.39    4.70
   2  -2 -10   97.29    5.20
  -2  -2  10   95.99    6.50
  -2  -2  10   82.79    4.80
   2  -2 -10   94.29    6.90
  -2   2  10   89.49    4.80
  -1  -2  10   52.99    4.50
   1  -2 -10   70.69    6.30
  -1  -2  10   74.59    5.70
  -1   2  10   73.09    4.20
  -1   2  10   69.89    4.20
   0  -2 -10  123.99    7.50
   0  -2  10  125.49    7.30
   0  -2  10  122.39    6.30
   0  -2 -10  115.09    4.80
   0   2  10  118.19    5.00
   1  -2  10   49.30    4.80
  -1  -2 -10   43.70    5.70
  -1  -2 -10   49.60    3.40
   1  -2  10   47.50    5.00
   1   2  10   45.80    3.30
  -2  -2 -10  100.39    6.90
  -2  -2 -10   96.39    4.80
   2  -2  10  100.99    6.10
   2  -2  10   96.59    6.80
  -3  -2 -10   33.10    4.20
  -3  -2 -10   31.80    4.40
   3  -2  10   26.50    3.60
   3  -2  10   31.80    5.00
   3   2  10   35.50    5.30
   4  -2  10   32.80    4.30
   4  -2  10   49.00    5.90
  -4  -2 -10   41.20    4.80
  -4   2 -10   32.50    4.70
   4   2  10   31.50    4.20
  -4  -3  10   16.90    3.20
   4  -3 -10   17.70    4.80
  -4  -3  10   26.50    3.30
   3  -3 -10    2.70    2.40
  -3  -3  10    2.00    2.40
  -3   3  10   -4.60    1.80
  -2  -3  10   35.60    4.70
   2  -3 -10   28.80    4.30
   2  -3 -10   31.40    5.10
  -2   3  10   30.10    3.10
  -1  -3  10   74.89    6.00
   1  -3 -10   80.09    5.40
   1  -3 -10   71.49    7.40
   0  -3 -10   96.79    6.00
   0  -3 -10   93.79    7.40
   0  -3  10  106.49    7.00
  -1  -3 -10  122.39    8.00
   1  -3  10  127.09    7.70
  -1  -3 -10  121.39    6.80
   1  -3  10  123.59    6.00
   2  -3  10   10.10    3.00
  -2  -3 -10    1.50    2.70
  -2  -3 -10    4.30    3.90
   2  -3  10    8.50    3.00
  -6   0  11  113.79    5.60
  -5   0  11   53.79    4.10
  -4   0  11    3.60    1.60
  -3   0  11  493.65   13.90
  -2   0  11   92.89    5.10
  -2   0  11  100.69    6.70
  -1   0  11  278.57   10.70
  -1   0  11  278.87    9.20
   0   0  11  210.78    9.00
   1   0  11   42.60    4.50
   2   0  11  209.58    9.60
   2   0  11  205.38    8.80
  -3   0 -11  147.49    7.00
   3   0  11  138.79    7.20
   3   0  11  153.68    8.20
   4   0  11   41.50    5.20
  -4   0 -11   43.40    5.50
   4   0  11   45.60    5.90
  -6  -1  11  188.38    7.20
   6  -1 -11  192.08    9.20
  -6   1  11  194.68    7.40
   5  -1 -11    6.80    3.50
  -5  -1  11   10.50    2.00
  -5   1  11   11.20    2.10
  -4  -1  11  181.98    7.20
   4  -1 -11  178.98    8.70
  -4   1  11  186.68    7.20
  -3  -1  11    1.60    1.60
   3  -1 -11    1.00    2.70
  -3   1  11    1.70    1.70
  -2  -1  11    9.40    1.90
  -2  -1  11    6.50    2.20
  -2   1  11    2.50    1.60
  -1  -1  11   87.59    4.90
  -1  -1  11   77.89    5.80
  -1   1  11   77.39    5.20
  -1   1  11   83.19    4.60
   0  -1  11    7.80    2.40
   0  -1  11    6.10    2.80
   0   1  11   10.60    2.10
   1  -1  11  216.68    9.40
   1  -1  11  209.08    9.40
  -1  -1 -11  215.68    9.20
   1   1  11  219.08    8.30
   2  -1  11   30.50    4.30
   2  -1  11   21.80    3.60
  -2  -1 -11   22.70    3.90
  -2  -1 -11   22.70    2.90
   2   1  11   22.30    3.70
  -3  -1 -11  104.29    5.90
  -3  -1 -11   98.89    6.60
   3  -1  11  104.59    6.90
   3  -1  11   98.69    7.00
   3   1  11   93.79    5.40
   3   1  11   89.09    7.20
   4  -1  11   39.70    5.60
   4  -1  11   33.10    5.30
  -4  -1 -11   32.50    3.80
  -4   1 -11   32.90    4.90
   4   1  11   31.80    4.60
  -5  -2  11   33.90    3.90
   5  -2 -11   31.30    4.90
  -5   2  11   19.80    2.60
  -4  -2  11    1.50    2.80
  -4  -2  11    1.30    1.80
   4  -2 -11    1.40    3.40
  -4   2  11    2.50    1.80
  -3  -2  11  277.97   11.20
   3  -2 -11  282.47   11.70
   3  -2 -11  280.37    8.10
  -3  -2  11  265.77    8.50
  -3   2  11  278.67    9.10
   2  -2 -11   50.39    6.20
  -2  -2  11   62.09    5.40
   2  -2 -11   43.30    4.50
  -2  -2  11   51.49    4.40
  -2   2  11   51.49    3.90
  -1  -2  11  182.98    7.20
   1  -2 -11  154.58    8.80
  -1  -2  11  187.88    8.80
  -1   2  11  180.68    6.90
  -1   2  11  197.28    6.80
   0  -2  11  115.99    6.30
   0  -2 -11   97.19    7.40
   0  -2  11  106.99    6.70
   0   2  11  119.59    5.10
   1  -2  11   11.30    2.80
   1  -2  11   20.20    3.30
  -1  -2 -11   18.10    3.90
  -1  -2 -11   16.20    2.40
  -2  -2 -11   94.99    5.20
   2  -2  11  102.99    6.70
  -2  -2 -11  100.29    7.30
   2  -2  11  125.79    7.40
   3  -2  11   88.09    6.10
   3  -2  11  101.79    7.10
  -3  -2 -11   77.89    7.00
  -3  -2 -11   66.39    5.80
   3   2  11   74.99    6.60
   3  -3 -11    1.20    4.50
  -3  -3  11   -0.40    2.60
  -3   3  11   -2.00    2.00
  -2  -3  11    3.60    2.70
   2  -3 -11   -1.00    3.90
   2  -3 -11    6.10    2.70
  -2   3  11    2.90    1.80
   1  -3 -11   33.40    5.10
  -1  -3  11   35.20    5.10
   1  -3 -11   37.10    5.10
   0  -3 -11    5.50    2.70
   0  -3 -11    2.10    3.80
   0  -3  11    2.60    2.90
  -1  -3 -11   77.49    6.10
  -1  -3 -11   69.89    7.30
   1  -3  11   78.79    6.60
  -6   0  12   66.19    4.80
  -5   0  12    7.20    1.90
  -4   0  12    8.60    2.10
  -3   0  12  106.89    5.60
  -2   0  12   35.00    3.50
  -2   0  12   44.80    4.80
  -1   0  12  355.46   10.80
  -1   0  12  350.66   12.30
   0   0  12  110.99    6.30
   1   0  12   41.70    4.50
   1   0  12   33.90    4.90
   2   0  12  109.69    7.50
   2   0  12  103.39    6.40
   3   0  12  116.49    6.70
   3   0  12  124.09    7.70
  -3   0 -12  118.39    6.60
   5  -1 -12   13.80    3.90
  -5  -1  12    9.10    2.20
  -5   1  12    7.80    2.10
  -4  -1  12  281.77    9.50
   4  -1 -12  283.87   11.40
  -4   1  12  303.87    9.80
  -3  -1  12    6.00    2.60
   3  -1 -12    8.00    3.40
  -3  -1  12    3.60    1.70
  -3   1  12    1.10    1.80
  -2  -1  12   52.69    5.20
  -2  -1  12   40.60    3.70
  -2   1  12   48.50    5.10
  -2   1  12   52.19    4.00
  -1  -1  12   68.19    5.60
  -1   1  12   65.99    5.00
  -1   1  12   67.69    4.30
   0  -1  12    1.70    2.90
   0  -1 -12    0.20    3.20
   0  -1  12   -0.60    2.10
   0   1  12   -0.70    1.90
   1  -1  12   95.89    6.60
  -1  -1 -12  105.89    6.70
   1  -1  12   99.29    6.80
   1   1  12  119.09    6.00
   2  -1  12   -1.80    2.80
  -2  -1 -12    0.30    3.30
  -2  -1 -12   -1.20    2.40
   2  -1  12    2.40    2.50
   2   1  12    4.40    3.20
   2   1  12    1.50    2.20
  -3  -1 -12   48.40    5.30
   3  -1  12   46.20    6.10
   3  -1  12   36.50    5.50
  -3  -1 -12   50.69    6.40
   3   1  12   41.80    4.70
   3   1  12   43.70    6.30
  -4  -2  12    5.30    2.80
   4  -2 -12    7.20    4.40
  -4  -2  12    5.90    2.00
  -4   2  12   10.20    2.30
  -3  -2  12   63.29    5.70
  -3  -2  12   68.39    4.40
   3  -2 -12   72.59    7.40
  -3   2  12   76.49    4.70
  -2  -2  12   29.30    4.80
   2  -2 -12   27.60    3.20
  -2  -2  12   26.00    3.30
   2  -2 -12   26.90    4.70
  -2   2  12   28.80    4.10
  -2   2  12   26.80    3.50
   1  -2 -12  207.28   10.20
  -1  -2  12  219.08    8.10
  -1  -2  12  227.88    9.80
  -1   2  12  200.08    7.40
   0  -2 -12   85.99    7.50
   0  -2  12   83.49    6.30
   0  -2  12   93.39    5.90
  -1  -2 -12   15.60    4.40
   1  -2  12   28.40    4.30
   1  -2  12   19.60    3.40
   2  -2  12   62.29    6.20
  -2  -2 -12   71.09    7.50
   2  -2  12   71.09    6.40
  -5   0  13   34.40    4.50
  -4   0  13    6.50    2.40
  -3   0  13   17.90    3.80
  -3   0  13   19.10    2.80
  -2   0  13   19.10    3.40
  -2   0  13   30.80    3.50
  -1   0  13   65.59    5.60
   0   0  13   73.59    5.50
   1   0  13   40.40    4.90
   1   0  13   61.69    6.40
   2   0  13   88.99    7.20
   2   0  13   91.19    6.20
  -4  -1  13  230.88    8.30
   4  -1 -13  247.18   10.50
  -4  -1  13  232.68   10.80
  -4   1  13  241.08    8.80
  -3  -1  13   -3.80    2.40
   3  -1 -13    4.40    3.50
  -3  -1  13    0.80    1.90
  -3   1  13    0.40    2.00
  -2  -1  13  160.18    8.40
  -2  -1  13  154.68    6.60
   2  -1 -13  155.38    8.40
  -2   1  13  157.28    7.50
  -2   1  13  165.58    6.70
  -1  -1  13   51.09    5.20
  -1  -1  13   48.50    6.10
   1  -1 -13   45.60    5.90
  -1   1  13   42.40    4.70
   0  -1  13    7.60    3.20
   0  -1  13    3.90    2.40
   0  -1 -13    0.30    3.50
   0   1  13    5.00    2.30
  -1  -1 -13  137.29    7.70
  -1  -1 -13  124.89    6.20
   1  -1  13  124.09    7.40
   1  -1  13  130.09    7.60
   1   1  13  120.59    6.30
   2  -1  13   17.20    3.20
   2  -1  13   24.70    4.00
  -2  -1 -13   12.80    4.10
  -2  -1 -13   14.00    3.00
   2   1  13   21.20    3.00
   2   1  13   21.50    4.60
  -3  -2  13    9.00    2.30
   3  -2 -13   17.80    4.90
  -3  -2  13    5.30    3.00
  -3   2  13   13.50    3.00
  -3   2  13    8.00    2.30
  -2  -2  13    5.90    3.00
   2  -2 -13   13.50    4.40
   2  -2 -13   13.50    2.90
  -2   2  13    9.80    2.10
  -2   2  13    9.70    2.50
   1  -2 -13   70.19    7.40
  -1  -2  13   48.80    5.70
  -1  -2  13   60.09    5.60
   0  -2  13   38.40    5.90
   0  -2  13   48.80    5.60
   0  -2 -13   44.70    5.70
  -4   0  14   -0.40    2.30
  -3   0  14   14.70    2.50
  -3   0  14   17.20    3.30
  -2   0  14   16.10    2.70
  -2   0  14   11.50    2.90
  -1   0  14    7.00    2.70
   0   0  14   46.00    5.10
   1   0  14   24.90    3.80
   1   0  14   25.40    4.20
  -3  -1  14   -2.80    2.10
  -3  -1  14    1.80    2.80
   3  -1 -14   -2.00    3.70
  -3   1  14   -1.00    2.80
  -3   1  14   -1.40    2.20
  -2  -1  14  179.58    9.00
   2  -1 -14  194.88    9.40
  -2   1  14  181.08    8.30
  -2   1  14  191.78    7.30
  -1  -1  14   23.40    3.70
   1  -1 -14   26.10    4.40
  -1  -1  14   23.40    4.20
  -1   1  14   15.80    2.90
   0  -1  14   25.60    4.30
   0  -1  14   18.20    3.50
   0  -1 -14   23.20    4.20
   0   1  14   21.10    3.20
   0   0   0    0.00    0.00

_computing_structure_solution     'SHELXT 2014/5 (Sheldrick, 2014)'
;
_shelx_hkl_checksum              2098
loop_
_space_group_symop_operation_xyz
'x, y, z'
'-x, y+1/2, -z'
'-x, -y, -z'
'x, -y-1/2, z'
loop_
_atom_site_label
_atom_site_type_symbol
_atom_site_fract_x
_atom_site_fract_y
_atom_site_fract_z
_atom_site_U_iso_or_equiv
_atom_site_adp_type
_atom_site_occupancy
_atom_site_site_symmetry_order
_atom_site_calc_flag
_atom_site_refinement_flags_posn
_atom_site_refinement_flags_adp
_atom_site_refinement_flags_occupancy
_atom_site_disorder_assembly
_atom_site_disorder_group
Mo Mo 0.30077(13) 0.7500 0.99387(8) 0.0275(4) Uani 1 2 d S T P . .
Cs1 Cs 0.270(8) 0.7500 1.4617(19) 0.079(8) Uani 0.050(3) 2 d S T P A 1
Cs2 Cs 0.128(3) 0.7500 1.4763(14) 0.054(4) Uani 0.070(3) 2 d S T P A 2
S1 S 0.1218(4) 0.2500 1.1399(3) 0.0280(6) Uani 1 2 d S T P A .
S2 S 0.6374(4) 0.7500 1.1817(3) 0.0288(6) Uani 1 2 d S T P A .
loop_
_atom_site_aniso_label
_atom_site_aniso_U_11
_atom_site_aniso_U_22
_atom_site_aniso_U_33
_atom_site_aniso_U_23
_atom_site_aniso_U_13
_atom_site_aniso_U_12
Mo 0.0218(6) 0.0283(6) 0.0326(6) 0.000 0.0049(4) 0.000
Cs1 0.13(3) 0.092(16) 0.014(7) 0.000 0.002(11) 0.000
Cs2 0.062(9) 0.071(8) 0.022(6) 0.000 -0.012(6) 0.000
S1 0.0252(12) 0.0250(13) 0.0340(13) 0.000 0.0053(9) 0.000
S2 0.0262(13) 0.0255(13) 0.0349(13) 0.000 0.0052(10) 0.000
loop_
_atom_type_symbol
_atom_type_description
_atom_type_scat_dispersion_real
_atom_type_scat_dispersion_imag
_atom_type_scat_source
Cs Cs -0.3680 2.1192 'International Tables Vol C Tables 4.2.6.8 and 6.1.1.4'
Mo Mo -1.6832 0.6857 'International Tables Vol C Tables 4.2.6.8 and 6.1.1.4'
S S 0.1246 0.1234 'International Tables Vol C Tables 4.2.6.8 and 6.1.1.4'
H H 0.0000 0.0000 'International Tables Vol C Tables 4.2.6.8 and 6.1.1.4'
O O 0.0106 0.0060 'International Tables Vol C Tables 4.2.6.8 and 6.1.1.4'
loop_
_geom_angle_atom_site_label_1
_geom_angle_atom_site_label_2
_geom_angle_atom_site_label_3
_geom_angle
_geom_angle_site_symmetry_1
_geom_angle_site_symmetry_3
S2 Mo S2 85.31(9) 3_667 3_677
S2 Mo S2 108.97(8) 3_667 .
S2 Mo S2 108.97(8) 3_677 .
S2 Mo S1 93.95(7) 3_667 .
S2 Mo S1 163.94(10) 3_677 .
S2 Mo S1 86.48(9) . .
S2 Mo S1 163.94(10) 3_667 1_565
S2 Mo S1 93.95(7) 3_677 1_565
S2 Mo S1 86.48(9) . 1_565
S1 Mo S1 82.34(8) . 1_565
S2 Mo S1 83.66(8) 3_667 3_567
S2 Mo S1 83.66(8) 3_677 3_567
S2 Mo S1 162.41(10) . 3_567
S1 Mo S1 80.32(8) . 3_567
S1 Mo S1 80.32(8) 1_565 3_567
S2 Mo Mo 102.11(6) 3_667 3_677
S2 Mo Mo 54.58(6) 3_677 3_677
S2 Mo Mo 54.39(5) . 3_677
S1 Mo Mo 140.65(8) . 3_677
S1 Mo Mo 90.36(6) 1_565 3_677
S1 Mo Mo 136.59(5) 3_567 3_677
S2 Mo Mo 54.58(6) 3_667 3_667
S2 Mo Mo 102.11(6) 3_677 3_667
S2 Mo Mo 54.39(5) . 3_667
S1 Mo Mo 90.36(5) . 3_667
S1 Mo Mo 140.65(8) 1_565 3_667
S1 Mo Mo 136.59(5) 3_567 3_667
Mo Mo Mo 71.25(4) 3_677 3_667
S2 Mo Cs1 136.55(11) 3_667 .
S2 Mo Cs1 136.55(11) 3_677 .
S2 Mo Cs1 54.6(6) . .
S1 Mo Cs1 49.7(3) . .
S1 Mo Cs1 49.7(3) 1_565 .
S1 Mo Cs1 107.8(6) 3_567 .
Mo Mo Cs1 97.2(5) 3_677 .
Mo Mo Cs1 97.2(4) 3_667 .
Cs1 Cs1 Cs1 63.7(17) 3_678 3_668
Cs1 Cs1 Cs1 58.2(8) 3_678 1_565
Cs1 Cs1 Cs1 121.8(8) 3_668 1_565
Cs1 Cs1 Cs1 121.8(8) 3_678 1_545
Cs1 Cs1 Cs1 58.2(8) 3_668 1_545
Cs1 Cs1 Cs1 179.999(19) 1_565 1_545
Cs1 Cs1 S1 122.3(14) 3_678 .
Cs1 Cs1 S1 92.1(7) 3_668 .
Cs1 Cs1 S1 118.13(15) 1_565 .
Cs1 Cs1 S1 61.87(15) 1_545 .
Cs1 Cs1 S1 92.1(7) 3_678 1_565
Cs1 Cs1 S1 122.3(14) 3_668 1_565
Cs1 Cs1 S1 61.87(15) 1_565 1_565
Cs1 Cs1 S1 118.13(15) 1_545 1_565
S1 Cs1 S1 56.3(3) . 1_565
Cs1 Cs1 S2 66.4(11) 3_678 .
Cs1 Cs1 S2 66.4(11) 3_668 .
Cs1 Cs1 S2 89.999(6) 1_565 .
Cs1 Cs1 S2 89.999(4) 1_545 .
S1 Cs1 S2 55.9(4) . .
S1 Cs1 S2 55.9(4) 1_565 .
Cs1 Cs1 Cs1 154.5(12) 3_678 3_568
Cs1 Cs1 Cs1 115.9(5) 3_668 3_568
Cs1 Cs1 Cs1 116.3(6) 1_565 3_568
Cs1 Cs1 Cs1 63.7(6) 1_545 3_568
S1 Cs1 Cs1 82.9(8) . 3_568
S1 Cs1 Cs1 107.0(13) 1_565 3_568
S2 Cs1 Cs1 138.5(7) . 3_568
Cs1 Cs1 Cs1 115.9(5) 3_678 3_578
Cs1 Cs1 Cs1 154.5(12) 3_668 3_578
Cs1 Cs1 Cs1 63.7(6) 1_565 3_578
Cs1 Cs1 Cs1 116.3(6) 1_545 3_578
S1 Cs1 Cs1 107.0(13) . 3_578
S1 Cs1 Cs1 82.9(8) 1_565 3_578
S2 Cs1 Cs1 138.5(7) . 3_578
Cs1 Cs1 Cs1 52.5(12) 3_568 3_578
Cs1 Cs1 S2 64.3(5) 3_678 3_678
Cs1 Cs1 S2 91.5(9) 3_668 3_678
Cs1 Cs1 S2 64.10(12) 1_565 3_678
Cs1 Cs1 S2 115.90(12) 1_545 3_678
S1 Cs1 S2 173.4(13) . 3_678
S1 Cs1 S2 125.56(15) 1_565 3_678
S2 Cs1 S2 130.7(10) . 3_678
Cs1 Cs1 S2 90.6(8) 3_568 3_678
Cs1 Cs1 S2 67.9(5) 3_578 3_678
Cs1 Cs1 S2 91.5(9) 3_678 3_668
Cs1 Cs1 S2 64.3(5) 3_668 3_668
Cs1 Cs1 S2 115.90(12) 1_565 3_668
Cs1 Cs1 S2 64.10(12) 1_545 3_668
S1 Cs1 S2 125.56(15) . 3_668
S1 Cs1 S2 173.4(13) 1_565 3_668
S2 Cs1 S2 130.7(10) . 3_668
Cs1 Cs1 S2 67.9(5) 3_568 3_668
Cs1 Cs1 S2 90.6(8) 3_578 3_668
S2 Cs1 S2 51.8(2) 3_678 3_668
Cs1 Cs1 S2 141.1(6) 3_678 1_455
Cs1 Cs1 S2 141.1(6) 3_668 1_455
Cs1 Cs1 S2 90.000(8) 1_565 1_455
Cs1 Cs1 S2 90.000(8) 1_545 1_455
S1 Cs1 S2 50.6(4) . 1_455
S1 Cs1 S2 50.6(4) 1_565 1_455
S2 Cs1 S2 94.6(4) . 1_455
Cs1 Cs1 S2 56.6(9) 3_568 1_455
Cs1 Cs1 S2 56.6(9) 3_578 1_455
S2 Cs1 S2 124.5(10) 3_678 1_455
S2 Cs1 S2 124.5(10) 3_668 1_455
Cs2 Cs2 Cs2 90.9(14) 3_568 3_578
Cs2 Cs2 Cs2 44.5(7) 3_568 1_545
Cs2 Cs2 Cs2 135.5(7) 3_578 1_545
Cs2 Cs2 Cs2 135.5(7) 3_568 1_565
Cs2 Cs2 Cs2 44.5(7) 3_578 1_565
Cs2 Cs2 Cs2 179.999(11) 1_545 1_565
Cs2 Cs2 S1 86.7(5) 3_568 .
Cs2 Cs2 S1 126.0(7) 3_578 .
Cs2 Cs2 S1 63.05(11) 1_545 .
Cs2 Cs2 S1 116.95(11) 1_565 .
Cs2 Cs2 S1 126.0(7) 3_568 1_565
Cs2 Cs2 S1 86.7(5) 3_578 1_565
Cs2 Cs2 S1 116.95(11) 1_545 1_565
Cs2 Cs2 S1 63.05(11) 1_565 1_565
S1 Cs2 S1 53.9(2) . 1_565
Cs2 Cs2 S2 73.3(6) 3_568 1_455
Cs2 Cs2 S2 73.3(6) 3_578 1_455
Cs2 Cs2 S2 90.000(4) 1_545 1_455
Cs2 Cs2 S2 90.000(2) 1_565 1_455
S1 Cs2 S2 54.42(18) . 1_455
S1 Cs2 S2 54.41(18) 1_565 1_455
Cs2 Cs2 S2 107.0(8) 3_568 3_678
Cs2 Cs2 S2 70.4(5) 3_578 3_678
Cs2 Cs2 S2 116.14(8) 1_545 3_678
Cs2 Cs2 S2 63.86(9) 1_565 3_678
S1 Cs2 S2 159.4(6) . 3_678
S1 Cs2 S2 122.4(2) 1_565 3_678
S2 Cs2 S2 143.7(4) 1_455 3_678
Cs2 Cs2 S2 70.4(5) 3_568 3_668
Cs2 Cs2 S2 107.0(8) 3_578 3_668
Cs2 Cs2 S2 63.86(9) 1_545 3_668
Cs2 Cs2 S2 116.14(8) 1_565 3_668
S1 Cs2 S2 122.4(2) . 3_668
S1 Cs2 S2 159.4(6) 1_565 3_668
S2 Cs2 S2 143.7(4) 1_455 3_668
S2 Cs2 S2 52.28(17) 3_678 3_668
Cs2 Cs2 S1 59.9(7) 3_568 3_568
Cs2 Cs2 S1 59.9(7) 3_578 3_568
Cs2 Cs2 S1 90.000(1) 1_545 3_568
Cs2 Cs2 S1 90.000(2) 1_565 3_568
S1 Cs2 S1 146.6(3) . 3_568
S1 Cs2 S1 146.6(3) 1_565 3_568
S2 Cs2 S1 110.3(5) 1_455 3_568
S2 Cs2 S1 49.4(2) 3_678 3_568
S2 Cs2 S1 49.4(2) 3_668 3_568
Cs2 Cs2 Cs2 149.6(8) 3_568 3_678
Cs2 Cs2 Cs2 110.5(5) 3_578 3_678
Cs2 Cs2 Cs2 111.06(16) 1_545 3_678
Cs2 Cs2 Cs2 68.94(17) 1_565 3_678
S1 Cs2 Cs2 97.0(6) . 3_678
S1 Cs2 Cs2 78.2(4) 1_565 3_678
S2 Cs2 Cs2 132.5(5) 1_455 3_678
S2 Cs2 Cs2 63.4(2) 3_678 3_678
S2 Cs2 Cs2 82.5(3) 3_668 3_678
S1 Cs2 Cs2 111.7(4) 3_568 3_678
Cs2 Cs2 Cs2 110.5(5) 3_568 3_668
Cs2 Cs2 Cs2 149.6(8) 3_578 3_668
Cs2 Cs2 Cs2 68.94(17) 1_545 3_668
Cs2 Cs2 Cs2 111.06(17) 1_565 3_668
S1 Cs2 Cs2 78.2(4) . 3_668
S1 Cs2 Cs2 97.0(6) 1_565 3_668
S2 Cs2 Cs2 132.5(5) 1_455 3_668
S2 Cs2 Cs2 82.5(3) 3_678 3_668
S2 Cs2 Cs2 63.4(2) 3_668 3_668
S1 Cs2 Cs2 111.7(4) 3_568 3_668
Cs2 Cs2 Cs2 42.1(3) 3_678 3_668
Mo S1 Mo 82.34(8) . 1_545
Mo S1 Mo 99.68(8) . 3_567
Mo S1 Mo 99.68(8) 1_545 3_567
Mo S1 Cs1 138.3(7) . 1_545
Mo S1 Cs1 97.2(4) 1_545 1_545
Mo S1 Cs1 121.3(7) 3_567 1_545
Mo S1 Cs1 97.2(4) . .
Mo S1 Cs1 138.3(7) 1_545 .
Mo S1 Cs1 121.3(7) 3_567 .
Cs1 S1 Cs1 56.3(3) 1_545 .
Mo S1 Cs2 105.1(2) . .
Mo S1 Cs2 149.0(2) 1_545 .
Mo S1 Cs2 108.3(3) 3_567 .
Mo S1 Cs2 149.0(2) . 1_545
Mo S1 Cs2 105.1(2) 1_545 1_545
Mo S1 Cs2 108.3(3) 3_567 1_545
Cs2 S1 Cs2 53.9(2) . 1_545
Mo S1 Cs2 137.16(7) . 3_568
Mo S1 Cs2 137.16(7) 1_545 3_568
Mo S1 Cs2 90.1(2) 3_567 3_568
Cs2 S1 Cs2 33.4(3) . 3_568
Cs2 S1 Cs2 33.4(3) 1_545 3_568
Mo S2 Mo 85.31(9) 3_667 3_677
Mo S2 Mo 71.03(8) 3_667 .
Mo S2 Mo 71.03(7) 3_677 .
Mo S2 Cs2 110.7(2) 3_667 1_655
Mo S2 Cs2 110.7(2) 3_677 1_655
Mo S2 Cs2 177.5(3) . 1_655
Mo S2 Cs1 132.5(2) 3_667 .
Mo S2 Cs1 132.5(2) 3_677 .
Mo S2 Cs1 93.1(5) . .
Mo S2 Cs2 147.0(3) 3_667 3_678
Mo S2 Cs2 103.98(18) 3_677 3_678
Mo S2 Cs2 142.0(2) . 3_678
Cs2 S2 Cs2 36.3(4) 1_655 3_678
Mo S2 Cs2 103.98(17) 3_667 3_668
Mo S2 Cs2 147.0(3) 3_677 3_668
Mo S2 Cs2 142.0(3) . 3_668
Cs2 S2 Cs2 36.3(4) 1_655 3_668
Cs2 S2 Cs2 52.28(17) 3_678 3_668
Mo S2 Cs1 156.3(4) 3_667 3_678
Mo S2 Cs1 108.9(2) 3_677 3_678
Mo S2 Cs1 130.9(6) . 3_678
Cs1 S2 Cs1 49.3(10) . 3_678
Mo S2 Cs1 108.9(2) 3_667 3_668
Mo S2 Cs1 156.3(5) 3_677 3_668
Mo S2 Cs1 130.9(6) . 3_668
Cs1 S2 Cs1 49.3(10) . 3_668
Cs1 S2 Cs1 51.8(2) 3_678 3_668
Mo S2 Cs1 103.6(3) 3_667 1_655
Mo S2 Cs1 103.6(3) 3_677 1_655
Mo S2 Cs1 172.4(4) . 1_655
Cs1 S2 Cs1 94.6(4) . 1_655
Cs1 S2 Cs1 55.5(10) 3_678 1_655
Cs1 S2 Cs1 55.5(10) 3_668 1_655
loop_
_geom_bond_atom_site_label_1
_geom_bond_atom_site_label_2
_geom_bond_distance
_geom_bond_site_symmetry_2
Mo S2 2.399(2) 3_667
Mo S2 2.399(2) 3_677
Mo S2 2.405(3) .
Mo S1 2.469(2) .
Mo S1 2.469(2) 1_565
Mo S1 2.544(3) 3_567
Mo Mo 2.7907(13) 3_677
Mo Mo 2.7907(13) 3_667
Mo Cs1 4.49(2) .
Cs1 Cs1 3.08(7) 3_678
Cs1 Cs1 3.08(7) 3_668
Cs1 Cs1 3.2511(11) 1_565
Cs1 Cs1 3.2511(11) 1_545
Cs1 S1 3.448(17) .
Cs1 S1 3.448(17) 1_565
Cs1 S2 3.66(3) .
Cs1 Cs1 3.67(8) 3_568
Cs1 Cs1 3.67(8) 3_578
Cs1 S2 3.722(17) 3_678
Cs1 S2 3.722(17) 3_668
Cs1 S2 4.13(4) 1_455
Cs2 Cs2 2.28(3) 3_568
Cs2 Cs2 2.28(3) 3_578
Cs2 Cs2 3.2511(10) 1_545
Cs2 Cs2 3.2511(10) 1_565
Cs2 S1 3.586(13) .
Cs2 S1 3.586(13) 1_565
Cs2 S2 3.628(13) 1_455
Cs2 S2 3.690(11) 3_678
Cs2 S2 3.690(11) 3_668
Cs2 S1 4.137(18) 3_568
Cs2 Cs2 4.52(3) 3_678
Cs2 Cs2 4.52(3) 3_668
S1 Mo 2.469(2) 1_545
S1 Mo 2.544(2) 3_567
S1 Cs1 3.448(17) 1_545
S1 Cs2 3.586(13) 1_545
S1 Cs2 4.137(18) 3_568
S2 Mo 2.399(2) 3_667
S2 Mo 2.399(2) 3_677
S2 Cs2 3.628(13) 1_655
S2 Cs2 3.690(11) 3_678
S2 Cs2 3.690(11) 3_668
S2 Cs1 3.722(17) 3_678
S2 Cs1 3.722(17) 3_668
S2 Cs1 4.13(4) 1_655
