#------------------------------------------------------------------------------
#$Date: 2021-04-06 12:47:06 +0300 (Tue, 06 Apr 2021) $
#$Revision: 263910 $
#$URL: file:///home/coder/svn-repositories/cod/cif/1/56/15/1561511.cif $
#------------------------------------------------------------------------------
#
# This file is available in the Crystallography Open Database (COD),
# http://www.crystallography.net/
#
# All data on this site have been placed in the public domain by the
# contributors.
#
data_1561511
loop_
_publ_author_name
'Khatun, Mansura'
'Stoyko, Stanislav S.'
'Mar, Arthur'
_publ_section_title
;
 Ternary arsenides ATt3As3 (A=K, Rb; Tt=Ge, Sn) with layered structures
;
_journal_name_full               'Journal of Solid State Chemistry'
_journal_page_first              229
_journal_page_last               235
_journal_paper_doi               10.1016/j.jssc.2016.03.035
_journal_volume                  238
_journal_year                    2016
_chemical_formula_structural     'K Sn3 As3'
_chemical_formula_sum            'As3 K Sn3'
_chemical_formula_weight         619.93
_chemical_name_common            'potassium tin arsenide (1/3/3)'
_chemical_name_systematic        'potassium tin arsenide (1/3/3)'
_space_group_crystal_system      orthorhombic
_space_group_IT_number           62
_space_group_name_Hall           '-P 2ac 2n'
_space_group_name_H-M_alt        'P n m a'
_atom_sites_solution_hydrogens   .
_atom_sites_solution_primary     direct
_atom_sites_solution_secondary   difmap
_audit_creation_method           SHELXL-2013
_cell_angle_alpha                90
_cell_angle_beta                 90
_cell_angle_gamma                90
_cell_formula_units_Z            4
_cell_length_a                   10.1990(12)
_cell_length_b                   4.0840(5)
_cell_length_c                   19.240(2)
_cell_measurement_reflns_used    2802
_cell_measurement_temperature    173(2)
_cell_measurement_theta_max      31.47
_cell_measurement_theta_min      2.91
_cell_volume                     801.40(16)
_computing_cell_refinement       'Bruker SAINT 7.68A (Bruker, 2009)'
_computing_data_collection       'Bruker APEX 2 (Bruker, 2008)'
_computing_data_reduction        'Bruker SAINT 7.68A'
_computing_molecular_graphics    'ATOMS 5.1 (Dowty, 1999)'
_computing_publication_material  'Bruker SHELXTL'
_computing_structure_refinement  'SHELXL-2013 (Sheldrick, 2013)'
_computing_structure_solution    'SHELXS-97 (Sheldrick, 2008)'
_diffrn_ambient_temperature      173(2)
_diffrn_measured_fraction_theta_full 1.000
_diffrn_measured_fraction_theta_max 0.984
_diffrn_measurement_device_type  'Bruker PLATFORM/SMART APEX II CCD'
_diffrn_measurement_method       '\w scans'
_diffrn_radiation_type           MoK\a
_diffrn_radiation_wavelength     0.71073
_diffrn_reflns_av_R_equivalents  0.0792
_diffrn_reflns_av_unetI/netI     0.0460
_diffrn_reflns_Laue_measured_fraction_full 1.000
_diffrn_reflns_Laue_measured_fraction_max 0.984
_diffrn_reflns_limit_h_max       15
_diffrn_reflns_limit_h_min       -15
_diffrn_reflns_limit_k_max       6
_diffrn_reflns_limit_k_min       -6
_diffrn_reflns_limit_l_max       28
_diffrn_reflns_limit_l_min       -28
_diffrn_reflns_number            10718
_diffrn_reflns_point_group_measured_fraction_full 1.000
_diffrn_reflns_point_group_measured_fraction_max 0.984
_diffrn_reflns_theta_full        25.242
_diffrn_reflns_theta_max         33.249
_diffrn_reflns_theta_min         2.117
_diffrn_source                   'fine-focus sealed tube'
_exptl_absorpt_coefficient_mu    21.981
_exptl_absorpt_correction_T_max  0.6969
_exptl_absorpt_correction_T_min  0.1333
_exptl_absorpt_correction_type   numerical
_exptl_absorpt_process_details   'Bruker SHELXTL (Sheldrick, 2013)'
_exptl_crystal_colour            grey
_exptl_crystal_density_diffrn    5.138
_exptl_crystal_description       needle
_exptl_crystal_F_000             1072
_exptl_crystal_size_max          0.155
_exptl_crystal_size_mid          0.040
_exptl_crystal_size_min          0.021
_refine_diff_density_max         2.085
_refine_diff_density_min         -2.176
_refine_diff_density_rms         0.397
_refine_ls_extinction_coef       0.00083(12)
_refine_ls_extinction_expression Fc^*^=kFc[1+0.001xFc^2^\l^3^/sin(2\q)]^-1/4^
_refine_ls_extinction_method     SHELXL
_refine_ls_goodness_of_fit_ref   1.020
_refine_ls_hydrogen_treatment    undef
_refine_ls_matrix_type           full
_refine_ls_number_parameters     44
_refine_ls_number_reflns         1697
_refine_ls_number_restraints     0
_refine_ls_restrained_S_all      1.020
_refine_ls_R_factor_all          0.0553
_refine_ls_R_factor_gt           0.0341
_refine_ls_shift/su_max          0.001
_refine_ls_shift/su_mean         0.000
_refine_ls_structure_factor_coef Fsqd
_refine_ls_weighting_details
'w=1/[\s^2^(Fo^2^)+(0.0353P)^2^] where P=(Fo^2^+2Fc^2^)/3'
_refine_ls_weighting_scheme      calc
_refine_ls_wR_factor_gt          0.0680
_refine_ls_wR_factor_ref         0.0745
_reflns_Friedel_coverage         0.000
_reflns_Friedel_fraction_full    .
_reflns_Friedel_fraction_max     .
_reflns_number_gt                1313
_reflns_number_total             1697
_reflns_threshold_expression     'I > 2\s(I)'
_cod_data_source_file            mmc12.cif
_cod_data_source_block           KSn3As3
_cod_original_cell_volume        801.41(16)
_cod_database_code               1561511
_shelx_space_group_comment
;
The symmetry employed for this shelxl refinement is uniquely defined
by the following loop, which should always be used as a source of
symmetry information in preference to the above space-group names.
They are only intended as comments.
;
_shelx_estimated_absorpt_t_min   0.132
_shelx_estimated_absorpt_t_max   0.655
_shelxl_version_number           2013-4
_shelx_res_file
;
TITL KSn3As3 Pnma lsf final refinement
CELL 0.71073  10.19900   4.08400  19.24020  90.0000  90.0000  90.0000
ZERR    4.00   0.00120   0.00050   0.00220   0.0000   0.0000   0.0000
LATT  1
SYMM 0.5-X, -Y, 0.5+Z
SYMM -X, 0.5+Y, -Z
SYMM 0.5+X, 0.5-Y, 0.5-Z
SFAC K AS SN
UNIT 4 12 12
TEMP -100
SIZE 0.021 0.04 0.155

L.S. 4
ACTA

WGHT    0.035300
EXTI    0.000828
FVAR       0.04449
K     1    0.214763    0.250000    0.458541    10.50000    0.01919    0.01726 =
         0.02232    0.00000   -0.00498    0.00000
SN1   3    0.328786    0.250000    0.148691    10.50000    0.00786    0.01018 =
         0.01361    0.00000    0.00049    0.00000
SN2   3    0.390213    0.250000    0.758125    10.50000    0.00955    0.01069 =
         0.01323    0.00000   -0.00090    0.00000
SN3   3    0.518908    0.250000    0.621591    10.50000    0.00832    0.01229 =
         0.01714    0.00000    0.00130    0.00000
AS1   2    0.015118    0.250000    0.620219    10.50000    0.00828    0.01015 =
         0.01292    0.00000   -0.00071    0.00000
AS2   2    0.126159    0.250000    0.067679    10.50000    0.00996    0.01185 =
         0.01336    0.00000   -0.00048    0.00000
AS3   2    0.274282    0.250000    0.281415    10.50000    0.01021    0.01062 =
         0.01316    0.00000   -0.00057    0.00000
HKLF 4

REM  KSn3As3 Pnma lsf final refinement
REM R1 =  0.0341 for    1313 Fo > 4sig(Fo)  and  0.0553 for all    1697 data
REM     44 parameters refined using      0 restraints

END

WGHT      0.0353      0.0000

REM Highest difference peak  2.085,  deepest hole -2.176,  1-sigma level  0.397
Q1    1   0.3000  0.2500  0.3379  10.50000  0.05    2.08
Q2    1   0.0150  0.2500  0.5726  10.50000  0.05    2.00
Q3    1   0.2639  0.2500  0.2133  10.50000  0.05    1.98
Q4    1   0.1244  0.2500  0.0257  10.50000  0.05    1.85
Q5    1   0.3226  0.2500  0.0950  10.50000  0.05    1.80
Q6    1   0.3376  0.2500  0.1917  10.50000  0.05    1.76
Q7    1   0.4990  0.2500  0.5521  10.50000  0.05    1.76
Q8    1   0.5217  0.2500  0.6788  10.50000  0.05    1.71
Q9    1   0.5187  0.0415  0.6174  11.00000  0.05    1.69
Q10   1   0.2831  0.2500  0.1481  10.50000  0.05    1.61
Q11   1  -0.1567  0.2500  0.6022  10.50000  0.05    1.48
Q12   1   0.5304  0.2500  0.7383  10.50000  0.05    1.48
Q13   1   0.3943  0.2500  0.7002  10.50000  0.05    1.38
Q14   1   0.3341  0.0506  0.1497  11.00000  0.05    1.33
Q15   1   0.3276  0.2500  0.7600  10.50000  0.05    1.33
Q16   1   0.4595  0.2500  0.1457  10.50000  0.05    1.32
Q17   1   0.1746  0.2500  0.0705  10.50000  0.05    1.31
Q18   1   0.2859  0.2500  0.7257  10.50000  0.05    1.27
Q19   1   0.0409  0.2500 -0.0059  10.50000  0.05    1.26
Q20   1   0.1059 -0.2500  0.5080  10.50000  0.05    1.25
;
_shelx_res_checksum              40636
_shelx_hkl_file
;
  -2  -1 -28    1.19    1.70
  -1  -1 -28    9.71    2.57
   0  -1 -28   -0.13    1.64
   1  -1 -28    5.08    2.21
   2  -1 -28    0.15    1.65
  -4   0 -28    6.95    2.39
  -3   0 -28    4.27    2.05
  -2   0 -28   14.35    3.03
  -1   0 -28    0.86    1.78
   0   0 -28    0.25    1.70
   1   0 -28    1.15    1.92
   2   0 -28   20.32    3.27
   3   0 -28    4.11    2.21
  -3   1 -28    8.58    2.64
  -2   1 -28   -1.45    1.74
  -1   1 -28    8.92    2.68
   0   1 -28    0.13    1.82
   1   1 -28   11.12    2.82
   2   1 -28    0.20    1.58
   0  -2 -27    0.53    1.83
   1  -2 -27    0.23    1.88
  -5  -1 -27   10.82    2.73
  -4  -1 -27    9.84    2.68
  -3  -1 -27   -2.29    1.51
  -2  -1 -27    5.89    2.29
  -1  -1 -27   -2.89    1.55
   0  -1 -27   10.13    2.57
   1  -1 -27   -0.70    1.50
   2  -1 -27    7.76    2.30
   3  -1 -27    0.18    1.65
   4  -1 -27    4.06    2.18
   5  -1 -27    6.76    2.28
  -6   0 -27    0.81    1.81
  -5   0 -27   12.41    2.78
  -4   0 -27    6.19    2.16
  -3   0 -27   -0.83    1.61
  -2   0 -27    4.43    2.10
  -1   0 -27   -0.25    1.68
   0   0 -27    0.63    1.57
   1   0 -27    0.29    1.60
   2   0 -27    6.62    2.15
   3   0 -27   -2.32    1.45
   4   0 -27    6.08    2.17
   5   0 -27   14.34    2.74
   6   0 -27   -1.14    1.56
  -5   1 -27    7.49    2.41
  -4   1 -27    6.38    2.41
  -3   1 -27   -0.14    1.81
  -2   1 -27    7.56    2.41
  -1   1 -27    1.57    1.69
   0   1 -27   19.99    3.29
   1   1 -27    2.13    2.00
   2   1 -27    7.74    2.32
   3   1 -27    0.08    1.63
   4   1 -27    6.31    2.35
   5   1 -27    8.03    2.44
  -2   2 -27    4.51    2.54
  -1   2 -27    0.29    2.11
   0   2 -27   -0.10    2.10
   1   2 -27   -0.38    1.73
  -4  -2 -26    4.12    2.21
  -3  -2 -26   19.21    3.45
  -2  -2 -26    2.07    2.03
  -1  -2 -26    5.07    2.27
   0  -2 -26    5.57    2.37
   1  -2 -26   11.48    2.87
   2  -2 -26    1.82    2.00
   3  -2 -26   11.30    2.80
   4  -2 -26    2.92    2.06
   5  -2 -26    4.05    2.31
  -6  -1 -26    2.70    2.13
  -5  -1 -26    3.14    2.09
  -4  -1 -26    2.24    2.02
  -3  -1 -26    5.41    2.24
  -2  -1 -26   -0.16    1.70
  -1  -1 -26   -1.18    1.55
   0  -1 -26    0.45    1.64
   1  -1 -26    1.78    1.83
   2  -1 -26   -0.54    1.50
   3  -1 -26    1.66    1.65
   4  -1 -26    4.02    2.05
   5  -1 -26    2.84    1.99
   6  -1 -26    2.67    1.91
  -6   0 -26    8.97    2.68
  -5   0 -26    7.89    2.47
  -4   0 -26    4.11    2.11
  -3   0 -26   15.98    2.96
  -2   0 -26   -0.25    1.49
  -1   0 -26    9.02    2.36
   0   0 -26   11.05    2.56
   1   0 -26   10.76    2.41
   2   0 -26    1.40    1.68
   3   0 -26   16.65    2.87
   4   0 -26    1.02    1.79
   5   0 -26    9.46    2.47
   6   0 -26    7.55    2.38
  -5   1 -26    2.62    2.07
  -4   1 -26    0.70    1.89
  -3   1 -26    1.87    1.87
  -2   1 -26    1.31    1.83
  -1   1 -26    1.85    1.88
   0   1 -26    1.19    1.58
   1   1 -26   -3.46    1.30
   2   1 -26   -0.35    1.61
   3   1 -26    1.30    1.74
   4   1 -26    3.33    1.95
   5   1 -26    0.43    1.80
   6   1 -26    3.93    2.03
   7   1 -26   -0.67    1.60
  -5   2 -26    4.62    2.38
  -4   2 -26   -0.36    2.02
  -3   2 -26   14.52    3.24
  -2   2 -26   -0.80    2.17
  -1   2 -26    8.09    2.87
   0   2 -26    8.16    2.68
   1   2 -26   10.75    2.88
   2   2 -26    3.90    2.09
   3   2 -26    6.26    2.53
   4   2 -26    2.48    2.05
  -6  -2 -25   -0.20    1.88
  -5  -2 -25    1.69    2.10
  -4  -2 -25    3.46    2.16
  -3  -2 -25    6.36    2.33
  -2  -2 -25   -1.73    1.55
  -1  -2 -25    0.99    1.72
   0  -2 -25    0.32    1.73
   1  -2 -25    3.10    2.04
   2  -2 -25   -1.65    1.72
   3  -2 -25    2.18    1.95
   4  -2 -25    3.38    2.15
   5  -2 -25    4.06    2.19
   6  -2 -25    1.23    2.00
  -6  -1 -25    4.87    2.15
  -5  -1 -25    1.00    1.79
  -4  -1 -25    8.49    2.47
  -3  -1 -25    1.24    1.75
  -2  -1 -25    2.20    1.86
  -1  -1 -25    1.74    1.87
   0  -1 -25   20.39    3.23
   1  -1 -25    1.56    1.72
   2  -1 -25    3.16    1.85
   3  -1 -25    1.28    1.66
   4  -1 -25    8.66    2.29
   5  -1 -25    3.06    1.74
   6  -1 -25    6.23    2.10
  -6   0 -25    0.47    1.65
  -5   0 -25    4.73    1.98
  -4   0 -25    1.20    1.76
  -3   0 -25    6.82    2.17
  -2   0 -25    3.33    1.87
  -1   0 -25    4.10    1.90
   0   0 -25   -2.23    1.33
   1   0 -25    2.12    1.65
   2   0 -25    1.80    1.74
   3   0 -25    4.94    1.96
   4   0 -25    3.63    1.82
   5   0 -25    6.11    2.01
   6   0 -25    1.05    1.59
   7   0 -25    1.13    1.72
  -5   1 -25    1.97    1.84
  -4   1 -25   10.03    2.63
  -3   1 -25    0.98    1.73
  -2   1 -25   -0.22    1.69
  -1   1 -25    5.00    2.15
   0   1 -25   19.70    3.18
   1   1 -25    6.61    2.12
   2   1 -25   -2.48    1.33
   3   1 -25    1.20    1.67
   4   1 -25    3.53    1.81
   5   1 -25   -0.20    1.69
   6   1 -25    7.98    2.26
   7   1 -25    2.98    1.91
  -5   2 -25    3.58    1.29
  -4   2 -25    4.85    2.37
  -3   2 -25    7.22    2.60
  -2   2 -25    1.67    2.17
  -1   2 -25    3.34    2.35
   0   2 -25    0.32    2.11
   1   2 -25    2.84    2.11
   2   2 -25    0.56    1.65
   3   2 -25    3.04    1.99
   4   2 -25    4.46    2.09
   5   2 -25    0.33    1.89
   6   2 -25   -0.76    1.77
  -2   3 -25    1.48    2.78
  -1   3 -25   -0.03    2.88
   0   3 -25   14.92    3.97
  -4  -3 -24    1.59    2.14
  -3  -3 -24    2.00    2.03
  -2  -3 -24    2.67    2.07
  -1  -3 -24    3.12    2.06
   0  -3 -24   -0.82    1.84
   1  -3 -24    2.99    2.19
   2  -3 -24    1.74    2.16
   3  -3 -24    0.68    1.92
   4  -3 -24    5.77    2.51
   5  -3 -24   13.67    3.10
  -7  -2 -24   -1.80    1.96
  -6  -2 -24    2.51    2.02
  -5  -2 -24    2.62    2.00
  -4  -2 -24   17.96    3.08
  -3  -2 -24    7.71    2.41
  -2  -2 -24   18.67    3.14
  -1  -2 -24    0.40    1.58
   0  -2 -24    0.35    1.57
   1  -2 -24    3.25    2.08
   2  -2 -24   13.77    3.00
   3  -2 -24    5.93    2.32
   4  -2 -24   18.49    3.30
   5  -2 -24    1.88    1.99
   6  -2 -24    0.92    1.82
  -6  -1 -24   19.20    3.21
  -5  -1 -24   27.12    3.59
  -4  -1 -24    3.83    1.97
  -3  -1 -24   -0.51    1.36
  -2  -1 -24   -0.14    1.64
  -1  -1 -24    3.16    1.79
   0  -1 -24   -1.42    1.33
   1  -1 -24    5.35    2.04
   2  -1 -24   -0.27    1.36
   3  -1 -24   -0.43    1.49
   4  -1 -24    4.81    1.88
   5  -1 -24   23.42    3.22
   6  -1 -24   25.01    3.34
  -6   0 -24    2.70    1.74
  -5   0 -24   -2.02    1.35
  -4   0 -24   22.85    3.26
  -3   0 -24   11.21    2.46
  -2   0 -24   21.16    3.11
  -1   0 -24    4.95    1.96
   0   0 -24    3.61    1.79
   1   0 -24    3.03    1.66
   2   0 -24   15.39    2.64
   3   0 -24    7.54    2.10
   4   0 -24   22.20    3.08
   5   0 -24   -0.08    1.49
   6   0 -24    0.28    1.47
   7   0 -24    1.61    1.67
  -7   1 -24    5.57    1.54
  -6   1 -24   21.80    3.24
  -5   1 -24   25.63    3.39
  -4   1 -24    3.38    1.85
  -3   1 -24    1.68    1.81
  -2   1 -24    1.09    1.79
  -1   1 -24    7.80    2.32
   0   1 -24   -0.76    1.57
   1   1 -24    1.46    1.66
   2   1 -24   -0.79    1.40
   3   1 -24   -0.76    1.40
   4   1 -24    4.76    1.82
   5   1 -24   18.27    2.99
   6   1 -24   21.34    3.14
   7   1 -24    4.04    1.86
  -6   2 -24   -1.10    1.28
  -5   2 -24    1.14    1.10
  -4   2 -24   13.59    3.07
  -3   2 -24   10.21    2.76
  -2   2 -24   12.25    3.04
  -1   2 -24   -2.03    2.18
   0   2 -24    2.99    2.33
   1   2 -24    0.18    1.78
   2   2 -24   13.22    2.80
   3   2 -24    6.89    2.28
   4   2 -24   15.10    2.81
   5   2 -24   -1.16    1.49
   6   2 -24   -1.24    1.65
   7   2 -24    2.28    2.03
  -5   3 -24   10.51    2.26
  -4   3 -24    0.63    1.30
  -3   3 -24    0.27    1.29
  -2   3 -24   -2.26    2.61
  -1   3 -24   -0.57    2.82
   0   3 -24    1.50    2.66
   1   3 -24    4.10    2.48
   2   3 -24   -0.58    1.95
   3   3 -24    0.77    1.86
  -6  -3 -23    7.74    2.67
  -5  -3 -23    4.53    2.36
  -4  -3 -23    6.38    2.68
  -3  -3 -23   -0.57    1.82
  -2  -3 -23    8.36    2.64
  -1  -3 -23   39.28    4.66
   0  -3 -23   27.04    3.98
   1  -3 -23   35.31    4.31
   2  -3 -23    7.88    2.46
   3  -3 -23    2.63    2.03
   4  -3 -23    3.41    2.33
   5  -3 -23    6.29    2.61
   6  -3 -23    8.94    2.37
  -7  -2 -23    3.41    2.13
  -6  -2 -23    7.83    2.45
  -5  -2 -23    2.89    1.99
  -4  -2 -23    6.47    2.27
  -3  -2 -23    4.86    2.22
  -2  -2 -23    1.81    1.93
  -1  -2 -23    3.00    1.78
   0  -2 -23   -0.45    1.53
   1  -2 -23    4.30    2.12
   2  -2 -23    2.03    1.96
   3  -2 -23    4.01    2.10
   4  -2 -23    2.95    2.15
   5  -2 -23   -0.75    1.65
   6  -2 -23    6.58    2.31
  -9  -1 -23    0.75    1.14
  -6  -1 -23   11.55    2.57
  -5  -1 -23    6.71    2.24
  -4  -1 -23   10.50    2.48
  -3  -1 -23    0.84    1.38
  -2  -1 -23   14.26    2.73
  -1  -1 -23   50.64    4.81
   0  -1 -23   33.12    3.81
   1  -1 -23   49.87    4.80
   2  -1 -23   13.77    2.57
   3  -1 -23    1.29    1.44
   4  -1 -23    8.62    2.23
   5  -1 -23    8.06    1.96
   6  -1 -23   11.43    2.36
  -9   0 -23    3.56    1.46
  -6   0 -23   10.02    2.40
  -5   0 -23    0.85    1.64
  -4   0 -23    8.67    2.28
  -3   0 -23    6.72    2.14
  -2   0 -23    5.01    1.88
  -1   0 -23    8.06    2.07
   0   0 -23   -0.33    1.36
   1   0 -23    7.00    2.01
   2   0 -23    3.56    1.74
   3   0 -23    5.41    1.83
   4   0 -23    9.61    2.16
   5   0 -23    2.97    1.64
   6   0 -23    4.59    1.79
   7   0 -23    1.83    1.42
  -8   1 -23    3.12    1.52
  -7   1 -23    4.07    1.38
  -6   1 -23   11.48    2.42
  -5   1 -23    9.65    2.38
  -4   1 -23   11.17    2.51
  -3   1 -23    0.96    1.51
  -2   1 -23   13.00    2.70
  -1   1 -23   57.54    5.19
   0   1 -23   34.45    3.87
   1   1 -23   50.90    4.25
   2   1 -23   10.53    2.31
   3   1 -23    0.78    1.47
   4   1 -23    5.43    1.91
   5   1 -23    5.67    1.94
   6   1 -23    9.39    2.35
   7   1 -23    4.14    1.77
  -7   2 -23   -0.60    1.24
  -6   2 -23    7.56    1.80
  -5   2 -23    0.80    1.01
  -4   2 -23    1.56    1.98
  -3   2 -23    4.55    2.47
  -2   2 -23    2.47    2.45
  -1   2 -23    3.10    2.53
   0   2 -23   -1.45    1.78
   1   2 -23    3.66    2.14
   2   2 -23    4.89    2.19
   3   2 -23    2.86    1.81
   4   2 -23    5.51    2.11
   5   2 -23    1.30    1.71
   6   2 -23    3.63    1.93
   7   2 -23    1.36    1.83
  -6   3 -23    5.37    1.98
  -5   3 -23    3.81    1.75
  -4   3 -23    3.94    1.42
  -3   3 -23   -0.43    1.22
  -2   3 -23    9.15    3.20
  -1   3 -23   24.51    5.01
   0   3 -23   16.83    4.09
   1   3 -23   33.20    4.65
   2   3 -23    4.59    2.42
   3   3 -23   -0.29    1.69
   4   3 -23    4.66    2.24
   5   3 -23    1.33    1.93
   0  -4 -22    9.79    2.35
   1  -4 -22    5.11    2.13
   2  -4 -22    5.95    2.15
  -7  -3 -22    4.00    2.30
  -6  -3 -22    0.73    1.85
  -5  -3 -22   10.87    2.90
  -4  -3 -22    2.56    2.03
  -1  -3 -22    0.64    1.83
   0  -3 -22   -1.19    1.74
   1  -3 -22    3.36    2.08
   2  -3 -22   -1.41    1.69
   3  -3 -22    6.17    1.61
   4  -3 -22    0.15    1.20
   5  -3 -22   12.58    1.96
   6  -3 -22    4.47    2.14
   7  -3 -22    1.89    2.12
  -7  -2 -22   19.58    3.22
  -6  -2 -22    6.59    2.30
  -5  -2 -22    0.13    1.71
  -4  -2 -22    1.51    1.94
  -3  -2 -22    9.56    2.52
  -2  -2 -22    9.79    2.58
  -1  -2 -22    4.30    1.94
   0  -2 -22   11.71    2.65
   1  -2 -22    8.05    2.27
   2  -2 -22   13.12    2.74
   3  -2 -22    9.28    2.52
   4  -2 -22    6.57    2.17
   5  -2 -22    0.72    1.81
   6  -2 -22    5.74    2.19
   7  -2 -22   22.49    3.32
   8  -2 -22   12.65    2.79
   9  -2 -22    2.29    2.15
 -10  -1 -22    7.47    1.85
  -9  -1 -22    9.75    1.83
  -7  -1 -22    2.70    1.78
  -6  -1 -22   -2.15    1.49
  -5  -1 -22   19.84    3.02
  -4  -1 -22   -0.60    1.52
  -3  -1 -22   10.49    2.40
  -2  -1 -22    0.28    1.46
  -1  -1 -22   -0.20    1.44
   0  -1 -22    0.19    1.21
   1  -1 -22    4.11    1.83
   2  -1 -22    0.61    1.52
   3  -1 -22   10.90    2.34
   4  -1 -22   -2.11    1.27
   5  -1 -22   17.26    2.66
   6  -1 -22    0.28    1.41
  -9   0 -22   -0.48    1.19
  -6   0 -22    4.94    1.91
  -5   0 -22    0.80    1.42
  -4   0 -22    1.38    1.56
  -3   0 -22   17.22    2.74
  -2   0 -22   16.18    2.67
  -1   0 -22   10.29    2.27
   0   0 -22   22.13    3.02
   1   0 -22    7.94    2.08
   2   0 -22    7.68    2.08
   3   0 -22   14.58    2.52
   4   0 -22    7.03    1.92
   5   0 -22    1.05    1.39
   6   0 -22    3.39    1.59
   7   0 -22   20.63    2.77
  -9   1 -22    9.34    1.96
  -8   1 -22    2.07    1.45
  -7   1 -22    0.63    1.10
  -6   1 -22   -0.39    1.37
  -5   1 -22   24.44    3.13
  -4   1 -22   -2.93    1.30
  -3   1 -22    8.11    2.30
  -2   1 -22   -0.88    1.54
  -1   1 -22    1.26    1.74
   0   1 -22    0.08    1.42
   1   1 -22    1.17    1.49
   2   1 -22    0.61    1.36
   3   1 -22    5.28    1.84
   4   1 -22   -0.46    1.34
   5   1 -22   15.13    2.59
   6   1 -22    1.52    1.48
   7   1 -22   -0.51    1.38
  -8   2 -22   11.32    2.24
  -7   2 -22   16.93    2.58
  -6   2 -22    3.25    1.49
  -5   2 -22    0.08    0.90
  -4   2 -22    2.33    2.02
  -3   2 -22   12.85    3.04
  -2   2 -22    9.24    3.01
  -1   2 -22    5.35    2.83
   0   2 -22   20.01    3.55
   1   2 -22    9.55    2.50
   2   2 -22    9.07    2.43
   3   2 -22   13.15    2.64
   4   2 -22    3.59    1.88
   5   2 -22    2.09    1.62
   6   2 -22    5.02    2.03
   7   2 -22   22.41    3.11
  -6   3 -22    2.44    1.70
  -5   3 -22   14.80    1.87
  -4   3 -22   -0.27    1.18
  -3   3 -22    5.52    1.47
  -2   3 -22    1.25    1.14
  -1   3 -22   -0.46    2.59
   0   3 -22    2.15    2.55
   1   3 -22   -0.68    2.10
   2   3 -22    0.51    1.94
   3   3 -22    5.31    2.23
   4   3 -22    0.22    1.73
   5   3 -22   10.41    2.52
   6   3 -22   -1.73    1.60
   7   3 -22   -1.51    1.74
  -2  -4 -21   -0.99    1.56
  -1  -4 -21   11.15    2.36
   0  -4 -21   -1.19    1.38
   1  -4 -21   13.45    2.54
   2  -4 -21    0.54    1.85
   3  -4 -21    8.08    2.36
   4  -4 -21    4.18    1.62
  -7  -3 -21    0.66    2.12
   0  -3 -21    0.64    1.41
   1  -3 -21    8.31    1.98
   2  -3 -21    1.07    1.18
   3  -3 -21    0.14    1.15
   4  -3 -21    0.28    1.16
   5  -3 -21   -0.21    1.23
   6  -3 -21   10.87    2.47
   7  -3 -21   -0.84    1.76
  -7  -2 -21    0.53    1.72
  -6  -2 -21    3.54    1.96
  -5  -2 -21   -0.91    1.55
  -4  -2 -21    7.64    2.29
  -3  -2 -21   27.00    3.58
  -2  -2 -21   -0.38    1.38
  -1  -2 -21   25.47    3.51
   0  -2 -21   -1.07    1.42
   1  -2 -21   31.84    3.78
   2  -2 -21   -1.83    1.30
   3  -2 -21   20.54    3.17
   4  -2 -21    6.84    1.47
   5  -2 -21    0.42    1.08
   6  -2 -21    1.06    1.21
   7  -2 -21   -3.74    1.36
   8  -2 -21    2.09    1.99
   9  -2 -21    5.45    2.31
 -10  -1 -21   -1.50    1.10
  -9  -1 -21    3.72    1.33
  -7  -1 -21   -0.73    1.50
  -6  -1 -21   18.01    2.89
  -5  -1 -21    2.51    1.76
  -4  -1 -21   -1.82    1.30
  -3  -1 -21    1.30    1.41
  -2  -1 -21    1.27    1.65
  -1  -1 -21   12.45    2.52
   0  -1 -21   -0.77    1.39
   1  -1 -21   10.31    2.29
   2  -1 -21    0.76    1.52
   3  -1 -21   -0.34    1.34
   4  -1 -21    0.42    1.41
   5  -1 -21    0.72    1.47
   6  -1 -21   18.88    2.69
   7  -1 -21   -0.86    1.27
   9  -1 -21    6.04    2.27
  10  -1 -21    1.22    1.78
 -10   0 -21   10.29    2.01
  -9   0 -21    8.37    1.86
  -8   0 -21    3.76    1.37
  -6   0 -21    2.51    1.64
  -5   0 -21    1.29    1.40
  -4   0 -21   10.08    2.15
  -3   0 -21   32.12    3.52
  -2   0 -21   -1.31    1.26
  -1   0 -21   32.99    3.53
   0   0 -21   -0.64    1.25
   1   0 -21   28.43    3.31
   2   0 -21    1.57    1.36
   3   0 -21   25.15    3.19
   4   0 -21    6.04    1.77
   5   0 -21   -1.45    1.13
   6   0 -21    0.16    1.28
   7   0 -21    1.43    1.48
 -10   1 -21    4.00    1.56
  -9   1 -21    2.99    1.43
  -8   1 -21    0.46    1.20
  -7   1 -21   -0.34    0.89
  -6   1 -21   16.16    2.62
  -5   1 -21    0.31    1.43
  -4   1 -21    2.88    1.54
  -3   1 -21    0.68    1.55
  -2   1 -21    4.90    2.00
  -1   1 -21   14.74    2.95
   0   1 -21    0.99    1.59
   1   1 -21   14.74    2.45
   2   1 -21    0.90    1.37
   3   1 -21   -0.34    1.12
   4   1 -21   -2.15    1.06
   5   1 -21    0.47    1.32
   6   1 -21   16.13    2.64
   7   1 -21    0.92    1.46
  -9   2 -21    1.96    1.46
  -8   2 -21   -0.33    1.23
  -7   2 -21   -0.02    1.24
  -6   2 -21    1.12    1.29
  -5   2 -21   -0.14    0.89
  -4   2 -21    5.31    2.28
  -3   2 -21   21.44    3.50
  -2   2 -21    3.65    2.53
  -1   2 -21   10.78    3.29
   0   2 -21    0.74    1.85
   1   2 -21   21.34    3.27
   2   2 -21    1.86    1.65
   3   2 -21   24.31    3.28
   4   2 -21    4.48    1.82
   5   2 -21    0.01    1.39
   6   2 -21    1.31    1.68
   7   2 -21    0.29    1.49
   8   2 -21    0.35    1.63
  -7   3 -21   -0.67    1.35
  -6   3 -21   12.83    2.39
  -5   3 -21    0.58    1.10
  -4   3 -21    0.55    1.12
  -3   3 -21    0.81    1.09
  -2   3 -21   -0.09    1.09
  -1   3 -21    6.36    3.01
   0   3 -21   -0.32    2.14
   1   3 -21    6.63    2.59
   2   3 -21    1.11    1.75
   3   3 -21    1.43    1.72
   4   3 -21   -2.05    1.48
   5   3 -21    2.36    1.68
   6   3 -21   13.01    2.62
   7   3 -21    2.12    1.85
   8   3 -21   -0.05    1.77
  -4   4 -21    2.78    2.32
  -3   4 -21   15.12    3.23
  -2   4 -21    0.17    2.46
  -1   4 -21   17.53    3.93
   0   4 -21   -1.84    2.43
   1   4 -21   14.47    3.54
   2   4 -21    0.94    2.05
  -4  -4 -20   18.68    2.68
  -3  -4 -20    7.20    2.05
  -2  -4 -20    8.17    2.04
  -1  -4 -20   -0.20    1.37
   0  -4 -20    0.81    1.62
   1  -4 -20    2.28    1.57
   2  -4 -20    7.38    2.20
   3  -4 -20    4.92    2.13
   4  -4 -20   17.20    2.99
   5  -4 -20    0.84    1.46
  -2  -3 -20   21.91    2.57
  -1  -3 -20   -0.48    1.20
   0  -3 -20    1.43    1.37
   1  -3 -20   -0.20    1.17
   2  -3 -20   19.40    2.67
   3  -3 -20    0.49    1.15
   4  -3 -20    0.38    1.14
   5  -3 -20    3.51    1.46
   6  -3 -20    0.06    1.51
   7  -3 -20    0.46    1.73
   8  -3 -20   20.21    3.27
  -7  -2 -20   12.69    2.66
  -6  -2 -20   -0.78    1.52
  -5  -2 -20    4.25    1.84
  -4  -2 -20   38.90    4.16
  -3  -2 -20   13.35    2.73
  -2  -2 -20   15.80    2.91
  -1  -2 -20    4.85    1.89
   0  -2 -20    3.09    1.72
   1  -2 -20    2.97    1.82
   2  -2 -20   19.34    1.89
   3  -2 -20   18.01    1.84
   4  -2 -20   31.92    2.42
   5  -2 -20    1.59    1.05
   6  -2 -20    1.43    1.15
   7  -2 -20    4.50    2.08
   8  -2 -20   11.88    2.59
   9  -2 -20    0.33    1.80
  10  -2 -20    0.22    1.83
 -11  -1 -20    4.09    1.57
 -10  -1 -20    1.12    1.26
  -9  -1 -20    1.76    1.16
  -7  -1 -20    3.30    1.75
  -6  -1 -20    1.51    1.42
  -5  -1 -20   12.88    2.46
  -4  -1 -20   -0.62    1.21
  -3  -1 -20    0.73    1.46
  -2  -1 -20   30.63    3.64
  -1  -1 -20   -1.17    1.26
   0  -1 -20   -0.04    1.31
   1  -1 -20   -0.97    1.11
   2  -1 -20   41.50    4.05
   3  -1 -20    2.88    1.60
   4  -1 -20    0.70    1.33
   5  -1 -20    9.44    2.15
   6  -1 -20    0.65    0.93
   7  -1 -20    0.20    0.94
   8  -1 -20   26.05    3.32
   9  -1 -20   -1.90    1.57
  10  -1 -20    0.27    1.54
  11  -1 -20    3.91    2.17
 -11   0 -20    6.11    1.77
 -10   0 -20    1.02    1.25
  -9   0 -20    1.77    1.22
  -8   0 -20   18.60    2.31
  -6   0 -20    4.44    1.65
  -5   0 -20    5.80    1.82
  -4   0 -20   42.13    3.93
  -3   0 -20   14.51    2.60
  -2   0 -20   20.57    2.95
  -1   0 -20    1.70    1.51
   0   0 -20    4.03    1.66
   1   0 -20    2.17    1.43
   2   0 -20   26.31    3.06
   3   0 -20   20.38    2.81
   4   0 -20   34.74    3.48
   5   0 -20    4.29    1.57
   6   0 -20    1.84    1.35
   7   0 -20    9.00    1.96
 -10   1 -20    0.89    1.25
  -9   1 -20    0.42    1.13
  -8   1 -20   25.89    2.80
  -7   1 -20    0.66    1.02
  -6   1 -20    1.34    1.36
  -5   1 -20   15.12    2.41
  -4   1 -20   -0.28    1.27
  -3   1 -20    2.88    1.81
  -2   1 -20   33.65    4.03
  -1   1 -20    0.33    1.62
   0   1 -20    2.32    1.64
   1   1 -20   -1.60    1.21
   2   1 -20   38.91    3.74
   3   1 -20    1.64    1.27
   4   1 -20    1.34    1.38
   5   1 -20   12.16    2.14
   6   1 -20   -0.23    1.23
   7   1 -20   -0.57    1.27
  -9   2 -20    0.07    1.24
  -8   2 -20   16.45    2.48
  -7   2 -20    7.75    1.88
  -6   2 -20    2.36    1.36
  -5   2 -20    4.09    1.05
  -4   2 -20   35.91    4.01
  -3   2 -20   20.52    3.35
  -2   2 -20    7.03    2.74
  -1   2 -20   -0.26    2.01
   0   2 -20    5.39    2.16
   1   2 -20   -0.19    1.67
   2   2 -20   15.95    2.69
   3   2 -20   12.33    2.45
   4   2 -20   34.37    3.77
   5   2 -20    5.27    1.95
   6   2 -20   -0.25    1.42
   7   2 -20    6.89    2.08
   8   2 -20   16.79    2.71
  -8   3 -20   18.54    2.77
  -7   3 -20   -0.94    1.26
  -6   3 -20   -0.40    1.26
  -5   3 -20    6.95    1.40
  -4   3 -20   -0.54    0.95
  -3   3 -20    1.97    1.14
  -2   3 -20   25.28    2.23
  -1   3 -20   -0.40    2.09
   0   3 -20   -2.02    1.95
   1   3 -20   -2.33    1.60
   2   3 -20   25.88    3.50
   3   3 -20    2.61    1.77
   4   3 -20   -1.08    1.47
   5   3 -20   16.26    2.80
   6   3 -20    1.77    1.82
   7   3 -20    1.63    1.77
   8   3 -20   18.33    3.09
  -4   4 -20   23.41    3.63
  -3   4 -20   11.30    2.96
  -2   4 -20   17.31    3.61
  -1   4 -20    1.37    2.32
   0   4 -20    2.70    2.48
   1   4 -20    1.56    2.28
   2   4 -20   10.72    2.90
   3   4 -20    8.83    2.59
   4   4 -20   16.16    3.24
  -5  -4 -19    4.86    1.87
  -4  -4 -19    4.96    1.78
  -3  -4 -19   -0.79    1.33
  -2  -4 -19    0.09    1.42
  -1  -4 -19   -0.11    1.34
   0  -4 -19   -1.03    1.46
   1  -4 -19   -0.08    1.46
   2  -4 -19    1.50    1.50
   3  -4 -19   -0.76    1.44
   4  -4 -19    5.53    2.20
   5  -4 -19    3.56    1.92
  -3  -3 -19    3.24    1.26
  -2  -3 -19   10.14    1.77
  -1  -3 -19    2.50    1.41
   0  -3 -19    6.13    1.58
   1  -3 -19    3.90    1.49
   2  -3 -19    8.78    1.95
   3  -3 -19    2.61    1.61
   4  -3 -19   22.47    2.24
   5  -3 -19    1.77    1.18
   6  -3 -19   42.75    4.14
   7  -3 -19   12.73    2.64
   8  -3 -19    4.78    2.22
  -7  -2 -19    2.27    1.81
  -6  -2 -19   13.42    2.69
  -5  -2 -19    5.73    2.07
  -4  -2 -19   15.56    2.74
  -3  -2 -19    1.26    1.46
  -2  -2 -19    3.69    1.67
  -1  -2 -19   -1.15    1.33
   0  -2 -19   -0.37    0.77
   1  -2 -19   -0.22    0.86
   2  -2 -19    0.85    0.85
   3  -2 -19    1.13    0.96
   4  -2 -19    9.58    1.50
   5  -2 -19    6.02    1.32
   6  -2 -19   19.08    1.97
   7  -2 -19    0.89    1.52
   8  -2 -19    3.27    1.84
   9  -2 -19   16.82    2.95
  10  -2 -19   24.99    3.61
 -11  -1 -19   10.56    1.98
 -10  -1 -19   -0.32    1.07
  -9  -1 -19    1.37    1.10
  -7  -1 -19   21.43    2.89
  -6  -1 -19   57.58    4.37
  -5  -1 -19    0.48    1.35
  -4  -1 -19   37.74    3.74
  -3  -1 -19    4.43    1.77
  -2  -1 -19   15.58    2.61
  -1  -1 -19    7.73    1.93
   0  -1 -19   10.69    2.16
   1  -1 -19    4.61    1.80
   2  -1 -19   20.04    2.84
   3  -1 -19    1.82    1.39
   4  -1 -19   37.84    2.47
   5  -1 -19    4.11    1.09
   6  -1 -19   61.24    3.00
   7  -1 -19   14.60    1.62
   8  -1 -19    5.27    2.08
   9  -1 -19    0.33    1.55
  10  -1 -19    0.80    1.83
  11  -1 -19    8.87    2.54
 -11   0 -19    0.54    1.22
 -10   0 -19   41.07    3.58
  -9   0 -19   12.78    2.03
  -8   0 -19    2.96    1.22
  -6   0 -19   19.12    2.59
  -5   0 -19    7.69    1.90
  -4   0 -19   15.18    2.52
  -3   0 -19   -0.47    1.20
  -2   0 -19    1.17    1.35
  -1   0 -19   -0.71    1.22
   0   0 -19   -1.19    1.14
   1   0 -19    2.17    1.37
   2   0 -19    0.38    1.15
   3   0 -19    0.42    1.20
   4   0 -19   18.26    2.48
   5   0 -19    9.26    1.94
   6   0 -19   25.30    2.89
   7   0 -19    2.44    1.37
   8   0 -19    2.76    1.61
   9   0 -19   14.23    2.53
  10   0 -19   35.04    3.92
  11   0 -19    0.39    1.85
  12   0 -19    8.69    2.59
 -11   1 -19    4.90    1.76
 -10   1 -19    1.67    1.33
  -9   1 -19   -1.47    1.03
  -8   1 -19    6.72    1.67
  -7   1 -19   11.88    1.93
  -6   1 -19   62.70    4.19
  -5   1 -19   -0.23    1.34
  -4   1 -19   41.95    4.07
  -3   1 -19    2.85    1.86
  -2   1 -19   21.16    3.32
  -1   1 -19    9.63    2.39
   0   1 -19   10.53    2.40
   1   1 -19    2.94    1.58
   2   1 -19   14.79    2.45
   3   1 -19    1.76    1.36
   4   1 -19   39.30    3.73
   5   1 -19    2.83    1.40
   6   1 -19   62.70    4.30
   7   1 -19   12.78    2.24
 -10   2 -19   29.73    3.36
  -9   2 -19    5.28    1.67
  -8   2 -19    0.67    1.32
  -7   2 -19    0.70    1.09
  -6   2 -19   22.34    2.60
  -5   2 -19    7.36    1.22
  -4   2 -19   11.49    2.48
  -3   2 -19    0.36    1.59
  -2   2 -19   -2.96    1.70
  -1   2 -19   -2.67    1.74
   0   2 -19   -1.59    1.57
   1   2 -19   -2.91    1.28
   2   2 -19   -1.01    1.24
   3   2 -19   -0.60    1.32
   4   2 -19   15.01    2.52
   5   2 -19    5.20    1.81
   6   2 -19   17.80    2.67
   7   2 -19   -1.51    1.35
   8   2 -19    3.78    1.61
  -8   3 -19    4.70    1.83
  -7   3 -19   10.15    2.10
  -6   3 -19   40.25    3.58
  -5   3 -19    1.15    1.00
  -4   3 -19   26.94    2.19
  -3   3 -19    1.26    1.10
  -2   3 -19   10.16    1.52
  -1   3 -19    8.77    2.83
   0   3 -19    7.14    2.58
   1   3 -19    4.04    2.18
   2   3 -19    9.03    2.41
   3   3 -19   -0.56    1.56
   4   3 -19   24.36    3.15
   5   3 -19   -0.06    1.52
   6   3 -19   39.34    4.14
   7   3 -19   12.25    2.59
   8   3 -19    6.30    2.11
  -4   4 -19    6.93    2.29
  -3   4 -19   -0.47    1.89
  -2   4 -19   -0.36    1.96
  -1   4 -19   -0.27    1.94
   0   4 -19    0.44    1.78
   1   4 -19   -1.32    1.63
   2   4 -19    0.58    1.74
   3   4 -19   -0.81    1.52
   4   4 -19    8.56    2.52
   5   4 -19    6.39    2.21
  -7  -4 -18    3.97    1.80
  -6  -4 -18   -1.65    1.42
  -5  -4 -18    1.98    1.63
  -4  -4 -18   17.28    2.58
  -3  -4 -18    0.73    1.45
  -2  -4 -18   -0.75    1.21
  -1  -4 -18    0.18    1.28
   0  -4 -18   -0.40    1.33
   1  -4 -18    1.36    1.50
   2  -4 -18    1.53    1.51
   3  -4 -18    1.45    1.57
   4  -4 -18   18.12    2.82
   5  -4 -18    2.60    1.81
   6  -4 -18   -0.98    1.59
  -5  -3 -18    1.58    1.31
  -4  -3 -18    0.31    1.05
  -3  -3 -18   39.00    2.95
  -2  -3 -18    7.14    1.63
  -1  -3 -18   11.08    1.90
   0  -3 -18   -0.25    0.98
   1  -3 -18   12.63    1.95
   2  -3 -18    8.51    1.75
   3  -3 -18   36.52    3.43
   4  -3 -18    0.52    1.40
   5  -3 -18    5.94    1.43
   6  -3 -18    3.53    1.41
   7  -3 -18   -0.33    1.44
   8  -3 -18    6.35    2.11
   9  -3 -18    2.04    1.89
  -7  -2 -18    3.83    1.89
  -6  -2 -18   -0.11    1.54
  -2  -2 -18    0.39    0.80
  -1  -2 -18    0.68    0.98
   0  -2 -18    2.11    1.04
   1  -2 -18    0.35    0.84
   2  -2 -18    0.84    0.92
   3  -2 -18    6.02    1.20
   4  -2 -18   29.80    2.28
   5  -2 -18    3.06    1.11
   6  -2 -18    0.66    0.93
   7  -2 -18    7.60    2.13
   8  -2 -18    0.44    1.64
   9  -2 -18    2.20    1.82
  10  -2 -18    1.00    1.85
  11  -2 -18    1.44    1.91
 -11  -1 -18    0.45    1.21
 -10  -1 -18    0.20    1.06
  -9  -1 -18    0.72    1.06
  -7  -1 -18    5.46    1.79
  -6  -1 -18    3.94    1.58
  -5  -1 -18    6.17    1.89
  -4  -1 -18    3.40    1.58
  -3  -1 -18   51.66    3.96
  -2  -1 -18   16.99    2.58
  -1  -1 -18   17.73    2.65
   0  -1 -18   -0.10    1.19
   1  -1 -18   23.80    2.93
   2  -1 -18   13.88    1.45
   3  -1 -18   55.57    2.58
   4  -1 -18    1.71    0.89
   5  -1 -18    5.75    1.17
   6  -1 -18    3.16    1.07
   7  -1 -18    3.64    1.08
   8  -1 -18    4.79    1.91
   9  -1 -18    2.63    1.65
  10  -1 -18   -0.63    1.67
  11  -1 -18    1.05    1.84
 -12   0 -18   -0.91    1.23
 -11   0 -18    0.08    1.16
 -10   0 -18    0.22    1.14
  -9   0 -18    0.21    0.99
  -8   0 -18    1.96    1.10
  -6   0 -18   -0.18    1.16
  -5   0 -18    0.71    1.28
  -4   0 -18   35.89    3.55
  -3   0 -18    8.71    1.97
  -2   0 -18    0.21    1.28
  -1   0 -18    1.29    1.36
   0   0 -18    1.15    1.25
   1   0 -18    2.51    1.40
   2   0 -18    0.69    1.26
   3   0 -18    8.65    1.82
   4   0 -18   34.13    3.31
   5   0 -18    3.87    1.46
   6   0 -18    1.13    0.83
   7   0 -18    5.48    1.12
   8   0 -18    3.67    1.60
   9   0 -18    0.12    1.41
  10   0 -18    0.03    1.67
  11   0 -18    0.42    1.73
  12   0 -18    0.39    1.83
 -11   1 -18    0.47    1.30
 -10   1 -18   -0.01    1.07
  -9   1 -18    3.12    1.40
  -8   1 -18    7.18    1.68
  -7   1 -18    6.76    1.49
  -6   1 -18    5.26    1.61
  -5   1 -18    6.12    1.71
  -4   1 -18    1.46    1.49
  -3   1 -18   51.56    4.72
  -2   1 -18   12.33    2.68
  -1   1 -18   21.78    3.29
   0   1 -18    0.80    1.51
   1   1 -18   20.71    2.82
   2   1 -18   13.43    2.28
   3   1 -18   54.44    3.84
   4   1 -18    2.79    1.43
   5   1 -18    9.06    1.83
   6   1 -18    5.01    1.53
   7   1 -18    3.10    1.35
 -10   2 -18    0.32    1.33
  -9   2 -18    4.13    1.42
  -8   2 -18    1.53    1.37
  -7   2 -18    3.94    1.46
  -6   2 -18   -0.74    0.79
  -5   2 -18    2.18    0.89
  -4   2 -18   24.52    3.26
  -3   2 -18    6.36    2.23
  -2   2 -18   -0.28    1.85
  -1   2 -18    3.29    2.15
   0   2 -18    0.75    1.68
   1   2 -18    1.92    1.58
   2   2 -18   -1.67    1.17
   3   2 -18    5.84    1.84
   4   2 -18   34.63    3.50
   5   2 -18    2.50    1.43
   6   2 -18    0.45    1.34
   7   2 -18    4.04    1.74
   8   2 -18    6.05    1.78
  -9   3 -18    0.89    1.46
  -8   3 -18    7.12    1.95
  -7   3 -18    7.49    1.81
  -6   3 -18    1.16    1.35
  -5   3 -18    5.01    1.23
  -4   3 -18    1.30    1.01
  -3   3 -18   36.96    2.32
  -2   3 -18    8.27    1.38
  -1   3 -18   15.36    3.11
   0   3 -18   -1.59    1.46
   1   3 -18   11.61    2.61
   2   3 -18    8.46    2.33
   3   3 -18   25.51    3.44
   4   3 -18    0.69    1.48
   5   3 -18    6.76    2.02
   6   3 -18    0.40    1.56
   7   3 -18    1.97    1.66
   8   3 -18    5.65    2.00
  -7   4 -18    2.68    1.71
  -4   4 -18   21.73    3.27
  -3   4 -18    6.00    2.28
  -2   4 -18    0.89    1.93
  -1   4 -18    1.93    2.19
   0   4 -18   -0.65    1.85
   1   4 -18   -0.61    1.85
   2   4 -18   -0.09    1.78
   3   4 -18    2.22    2.02
   4   4 -18   15.39    2.97
   5   4 -18    0.78    1.78
   6   4 -18    2.62    1.90
   7   4 -18    4.02    2.12
  -8  -4 -17    5.34    1.91
  -7  -4 -17    0.90    1.54
  -6  -4 -17    6.51    1.97
  -5  -4 -17    6.60    2.07
  -4  -4 -17    0.24    1.25
  -3  -4 -17    2.23    1.49
  -2  -4 -17   11.33    2.14
  -1  -4 -17    0.19    1.22
   0  -4 -17    0.14    1.26
   1  -4 -17    1.82    1.43
   2  -4 -17    9.95    2.07
   3  -4 -17    5.34    1.75
   4  -4 -17    2.05    1.66
   5  -4 -17    6.50    2.13
   6  -4 -17    5.64    2.01
   7  -4 -17    2.67    1.96
  -7  -3 -17   18.48    2.48
  -6  -3 -17    0.08    1.05
  -5  -3 -17    2.39    1.34
  -4  -3 -17    8.98    1.74
  -3  -3 -17    8.98    1.68
  -2  -3 -17    0.70    1.06
  -1  -3 -17   -1.94    0.78
   0  -3 -17   29.62    2.80
   1  -3 -17   -0.85    0.95
   2  -3 -17    1.45    1.22
   3  -3 -17   10.55    1.95
   4  -3 -17    8.36    1.90
   5  -3 -17    1.75    1.42
   6  -3 -17    1.16    1.13
   7  -3 -17   19.05    2.85
   8  -3 -17    1.07    1.66
   9  -3 -17    3.87    1.92
  -4  -2 -17    1.59    0.99
  -3  -2 -17    8.20    1.37
  -2  -2 -17   18.05    1.93
  -1  -2 -17    0.59    0.83
   0  -2 -17   -0.21    0.90
   1  -2 -17    0.25    0.92
   2  -2 -17   20.90    2.27
   3  -2 -17    4.29    1.08
   4  -2 -17    1.54    0.98
   5  -2 -17   15.69    1.72
   6  -2 -17   13.69    1.61
   7  -2 -17    3.20    1.77
   8  -2 -17   12.89    2.43
   9  -2 -17   18.13    2.92
  10  -2 -17    3.63    1.96
  11  -2 -17    1.64    1.81
 -11  -1 -17   25.27    2.64
 -10  -1 -17    4.82    1.44
  -9  -1 -17    1.55    1.11
  -7  -1 -17   34.76    3.42
  -6  -1 -17    0.55    1.25
  -5  -1 -17    5.12    1.72
  -4  -1 -17   14.83    2.39
  -3  -1 -17   12.10    2.31
  -2  -1 -17    0.74    1.39
  -1  -1 -17    0.36    1.22
   0  -1 -17   46.27    2.17
   1  -1 -17    0.88    0.69
   2  -1 -17    1.66    0.77
   3  -1 -17   11.97    1.38
   4  -1 -17   14.08    1.49
   5  -1 -17    2.63    0.99
   6  -1 -17    1.34    0.90
   7  -1 -17   30.94    2.18
   8  -1 -17    0.91    1.39
   9  -1 -17    4.26    1.78
  10  -1 -17    4.17    2.10
  11  -1 -17   20.75    3.15
  12  -1 -17   -1.25    1.55
 -12   0 -17    1.73    1.40
 -11   0 -17    1.49    1.20
 -10   0 -17    2.24    1.23
  -9   0 -17   17.21    2.26
  -8   0 -17   10.97    1.74
  -7   0 -17    5.82    1.65
  -6   0 -17   15.69    2.29
  -5   0 -17   17.38    2.46
  -4   0 -17    3.02    1.48
  -3   0 -17    8.68    1.90
  -2   0 -17   23.75    3.02
  -1   0 -17    2.70    1.50
   0   0 -17    0.76    1.37
   1   0 -17    2.27    1.39
   2   0 -17   27.13    2.91
   3   0 -17    4.27    1.45
   4   0 -17    1.70    0.84
   5   0 -17   19.19    1.64
   6   0 -17   15.82    1.55
   7   0 -17    4.08    0.98
   8   0 -17   11.62    2.12
   9   0 -17   19.77    2.78
  10   0 -17   -1.01    1.62
  11   0 -17   -1.59    1.46
  12   0 -17    6.74    2.40
 -12   1 -17    0.69    1.37
 -11   1 -17   23.40    2.91
 -10   1 -17    3.27    1.44
  -9   1 -17    0.92    1.18
  -8   1 -17   -0.01    0.90
  -7   1 -17   25.15    2.63
  -6   1 -17    0.41    1.25
  -5   1 -17    3.97    1.55
  -4   1 -17   16.70    2.59
  -3   1 -17   11.05    2.36
  -2   1 -17    1.17    1.75
  -1   1 -17    0.40    1.65
   0   1 -17   43.38    4.24
   1   1 -17    0.08    1.25
   2   1 -17   -0.71    1.26
   3   1 -17   11.10    2.00
   4   1 -17   15.16    2.24
   5   1 -17    3.71    1.39
   6   1 -17    1.05    1.18
   7   1 -17   30.19    2.95
   8   1 -17    2.71    1.49
   9   1 -17    2.99    1.79
  10   1 -17    4.08    2.14
  11   1 -17   24.19    3.47
  12   1 -17   -1.35    1.83
 -11   2 -17   -0.65    1.20
 -10   2 -17   -0.03    1.32
  -9   2 -17   16.37    2.41
  -8   2 -17   11.33    2.01
  -7   2 -17    3.96    1.33
  -6   2 -17   10.95    1.39
  -5   2 -17   16.09    1.57
  -4   2 -17    0.30    1.32
  -3   2 -17    4.83    1.98
  -2   2 -17   21.43    3.31
  -1   2 -17    2.03    1.89
   0   2 -17   -1.24    1.47
   1   2 -17   -0.71    1.33
   2   2 -17   21.07    2.69
   3   2 -17    6.44    1.77
   4   2 -17    0.36    1.27
   5   2 -17   12.27    2.26
   6   2 -17    9.08    1.99
   7   2 -17    0.30    1.33
   8   2 -17    9.60    1.96
  -9   3 -17    4.89    1.72
  -8   3 -17   -1.33    1.19
  -7   3 -17   19.41    2.55
  -6   3 -17   -0.15    1.11
  -5   3 -17    1.17    0.95
  -4   3 -17   11.06    1.42
  -3   3 -17    8.98    1.36
  -2   3 -17    0.63    0.86
  -1   3 -17   -1.89    1.51
   0   3 -17   34.24    3.96
   1   3 -17    2.33    1.72
   2   3 -17    2.50    1.55
   3   3 -17    9.14    2.09
   4   3 -17    9.01    2.12
   5   3 -17    4.40    1.82
   6   3 -17   -0.24    1.26
   7   3 -17   17.56    2.83
   8   3 -17    1.31    1.57
  -8   4 -17    6.99    2.10
  -7   4 -17    1.76    1.61
  -4   4 -17   -0.31    1.81
  -3   4 -17    2.17    1.87
  -2   4 -17   13.95    2.85
  -1   4 -17   -1.11    1.67
   0   4 -17   -0.68    1.68
   1   4 -17    0.33    1.67
   2   4 -17    8.06    2.41
   3   4 -17    2.22    1.86
   4   4 -17    2.63    1.79
   5   4 -17    9.47    2.35
   6   4 -17    7.27    2.26
   7   4 -17    2.54    1.86
   8   4 -17    1.61    1.83
  -2  -5 -16    3.42    1.75
  -1  -5 -16    0.02    1.62
   0  -5 -16    1.03    1.57
   1  -5 -16    1.77    1.58
   2  -5 -16    3.95    1.92
  -8  -4 -16   20.81    2.89
  -7  -4 -16    0.18    1.48
  -6  -4 -16    0.52    1.34
  -5  -4 -16    5.87    1.77
  -4  -4 -16    0.94    1.34
  -3  -4 -16    0.51    1.32
  -2  -4 -16   52.30    3.71
  -1  -4 -16   10.64    2.02
   0  -4 -16    8.54    2.02
   1  -4 -16   13.01    2.22
   2  -4 -16   50.98    3.78
   3  -4 -16    0.12    1.31
   4  -4 -16    0.27    1.52
   5  -4 -16    3.79    1.87
   6  -4 -16   -1.58    1.41
   7  -4 -16    0.97    1.68
  -8  -3 -16   19.37    2.56
  -7  -3 -16    0.33    1.16
  -6  -3 -16   18.37    2.36
  -5  -3 -16   -1.01    0.91
  -4  -3 -16    3.55    1.25
  -3  -3 -16    7.60    1.53
  -2  -3 -16    9.67    1.67
  -1  -3 -16    3.41    1.22
   0  -3 -16   -0.23    0.93
   1  -3 -16    1.44    1.18
   2  -3 -16    8.73    1.78
   3  -3 -16    4.15    1.49
   4  -3 -16    4.50    1.63
   5  -3 -16   -1.38    1.21
   6  -3 -16   17.02    2.67
   7  -3 -16   -0.76    1.28
   8  -3 -16   18.81    2.93
   9  -3 -16    2.74    1.95
  10  -3 -16    9.91    2.55
  -6  -2 -16    0.78    0.92
  -5  -2 -16    8.69    1.50
  -4  -2 -16    0.97    0.87
  -3  -2 -16    4.39    1.17
  -2  -2 -16  101.16    4.60
  -1  -2 -16   31.93    2.30
   0  -2 -16   17.77    1.96
   1  -2 -16   27.81    2.49
   2  -2 -16   95.38    4.81
   3  -2 -16    3.27    1.28
   4  -2 -16    0.31    0.81
   5  -2 -16    9.24    1.39
   6  -2 -16    4.16    1.02
   7  -2 -16    0.46    1.30
   8  -2 -16   44.82    4.11
   9  -2 -16   -0.25    1.47
  10  -2 -16    8.89    2.41
  11  -2 -16    0.40    1.67
 -11  -1 -16    7.23    1.66
 -10  -1 -16   10.14    1.79
  -9  -1 -16   -0.51    0.89
  -7  -1 -16    1.73    1.35
  -6  -1 -16   26.76    3.02
  -5  -1 -16    1.12    1.33
  -4  -1 -16    6.35    1.83
  -3  -1 -16    7.07    1.82
  -2  -1 -16   15.77    1.25
  -1  -1 -16    5.25    0.91
   0  -1 -16   -0.29    0.59
   1  -1 -16    7.40    1.05
   2  -1 -16   16.96    1.46
   3  -1 -16    5.20    1.01
   4  -1 -16    3.67    0.92
   5  -1 -16    1.19    0.84
   6  -1 -16   25.10    1.93
   7  -1 -16    0.40    0.79
   8  -1 -16   31.60    3.32
   9  -1 -16    3.84    1.72
  10  -1 -16   12.81    2.58
  11  -1 -16    8.27    2.29
  12  -1 -16    1.04    1.59
 -13   0 -16    2.44    1.34
 -12   0 -16    3.64    1.50
 -11   0 -16    2.23    1.31
 -10   0 -16    9.34    1.81
  -9   0 -16   -1.74    0.77
  -8   0 -16   47.19    3.07
  -7   0 -16    0.78    1.11
  -6   0 -16    6.46    1.58
  -5   0 -16    8.71    1.80
  -4   0 -16    0.32    1.18
  -3   0 -16    7.59    1.82
  -2   0 -16  136.41    6.78
  -1   0 -16   47.88    3.76
   0   0 -16   30.87    3.21
   1   0 -16   42.15    3.50
   2   0 -16  134.85    4.25
   3   0 -16    6.66    1.06
   4   0 -16   -0.17    0.68
   5   0 -16    8.28    1.16
   6   0 -16    4.69    1.02
   7   0 -16    1.01    0.78
   8   0 -16   45.39    3.72
   9   0 -16   -0.15    1.28
  10   0 -16    6.07    2.03
  11   0 -16    6.84    2.14
  12   0 -16    3.15    1.94
 -12   1 -16    1.26    1.35
 -11   1 -16    6.55    1.76
 -10   1 -16   12.03    1.91
  -9   1 -16    1.41    1.11
  -8   1 -16   24.42    2.59
  -7   1 -16    2.00    1.02
  -6   1 -16   20.54    2.49
  -5   1 -16    1.61    1.35
  -4   1 -16    6.87    1.87
  -3   1 -16    5.65    2.03
  -2   1 -16    5.91    2.44
  -1   1 -16    2.41    1.87
   0   1 -16    2.39    1.60
   1   1 -16    7.45    1.92
   2   1 -16   15.85    2.31
   3   1 -16    9.25    1.83
   4   1 -16    3.90    1.43
   5   1 -16    1.37    1.19
   6   1 -16   27.81    2.12
   7   1 -16    0.68    0.92
   8   1 -16   25.70    2.03
   9   1 -16    2.69    1.60
  10   1 -16    9.50    2.34
  11   1 -16    8.84    2.37
  12   1 -16    2.40    1.96
 -11   2 -16    3.05    1.48
 -10   2 -16   11.02    2.06
  -9   2 -16   -0.71    1.10
  -8   2 -16   43.65    3.12
  -7   2 -16    2.33    1.17
  -6   2 -16    2.71    0.92
  -5   2 -16    8.25    1.21
  -4   2 -16    1.93    1.34
  -3   2 -16    1.78    1.70
  -2   2 -16  105.79    6.11
  -1   2 -16   31.32    3.67
   0   2 -16   20.97    2.95
   1   2 -16   34.91    3.44
   2   2 -16  100.56    5.55
   3   2 -16    6.70    1.77
   4   2 -16   -0.93    1.12
   5   2 -16   11.38    2.01
   6   2 -16    1.53    1.32
   7   2 -16    2.00    1.34
   8   2 -16   42.35    3.34
 -10   3 -16    9.91    2.24
  -9   3 -16    0.25    1.32
  -8   3 -16   20.67    2.70
  -7   3 -16   -0.43    1.17
  -6   3 -16   21.04    2.48
  -5   3 -16   -0.68    0.79
  -4   3 -16    3.72    1.04
  -3   3 -16    3.59    1.03
  -2   3 -16   10.14    1.36
  -1   3 -16    5.91    1.03
   0   3 -16    0.72    1.55
   1   3 -16    3.16    1.63
   2   3 -16    8.31    2.09
   3   3 -16    6.62    1.82
   4   3 -16    4.64    1.76
   5   3 -16   -0.46    1.24
   6   3 -16   12.85    2.40
   7   3 -16    2.86    1.59
   8   3 -16   23.81    3.05
  -8   4 -16   25.76    3.14
  -7   4 -16    0.87    1.48
  -6   4 -16    0.09    1.36
  -4   4 -16    1.67    1.74
  -3   4 -16    1.34    1.84
  -2   4 -16   59.17    4.61
  -1   4 -16   16.43    3.01
   0   4 -16   13.16    2.77
   1   4 -16   16.11    2.89
   2   4 -16   46.61    4.60
   3   4 -16    2.57    1.76
   4   4 -16    0.25    1.43
   5   4 -16    4.79    1.87
   6   4 -16    0.32    1.66
   7   4 -16   -0.89    1.46
   8   4 -16   28.30    3.50
  -4   5 -16    1.88    2.01
  -3   5 -16    4.00    2.26
  -2   5 -16    4.67    2.26
  -1   5 -16    0.10    1.79
   0   5 -16    0.35    1.80
   1   5 -16    2.61    1.85
  -3  -5 -15   -0.17    1.41
  -2  -5 -15    1.58    1.58
  -1  -5 -15    1.06    1.47
   0  -5 -15   69.52    4.77
   1  -5 -15    2.56    1.62
   2  -5 -15    2.63    1.81
   3  -5 -15    0.89    1.58
  -8  -4 -15   10.08    2.12
  -7  -4 -15    1.66    1.52
  -6  -4 -15    1.86    1.49
  -5  -4 -15    5.62    1.72
  -4  -4 -15   18.11    2.60
  -3  -4 -15    0.63    1.19
  -2  -4 -15   12.31    2.09
  -1  -4 -15   10.28    2.00
   0  -4 -15   -1.16    1.04
   1  -4 -15   11.14    1.97
   2  -4 -15   11.44    2.11
   3  -4 -15    2.87    1.44
   4  -4 -15   24.90    3.03
   5  -4 -15    4.62    1.86
   6  -4 -15    0.81    1.62
   7  -4 -15   -0.22    1.58
   8  -4 -15   16.34    2.77
  -9  -3 -15    0.08    1.18
  -8  -3 -15    7.41    1.69
  -7  -3 -15    2.92    1.37
  -6  -3 -15   17.76    2.22
  -5  -3 -15   -1.01    0.90
  -4  -3 -15    4.92    1.35
  -3  -3 -15   -0.49    0.97
  -2  -3 -15    2.11    1.17
  -1  -3 -15    0.89    0.99
   0  -3 -15  161.25    6.89
   1  -3 -15    2.92    1.28
   2  -3 -15    2.19    1.15
   3  -3 -15    0.52    1.12
   4  -3 -15    5.21    1.53
   5  -3 -15    0.32    1.16
   6  -3 -15   23.52    2.88
   7  -3 -15    4.14    1.64
   8  -3 -15   10.36    2.25
   9  -3 -15    2.40    1.87
  10  -3 -15    2.68    1.86
 -12  -2 -15    4.39    1.76
 -11  -2 -15    1.69    1.49
 -10  -2 -15    7.76    2.00
  -7  -2 -15    2.88    1.16
  -6  -2 -15    3.89    1.15
  -5  -2 -15   12.00    1.59
  -4  -2 -15   42.87    2.69
  -3  -2 -15    3.56    1.07
  -2  -2 -15   29.18    2.17
  -1  -2 -15   19.21    1.89
   0  -2 -15    0.86    0.78
   1  -2 -15   18.29    1.95
   2  -2 -15   29.66    2.43
   3  -2 -15    5.08    1.33
   4  -2 -15   40.55    3.01
   5  -2 -15   11.25    1.45
   6  -2 -15    3.68    1.08
   7  -2 -15    4.43    1.61
   8  -2 -15   25.36    3.09
   9  -2 -15   12.02    2.47
  10  -2 -15    6.44    2.14
  11  -2 -15    0.24    1.76
  12  -2 -15    2.70    2.01
 -11  -1 -15    0.97    1.12
 -10  -1 -15    6.01    1.39
  -9  -1 -15    2.84    1.06
  -8  -1 -15   10.66    1.50
  -7  -1 -15    1.73    1.34
  -6  -1 -15   25.29    2.89
  -5  -1 -15   -0.50    1.05
  -4  -1 -15    8.35    0.97
  -3  -1 -15    1.44    0.61
  -2  -1 -15    7.68    0.91
  -1  -1 -15    4.99    0.84
   0  -1 -15  265.07    7.05
   1  -1 -15    4.57    0.90
   2  -1 -15    5.41    0.96
   3  -1 -15    1.24    0.84
   4  -1 -15    7.80    1.11
   5  -1 -15    1.02    0.75
   6  -1 -15   25.45    1.90
   7  -1 -15    2.94    0.93
   8  -1 -15   10.07    2.05
   9  -1 -15    0.51    1.47
  10  -1 -15    8.10    2.24
  11  -1 -15   -2.79    1.35
  12  -1 -15    3.14    1.89
 -13   0 -15    6.54    1.74
 -12   0 -15    5.65    1.56
 -11   0 -15    1.42    1.19
 -10   0 -15    8.20    1.67
  -9   0 -15   13.35    1.91
  -8   0 -15   32.11    2.45
  -7   0 -15    3.10    1.35
  -6   0 -15    4.15    1.45
  -5   0 -15   15.54    2.18
  -4   0 -15   50.29    3.63
  -3   0 -15    7.32    1.82
  -2   0 -15   33.28    3.48
  -1   0 -15   27.57    3.03
   0   0 -15   -1.00    1.07
   1   0 -15   27.61    1.65
   2   0 -15   46.18    2.09
   3   0 -15    6.28    1.01
   4   0 -15   45.77    2.30
   5   0 -15   15.08    1.43
   6   0 -15    4.03    0.95
   7   0 -15    3.70    0.96
   8   0 -15   26.37    3.01
   9   0 -15   14.65    2.47
  10   0 -15    7.70    2.08
  11   0 -15    2.83    1.81
  12   0 -15    7.34    2.38
  13   0 -15    4.58    2.38
 -12   1 -15    4.54    1.63
 -11   1 -15    1.23    1.23
 -10   1 -15    8.81    1.81
  -9   1 -15    5.54    1.44
  -8   1 -15    7.80    1.57
  -7   1 -15    4.29    1.28
  -6   1 -15   26.11    2.62
  -5   1 -15    0.49    1.06
  -4   1 -15    6.45    1.77
  -3   1 -15    2.51    1.68
  -2   1 -15   -0.71    1.86
  -1   1 -15    1.29    1.58
   0   1 -15  253.11   10.93
   1   1 -15    3.59    1.52
   2   1 -15    7.66    1.75
   3   1 -15    0.74    1.17
   4   1 -15    6.71    1.21
   5   1 -15    0.14    0.79
   6   1 -15   23.44    1.94
   7   1 -15    1.92    0.90
   8   1 -15    9.98    1.35
   9   1 -15    1.57    1.56
  10   1 -15    4.11    1.87
  11   1 -15   -1.20    1.56
  12   1 -15    6.31    2.26
  13   1 -15    2.39    1.99
 -11   2 -15    0.73    1.25
 -10   2 -15    7.83    1.85
  -9   2 -15   11.28    2.03
  -8   2 -15   28.81    2.79
  -7   2 -15    2.02    1.16
  -6   2 -15    3.49    0.93
  -5   2 -15   14.62    1.47
  -4   2 -15   42.32    2.11
  -3   2 -15    5.34    1.72
  -2   2 -15   37.28    3.67
  -1   2 -15   22.64    2.93
   0   2 -15   -0.90    1.31
   1   2 -15   24.02    2.77
   2   2 -15   33.66    3.28
   3   2 -15    6.68    1.62
   4   2 -15   37.00    3.46
   5   2 -15   12.31    2.04
   6   2 -15    0.85    1.27
   7   2 -15    5.09    1.53
   8   2 -15   25.13    2.77
   9   2 -15    9.37    2.80
  10   2 -15   10.05    2.79
  11   2 -15    1.64    1.96
  12   2 -15    6.94    2.44
 -10   3 -15    4.84    1.72
  -9   3 -15   -1.68    1.14
  -8   3 -15    8.03    1.86
  -7   3 -15    2.69    1.39
  -6   3 -15   15.38    2.13
  -5   3 -15   -0.19    0.75
  -4   3 -15    3.60    1.00
  -3   3 -15    0.74    0.81
  -2   3 -15    5.34    1.03
  -1   3 -15    2.90    0.87
   0   3 -15  158.28    7.78
   1   3 -15    2.14    1.53
   2   3 -15    3.27    1.52
   3   3 -15    0.92    1.39
   4   3 -15    6.78    1.81
   5   3 -15   -0.62    1.19
   6   3 -15   15.96    2.58
   7   3 -15    3.80    1.64
   8   3 -15    7.10    1.93
  -8   4 -15   12.45    2.31
  -7   4 -15    3.25    1.52
  -6   4 -15    1.30    1.39
  -4   4 -15   23.79    3.16
  -3   4 -15    3.16    1.76
  -2   4 -15   22.35    3.17
  -1   4 -15    6.43    2.16
   0   4 -15    1.57    1.53
   1   4 -15    9.27    2.32
   2   4 -15   14.69    2.72
   3   4 -15    4.14    1.85
   4   4 -15   19.63    2.86
   5   4 -15    5.31    1.86
   6   4 -15    0.33    1.45
   7   4 -15   -0.71    1.39
   8   4 -15    8.30    2.34
  -4   5 -15    0.17    1.86
  -3   5 -15    0.02    1.74
  -2   5 -15    2.99    2.04
  -1   5 -15    0.39    1.89
   0   5 -15   76.82    5.43
   1   5 -15   -0.42    1.56
   2   5 -15    0.21    1.74
   3   5 -15    0.03    1.76
  -4  -5 -14   11.07    2.28
  -3  -5 -14    0.49    1.42
  -2  -5 -14    2.61    1.61
  -1  -5 -14    1.96    1.54
   0  -5 -14   -1.29    1.38
   1  -5 -14    2.27    1.73
   2  -5 -14   -0.28    1.46
   3  -5 -14    1.38    1.59
   4  -5 -14   10.09    2.41
  -9  -4 -14   -1.29    1.45
  -8  -4 -14    3.41    1.67
  -7  -4 -14   13.75    2.32
  -6  -4 -14   -0.44    1.24
  -5  -4 -14   -0.60    1.16
  -4  -4 -14    0.27    1.21
  -3  -4 -14    1.02    1.20
  -2  -4 -14   17.81    2.41
  -1  -4 -14   -2.99    0.89
   0  -4 -14    2.93    1.34
   1  -4 -14   -0.04    1.12
   2  -4 -14   19.29    2.51
   3  -4 -14    3.05    1.40
   4  -4 -14   -0.20    1.36
   5  -4 -14    0.39    1.39
   6  -4 -14    1.49    1.56
   7  -4 -14   19.68    3.00
   8  -4 -14    3.89    1.88
 -11  -3 -14    0.62    1.46
 -10  -3 -14    0.95    1.29
  -9  -3 -14   14.99    2.24
  -8  -3 -14    4.43    1.01
  -7  -3 -14    1.57    0.80
  -6  -3 -14   52.54    2.33
  -5  -3 -14    1.19    1.03
  -4  -3 -14   18.17    2.14
  -3  -3 -14    0.81    0.95
  -2  -3 -14    2.32    1.02
  -1  -3 -14    1.79    1.09
   0  -3 -14   -0.47    0.81
   1  -3 -14    2.64    1.14
   2  -3 -14   -0.11    0.95
   3  -3 -14    0.80    1.14
   4  -3 -14   18.92    2.39
   5  -3 -14   -0.03    1.14
   6  -3 -14   51.76    3.73
   7  -3 -14   -0.80    1.31
   8  -3 -14    4.11    1.74
   9  -3 -14   10.99    2.44
  10  -3 -14    3.20    1.97
 -12  -2 -14    1.76    1.45
 -11  -2 -14    0.79    1.34
 -10  -2 -14   11.46    2.09
  -9  -2 -14   -0.86    1.13
  -6  -2 -14    3.61    0.75
  -5  -2 -14   -0.26    0.48
  -4  -2 -14    1.54    0.55
  -3  -2 -14    3.89    1.03
  -2  -2 -14   37.43    2.43
  -1  -2 -14    1.95    0.84
   0  -2 -14    4.42    1.14
   1  -2 -14   -0.19    0.74
   2  -2 -14   39.41    2.64
   3  -2 -14    3.50    1.18
   4  -2 -14    1.67    1.15
   5  -2 -14    0.09    0.80
   6  -2 -14    4.31    1.09
   7  -2 -14   29.15    3.09
   8  -2 -14    3.02    1.56
   9  -2 -14    1.05    1.41
  10  -2 -14   10.09    2.34
  11  -2 -14    0.18    1.61
  12  -2 -14   -1.65    1.66
 -11  -1 -14    1.59    1.15
 -10  -1 -14    1.87    1.15
  -9  -1 -14   16.38    1.95
  -8  -1 -14    5.44    1.18
  -7  -1 -14    1.60    1.35
  -6  -1 -14   81.28    4.72
  -5  -1 -14    0.78    0.61
  -4  -1 -14   33.92    1.69
  -3  -1 -14    3.33    0.71
  -2  -1 -14    0.75    0.56
  -1  -1 -14    4.51    0.76
   0  -1 -14   -0.05    0.53
   1  -1 -14    4.62    0.86
   2  -1 -14    1.37    0.74
   3  -1 -14    1.98    0.79
   4  -1 -14   29.50    1.93
   5  -1 -14    1.97    0.81
   6  -1 -14   86.55    3.26
   7  -1 -14    2.19    0.86
   8  -1 -14    9.56    2.01
   9  -1 -14   21.72    2.93
  10  -1 -14    6.31    2.02
  11  -1 -14    4.05    1.84
  12  -1 -14    3.09    1.81
  13  -1 -14   -0.81    1.64
 -13   0 -14    3.05    1.47
 -12   0 -14    0.07    1.12
 -11   0 -14    1.74    1.17
 -10   0 -14   16.90    2.10
  -9   0 -14    1.84    1.06
  -8   0 -14    3.25    1.07
  -7   0 -14   33.61    2.96
  -6   0 -14    4.28    1.37
  -5   0 -14   -0.39    1.02
  -4   0 -14    3.59    1.36
  -3   0 -14    6.47    1.68
  -2   0 -14   49.70    3.76
  -1   0 -14    0.28    1.22
   0   0 -14    7.03    0.84
   1   0 -14    0.77    0.60
   2   0 -14   50.24    2.20
   3   0 -14    3.87    0.91
   4   0 -14    3.68    0.89
   5   0 -14    0.29    0.71
   6   0 -14    3.78    0.90
   7   0 -14   34.96    2.04
   8   0 -14    1.18    1.32
   9   0 -14   -1.45    1.21
  10   0 -14   16.06    2.61
  11   0 -14   -0.92    1.42
  12   0 -14    1.58    1.76
  13   0 -14    1.62    2.03
 -13   1 -14    1.19    1.32
 -12   1 -14    2.98    1.41
 -11   1 -14    2.28    1.29
 -10   1 -14    2.75    1.27
  -9   1 -14   16.14    2.08
  -8   1 -14    6.70    1.42
  -7   1 -14    1.33    0.96
  -6   1 -14   82.43    2.97
  -5   1 -14    2.02    1.20
  -4   1 -14   35.92    3.38
  -3   1 -14    3.73    1.75
  -2   1 -14   -3.70    1.50
  -1   1 -14    5.64    1.95
   0   1 -14    1.61    1.42
   1   1 -14    5.72    1.61
   2   1 -14    0.85    1.17
   3   1 -14    3.41    0.91
   4   1 -14   35.51    2.14
   5   1 -14    2.15    0.91
   6   1 -14   80.93    3.36
   7   1 -14    3.28    1.01
   8   1 -14    6.42    1.11
   9   1 -14   20.18    2.79
  10   1 -14    0.83    1.70
  11   1 -14    1.83    1.72
  12   1 -14    0.39    1.73
  13   1 -14    1.12    2.03
 -12   2 -14    2.00    1.47
 -11   2 -14    1.87    1.32
 -10   2 -14    9.78    1.94
  -9   2 -14   -0.98    0.95
  -8   2 -14    2.07    1.15
  -7   2 -14   27.09    2.71
  -6   2 -14    3.05    0.85
  -5   2 -14    0.40    0.66
  -4   2 -14    1.98    0.77
  -3   2 -14    3.62    1.52
  -2   2 -14   47.83    3.63
  -1   2 -14    0.10    1.22
   0   2 -14    8.04    1.88
   1   2 -14   -0.30    1.13
   2   2 -14   42.10    3.34
   3   2 -14    3.40    1.37
   4   2 -14    2.01    1.25
   5   2 -14   -1.49    0.94
   6   2 -14    3.59    1.01
   7   2 -14   27.25    2.13
   8   2 -14    3.79    1.12
   9   2 -14    3.78    2.19
  10   2 -14   11.12    2.78
  11   2 -14    7.97    2.50
  12   2 -14   -0.07    1.97
 -10   3 -14    2.64    1.46
  -9   3 -14   16.84    2.45
  -8   3 -14    2.52    1.42
  -7   3 -14    1.33    1.13
  -6   3 -14   48.34    3.27
  -5   3 -14    0.77    0.80
  -4   3 -14   22.52    1.75
  -3   3 -14    2.84    0.86
  -2   3 -14   -0.79    0.68
  -1   3 -14    0.71    0.73
   0   3 -14    1.62    1.41
   1   3 -14    2.74    1.51
   2   3 -14    0.90    1.28
   3   3 -14    1.38    1.34
   4   3 -14   17.77    2.56
   5   3 -14    1.57    1.32
   6   3 -14   47.26    3.74
   7   3 -14    1.13    1.32
   8   3 -14    5.75    1.66
  -9   4 -14    1.13    1.50
  -8   4 -14    1.99    1.51
  -7   4 -14   16.23    2.40
  -6   4 -14    5.07    1.61
  -5   4 -14   -2.09    1.25
  -4   4 -14    0.89    1.38
  -3   4 -14    2.87    1.61
  -2   4 -14   24.23    3.07
  -1   4 -14    0.56    1.39
   0   4 -14    4.37    1.78
   1   4 -14    0.96    1.47
   2   4 -14   20.04    2.88
   3   4 -14    2.38    1.61
   4   4 -14    0.76    1.46
   5   4 -14   -0.09    1.36
   6   4 -14    1.48    1.45
   7   4 -14   17.15    2.68
   8   4 -14    1.75    1.62
  -4   5 -14    5.71    2.23
  -3   5 -14    1.80    1.80
  -2   5 -14   -0.63    1.70
  -1   5 -14    0.34    1.83
   0   5 -14    0.38    1.80
   1   5 -14    2.44    1.82
   2   5 -14    0.20    1.56
   3   5 -14   -0.16    1.63
   4   5 -14    7.47    2.30
  -5  -5 -13   12.94    2.55
  -4  -5 -13   10.19    2.25
  -3  -5 -13    2.91    1.65
  -2  -5 -13    8.11    2.10
  -1  -5 -13    9.51    2.07
   0  -5 -13   10.95    2.25
   1  -5 -13    9.50    2.16
   2  -5 -13   10.52    2.27
   3  -5 -13    4.02    1.80
   4  -5 -13   10.63    2.47
   5  -5 -13   11.33    2.49
 -10  -4 -13    3.05    1.79
  -9  -4 -13    5.93    1.37
  -8  -4 -13   -1.78    0.80
  -7  -4 -13    3.01    1.02
  -6  -4 -13    0.90    0.83
  -5  -4 -13   -0.48    0.73
  -4  -4 -13   -0.40    0.69
  -3  -4 -13    1.50    1.32
  -2  -4 -13   11.53    1.93
  -1  -4 -13    2.26    1.23
   0  -4 -13   -0.13    1.02
   1  -4 -13    4.42    1.44
   2  -4 -13    8.28    1.78
   3  -4 -13   -0.41    1.19
   4  -4 -13    1.64    1.40
   5  -4 -13    0.25    1.31
   6  -4 -13    3.32    1.74
   7  -4 -13    4.60    1.86
   8  -4 -13   -1.65    1.47
   9  -4 -13    5.48    2.15
 -11  -3 -13    0.30    1.38
 -10  -3 -13    0.14    1.24
  -9  -3 -13   -0.15    1.08
  -8  -3 -13    1.21    1.08
  -7  -3 -13    0.00    0.63
  -6  -3 -13   10.30    1.19
  -5  -3 -13   26.00    1.73
  -4  -3 -13   25.48    1.65
  -3  -3 -13    9.25    1.00
  -2  -3 -13   22.04    1.42
  -1  -3 -13   27.41    2.47
   0  -3 -13   30.59    2.43
   1  -3 -13   26.13    2.49
   2  -3 -13   23.06    2.38
   3  -3 -13    8.01    1.62
   4  -3 -13   20.08    2.43
   5  -3 -13   21.08    2.65
   6  -3 -13    8.22    1.95
   7  -3 -13   -1.27    1.09
   8  -3 -13    1.23    1.45
   9  -3 -13    1.38    1.74
  10  -3 -13   -0.43    1.55
  11  -3 -13    0.73    1.72
 -13  -2 -13    0.50    1.56
 -12  -2 -13    8.08    2.12
 -11  -2 -13   18.11    2.53
 -10  -2 -13    2.35    1.41
  -9  -2 -13   12.92    2.13
  -6  -2 -13    5.51    1.16
  -5  -2 -13   -0.30    0.46
  -4  -2 -13   -0.30    0.39
  -3  -2 -13    1.52    0.51
  -2  -2 -13   16.28    1.03
  -1  -2 -13    8.15    1.30
   0  -2 -13   -0.29    0.68
   1  -2 -13    9.12    1.38
   2  -2 -13   15.91    1.82
   3  -2 -13    3.22    1.12
   4  -2 -13   -0.34    0.89
   5  -2 -13   -1.21    0.92
   6  -2 -13    7.39    1.16
   7  -2 -13    6.59    1.69
   8  -2 -13    0.88    1.34
   9  -2 -13   14.11    2.40
  10  -2 -13    9.14    2.31
  11  -2 -13   15.87    2.83
  12  -2 -13    4.82    2.09
 -11  -1 -13    0.34    1.02
 -10  -1 -13   -0.75    0.76
  -9  -1 -13    0.31    0.86
  -8  -1 -13    1.49    0.86
  -7  -1 -13   -0.35    1.05
  -6  -1 -13   14.07    2.12
  -4  -1 -13   40.45    2.24
  -3  -1 -13   12.37    1.26
  -2  -1 -13   43.57    1.48
  -1  -1 -13   44.38    2.32
   0  -1 -13   55.80    2.76
   1  -1 -13   46.53    2.01
   2  -1 -13   44.89    2.03
   3  -1 -13   12.74    1.26
   4  -1 -13   42.75    2.13
   5  -1 -13   42.08    2.17
   6  -1 -13   14.44    1.42
   7  -1 -13   -0.23    0.68
   8  -1 -13    0.33    1.31
   9  -1 -13    1.01    1.29
  10  -1 -13    0.10    1.36
  11  -1 -13   -1.34    1.31
  12  -1 -13   -1.12    1.39
  13  -1 -13    1.10    1.85
 -14   0 -13   13.42    2.24
 -13   0 -13    2.19    1.31
 -12   0 -13    5.97    1.66
 -11   0 -13   20.76    2.47
 -10   0 -13    4.09    1.21
  -9   0 -13   14.79    1.89
  -8   0 -13    1.44    0.93
  -7   0 -13    5.14    0.89
  -6   0 -13    7.19    1.56
  -5   0 -13    0.73    1.01
  -4   0 -13    0.59    1.04
  -3   0 -13    2.02    1.29
  -2   0 -13   24.14    1.16
  -1   0 -13   10.95    0.85
   0   0 -13    0.45    0.48
   1   0 -13   10.78    0.98
   2   0 -13   20.91    1.42
   3   0 -13    2.64    0.77
   4   0 -13    0.51    0.69
   5   0 -13    0.31    0.69
   6   0 -13    9.64    1.16
   7   0 -13    7.16    1.04
   8   0 -13    1.41    1.31
   9   0 -13   15.72    2.44
  10   0 -13    5.16    1.87
  11   0 -13   17.94    2.83
  12   0 -13    8.58    2.24
  13   0 -13    3.30    2.03
 -13   1 -13    1.84    1.37
 -12   1 -13    1.88    1.23
 -11   1 -13   -0.76    0.89
 -10   1 -13   -1.24    0.89
  -9   1 -13    1.49    1.00
  -8   1 -13    2.60    1.09
  -7   1 -13   -0.09    0.84
  -6   1 -13   14.76    1.29
  -5   1 -13   44.79    3.06
  -4   1 -13   36.38    3.33
  -3   1 -13   15.66    2.43
  -2   1 -13   40.59    4.07
  -1   1 -13   39.57    3.84
   0   1 -13   58.03    3.93
   1   1 -13   45.21    3.28
   2   1 -13   40.13    1.87
   3   1 -13   12.91    1.33
   4   1 -13   37.75    2.23
   5   1 -13   33.57    2.20
   6   1 -13   14.14    1.48
   7   1 -13   -0.75    0.70
   8   1 -13    3.19    0.89
   9   1 -13    0.98    1.38
  10   1 -13   -0.38    1.39
  11   1 -13    0.04    1.44
  12   1 -13    4.00    1.99
  13   1 -13   -0.94    1.67
 -12   2 -13    6.22    1.84
 -11   2 -13   16.35    2.36
 -10   2 -13    4.70    1.49
  -9   2 -13   11.21    1.86
  -8   2 -13    1.57    1.09
  -7   2 -13    4.95    1.32
  -6   2 -13    5.72    0.96
  -5   2 -13   -0.12    0.62
  -4   2 -13   -0.13    0.62
  -3   2 -13    1.32    1.27
  -2   2 -13   18.98    2.44
  -1   2 -13    8.67    1.91
   0   2 -13    0.09    1.15
   1   2 -13    8.34    1.78
   2   2 -13   17.27    2.27
   3   2 -13    1.65    1.18
   4   2 -13    0.39    1.03
   5   2 -13   -0.41    0.65
   6   2 -13    6.38    1.12
   7   2 -13    3.82    1.08
   8   2 -13    0.79    0.88
   9   2 -13    4.91    2.61
  10   2 -13    5.09    2.30
  11   2 -13   15.65    3.09
  12   2 -13    6.67    2.33
  13   2 -13    4.43    2.22
 -11   3 -13   -0.65    1.26
 -10   3 -13    1.01    1.20
  -9   3 -13    0.53    1.25
  -8   3 -13    1.15    1.24
  -7   3 -13    1.76    1.21
  -6   3 -13    7.60    1.65
  -5   3 -13   24.97    1.82
  -4   3 -13   25.01    1.79
  -3   3 -13    8.53    1.10
  -2   3 -13   26.17    1.63
  -1   3 -13   26.63    1.67
   0   3 -13   31.28    1.72
   1   3 -13   30.74    3.08
   2   3 -13   26.33    2.90
   3   3 -13   10.96    2.00
   4   3 -13   26.10    2.88
   5   3 -13   25.36    2.87
   6   3 -13    8.56    1.90
   7   3 -13   -0.77    1.10
   8   3 -13    1.02    1.27
  10   3 -13    0.10    2.40
  11   3 -13    1.76    2.72
  12   3 -13   -1.08    2.45
  -9   4 -13    3.16    1.63
  -8   4 -13    0.59    1.42
  -7   4 -13    3.21    1.52
  -6   4 -13    2.15    1.42
  -5   4 -13    0.24    0.86
  -4   4 -13    0.70    1.38
  -3   4 -13   -0.50    1.17
  -2   4 -13   10.06    2.20
  -1   4 -13    6.56    1.85
   0   4 -13   -0.34    1.25
   1   4 -13    1.65    1.42
   2   4 -13    7.88    1.86
   3   4 -13    0.63    1.35
   4   4 -13    0.64    1.39
   5   4 -13    0.73    1.36
   6   4 -13    1.46    1.43
   7   4 -13    3.67    1.65
   8   4 -13   -0.73    1.41
  -4   5 -13    8.05    2.43
  -3   5 -13    1.59    1.86
  -2   5 -13   14.89    2.81
  -1   5 -13   10.75    2.49
   0   5 -13   14.23    2.79
   1   5 -13    8.60    2.19
   2   5 -13   11.62    2.51
   3   5 -13    3.35    1.87
   4   5 -13   13.87    2.70
   5   5 -13   10.66    2.55
  -7  -5 -12    1.14    1.40
  -6  -5 -12    0.76    1.00
  -5  -5 -12    8.21    1.42
  -4  -5 -12    4.98    1.18
  -3  -5 -12    1.04    1.42
  -2  -5 -12    9.13    2.05
  -1  -5 -12    0.50    1.33
   0  -5 -12   -0.23    1.43
   1  -5 -12   -0.04    1.42
   2  -5 -12    3.40    1.71
   3  -5 -12    1.47    1.54
   4  -5 -12    0.75    1.62
   5  -5 -12    4.93    2.07
 -10  -4 -12    0.57    1.51
  -9  -4 -12   -0.86    0.91
  -8  -4 -12    0.28    0.91
  -7  -4 -12   15.24    1.59
  -6  -4 -12    7.13    1.16
  -5  -4 -12   15.46    1.51
  -4  -4 -12   76.32    3.03
  -3  -4 -12    0.45    0.69
  -2  -4 -12    5.43    0.97
  -1  -4 -12    2.65    0.76
   0  -4 -12    8.17    1.09
   1  -4 -12    1.65    1.18
   2  -4 -12    4.51    1.46
   3  -4 -12   -0.80    1.05
   4  -4 -12   75.80    4.59
   5  -4 -12   14.99    2.38
   6  -4 -12    6.85    1.92
   7  -4 -12   15.06    2.54
   8  -4 -12    1.22    1.72
   9  -4 -12    4.76    1.93
 -12  -3 -12   28.14    3.78
 -11  -3 -12   13.01    2.51
 -10  -3 -12    7.86    1.92
  -9  -3 -12   41.36    3.69
  -8  -3 -12    8.61    1.70
  -7  -3 -12    1.60    1.04
  -6  -3 -12    1.66    0.71
  -5  -3 -12   15.91    1.38
  -4  -3 -12    9.59    1.05
  -3  -3 -12    0.24    0.51
  -2  -3 -12   14.48    1.19
  -1  -3 -12    3.23    0.68
   0  -3 -12   -0.40    0.48
   1  -3 -12    2.05    0.64
   2  -3 -12   15.06    1.19
   3  -3 -12    0.63    1.03
   4  -3 -12    6.79    1.59
   5  -3 -12   13.87    2.13
   6  -3 -12   -0.60    1.11
   7  -3 -12    1.32    1.40
   8  -3 -12    4.59    1.73
   9  -3 -12   32.06    3.58
  10  -3 -12    7.05    2.15
  11  -3 -12   12.22    2.53
 -13  -2 -12    1.80    1.49
 -12  -2 -12    2.13    1.44
 -11  -2 -12    6.24    1.72
 -10  -2 -12    0.06    1.20
  -9  -2 -12   -0.51    1.04
  -8  -2 -12    3.20    1.32
  -5  -2 -12   24.91    1.96
  -4  -2 -12  154.96    4.44
  -3  -2 -12    1.14    0.47
  -2  -2 -12   13.11    0.95
  -1  -2 -12    4.04    0.58
   0  -2 -12   24.15    1.14
   1  -2 -12    5.19    0.63
   2  -2 -12   12.05    0.92
   3  -2 -12    0.95    0.94
   4  -2 -12  156.20    6.72
   5  -2 -12   28.93    2.70
   6  -2 -12   17.24    1.59
   7  -2 -12   24.21    2.68
   8  -2 -12    4.49    1.54
   9  -2 -12   -0.54    1.29
  10  -2 -12   -1.02    1.40
  11  -2 -12    5.36    1.95
  12  -2 -12    3.19    1.80
 -11  -1 -12   15.53    2.03
 -10  -1 -12   15.49    1.88
  -9  -1 -12   54.68    3.16
  -8  -1 -12   10.55    1.51
  -7  -1 -12    2.02    1.16
  -3  -1 -12   -0.43    0.50
  -2  -1 -12   25.87    1.07
  -1  -1 -12    5.75    0.48
   0  -1 -12    0.57    0.23
   1  -1 -12    5.10    0.95
   2  -1 -12   22.73    1.48
   3  -1 -12   -0.08    0.61
   4  -1 -12   13.84    1.30
   5  -1 -12   28.42    1.82
   6  -1 -12    4.09    0.89
   7  -1 -12    1.03    0.73
   8  -1 -12   15.38    2.38
   9  -1 -12   56.66    4.10
  10  -1 -12    9.64    2.17
  11  -1 -12   19.00    2.91
  12  -1 -12   45.39    4.42
  13  -1 -12    3.73    2.05
 -14   0 -12    9.08    1.97
 -13   0 -12    0.80    1.21
 -12   0 -12    1.61    1.13
 -11   0 -12    5.37    1.44
 -10   0 -12   -0.07    0.89
  -9   0 -12    0.02    0.84
  -8   0 -12    1.41    0.93
  -7   0 -12   28.13    1.61
  -6   0 -12   20.05    2.22
  -5   0 -12   36.96    2.89
  -4   0 -12  207.34    8.69
  -3   0 -12    1.79    0.44
  -2   0 -12   14.46    0.88
  -1   0 -12    7.57    0.67
   0   0 -12   35.01    1.49
   1   0 -12    6.57    0.75
   2   0 -12   14.61    1.17
   3   0 -12    2.50    0.72
   4   0 -12  206.46    5.88
   5   0 -12   38.31    1.97
   6   0 -12   22.60    1.64
   7   0 -12   29.25    1.76
   8   0 -12    2.20    1.43
   9   0 -12    0.24    1.27
  10   0 -12   -1.03    1.21
  11   0 -12    5.25    1.87
  12   0 -12    1.49    1.72
  13   0 -12    0.50    1.93
 -13   1 -12    4.11    1.51
 -12   1 -12   45.36    3.37
 -11   1 -12   13.83    2.09
 -10   1 -12   11.57    1.91
  -9   1 -12   55.72    3.42
  -8   1 -12   11.04    1.70
  -7   1 -12   -0.04    0.79
  -6   1 -12    3.56    0.77
  -5   1 -12   27.58    2.50
  -4   1 -12   14.11    2.03
  -3   1 -12   -2.22    1.09
  -2   1 -12   25.33    3.05
  -1   1 -12    5.01    1.65
   0   1 -12    0.55    1.09
   1   1 -12    5.94    0.67
   2   1 -12   25.83    1.47
   3   1 -12    0.38    0.70
   4   1 -12   15.29    1.41
   5   1 -12   27.15    1.97
   6   1 -12    3.17    0.62
   7   1 -12    0.30    0.70
   8   1 -12   11.45    1.33
   9   1 -12   50.79    4.01
  10   1 -12   10.87    2.23
  11   1 -12   17.88    2.93
  12   1 -12   44.73    4.57
  13   1 -12    2.38    2.14
 -12   2 -12    2.16    1.46
 -11   2 -12    2.48    1.49
 -10   2 -12   -0.55    1.02
  -9   2 -12    0.46    0.98
  -8   2 -12    1.73    1.04
  -7   2 -12   20.76    2.23
  -6   2 -12   15.91    1.38
  -5   2 -12   28.92    1.78
  -4   2 -12  160.48    4.68
  -3   2 -12    1.64    1.19
  -2   2 -12   15.73    2.17
  -1   2 -12    2.87    1.35
   0   2 -12   22.81    2.57
   1   2 -12    5.04    1.51
   2   2 -12   12.29    1.89
   3   2 -12    0.58    0.59
   4   2 -12  157.02    4.72
   5   2 -12   27.23    1.83
   6   2 -12   17.48    1.58
   7   2 -12   19.89    1.79
   8   2 -12    0.82    0.88
   9   2 -12    0.92    1.99
  10   2 -12   -0.94    1.74
  11   2 -12    2.72    2.08
  12   2 -12   -0.31    1.69
  13   2 -12   -0.57    1.83
 -11   3 -12    8.43    2.01
 -10   3 -12    8.10    2.02
  -9   3 -12   36.73    3.42
  -8   3 -12    7.73    1.63
  -7   3 -12    0.29    0.99
  -6   3 -12    0.21    0.96
  -5   3 -12   15.96    1.45
  -4   3 -12    9.12    1.14
  -3   3 -12    0.17    0.66
  -2   3 -12   17.04    1.38
  -1   3 -12    3.57    0.78
   0   3 -12   -0.47    0.56
   1   3 -12    2.72    1.37
   2   3 -12   18.88    2.44
   3   3 -12    1.22    1.14
   4   3 -12    7.88    1.78
   5   3 -12   20.16    2.49
   6   3 -12    1.71    1.26
   7   3 -12    0.86    0.87
   8   3 -12    7.03    1.31
   9   3 -12   39.25    4.34
  10   3 -12    8.63    2.90
  11   3 -12    7.05    3.25
  12   3 -12   16.67    3.86
  -9   4 -12   -0.74    1.29
  -8   4 -12    1.37    1.40
  -7   4 -12   10.08    1.92
  -6   4 -12    7.20    1.69
  -5   4 -12   14.39    1.53
  -4   4 -12   73.28    4.58
  -3   4 -12    1.76    1.33
  -2   4 -12    9.16    1.97
  -1   4 -12    4.25    1.52
   0   4 -12    9.61    2.09
   1   4 -12    0.66    1.30
   2   4 -12    7.64    1.89
   3   4 -12   -0.80    1.11
   4   4 -12   73.73    4.71
   5   4 -12   12.41    2.18
   6   4 -12    4.68    1.74
   7   4 -12   11.49    2.25
   8   4 -12   -0.06    1.41
  -4   5 -12    3.54    1.89
  -3   5 -12   -0.18    1.63
  -2   5 -12   10.49    2.40
  -1   5 -12   -0.37    1.50
   0   5 -12    0.45    1.47
   1   5 -12    1.22    1.56
   2   5 -12    3.00    1.79
   3   5 -12   -1.92    1.27
   4   5 -12    4.86    1.89
   5   5 -12    8.76    2.39
   6   5 -12   -1.71    1.47
  -7  -5 -11    2.25    1.39
  -6  -5 -11   35.22    2.49
  -5  -5 -11    2.31    1.06
  -4  -5 -11    2.18    1.02
  -3  -5 -11    6.42    1.21
  -2  -5 -11   10.01    1.38
  -1  -5 -11   -0.95    0.75
   0  -5 -11   13.35    1.54
   1  -5 -11   -0.27    0.79
   2  -5 -11    7.80    1.98
   3  -5 -11   10.30    2.29
   4  -5 -11    2.11    1.69
   5  -5 -11    4.53    1.94
   6  -5 -11   31.81    3.71
 -10  -4 -11   54.96    4.26
  -9  -4 -11    1.18    1.02
  -8  -4 -11    0.90    0.88
  -7  -4 -11    0.33    0.80
  -6  -4 -11    1.12    0.82
  -5  -4 -11   -0.01    0.70
  -4  -4 -11   19.00    1.62
  -3  -4 -11    9.40    1.16
  -2  -4 -11   11.61    1.28
  -1  -4 -11    2.81    0.79
   0  -4 -11   -0.89    0.54
   1  -4 -11    2.72    0.79
   2  -4 -11   11.91    1.28
   3  -4 -11    8.43    1.07
   4  -4 -11   18.44    2.48
   5  -4 -11   -0.79    1.18
   6  -4 -11    1.35    1.41
   7  -4 -11   -1.24    1.30
   8  -4 -11    2.20    1.66
   9  -4 -11    1.78    1.67
 -12  -3 -11    6.77    1.56
 -11  -3 -11   -1.07    1.00
 -10  -3 -11    0.83    1.05
  -9  -3 -11    0.15    0.85
  -8  -3 -11    1.85    1.15
  -7  -3 -11    1.96    1.03
  -6  -3 -11   72.40    2.80
  -5  -3 -11   14.27    1.29
  -4  -3 -11    7.10    0.93
  -3  -3 -11   21.45    1.45
  -2  -3 -11   21.14    1.41
  -1  -3 -11   -0.79    0.45
   0  -3 -11   34.68    1.61
   1  -3 -11    0.85    0.52
   2  -3 -11   24.61    1.44
   3  -3 -11   20.46    1.35
   4  -3 -11    7.01    0.99
   5  -3 -11   13.71    1.30
   6  -3 -11   75.51    4.36
   7  -3 -11    4.71    1.60
   8  -3 -11    1.09    1.27
   9  -3 -11   -0.32    1.34
  10  -3 -11    0.00    1.43
  11  -3 -11   -0.40    1.58
 -13  -2 -11    3.27    1.68
 -12  -2 -11   14.46    2.44
 -11  -2 -11    7.39    1.82
 -10  -2 -11   86.60    4.96
  -9  -2 -11    3.09    1.40
  -8  -2 -11    0.49    1.07
  -7  -2 -11    2.53    1.17
  -6  -2 -11    2.69    1.15
  -5  -2 -11    2.64    0.62
  -4  -2 -11   38.38    1.34
  -3  -2 -11   19.63    0.91
  -2  -2 -11   33.55    1.39
  -1  -2 -11    4.73    0.61
   0  -2 -11   -0.34    0.34
   1  -2 -11    5.87    0.65
   2  -2 -11   31.44    1.40
   3  -2 -11   18.88    1.19
   4  -2 -11   37.33    1.74
   5  -2 -11    2.00    0.70
   6  -2 -11    3.09    0.87
   7  -2 -11    2.04    1.12
   8  -2 -11    0.38    1.21
   9  -2 -11    1.86    1.38
  10  -2 -11   84.87    5.42
  11  -2 -11    6.05    2.03
  12  -2 -11   10.89    2.52
  13  -2 -11    5.49    2.09
 -11  -1 -11    0.34    0.94
 -10  -1 -11    1.69    0.95
  -9  -1 -11    0.44    0.80
  -8  -1 -11    1.90    0.85
  -3  -1 -11   38.61    2.03
  -2  -1 -11   40.06    1.39
  -1  -1 -11    0.77    0.26
   0  -1 -11   65.28    1.88
   1  -1 -11    0.49    0.27
   2  -1 -11   39.86    1.41
   3  -1 -11   37.81    1.38
   4  -1 -11   12.80    0.97
   5  -1 -11   22.13    1.29
   6  -1 -11  125.13    3.23
   7  -1 -11    4.65    0.73
   8  -1 -11    2.86    1.42
   9  -1 -11    0.19    1.13
  10  -1 -11    3.87    1.56
  11  -1 -11    0.96    1.47
  12  -1 -11    4.51    1.95
  13  -1 -11   12.68    2.63
 -14   0 -11    1.82    1.44
 -13   0 -11    3.79    1.38
 -12   0 -11   14.35    2.07
 -11   0 -11    9.71    1.65
 -10   0 -11  115.12    5.35
  -9   0 -11    2.29    0.99
  -8   0 -11    0.10    0.78
  -7   0 -11    3.93    0.76
  -6   0 -11    2.25    1.13
  -5   0 -11    4.00    1.19
  -4   0 -11   53.50    3.41
  -3   0 -11   29.51    1.24
  -2   0 -11   45.44    1.62
  -1   0 -11    8.33    0.65
   0   0 -11   -0.43    0.37
   1   0 -11    6.50    0.75
   2   0 -11   49.21    1.93
   3   0 -11   28.01    0.98
   4   0 -11   50.93    1.86
   5   0 -11    2.71    0.52
   6   0 -11    2.95    0.60
   7   0 -11    1.71    0.52
   8   0 -11    1.58    0.72
   9   0 -11    2.95    1.43
  10   0 -11  108.44    6.16
  11   0 -11   12.25    2.38
  12   0 -11   19.66    2.97
  13   0 -11    0.18    1.52
  14   0 -11    0.64    1.74
 -14   1 -11   -0.24    1.25
 -13   1 -11   17.24    2.41
 -12   1 -11    5.05    1.56
 -11   1 -11    0.29    1.00
 -10   1 -11    1.44    1.06
  -9   1 -11   -0.47    0.86
  -8   1 -11    2.59    1.06
  -7   1 -11    4.98    1.19
  -6   1 -11  119.72    3.69
  -5   1 -11   25.87    1.48
  -4   1 -11   15.24    1.89
  -3   1 -11   39.60    3.18
  -2   1 -11   45.29    3.38
  -1   1 -11    0.85    1.17
   0   1 -11   68.89    3.90
   1   1 -11    0.27    0.41
   2   1 -11   39.98    1.74
   3   1 -11   40.34    1.95
   4   1 -11   11.69    1.29
   5   1 -11   23.01    1.18
   6   1 -11  113.73    3.11
   7   1 -11    5.31    0.69
   8   1 -11    1.82    0.60
   9   1 -11    0.10    0.67
  10   1 -11    0.50    1.42
  11   1 -11   -1.54    1.35
  12   1 -11    6.00    2.19
  13   1 -11   18.08    3.09
 -13   2 -11    0.67    1.26
 -12   2 -11   16.58    2.43
 -11   2 -11    7.92    1.84
 -10   2 -11   98.78    4.95
  -9   2 -11    1.91    1.05
  -8   2 -11    0.04    0.89
  -7   2 -11    2.39    1.10
  -6   2 -11    3.20    0.75
  -5   2 -11    2.28    0.70
  -4   2 -11   37.51    1.85
  -3   2 -11   20.64    1.46
  -2   2 -11   32.56    2.84
  -1   2 -11    5.51    1.45
   0   2 -11    0.38    0.94
   1   2 -11    6.24    1.44
   2   2 -11   33.54    1.53
   3   2 -11   20.24    1.36
   4   2 -11   38.31    1.91
   5   2 -11    4.06    0.84
   6   2 -11    4.04    0.90
   7   2 -11    1.47    0.82
   8   2 -11    1.07    0.84
   9   2 -11    2.70    2.07
  10   2 -11   91.38    3.84
  11   2 -11    8.76    2.50
  12   2 -11    8.36    2.55
  13   2 -11    1.82    2.02
 -11   3 -11    0.99    1.32
 -10   3 -11   -0.07    1.20
  -9   3 -11   -1.34    1.02
  -8   3 -11    1.29    1.13
  -7   3 -11    4.49    1.35
  -6   3 -11   73.28    3.82
  -5   3 -11   13.87    1.35
  -4   3 -11    5.60    0.96
  -3   3 -11   20.50    1.50
  -2   3 -11   21.05    1.53
  -1   3 -11    0.05    0.59
   0   3 -11   35.96    1.70
   1   3 -11   -0.92    0.92
   2   3 -11   21.78    2.57
   3   3 -11   24.12    2.65
   4   3 -11    9.60    1.76
   5   3 -11   14.18    1.39
   6   3 -11   71.48    2.93
   7   3 -11    3.41    0.95
   8   3 -11    0.46    0.87
   9   3 -11    0.70    1.86
  10   3 -11   -1.64    2.12
  11   3 -11   -0.40    2.52
  12   3 -11    1.59    2.55
 -10   4 -11   49.53    3.86
  -9   4 -11    0.73    1.44
  -8   4 -11    0.61    1.32
  -7   4 -11    0.89    1.19
  -6   4 -11    1.09    1.22
  -5   4 -11    1.39    0.83
  -4   4 -11   19.22    2.47
  -3   4 -11    9.25    1.93
  -2   4 -11   12.23    2.20
  -1   4 -11   -0.91    1.16
   0   4 -11   -0.03    1.12
   1   4 -11    2.82    1.42
   2   4 -11   12.09    2.08
   3   4 -11    7.70    1.91
   4   4 -11   20.77    2.68
   5   4 -11    2.05    1.32
   6   4 -11    1.09    1.37
   7   4 -11    1.80    1.40
   8   4 -11   -1.23    1.22
  -4   5 -11    3.86    1.94
  -3   5 -11    4.78    1.94
  -2   5 -11    7.31    2.19
  -1   5 -11   -1.99    1.33
   0   5 -11   12.44    2.56
   1   5 -11   -1.57    1.19
   2   5 -11    9.12    2.31
   3   5 -11    8.73    2.15
   4   5 -11    2.79    1.72
   5   5 -11    4.97    2.04
   6   5 -11   31.76    3.77
   7   5 -11    1.74    1.74
  -7  -5 -10    3.28    1.61
  -6  -5 -10    0.49    0.94
  -5  -5 -10    0.84    0.90
  -4  -5 -10    0.27    0.86
  -3  -5 -10    1.08    0.95
  -2  -5 -10   13.42    1.54
  -1  -5 -10    0.11    0.80
   0  -5 -10    0.36    0.78
   1  -5 -10    1.34    0.86
   2  -5 -10    9.74    1.38
   3  -5 -10    0.09    0.84
   4  -5 -10   -0.49    0.89
   5  -5 -10    1.69    1.66
   6  -5 -10    0.84    1.63
 -10  -4 -10    3.18    1.64
  -9  -4 -10    1.81    1.44
  -8  -4 -10    1.02    0.89
  -7  -4 -10    5.44    1.11
  -6  -4 -10    0.40    0.73
  -5  -4 -10   -0.28    0.67
  -4  -4 -10   31.00    1.96
  -3  -4 -10    1.30    0.69
  -2  -4 -10    4.66    0.88
  -1  -4 -10   22.52    1.62
   0  -4 -10   31.48    1.83
   1  -4 -10   21.07    1.59
   2  -4 -10    5.55    0.95
   3  -4 -10    2.59    0.83
   4  -4 -10   32.36    2.14
   5  -4 -10   -0.13    0.75
   6  -4 -10    1.11    0.88
   7  -4 -10   -1.07    1.32
   8  -4 -10    0.66    1.42
   9  -4 -10    2.87    1.83
  10  -4 -10   -0.16    1.85
 -12  -3 -10   18.26    2.22
 -11  -3 -10    0.12    1.05
 -10  -3 -10    5.96    1.34
  -9  -3 -10    3.72    1.11
  -8  -3 -10    5.83    1.10
  -7  -3 -10    7.12    1.07
  -6  -3 -10    2.57    1.04
  -5  -3 -10    0.85    0.61
  -4  -3 -10   -0.26    0.49
  -3  -3 -10    0.47    0.52
  -2  -3 -10   25.28    1.47
  -1  -3 -10    1.86    0.59
   0  -3 -10    0.62    0.49
   1  -3 -10    1.52    0.56
   2  -3 -10   27.16    1.50
   3  -3 -10   -0.17    0.49
   4  -3 -10   -0.56    0.51
   5  -3 -10   -0.45    0.61
   6  -3 -10    2.65    0.86
   7  -3 -10    8.92    1.20
   8  -3 -10    7.46    1.25
   9  -3 -10    3.91    1.64
  10  -3 -10    0.06    1.47
  11  -3 -10    0.39    1.61
  12  -3 -10   20.80    3.18
 -13  -2 -10   -0.07    1.33
 -12  -2 -10   -0.53    1.21
 -11  -2 -10   15.08    2.38
 -10  -2 -10    2.24    1.20
  -9  -2 -10    7.03    1.67
  -8  -2 -10   -0.31    0.98
  -7  -2 -10    9.32    1.67
  -6  -2 -10    1.37    0.93
  -5  -2 -10    0.08    0.48
  -4  -2 -10   66.68    3.32
  -3  -2 -10    2.50    0.42
  -2  -2 -10   13.55    0.71
  -1  -2 -10   49.70    1.76
   0  -2 -10   71.04    2.23
   1  -2 -10   49.81    1.76
   2  -2 -10   14.86    1.00
   3  -2 -10    2.34    0.59
   4  -2 -10   71.66    2.49
   5  -2 -10    0.33    0.61
   6  -2 -10    0.29    0.62
   7  -2 -10   13.86    1.43
   8  -2 -10    0.46    0.89
   9  -2 -10    7.19    1.40
  10  -2 -10    2.54    1.56
  11  -2 -10   14.66    2.64
  12  -2 -10   -2.13    1.37
  13  -2 -10   -1.25    1.62
 -14  -1 -10    5.40    1.80
 -11  -1 -10    0.73    0.95
 -10  -1 -10    7.47    1.37
  -9  -1 -10    4.25    1.09
  -8  -1 -10    8.93    1.36
  -7  -1 -10   15.24    1.58
  -2  -1 -10   48.90    1.56
  -1  -1 -10    3.67    0.41
   0  -1 -10   -0.31    0.20
   1  -1 -10    4.20    0.40
   2  -1 -10   48.24    1.58
   3  -1 -10    0.59    0.40
   4  -1 -10    0.44    0.46
   5  -1 -10   -0.65    0.48
   6  -1 -10    4.68    0.74
   7  -1 -10   17.06    1.14
   8  -1 -10   12.51    1.37
   9  -1 -10    5.24    1.09
  10  -1 -10    9.67    1.32
  11  -1 -10   -1.25    1.20
  12  -1 -10   20.89    3.13
  13  -1 -10    1.32    1.71
  14  -1 -10    1.35    1.94
 -14   0 -10   10.67    2.03
 -13   0 -10    1.35    1.11
 -12   0 -10   -0.85    0.95
 -11   0 -10   19.50    2.23
 -10   0 -10    1.22    0.99
  -9   0 -10   12.06    1.61
  -8   0 -10    0.99    0.85
  -7   0 -10   16.58    1.25
  -6   0 -10    1.76    0.99
  -5   0 -10    2.57    1.08
  -4   0 -10   96.77    4.73
  -3   0 -10    3.87    1.25
  -2   0 -10   19.30    0.92
  -1   0 -10   74.80    2.25
   0   0 -10  108.11    3.08
   1   0 -10   72.08    2.38
   2   0 -10   19.23    1.24
   3   0 -10    3.35    0.39
   4   0 -10   96.95    2.45
   5   0 -10    0.95    0.45
   6   0 -10    2.28    0.53
   7   0 -10   18.43    1.11
   8   0 -10    0.77    0.69
   9   0 -10    9.76    1.30
  10   0 -10    1.14    0.88
  11   0 -10   17.18    1.81
  12   0 -10   -0.42    1.47
  13   0 -10   -1.15    1.61
  14   0 -10   13.92    2.83
 -14   1 -10    2.55    1.54
 -13   1 -10    2.28    1.37
 -12   1 -10   25.54    2.77
 -11   1 -10   -0.74    0.97
 -10   1 -10    9.00    1.65
  -9   1 -10    3.85    1.16
  -8   1 -10   11.55    1.63
  -7   1 -10   14.32    1.75
  -6   1 -10    4.71    0.78
  -5   1 -10   -0.20    0.47
  -4   1 -10    0.05    0.85
  -3   1 -10    2.75    1.10
  -2   1 -10   51.66    3.21
  -1   1 -10    5.00    1.34
   0   1 -10   -0.43    0.75
   1   1 -10    4.65    0.56
   2   1 -10   46.27    1.85
   3   1 -10    1.88    0.64
   4   1 -10   -0.35    0.63
   5   1 -10    0.53    0.39
   6   1 -10    3.52    0.63
   7   1 -10   14.43    1.03
   8   1 -10   10.93    1.24
   9   1 -10    3.82    0.89
  10   1 -10    6.24    1.17
  11   1 -10    0.95    0.85
  12   1 -10   24.05    3.38
  13   1 -10    3.45    1.88
  14   1 -10    5.08    2.12
 -13   2 -10   -1.89    1.16
 -12   2 -10    1.72    1.33
 -11   2 -10   18.09    2.50
 -10   2 -10    2.49    1.12
  -9   2 -10    8.11    1.57
  -8   2 -10    0.91    0.97
  -7   2 -10   12.00    1.71
  -6   2 -10    1.48    0.62
  -5   2 -10    0.22    0.59
  -4   2 -10   70.56    2.52
  -3   2 -10    0.60    0.59
  -2   2 -10   12.95    1.71
  -1   2 -10   51.28    3.17
   0   2 -10   71.64    3.82
   1   2 -10   50.45    1.78
   2   2 -10   12.17    0.98
   3   2 -10    4.13    0.73
   4   2 -10   68.69    2.60
   5   2 -10   -0.62    0.60
   6   2 -10    2.37    0.79
   7   2 -10   11.29    1.35
   8   2 -10    0.75    0.80
   9   2 -10    6.30    1.23
  10   2 -10    2.06    1.03
  11   2 -10   15.97    1.82
  12   2 -10    1.10    1.84
  13   2 -10    2.88    1.90
 -12   3 -10   15.76    2.52
 -11   3 -10   -1.22    1.17
 -10   3 -10    7.98    1.82
  -9   3 -10    1.66    1.28
  -8   3 -10    3.95    1.39
  -7   3 -10    7.36    1.53
  -6   3 -10    0.03    0.92
  -5   3 -10   -0.51    0.63
  -4   3 -10    0.83    0.65
  -3   3 -10    0.67    0.61
  -2   3 -10   26.70    1.53
  -1   3 -10    1.14    0.62
   0   3 -10    0.86    0.56
   1   3 -10    1.57    1.09
   2   3 -10   25.85    2.67
   3   3 -10   -0.72    0.54
   4   3 -10    0.14    0.61
   5   3 -10    1.02    0.72
   6   3 -10    3.22    0.92
   7   3 -10   11.29    1.34
   8   3 -10    5.99    1.21
   9   3 -10    1.73    1.82
  10   3 -10    1.78    2.06
  11   3 -10    0.07    2.49
  12   3 -10   11.52    3.28
 -10   4 -10    0.60    1.35
  -9   4 -10    3.25    1.60
  -8   4 -10    1.91    1.32
  -7   4 -10    5.52    1.60
  -6   4 -10    1.03    1.12
  -5   4 -10   -0.50    0.73
  -4   4 -10   38.77    3.44
  -3   4 -10    2.06    1.22
  -2   4 -10    5.23    1.53
  -1   4 -10   21.51    2.63
   0   4 -10   35.71    3.33
   1   4 -10   18.57    2.52
   2   4 -10    8.13    1.70
   3   4 -10    1.71    1.23
   4   4 -10   37.52    3.49
   5   4 -10    1.36    1.28
   6   4 -10    0.80    1.28
   7   4 -10    5.14    1.71
   8   4 -10   -1.85    0.87
   9   4 -10    2.46    1.84
  10   4 -10    0.53    1.93
  -4   5 -10    1.81    1.55
  -3   5 -10    1.34    1.54
  -2   5 -10   12.79    2.52
  -1   5 -10   -1.69    1.37
   0   5 -10   -0.09    1.39
   1   5 -10    2.42    1.59
   2   5 -10   10.05    2.30
   3   5 -10    0.77    1.46
   4   5 -10   -0.35    1.39
   5   5 -10    0.10    1.44
   6   5 -10    1.98    1.48
   7   5 -10    4.67    1.92
  -7  -5  -9   -1.01    0.90
  -6  -5  -9    1.58    1.08
  -5  -5  -9    0.66    0.93
  -4  -5  -9   -0.30    0.83
  -3  -5  -9    2.01    1.00
  -2  -5  -9   15.61    1.61
  -1  -5  -9    8.32    1.27
   0  -5  -9    9.77    1.32
   1  -5  -9    6.32    1.20
   2  -5  -9   14.94    1.56
   3  -5  -9    0.62    0.88
   4  -5  -9    0.83    0.94
   5  -5  -9    2.86    1.14
   6  -5  -9    2.10    1.12
   7  -5  -9    0.44    1.71
 -10  -4  -9    0.94    1.50
  -9  -4  -9    1.23    1.34
  -8  -4  -9   36.27    3.49
  -7  -4  -9    3.84    0.96
  -6  -4  -9    4.85    1.05
  -5  -4  -9   25.99    1.93
  -4  -4  -9    1.68    0.78
  -3  -4  -9    0.37    0.62
  -2  -4  -9   -0.44    0.57
  -1  -4  -9    0.59    0.64
   0  -4  -9    0.23    0.57
   1  -4  -9    0.06    0.57
   2  -4  -9    0.97    0.67
   3  -4  -9    0.83    0.72
   4  -4  -9    2.68    0.87
   5  -4  -9   30.77    2.00
   6  -4  -9    4.49    1.02
   7  -4  -9    5.79    1.19
   8  -4  -9   35.05    2.48
   9  -4  -9    0.39    1.58
  10  -4  -9    2.44    1.98
 -12  -3  -9   10.71    1.79
 -11  -3  -9    6.08    1.47
 -10  -3  -9    9.30    1.53
  -9  -3  -9    0.19    0.85
  -8  -3  -9   47.75    2.39
  -7  -3  -9    0.15    0.62
  -6  -3  -9    5.76    0.88
  -5  -3  -9    3.08    0.67
  -4  -3  -9   -0.32    0.47
  -3  -3  -9    5.24    0.80
  -2  -3  -9   39.29    1.75
  -1  -3  -9   16.19    1.23
   0  -3  -9   27.09    1.43
   1  -3  -9   17.97    1.26
   2  -3  -9   37.11    1.68
   3  -3  -9    4.75    0.79
   4  -3  -9    0.87    0.59
   5  -3  -9    1.57    0.69
   6  -3  -9    4.24    0.90
   7  -3  -9   -1.02    0.67
   8  -3  -9   47.43    2.44
   9  -3  -9   -0.70    0.90
  10  -3  -9    8.19    1.55
  11  -3  -9    6.24    2.04
  12  -3  -9    5.48    2.12
 -13  -2  -9   10.26    2.26
 -12  -2  -9    1.06    1.38
 -11  -2  -9    0.78    1.16
 -10  -2  -9    1.54    1.12
  -9  -2  -9    2.31    1.24
  -8  -2  -9   64.18    3.78
  -7  -2  -9   12.99    1.91
  -6  -2  -9   10.62    1.58
  -5  -2  -9   66.14    2.34
  -4  -2  -9    5.15    0.69
  -3  -2  -9    0.33    0.32
  -2  -2  -9    2.71    0.38
  -1  -2  -9    0.55    0.24
   0  -2  -9   -0.07    0.32
   1  -2  -9    0.34    0.35
   2  -2  -9    3.74    0.58
   3  -2  -9    0.46    0.48
   4  -2  -9    4.75    0.72
   5  -2  -9   66.59    2.47
   6  -2  -9    9.07    1.08
   7  -2  -9   12.94    1.37
   8  -2  -9   61.26    2.90
   9  -2  -9    1.01    1.05
  10  -2  -9    0.41    1.02
  11  -2  -9    1.17    1.02
  12  -2  -9    1.66    1.56
  13  -2  -9    9.16    2.41
 -14  -1  -9    0.92    1.35
 -11  -1  -9    6.32    1.34
 -10  -1  -9   13.65    1.71
  -9  -1  -9    1.14    0.80
  -8  -1  -9   80.89    3.69
  -7  -1  -9   -0.68    0.57
  -2  -1  -9   72.92    3.11
  -1  -1  -9   27.05    1.00
   0  -1  -9   51.86    1.55
   1  -1  -9   27.37    1.00
   2  -1  -9   78.14    2.23
   3  -1  -9   10.43    0.80
   4  -1  -9    0.44    0.44
   5  -1  -9    5.69    0.72
   6  -1  -9    7.85    0.87
   7  -1  -9    1.21    0.83
   8  -1  -9   77.19    3.20
   9  -1  -9    0.55    0.80
  10  -1  -9   13.59    1.56
  11  -1  -9    6.22    1.20
  12  -1  -9   11.46    1.58
  13  -1  -9   -1.10    1.41
  14  -1  -9    2.56    1.81
 -14   0  -9    9.13    1.89
 -13   0  -9   13.36    2.06
 -12   0  -9    0.62    1.07
 -11   0  -9    1.35    0.97
 -10   0  -9    0.88    0.89
  -9   0  -9    4.69    1.15
  -8   0  -9   82.50    3.93
  -7   0  -9   17.02    1.79
  -6   0  -9   11.11    0.99
  -5   0  -9   87.94    4.27
  -4   0  -9    8.23    1.43
  -3   0  -9   -0.59    0.80
  -2   0  -9    3.77    0.41
  -1   0  -9    0.26    0.28
   0   0  -9    0.26    0.34
   1   0  -9   -0.12    0.41
   2   0  -9    3.27    0.64
   3   0  -9    0.76    0.29
   4   0  -9    7.71    0.63
   5   0  -9   93.30    2.42
   6   0  -9   11.71    0.87
   7   0  -9   19.14    1.10
   8   0  -9   78.42    3.10
   9   0  -9    2.38    0.86
  10   0  -9    1.37    0.88
  11   0  -9    1.06    0.90
  12   0  -9    1.71    1.02
  13   0  -9    7.26    1.47
  14   0  -9   10.15    2.50
 -14   1  -9    0.00    1.27
 -13   1  -9    0.48    1.15
 -12   1  -9   11.90    2.01
 -11   1  -9    6.40    1.52
 -10   1  -9   16.64    2.04
  -9   1  -9    1.74    0.98
  -8   1  -9   82.13    4.01
  -7   1  -9    0.71    0.81
  -6   1  -9   10.01    0.91
  -5   1  -9    6.38    0.80
  -4   1  -9    1.32    0.84
  -3   1  -9   12.61    1.58
  -2   1  -9   78.79    3.92
  -1   1  -9   26.69    2.35
   0   1  -9   51.81    1.59
   1   1  -9   28.07    1.21
   2   1  -9   76.69    2.46
   3   1  -9   11.54    1.03
   4   1  -9    0.45    0.37
   5   1  -9    5.54    0.65
   6   1  -9    9.06    0.82
   7   1  -9    0.28    0.43
   8   1  -9   78.87    3.10
   9   1  -9    0.52    0.73
  10   1  -9   15.77    1.64
  11   1  -9    6.30    1.22
  12   1  -9   13.50    1.72
  13   1  -9    1.43    1.03
  14   1  -9   -1.14    1.54
 -13   2  -9    7.35    1.89
 -12   2  -9   -0.84    1.06
 -11   2  -9    2.08    1.22
 -10   2  -9    3.17    1.28
  -9   2  -9    3.97    1.23
  -8   2  -9   57.77    3.46
  -7   2  -9   14.48    1.78
  -6   2  -9    9.00    1.00
  -5   2  -9   66.74    2.36
  -4   2  -9    6.30    0.84
  -3   2  -9    0.85    0.59
  -2   2  -9    2.09    0.61
  -1   2  -9    1.50    0.95
   0   2  -9   -0.94    0.72
   1   2  -9    0.40    0.38
   2   2  -9    2.60    0.58
   3   2  -9   -0.34    0.50
   4   2  -9    5.49    0.82
   5   2  -9   61.58    2.52
   6   2  -9   10.74    1.15
   7   2  -9   12.66    1.35
   8   2  -9   62.69    2.19
   9   2  -9    0.99    0.89
  10   2  -9    0.45    0.82
  11   2  -9   -0.09    0.81
  12   2  -9    2.08    1.05
  13   2  -9    6.23    1.43
 -12   3  -9    9.68    2.16
 -11   3  -9    2.15    1.48
 -10   3  -9    9.01    1.84
  -9   3  -9   -0.23    1.06
  -8   3  -9   47.55    3.20
  -7   3  -9   -0.44    0.88
  -6   3  -9    2.97    1.13
  -5   3  -9    2.35    0.75
  -4   3  -9   -0.37    0.55
  -3   3  -9    6.36    0.88
  -2   3  -9   37.78    1.77
  -1   3  -9   17.08    1.22
   0   3  -9   27.68    1.43
   1   3  -9   14.71    2.04
   2   3  -9   36.93    1.76
   3   3  -9    6.27    0.89
   4   3  -9    1.20    0.66
   5   3  -9    2.99    0.83
   6   3  -9    4.95    0.99
   7   3  -9    0.44    0.72
   8   3  -9   45.59    2.49
   9   3  -9    1.52    1.65
  10   3  -9    9.56    2.83
  11   3  -9    5.07    2.63
  12   3  -9    8.15    2.89
 -10   4  -9    0.11    1.43
  -9   4  -9    2.46    1.45
  -8   4  -9   34.96    3.27
  -7   4  -9    5.80    1.58
  -6   4  -9    3.04    1.33
  -5   4  -9   34.34    2.11
  -4   4  -9    2.38    0.84
  -3   4  -9   -1.61    0.88
  -2   4  -9    1.53    1.19
  -1   4  -9   -0.99    0.89
   0   4  -9    0.33    0.98
   1   4  -9    0.85    1.04
   2   4  -9    0.04    1.08
   3   4  -9   -0.23    0.96
   4   4  -9    0.15    1.12
   5   4  -9   30.69    2.17
   6   4  -9    4.44    1.10
   7   4  -9    5.66    1.22
   8   4  -9   32.74    2.47
   9   4  -9    1.35    1.55
  10   4  -9    1.39    1.99
  11   4  -9    2.68    2.68
  -4   5  -9   -0.71    1.37
  -3   5  -9    5.84    1.94
  -2   5  -9   13.92    2.55
  -1   5  -9    2.54    1.59
   0   5  -9    6.62    2.02
   1   5  -9    7.26    1.96
   2   5  -9    9.03    2.29
   3   5  -9    3.32    1.62
   4   5  -9   -1.36    1.30
   5   5  -9    0.88    1.37
   6   5  -9    0.42    1.48
   7   5  -9   -0.72    1.44
   8   5  -9   23.14    3.26
   0  -6  -8   16.03    2.55
   1  -6  -8    8.79    2.01
  -7  -5  -8   -0.11    0.92
  -6  -5  -8   25.15    2.12
  -5  -5  -8    2.21    1.04
  -4  -5  -8    6.34    1.21
  -3  -5  -8   18.16    1.76
  -2  -5  -8   20.24    1.80
  -1  -5  -8    7.25    1.20
   0  -5  -8    0.51    0.76
   1  -5  -8    8.01    1.25
   2  -5  -8   16.56    1.65
   3  -5  -8   20.51    1.80
   4  -5  -8    2.79    1.08
   5  -5  -8    2.84    1.06
   6  -5  -8   25.02    2.17
   7  -5  -8    0.26    0.99
   8  -5  -8    7.68    2.08
 -10  -4  -8    8.25    2.17
  -9  -4  -8    0.70    1.28
  -8  -4  -8    2.64    1.38
  -7  -4  -8    0.61    0.75
  -6  -4  -8   11.35    1.34
  -5  -4  -8    1.20    0.73
  -4  -4  -8   10.95    1.24
  -3  -4  -8    0.17    0.61
  -2  -4  -8   31.65    1.78
  -1  -4  -8   22.68    1.66
   0  -4  -8   53.97    2.31
   1  -4  -8   19.13    1.53
   2  -4  -8   32.02    1.86
   3  -4  -8    1.26    0.72
   4  -4  -8    8.09    1.14
   5  -4  -8    0.10    0.76
   6  -4  -8   10.72    1.35
   7  -4  -8    0.56    0.85
   8  -4  -8    1.96    0.99
   9  -4  -8    1.31    1.06
  10  -4  -8    9.49    1.75
 -12  -3  -8    5.28    1.44
 -11  -3  -8    0.71    1.09
 -10  -3  -8    3.33    1.13
  -9  -3  -8    0.67    0.83
  -8  -3  -8   33.30    2.15
  -7  -3  -8    1.16    0.67
  -6  -3  -8   59.17    2.35
  -5  -3  -8    7.98    0.91
  -4  -3  -8    9.48    0.78
  -3  -3  -8   47.43    1.99
  -2  -3  -8   42.64    1.87
  -1  -3  -8   20.20    1.29
   0  -3  -8    0.80    0.52
   1  -3  -8   18.87    1.31
   2  -3  -8   45.16    1.89
   3  -3  -8   45.07    1.97
   4  -3  -8    8.93    1.04
   5  -3  -8   11.36    1.16
   6  -3  -8   58.14    2.51
   7  -3  -8    0.28    0.76
   8  -3  -8   25.89    1.99
   9  -3  -8    1.67    0.96
  10  -3  -8    4.02    1.37
  11  -3  -8    0.93    1.22
  12  -3  -8    3.50    1.55
 -13  -2  -8   10.99    2.14
 -12  -2  -8    5.36    1.65
 -11  -2  -8    3.05    1.38
 -10  -2  -8   20.58    2.51
  -9  -2  -8   -0.30    0.97
  -8  -2  -8    6.66    1.48
  -7  -2  -8    1.48    0.93
  -6  -2  -8   25.39    2.29
  -5  -2  -8    2.92    0.90
  -4  -2  -8   21.78    1.20
  -3  -2  -8    1.62    0.44
  -2  -2  -8   73.42    1.79
  -1  -2  -8   49.03    1.28
   0  -2  -8  117.96    3.33
   1  -2  -8   48.20    1.69
   2  -2  -8   71.26    2.28
   3  -2  -8    2.28    0.56
   4  -2  -8   22.77    1.35
   5  -2  -8    3.32    0.75
   6  -2  -8   24.16    1.67
   7  -2  -8    1.19    0.77
   8  -2  -8    8.14    1.28
   9  -2  -8   -1.46    0.86
  10  -2  -8   17.62    2.04
  11  -2  -8    0.99    1.10
  12  -2  -8    2.50    1.24
  13  -2  -8    9.82    1.62
 -14  -1  -8   26.72    3.17
 -13  -1  -8    1.54    1.36
 -11  -1  -8   -0.88    0.77
 -10  -1  -8    2.43    0.99
  -9  -1  -8    2.05    0.90
  -8  -1  -8   42.86    2.57
  -7  -1  -8    2.40    0.78
  -2  -1  -8   79.62    3.28
  -1  -1  -8   36.27    1.23
   0  -1  -8   -0.33    0.22
   1  -1  -8   38.57    1.24
   2  -1  -8   82.27    2.35
   3  -1  -8   91.79    2.69
   4  -1  -8   17.39    1.18
   5  -1  -8   14.90    1.00
   6  -1  -8  106.20    2.88
   7  -1  -8    2.70    0.95
   8  -1  -8   49.85    2.47
   9  -1  -8    4.04    0.99
  10  -1  -8    4.70    1.07
  11  -1  -8    0.61    0.85
  12  -1  -8    4.07    1.15
  13  -1  -8   -0.65    0.93
  14  -1  -8   27.19    2.50
 -14   0  -8    8.43    1.83
 -13   0  -8   11.06    1.86
 -12   0  -8   13.31    1.97
 -11   0  -8    0.77    0.98
 -10   0  -8   22.42    2.28
  -9   0  -8    1.64    0.84
  -8   0  -8   10.78    1.46
  -7   0  -8    0.84    0.78
  -6   0  -8   29.97    1.48
  -5   0  -8    4.24    1.05
  -4   0  -8   29.15    2.30
  -3   0  -8    1.91    0.97
  -2   0  -8  112.53    5.10
  -1   0  -8   71.21    2.12
   0   0  -8  183.17    4.66
   1   0  -8   73.13    2.26
   2   0  -8  106.30    2.47
   3   0  -8    2.12    0.37
   4   0  -8   32.86    1.18
   5   0  -8    4.48    0.55
   6   0  -8   32.61    1.32
   7   0  -8    2.14    0.52
   8   0  -8   12.12    1.30
   9   0  -8   -0.37    0.67
  10   0  -8   25.93    2.04
  11   0  -8    2.30    0.97
  12   0  -8   10.57    1.52
  13   0  -8   10.59    1.65
  14   0  -8    8.87    1.57
 -14   1  -8   24.00    2.92
 -13   1  -8   -0.19    1.13
 -12   1  -8    5.11    1.51
 -11   1  -8    0.14    0.95
 -10   1  -8    3.73    1.27
  -9   1  -8    1.96    0.97
  -8   1  -8   49.49    2.97
  -7   1  -8    1.49    0.84
  -6   1  -8  107.31    3.17
  -5   1  -8   15.52    1.08
  -4   1  -8   20.54    1.21
  -3   1  -8   99.86    4.19
  -2   1  -8   81.62    3.84
  -1   1  -8   39.71    2.42
   0   1  -8    0.67    0.26
   1   1  -8   37.01    1.37
   2   1  -8   81.01    2.54
   3   1  -8   91.24    2.88
   4   1  -8   19.18    0.94
   5   1  -8   15.54    0.96
   6   1  -8  105.10    2.78
   7   1  -8    1.93    0.55
   8   1  -8   47.65    2.33
   9   1  -8    1.36    0.83
  10   1  -8    5.32    1.10
  11   1  -8   -0.47    0.78
  12   1  -8    3.46    1.10
  13   1  -8    2.08    1.14
  14   1  -8   22.35    2.27
 -13   2  -8    5.12    1.74
 -12   2  -8    7.54    1.80
 -11   2  -8    0.64    1.08
 -10   2  -8   16.97    2.16
  -9   2  -8    1.18    0.94
  -8   2  -8    7.70    1.49
  -7   2  -8    2.56    1.04
  -6   2  -8   25.48    1.53
  -5   2  -8    1.85    0.62
  -4   2  -8   24.36    1.35
  -3   2  -8    1.50    0.56
  -2   2  -8   71.14    2.38
  -1   2  -8   44.56    2.82
   0   2  -8  123.35    5.29
   1   2  -8   48.61    1.73
   2   2  -8   71.20    2.36
   3   2  -8    1.35    0.54
   4   2  -8   23.64    1.47
   5   2  -8    2.83    0.74
   6   2  -8   25.89    1.73
   7   2  -8    1.37    0.53
   8   2  -8    9.67    0.94
   9   2  -8    0.46    0.72
  10   2  -8   22.33    2.03
  11   2  -8    1.19    0.94
  12   2  -8    7.19    1.42
  13   2  -8    8.22    1.56
  14   2  -8    6.49    2.08
 -12   3  -8    0.00    1.32
 -11   3  -8   -0.53    1.23
 -10   3  -8    1.29    1.25
  -9   3  -8    0.21    1.04
  -8   3  -8   28.05    2.68
  -7   3  -8    1.16    1.00
  -6   3  -8   62.10    3.38
  -5   3  -8    8.04    0.99
  -4   3  -8   12.00    1.10
  -3   3  -8   49.02    1.99
  -2   3  -8   44.48    1.86
  -1   3  -8   20.37    1.33
   0   3  -8   -0.32    0.48
   1   3  -8   20.73    1.35
   2   3  -8   40.40    1.87
   3   3  -8   50.15    2.09
   4   3  -8   10.46    1.13
   5   3  -8    8.34    1.10
   6   3  -8   60.02    2.61
   7   3  -8    2.61    0.90
   8   3  -8   27.74    2.05
   9   3  -8    0.10    1.47
  10   3  -8    3.33    2.05
  11   3  -8   -0.10    2.11
  12   3  -8    1.70    2.25
 -10   4  -8   10.80    2.20
  -9   4  -8   -0.10    1.16
  -8   4  -8    3.30    1.44
  -7   4  -8    0.39    1.11
  -6   4  -8   10.96    1.73
  -5   4  -8    1.31    0.78
  -4   4  -8    9.95    1.20
  -3   4  -8    0.38    1.12
  -2   4  -8   30.93    3.08
  -1   4  -8   25.54    2.72
   0   4  -8   48.05    3.58
   1   4  -8   20.76    2.59
   2   4  -8   30.94    3.05
   3   4  -8    0.62    0.73
   4   4  -8   11.44    1.33
   5   4  -8    1.29    0.84
   6   4  -8   10.22    1.39
   7   4  -8    1.23    0.91
   8   4  -8    4.05    1.11
   9   4  -8   -0.52    1.55
  10   4  -8    9.36    2.48
  11   4  -8    4.34    2.62
  -4   5  -8    3.32    1.68
  -3   5  -8   17.18    2.70
  -2   5  -8   13.88    2.41
  -1   5  -8    3.74    1.72
   0   5  -8    0.90    1.41
   1   5  -8    8.25    2.09
   2   5  -8   13.82    2.57
   3   5  -8   19.00    2.77
   4   5  -8    3.28    1.54
   5   5  -8    2.54    1.57
   6   5  -8   23.63    3.11
   7   5  -8    1.59    1.53
   8   5  -8    5.64    1.95
  -1  -6  -7    2.56    1.57
   0  -6  -7    0.44    1.37
   1  -6  -7    1.23    1.39
  -8  -5  -7    7.88    1.99
  -7  -5  -7   14.15    1.71
  -6  -5  -7    4.13    1.14
  -5  -5  -7   -0.13    0.84
  -4  -5  -7   -0.08    0.85
  -3  -5  -7   11.98    1.51
  -2  -5  -7    9.59    1.33
  -1  -5  -7    4.24    1.03
   0  -5  -7   57.90    2.72
   1  -5  -7    5.82    1.09
   2  -5  -7    9.63    1.33
   3  -5  -7   10.88    1.41
   4  -5  -7    0.33    0.87
   5  -5  -7    0.38    0.88
   6  -5  -7    2.50    1.15
   7  -5  -7   10.99    1.64
   8  -5  -7    8.46    1.55
 -10  -4  -7    5.37    1.92
  -9  -4  -7   -1.03    1.12
  -8  -4  -7   11.73    2.12
  -7  -4  -7   -1.31    0.87
  -6  -4  -7   27.99    2.01
  -5  -4  -7    4.88    0.96
  -4  -4  -7    1.29    0.70
  -3  -4  -7   32.29    1.91
  -2  -4  -7    2.73    0.80
  -1  -4  -7    3.33    0.80
   0  -4  -7    0.05    0.55
   1  -4  -7    3.37    0.75
   2  -4  -7    3.57    0.85
   3  -4  -7   30.56    1.87
   4  -4  -7   -0.73    0.57
   5  -4  -7    4.96    1.01
   6  -4  -7   27.95    2.05
   7  -4  -7   -1.09    0.74
   8  -4  -7    8.84    1.41
   9  -4  -7    1.06    1.05
  10  -4  -7    7.22    1.60
  11  -4  -7   -0.64    1.26
 -13  -3  -7    6.75    2.02
 -12  -3  -7    0.02    1.12
 -11  -3  -7    7.13    1.47
 -10  -3  -7   16.74    1.81
  -9  -3  -7    0.78    0.81
  -8  -3  -7   19.81    1.65
  -7  -3  -7   30.16    1.83
  -6  -3  -7   10.21    1.08
  -5  -3  -7    4.13    0.74
  -4  -3  -7    0.96    0.46
  -3  -3  -7   31.54    1.25
  -2  -3  -7   29.06    1.09
  -1  -3  -7   17.57    1.23
   0  -3  -7  147.82    4.28
   1  -3  -7   14.88    1.13
   2  -3  -7   29.25    1.52
   3  -3  -7   33.79    1.62
   4  -3  -7    1.39    0.63
   5  -3  -7    3.04    0.78
   6  -3  -7   10.75    1.20
   7  -3  -7   29.11    2.02
   8  -3  -7   18.63    1.71
   9  -3  -7   -0.67    0.80
  10  -3  -7   16.23    1.87
  11  -3  -7    9.88    1.75
  12  -3  -7   -0.94    1.27
  13  -3  -7   10.77    3.06
 -13  -2  -7    3.36    1.55
 -12  -2  -7    0.48    1.22
 -11  -2  -7   -0.57    1.03
 -10  -2  -7   23.93    2.69
  -9  -2  -7    2.86    1.23
  -8  -2  -7   19.49    2.28
  -7  -2  -7    0.97    0.85
  -6  -2  -7   57.97    3.18
  -5  -2  -7   12.78    1.45
  -4  -2  -7    0.81    0.45
  -3  -2  -7   72.11    2.28
  -2  -2  -7    8.81    0.57
  -1  -2  -7    7.75    0.48
   0  -2  -7   -0.26    0.16
   1  -2  -7    8.27    0.69
   2  -2  -7    8.54    0.76
   3  -2  -7   75.16    2.44
   4  -2  -7    0.64    0.48
   5  -2  -7   13.27    1.13
   6  -2  -7   59.39    2.44
   7  -2  -7    0.13    0.64
   8  -2  -7   17.71    1.68
   9  -2  -7    1.06    1.00
  10  -2  -7   21.11    2.16
  11  -2  -7    0.22    1.01
  12  -2  -7   -0.67    0.97
  13  -2  -7    2.95    1.27
  14  -2  -7    9.71    2.39
 -14  -1  -7    5.64    1.66
 -13  -1  -7    8.23    1.95
 -10  -1  -7   27.00    2.28
  -9  -1  -7    2.28    0.86
  -8  -1  -7   33.90    2.11
  -7  -1  -7   54.98    2.64
  -6  -1  -7   17.39    1.47
  -1  -1  -7   32.89    1.11
   0  -1  -7  306.02    7.29
   1  -1  -7   32.26    1.11
   2  -1  -7   50.84    1.62
   3  -1  -7   63.76    2.05
   4  -1  -7    1.59    0.51
   5  -1  -7    7.25    0.71
   6  -1  -7   17.88    1.10
   7  -1  -7   55.65    2.62
   8  -1  -7   34.87    2.18
   9  -1  -7    1.19    0.86
  10  -1  -7   27.62    2.14
  11  -1  -7   12.39    1.54
  12  -1  -7    0.93    0.93
  13  -1  -7   12.21    1.69
  14  -1  -7    4.19    1.36
  15  -1  -7    6.49    2.03
 -14   0  -7   11.68    2.10
 -13   0  -7    1.77    1.30
 -12   0  -7    0.12    0.98
 -11   0  -7    1.61    0.99
 -10   0  -7   24.80    2.32
  -9   0  -7    2.53    0.98
  -8   0  -7   24.91    2.13
  -7   0  -7   -0.33    0.59
  -6   0  -7   84.02    2.65
  -5   0  -7   16.72    1.07
  -4   0  -7    0.78    0.76
  -3   0  -7  116.25    4.96
  -2   0  -7   10.34    1.55
  -1   0  -7   10.91    0.63
   0   0  -7   -0.23    0.30
   1   0  -7   11.73    0.82
   2   0  -7   12.62    0.61
   3   0  -7  110.04    2.58
   4   0  -7    0.91    0.38
   5   0  -7   15.25    0.89
   6   0  -7   86.51    2.30
   7   0  -7    0.21    0.38
   8   0  -7   20.47    1.68
   9   0  -7    1.10    0.77
  10   0  -7   25.90    2.03
  11   0  -7    2.65    0.97
  12   0  -7    0.39    0.94
  13   0  -7    4.29    1.30
  14   0  -7   11.77    1.80
  15   0  -7    2.34    1.76
 -14   1  -7    3.45    1.61
 -13   1  -7   10.23    2.01
 -12   1  -7   -0.06    0.98
 -11   1  -7    9.75    1.70
 -10   1  -7   20.86    2.32
  -9   1  -7    0.79    0.87
  -8   1  -7   31.07    2.37
  -7   1  -7   50.52    2.89
  -6   1  -7   18.15    1.08
  -5   1  -7    6.83    0.73
  -4   1  -7    1.85    0.49
  -3   1  -7   64.77    3.08
  -2   1  -7   52.88    2.71
  -1   1  -7   37.42    2.13
   0   1  -7  304.00    7.35
   1   1  -7   33.80    1.25
   2   1  -7   54.10    1.82
   3   1  -7   63.33    2.17
   4   1  -7    1.42    0.40
   5   1  -7    7.08    0.67
   6   1  -7   17.22    1.04
   7   1  -7   51.09    1.77
   8   1  -7   32.10    1.97
   9   1  -7    1.15    0.78
  10   1  -7   26.70    2.10
  11   1  -7   10.32    1.44
  12   1  -7    0.46    0.88
  13   1  -7   11.00    1.68
  14   1  -7    2.97    1.25
  15   1  -7    2.41    1.68
 -13   2  -7    1.08    1.36
 -12   2  -7   -1.86    0.95
 -11   2  -7    0.23    1.20
 -10   2  -7   18.16    2.33
  -9   2  -7   -0.15    0.87
  -8   2  -7   16.65    1.99
  -7   2  -7   -1.00    0.70
  -6   2  -7   60.83    2.19
  -5   2  -7   11.63    1.00
  -4   2  -7    0.68    0.50
  -3   2  -7   76.54    2.45
  -2   2  -7    9.03    0.83
  -1   2  -7    7.85    0.74
   0   2  -7    0.92    0.71
   1   2  -7    7.79    0.68
   2   2  -7    7.24    0.75
   3   2  -7   81.28    2.58
   4   2  -7    0.81    0.52
   5   2  -7   11.14    1.12
   6   2  -7   61.73    2.47
   7   2  -7    0.03    0.44
   8   2  -7   16.91    1.20
   9   2  -7    0.64    0.82
  10   2  -7   18.41    1.87
  11   2  -7    1.58    0.99
  12   2  -7    0.86    1.03
  13   2  -7    2.05    1.16
  14   2  -7    3.58    1.79
 -12   3  -7    1.41    1.37
 -11   3  -7    5.23    1.63
 -10   3  -7   13.72    2.19
  -9   3  -7    1.01    1.10
  -8   3  -7   22.78    2.36
  -7   3  -7   33.90    2.47
  -6   3  -7   10.47    1.65
  -5   3  -7    3.60    0.76
  -4   3  -7   -0.03    0.58
  -3   3  -7   31.67    1.62
  -2   3  -7   25.45    1.47
  -1   3  -7   15.35    1.12
   0   3  -7  149.02    4.09
   1   3  -7   16.03    1.20
   2   3  -7   28.99    1.56
   3   3  -7   35.88    1.73
   4   3  -7    0.32    0.59
   5   3  -7    3.11    0.80
   6   3  -7    8.76    1.16
   7   3  -7   28.02    1.96
   8   3  -7   20.53    1.75
   9   3  -7    1.01    1.54
  10   3  -7   13.14    2.95
  11   3  -7    3.50    2.27
  12   3  -7   -0.79    1.83
 -11   4  -7    0.10    1.49
 -10   4  -7    8.12    1.97
  -9   4  -7   -0.22    1.25
  -8   4  -7   12.16    2.00
  -7   4  -7    0.57    1.16
  -6   4  -7   28.69    2.68
  -5   4  -7    5.34    1.00
  -4   4  -7   -0.09    0.65
  -3   4  -7   35.59    3.19
  -2   4  -7    4.53    1.43
  -1   4  -7    3.14    1.33
   0   4  -7   -0.07    1.01
   1   4  -7    4.58    1.47
   2   4  -7    2.03    1.22
   3   4  -7   31.84    1.97
   4   4  -7   -0.33    0.66
   5   4  -7    6.42    1.12
   6   4  -7   25.68    2.07
   7   4  -7    0.06    0.79
   8   4  -7    8.33    1.36
   9   4  -7    1.95    1.77
  10   4  -7    9.54    2.51
  11   4  -7    2.94    2.25
  -4   5  -7    0.22    1.41
  -3   5  -7   10.28    2.19
  -2   5  -7   15.80    2.49
  -1   5  -7    3.94    1.61
   0   5  -7   64.70    4.29
   1   5  -7    7.44    1.84
   2   5  -7   11.76    2.23
   3   5  -7   10.83    2.23
   4   5  -7    1.36    1.40
   5   5  -7    1.01    1.47
   6   5  -7    5.41    1.86
   7   5  -7    8.35    2.14
   8   5  -7    4.66    1.42
  -1  -6  -6    7.28    1.89
   0  -6  -6    7.02    1.47
   1  -6  -6    3.89    1.63
   2  -6  -6    1.59    1.55
  -8  -5  -6   10.07    1.56
  -7  -5  -6    2.40    1.08
  -6  -5  -6   -0.37    0.83
  -5  -5  -6   -0.87    0.83
  -4  -5  -6    6.69    1.16
  -3  -5  -6    4.43    1.10
  -2  -5  -6    1.44    0.83
  -1  -5  -6    7.20    1.15
   0  -5  -6   -1.33    0.68
   1  -5  -6   10.18    1.34
   2  -5  -6    0.27    0.79
   3  -5  -6    4.79    1.10
   4  -5  -6    6.39    1.23
   5  -5  -6    1.01    0.92
   6  -5  -6    0.27    0.98
   7  -5  -6   -0.17    0.95
   8  -5  -6   13.58    1.83
 -11  -4  -6    1.62    1.22
 -10  -4  -6    6.85    1.39
  -9  -4  -6    5.31    1.17
  -8  -4  -6   29.48    2.14
  -7  -4  -6   -0.27    0.71
  -6  -4  -6   12.67    1.38
  -5  -4  -6   -0.36    0.62
  -4  -4  -6    3.81    0.86
  -3  -4  -6    8.69    1.11
  -2  -4  -6    4.93    0.91
  -1  -4  -6   23.07    1.63
   0  -4  -6   21.04    1.53
   1  -4  -6   19.90    1.53
   2  -4  -6    3.09    0.79
   3  -4  -6   11.03    1.22
   4  -4  -6    5.37    0.99
   5  -4  -6   -0.26    0.68
   6  -4  -6   12.77    1.46
   7  -4  -6   -0.44    0.76
   8  -4  -6   28.99    2.22
   9  -4  -6    5.17    1.28
  10  -4  -6    3.73    1.39
  11  -4  -6   -0.70    1.22
 -13  -3  -6   -0.14    1.38
 -12  -3  -6   -0.93    1.05
 -11  -3  -6    0.19    0.96
 -10  -3  -6    5.86    1.23
  -9  -3  -6    2.33    0.85
  -8  -3  -6   32.21    2.13
  -7  -3  -6    1.35    0.68
  -6  -3  -6    0.39    0.56
  -5  -3  -6    0.89    0.53
  -4  -3  -6   10.56    0.97
  -3  -3  -6   14.41    0.89
  -2  -3  -6    1.52    0.41
  -1  -3  -6   24.70    0.99
   0  -3  -6   -0.36    0.42
   1  -3  -6   26.53    1.38
   2  -3  -6    0.78    0.57
   3  -3  -6   12.78    1.13
   4  -3  -6   11.42    1.14
   5  -3  -6    1.35    0.63
   6  -3  -6    2.11    0.71
   7  -3  -6    1.73    0.79
   8  -3  -6   32.08    2.18
   9  -3  -6    1.21    0.93
  10  -3  -6    2.54    1.16
  11  -3  -6   -0.53    1.12
  12  -3  -6    0.72    1.26
  13  -3  -6    0.74    1.29
 -14  -2  -6    0.14    1.28
 -13  -2  -6    0.56    1.29
 -12  -2  -6   22.18    2.72
 -11  -2  -6    0.15    1.07
 -10  -2  -6   10.39    1.88
  -9  -2  -6    8.24    1.60
  -8  -2  -6   67.78    3.65
  -7  -2  -6   -0.36    0.68
  -6  -2  -6   28.09    1.32
  -5  -2  -6    0.13    0.62
  -4  -2  -6   12.35    0.95
  -3  -2  -6   26.22    1.18
  -2  -2  -6   11.24    0.64
  -1  -2  -6   53.23    1.36
   0  -2  -6   45.17    1.16
   1  -2  -6   53.91    1.79
   2  -2  -6   11.37    0.85
   3  -2  -6   27.13    0.89
   4  -2  -6   12.62    0.69
   5  -2  -6   -0.70    0.31
   6  -2  -6   34.42    1.76
   7  -2  -6   -0.11    0.62
   8  -2  -6   55.26    2.65
   9  -2  -6    7.16    1.31
  10  -2  -6    7.95    1.51
  11  -2  -6    2.81    1.18
  12  -2  -6   15.52    1.92
  13  -2  -6    0.20    1.05
  14  -2  -6   -0.30    1.09
 -14  -1  -6    0.68    1.28
 -13  -1  -6    0.88    1.20
 -12  -1  -6    1.81    1.22
 -10  -1  -6    7.56    1.31
  -9  -1  -6    0.14    0.71
  -8  -1  -6   51.25    2.64
  -7  -1  -6    4.38    0.88
  -6  -1  -6    4.58    0.83
  -1  -1  -6   54.15    1.58
   0  -1  -6    0.05    0.21
   1  -1  -6   53.09    1.58
   2  -1  -6    2.84    0.42
   3  -1  -6   26.40    1.15
   4  -1  -6   23.77    0.87
   5  -1  -6    1.95    0.35
   6  -1  -6    3.12    0.44
   7  -1  -6    3.34    0.64
   8  -1  -6   49.54    1.83
   9  -1  -6    1.34    0.61
  10  -1  -6    5.97    0.87
  11  -1  -6   -0.33    0.81
  12  -1  -6    0.20    0.90
  13  -1  -6    0.59    0.92
  14  -1  -6   -0.21    0.99
  15  -1  -6    6.69    2.23
 -14   0  -6    0.24    1.12
 -13   0  -6   -0.64    0.98
 -12   0  -6   27.24    2.65
 -11   0  -6    2.74    1.08
 -10   0  -6   12.98    1.72
  -9   0  -6   13.25    1.61
  -8   0  -6   79.42    3.73
  -7   0  -6    0.39    0.66
  -6   0  -6   38.62    1.56
  -5   0  -6   -0.11    0.36
  -4   0  -6   18.40    1.65
  -3   0  -6   43.27    2.63
  -2   0  -6   17.61    1.81
  -1   0  -6   92.52    2.57
   0   0  -6   75.52    2.16
   1   0  -6   92.00    2.66
   2   0  -6   16.51    1.01
   3   0  -6   41.32    1.64
   4   0  -6   18.53    0.91
   5   0  -6    0.12    0.35
   6   0  -6   41.54    1.38
   7   0  -6    0.53    0.37
   8   0  -6   79.32    3.07
   9   0  -6   10.40    1.29
  10   0  -6   16.40    1.65
  11   0  -6    3.29    0.96
  12   0  -6   25.66    2.25
  13   0  -6   -0.84    0.93
  14   0  -6    1.05    1.16
  15   0  -6   -0.19    1.40
 -14   1  -6    0.84    1.37
 -13   1  -6    2.29    1.27
 -12   1  -6   -0.31    0.94
 -11   1  -6   -0.01    0.88
 -10   1  -6   11.80    1.75
  -9   1  -6    1.04    0.90
  -8   1  -6   50.64    2.94
  -7   1  -6    3.52    0.97
  -6   1  -6    3.75    0.55
  -5   1  -6    1.42    0.43
  -4   1  -6   22.52    1.13
  -3   1  -6   23.22    1.12
  -2   1  -6    1.44    0.66
  -1   1  -6   51.11    2.64
   0   1  -6   -0.41    0.19
   1   1  -6   50.95    1.67
   2   1  -6    2.39    0.47
   3   1  -6   24.02    0.92
   4   1  -6   22.32    0.99
   5   1  -6    1.94    0.44
   6   1  -6    2.99    0.52
   7   1  -6    3.61    0.59
   8   1  -6   51.92    2.44
   9   1  -6    1.36    0.79
  10   1  -6    7.26    1.26
  11   1  -6    0.42    0.80
  12   1  -6    0.30    0.88
  13   1  -6    0.89    1.01
  14   1  -6    0.36    1.01
  15   1  -6    9.53    2.25
 -14   2  -6    1.40    1.38
 -13   2  -6   -1.27    1.08
 -12   2  -6   17.58    2.44
 -11   2  -6    0.44    1.01
 -10   2  -6   10.79    1.81
  -9   2  -6    6.65    1.53
  -8   2  -6   57.90    3.35
  -7   2  -6    1.18    0.91
  -6   2  -6   30.52    1.47
  -5   2  -6   -0.10    0.46
  -4   2  -6   11.01    0.94
  -3   2  -6   27.06    1.31
  -2   2  -6   11.05    0.88
  -1   2  -6   53.24    1.80
   0   2  -6   45.87    1.58
   1   2  -6   52.57    1.81
   2   2  -6    9.92    0.86
   3   2  -6   27.64    1.39
   4   2  -6   12.69    1.07
   5   2  -6   -0.21    0.52
   6   2  -6   28.07    1.34
   7   2  -6    0.60    0.46
   8   2  -6   57.64    2.04
   9   2  -6    9.77    1.38
  10   2  -6   12.60    1.59
  11   2  -6    2.85    1.05
  12   2  -6   19.69    2.07
  13   2  -6   -0.15    1.03
  14   2  -6    0.28    1.12
 -12   3  -6    1.39    1.31
 -11   3  -6    2.51    1.40
 -10   3  -6    6.06    1.61
  -9   3  -6    1.13    1.14
  -8   3  -6   33.34    2.90
  -7   3  -6    3.00    1.09
  -6   3  -6    1.78    1.03
  -5   3  -6    0.19    0.58
  -4   3  -6   11.33    1.07
  -3   3  -6   15.14    1.17
  -2   3  -6    1.70    0.57
  -1   3  -6   24.41    1.34
   0   3  -6    0.43    0.44
   1   3  -6   24.86    1.44
   2   3  -6    0.80    0.56
   3   3  -6   12.49    1.15
   4   3  -6   13.82    1.22
   5   3  -6    0.80    0.65
   6   3  -6    0.71    0.65
   7   3  -6    1.49    0.82
   8   3  -6   27.73    2.07
   9   3  -6    0.27    1.41
  10   3  -6    3.98    1.95
  11   3  -6   -3.51    1.64
  12   3  -6    0.90    1.69
 -11   4  -6    3.82    1.72
 -10   4  -6    4.93    1.73
  -9   4  -6    8.06    1.90
  -8   4  -6   25.62    2.78
  -7   4  -6    0.43    1.06
  -6   4  -6   12.61    1.91
  -5   4  -6    0.28    0.69
  -4   4  -6    7.10    1.02
  -3   4  -6   14.48    2.08
  -2   4  -6    3.81    1.49
  -1   4  -6   20.15    2.46
   0   4  -6   15.65    2.26
   1   4  -6   22.49    2.57
   2   4  -6    2.49    1.32
   3   4  -6   11.03    1.29
   4   4  -6    5.00    1.02
   5   4  -6    0.34    0.78
   6   4  -6   13.18    1.50
   7   4  -6    0.91    0.82
   8   4  -6   28.24    2.24
   9   4  -6    3.32    1.76
  10   4  -6    5.44    2.18
  11   4  -6   -1.74    1.93
  -4   5  -6    2.58    1.58
  -3   5  -6    4.74    1.71
  -2   5  -6    1.06    1.37
  -1   5  -6    9.04    2.05
   0   5  -6    0.00    1.21
   1   5  -6    7.91    1.98
   2   5  -6    0.92    1.26
   3   5  -6    4.57    1.64
   4   5  -6    3.74    1.69
   5   5  -6    1.83    1.07
   6   5  -6    3.01    1.17
   7   5  -6   -0.75    1.01
   8   5  -6   14.10    1.92
  -3   6  -6    3.29    1.96
  -2   6  -6    1.57    1.92
  -1   6  -6    7.79    2.31
  -2  -6  -5   29.87    3.28
  -1  -6  -5   -0.18    1.00
   0  -6  -5    0.70    1.10
   1  -6  -5    0.20    1.06
   2  -6  -5   29.62    2.36
  -8  -5  -5    6.87    1.39
  -7  -5  -5    0.32    0.93
  -6  -5  -5   -0.48    0.83
  -5  -5  -5    1.23    0.89
  -4  -5  -5   32.18    2.27
  -3  -5  -5    1.08    0.86
  -2  -5  -5    3.48    1.00
  -1  -5  -5    4.88    1.03
   0  -5  -5   -0.06    0.74
   1  -5  -5    4.88    1.02
   2  -5  -5    2.93    0.96
   3  -5  -5    1.69    0.90
   4  -5  -5   31.77    2.27
   5  -5  -5   -0.72    0.84
   6  -5  -5   -0.01    0.99
   7  -5  -5   -1.04    0.92
   8  -5  -5    5.95    1.44
 -11  -4  -5    0.95    1.14
 -10  -4  -5    4.21    1.17
  -9  -4  -5    0.47    0.84
  -8  -4  -5    9.39    1.30
  -7  -4  -5    4.96    1.03
  -6  -4  -5    3.38    0.82
  -5  -4  -5    4.18    0.70
  -4  -4  -5    0.18    0.61
  -3  -4  -5   -0.41    0.51
  -2  -4  -5   84.95    3.09
  -1  -4  -5    4.06    0.82
   0  -4  -5    0.36    0.59
   1  -4  -5    4.65    0.84
   2  -4  -5   79.97    3.05
   3  -4  -5   -0.04    0.58
   4  -4  -5    0.46    0.68
   5  -4  -5    5.22    0.97
   6  -4  -5    4.07    1.00
   7  -4  -5    6.74    1.21
   8  -4  -5    7.74    1.34
   9  -4  -5    0.55    0.96
  10  -4  -5    2.30    1.26
  11  -4  -5    0.40    1.21
 -13  -3  -5    1.45    1.45
 -12  -3  -5    4.97    1.47
 -11  -3  -5    1.19    1.10
 -10  -3  -5    0.61    0.85
  -9  -3  -5    4.22    1.02
  -8  -3  -5   17.24    1.55
  -7  -3  -5   -0.09    0.55
  -6  -3  -5    0.59    0.54
  -5  -3  -5    3.08    0.67
  -4  -3  -5   76.40    2.59
  -3  -3  -5    4.34    0.56
  -2  -3  -5   12.58    0.80
  -1  -3  -5   13.20    0.77
   0  -3  -5    2.12    0.40
   1  -3  -5   13.18    1.04
   2  -3  -5   12.17    1.08
   3  -3  -5    3.11    0.70
   4  -3  -5   77.11    2.76
   5  -3  -5    2.91    0.74
   6  -3  -5   -0.96    0.55
   7  -3  -5    0.32    0.74
   8  -3  -5   17.72    1.67
   9  -3  -5    4.13    1.04
  10  -3  -5    0.83    0.99
  11  -3  -5   -0.08    1.13
  12  -3  -5    7.06    1.74
  13  -3  -5   -0.21    1.33
 -14  -2  -5    3.68    1.68
 -13  -2  -5    2.77    1.26
 -12  -2  -5   42.44    3.29
 -11  -2  -5   -0.04    1.01
 -10  -2  -5    5.27    1.44
  -9  -2  -5    0.68    0.90
  -8  -2  -5   12.18    1.84
  -7  -2  -5   12.24    1.68
  -6  -2  -5    7.25    0.71
  -5  -2  -5   11.16    1.35
  -4  -2  -5    1.00    0.43
  -3  -2  -5   -0.32    0.30
  -2  -2  -5  202.40    5.01
  -1  -2  -5   10.20    0.56
   0  -2  -5   -0.31    0.18
   1  -2  -5   11.14    0.52
   2  -2  -5  201.24    4.06
   3  -2  -5    0.05    0.24
   4  -2  -5    0.60    0.32
   5  -2  -5   10.04    0.71
   6  -2  -5    7.86    0.71
   7  -2  -5   11.06    0.87
   8  -2  -5   15.54    1.11
   9  -2  -5    1.08    0.89
  10  -2  -5    6.81    1.38
  11  -2  -5   -0.29    1.04
  12  -2  -5   45.45    3.11
  13  -2  -5    6.75    1.41
  14  -2  -5    1.59    1.26
 -14  -1  -5   31.54    3.33
 -13  -1  -5    2.45    1.28
 -12  -1  -5   13.02    2.08
 -10  -1  -5   -0.97    0.72
  -9  -1  -5    7.40    1.18
  -8  -1  -5   36.07    2.11
  -7  -1  -5   -0.97    0.48
  -6  -1  -5    0.52    0.53
  -5  -1  -5    4.33    0.70
  -1  -1  -5   29.04    1.01
   0  -1  -5    4.97    0.42
   1  -1  -5   29.92    1.02
   2  -1  -5   21.72    0.94
   3  -1  -5    7.88    0.47
   4  -1  -5  161.19    3.45
   5  -1  -5    5.16    0.54
   6  -1  -5    0.35    0.32
   7  -1  -5   -0.17    0.44
   8  -1  -5   32.99    1.59
   9  -1  -5    6.32    0.85
  10  -1  -5   -0.21    0.55
  11  -1  -5    0.49    0.60
  12  -1  -5   13.09    1.64
  13  -1  -5    1.24    1.01
  14  -1  -5   27.76    2.51
  15  -1  -5    3.15    1.75
 -14   0  -5    0.92    1.29
 -13   0  -5    8.85    1.74
 -12   0  -5   49.39    3.22
 -11   0  -5   -0.33    0.80
 -10   0  -5   15.27    1.82
  -9   0  -5    0.76    0.73
  -8   0  -5   20.30    1.90
  -7   0  -5   17.02    1.66
  -6   0  -5   11.28    0.81
  -5   0  -5   16.22    0.97
  -4   0  -5    1.60    0.43
  -3   0  -5    0.97    0.78
  -2   0  -5  335.17   11.96
  -1   0  -5   20.56    0.78
   0   0  -5   -0.09    0.29
   1   0  -5   18.08    0.97
   2   0  -5  336.54    6.62
   3   0  -5    0.03    0.31
   4   0  -5    0.86    0.35
   5   0  -5   14.55    0.80
   6   0  -5    9.85    0.67
   7   0  -5   16.15    0.87
   8   0  -5   19.55    1.65
   9   0  -5   -0.17    0.65
  10   0  -5   11.23    1.43
  11   0  -5    1.06    0.87
  12   0  -5   51.67    2.76
  13   0  -5    9.21    1.54
  14   0  -5    1.47    1.15
  15   0  -5    1.36    1.14
 -15   1  -5    2.28    1.55
 -14   1  -5   31.81    3.21
 -13   1  -5    0.74    1.15
 -12   1  -5   11.04    1.89
 -11   1  -5    0.01    1.00
 -10   1  -5   -0.36    0.82
  -9   1  -5    6.32    1.34
  -8   1  -5   31.48    2.33
  -7   1  -5   -0.51    0.63
  -6   1  -5    0.21    0.36
  -5   1  -5    7.20    0.62
  -4   1  -5  157.90    4.13
  -3   1  -5    8.02    0.65
  -2   1  -5   19.66    1.45
  -1   1  -5   29.29    1.75
   0   1  -5    4.00    0.36
   1   1  -5   29.24    1.10
   2   1  -5   21.11    1.02
   3   1  -5    7.58    0.55
   4   1  -5  163.08    3.56
   5   1  -5    5.58    0.59
   6   1  -5    0.21    0.38
   7   1  -5    0.24    0.41
   8   1  -5   32.47    2.03
   9   1  -5    7.53    1.17
  10   1  -5   -0.41    0.69
  11   1  -5    1.02    0.94
  12   1  -5   13.26    1.69
  13   1  -5    0.28    0.94
  14   1  -5   28.08    2.45
  15   1  -5    2.78    1.68
 -14   2  -5    2.31    1.42
 -13   2  -5    5.77    1.71
 -12   2  -5   39.25    3.58
 -11   2  -5    0.45    1.03
 -10   2  -5    7.63    1.57
  -9   2  -5   -0.45    0.87
  -8   2  -5   13.82    1.85
  -7   2  -5   10.74    1.58
  -6   2  -5    9.79    0.89
  -5   2  -5   12.19    0.95
  -4   2  -5    0.70    0.49
  -3   2  -5    0.54    0.43
  -2   2  -5  196.46    5.07
  -1   2  -5   10.99    0.78
   0   2  -5   -0.03    0.32
   1   2  -5   10.64    0.56
   2   2  -5  202.76    5.25
   3   2  -5    0.38    0.42
   4   2  -5   -0.24    0.47
   5   2  -5    8.97    0.97
   6   2  -5    8.17    0.80
   7   2  -5   11.10    0.94
   8   2  -5   16.45    1.19
   9   2  -5   -0.74    0.71
  10   2  -5    5.94    1.23
  11   2  -5   -0.01    0.83
  12   2  -5   44.30    2.78
  13   2  -5    9.70    1.64
  14   2  -5    2.17    1.24
 -12   3  -5    9.33    2.03
 -11   3  -5    0.27    1.07
 -10   3  -5    1.04    1.09
  -9   3  -5    3.06    1.30
  -8   3  -5   17.04    2.17
  -7   3  -5   -0.18    0.86
  -6   3  -5   -0.18    0.85
  -5   3  -5    3.15    0.74
  -4   3  -5   76.32    2.66
  -3   3  -5    4.20    0.75
  -2   3  -5   12.50    1.03
  -1   3  -5   13.37    1.00
   0   3  -5    2.62    0.53
   1   3  -5   13.07    1.09
   2   3  -5   11.08    1.06
   3   3  -5    3.14    0.76
   4   3  -5   77.40    2.85
   5   3  -5    3.16    0.78
   6   3  -5    1.10    0.68
   7   3  -5    0.17    0.69
   8   3  -5   17.90    1.60
   9   3  -5    1.26    1.50
  10   3  -5    1.12    1.64
  11   3  -5    2.10    1.82
  12   3  -5    7.81    2.44
  13   3  -5   -1.90    1.64
 -11   4  -5    1.08    1.32
 -10   4  -5    0.10    1.27
  -9   4  -5   -0.76    1.21
  -8   4  -5    3.81    1.44
  -7   4  -5    2.20    1.24
  -6   4  -5    2.79    1.22
  -5   4  -5    5.33    0.90
  -4   4  -5    0.42    0.69
  -3   4  -5    0.45    1.10
  -2   4  -5   82.41    4.71
  -1   4  -5    3.01    1.25
   0   4  -5   -0.96    0.92
   1   4  -5    2.08    1.22
   2   4  -5   84.23    4.72
   3   4  -5   -0.09    0.68
   4   4  -5    1.68    0.84
   5   4  -5    6.42    1.09
   6   4  -5    3.39    1.01
   7   4  -5    5.82    1.15
   8   4  -5    7.44    1.33
   9   4  -5   -0.47    1.44
  10   4  -5   -1.55    1.68
  11   4  -5    1.31    2.00
  -4   5  -5   37.48    3.67
  -3   5  -5    0.49    1.40
  -2   5  -5    3.33    1.75
  -1   5  -5    8.68    1.96
   0   5  -5   -1.48    1.15
   1   5  -5    2.70    1.53
   2   5  -5    2.90    1.45
   3   5  -5   -1.29    1.09
   4   5  -5   34.80    3.69
   5   5  -5   -0.45    0.92
   6   5  -5    0.54    1.03
   7   5  -5   -0.53    1.05
   8   5  -5    7.71    1.59
  -3   6  -5   -0.29    1.53
  -2   6  -5   26.73    3.57
  -1   6  -5    2.88    1.89
   0   6  -5   -0.39    1.61
  -2  -6  -4    5.36    1.35
  -1  -6  -4   -0.02    1.05
   0  -6  -4    5.25    1.35
   1  -6  -4    0.00    0.97
   2  -6  -4    6.65    1.38
   3  -6  -4    1.73    1.78
  -8  -5  -4    0.95    1.03
  -7  -5  -4   10.72    1.55
  -6  -5  -4    1.31    0.96
  -5  -5  -4    0.65    0.84
  -4  -5  -4   21.66    1.86
  -3  -5  -4    1.72    0.83
  -2  -5  -4    5.91    1.11
  -1  -5  -4    0.58    0.78
   0  -5  -4    0.32    0.73
   1  -5  -4    0.78    0.77
   2  -5  -4    4.51    1.01
   3  -5  -4    1.91    0.91
   4  -5  -4   23.68    1.94
   5  -5  -4   -0.38    0.84
   6  -5  -4   -0.03    0.92
   7  -5  -4    8.70    1.49
   8  -5  -4   -0.07    1.04
   9  -5  -4    7.98    2.44
 -11  -4  -4    4.93    1.37
 -10  -4  -4    1.12    0.99
  -9  -4  -4    3.79    1.04
  -8  -4  -4    1.62    0.84
  -7  -4  -4   18.21    1.62
  -6  -4  -4   83.69    3.08
  -5  -4  -4    0.09    0.46
  -4  -4  -4   23.48    1.35
  -3  -4  -4    3.01    0.77
  -2  -4  -4   29.32    1.79
  -1  -4  -4    1.52    0.65
   0  -4  -4   11.60    1.16
   1  -4  -4    1.12    0.65
   2  -4  -4   33.90    1.81
   3  -4  -4    1.85    0.72
   4  -4  -4   25.42    1.78
   5  -4  -4   -0.54    0.68
   6  -4  -4   89.09    3.36
   7  -4  -4   14.92    1.55
   8  -4  -4   -0.97    0.80
   9  -4  -4    3.36    1.16
  10  -4  -4   -0.14    1.01
  11  -4  -4    3.08    1.39
 -13  -3  -4    1.77    1.17
 -12  -3  -4   17.42    2.07
 -11  -3  -4    1.09    1.00
 -10  -3  -4   85.70    3.54
  -9  -3  -4    9.52    1.28
  -8  -3  -4    1.27    0.73
  -7  -3  -4   21.42    1.61
  -6  -3  -4    0.29    0.54
  -5  -3  -4    3.53    0.71
  -4  -3  -4   50.28    1.99
  -3  -3  -4    6.31    0.74
  -2  -3  -4   12.43    0.80
  -1  -3  -4    4.85    0.52
   0  -3  -4   -0.09    0.31
   1  -3  -4    4.76    0.48
   2  -3  -4   13.25    0.77
   3  -3  -4    6.52    0.85
   4  -3  -4   56.74    2.19
   5  -3  -4    4.23    0.81
   6  -3  -4    0.62    0.66
   7  -3  -4   20.15    1.65
   8  -3  -4    1.22    0.82
   9  -3  -4    7.88    1.30
  10  -3  -4   82.77    3.67
  11  -3  -4    2.89    1.28
  12  -3  -4   23.77    2.52
  13  -3  -4    2.08    1.36
 -14  -2  -4    0.84    1.45
 -13  -2  -4    7.37    1.88
 -12  -2  -4   26.22    2.97
 -11  -2  -4    8.45    1.76
 -10  -2  -4    0.44    0.98
  -9  -2  -4    8.08    1.58
  -8  -2  -4    0.62    0.89
  -7  -2  -4   27.54    2.30
  -6  -2  -4  185.87    7.14
  -5  -2  -4    0.07    0.33
  -4  -2  -4   59.18    2.06
  -3  -2  -4    5.76    0.61
  -2  -2  -4   74.51    2.21
  -1  -2  -4    3.53    0.36
   0  -2  -4   31.27    0.91
   1  -2  -4    3.18    0.32
   2  -2  -4   77.94    1.79
   3  -2  -4    6.08    0.47
   4  -2  -4   59.42    1.61
   5  -2  -4    0.01    0.34
   6  -2  -4  184.94    4.15
   7  -2  -4   36.64    1.43
   8  -2  -4    0.87    0.53
   9  -2  -4    8.22    0.96
  10  -2  -4    2.51    1.06
  11  -2  -4    7.26    1.43
  12  -2  -4   25.56    2.37
  13  -2  -4    6.68    1.48
  14  -2  -4   -0.01    1.11
 -14  -1  -4    8.76    1.98
 -13  -1  -4    1.12    1.12
 -12  -1  -4   27.84    2.98
 -11  -1  -4    3.14    1.22
 -10  -1  -4  155.92    5.89
  -9  -1  -4   14.00    1.56
  -8  -1  -4    2.40    0.79
  -7  -1  -4   44.69    2.24
  -6  -1  -4    1.89    0.57
  -5  -1  -4    6.92    0.85
  -1  -1  -4    9.64    0.52
   0  -1  -4   -0.26    0.14
   1  -1  -4    9.51    0.58
   2  -1  -4   27.07    0.77
   3  -1  -4   13.78    0.62
   4  -1  -4  105.99    2.43
   5  -1  -4    7.05    0.62
   6  -1  -4    0.96    0.34
   7  -1  -4   42.38    1.65
   8  -1  -4    2.92    0.70
   9  -1  -4   15.61    1.20
  10  -1  -4  145.41    3.90
  11  -1  -4    2.08    0.69
  12  -1  -4   33.46    1.92
  13  -1  -4    1.46    1.03
  14  -1  -4    9.88    1.67
  15  -1  -4   -1.62    1.48
 -15   0  -4    0.86    1.35
 -14   0  -4    0.18    1.19
 -13   0  -4    9.33    1.76
 -12   0  -4   29.50    2.77
 -11   0  -4    9.47    1.58
 -10   0  -4    0.40    0.82
  -9   0  -4   14.30    1.71
  -8   0  -4    1.71    0.81
  -7   0  -4   51.74    2.63
  -6   0  -4  279.76    9.37
  -5   0  -4    0.75    0.36
  -4   0  -4   95.35    2.62
  -3   0  -4   14.54    1.33
  -2   0  -4  135.81    5.33
  -1   0  -4    4.88    1.02
   0   0  -4   51.77    1.49
   1   0  -4    3.92    0.50
   2   0  -4  133.78    2.87
   3   0  -4   11.33    0.66
   4   0  -4   92.63    2.26
   5   0  -4    0.83    0.31
   6   0  -4  271.68    4.90
   7   0  -4   49.08    1.71
   8   0  -4    0.76    0.51
   9   0  -4   12.72    1.37
  10   0  -4    1.28    0.82
  11   0  -4   10.54    1.45
  12   0  -4   35.03    2.55
  13   0  -4    7.19    1.36
  14   0  -4   -1.01    0.94
  15   0  -4    1.67    1.15
 -15   1  -4   -0.29    1.31
 -14   1  -4    7.54    1.89
 -13   1  -4    3.06    1.40
 -12   1  -4   30.34    2.94
 -11   1  -4    3.17    1.21
 -10   1  -4  139.66    6.21
  -9   1  -4   17.41    1.95
  -8   1  -4    2.81    1.04
  -7   1  -4   37.33    2.45
  -6   1  -4    2.78    0.82
  -5   1  -4    7.97    0.61
  -4   1  -4  102.77    2.85
  -3   1  -4   13.67    0.78
  -2   1  -4   25.51    1.07
  -1   1  -4    9.73    0.96
   0   1  -4   -0.09    0.23
   1   1  -4    9.68    0.61
   2   1  -4   26.96    1.12
   3   1  -4   13.05    0.68
   4   1  -4  106.90    2.51
   5   1  -4    7.61    0.64
   6   1  -4    1.62    0.43
   7   1  -4   42.67    1.50
   8   1  -4    1.64    0.80
   9   1  -4   17.19    1.67
  10   1  -4  150.69    5.03
  11   1  -4    3.84    1.10
  12   1  -4   29.93    2.42
  13   1  -4    1.23    1.02
  14   1  -4    8.85    1.52
  15   1  -4    1.16    1.41
 -14   2  -4    2.22    1.39
 -13   2  -4    5.16    1.64
 -12   2  -4   23.65    2.74
 -11   2  -4    9.87    1.81
 -10   2  -4    3.92    1.27
  -9   2  -4    8.73    1.58
  -8   2  -4    1.25    0.93
  -7   2  -4   36.89    2.50
  -6   2  -4  187.64    4.94
  -5   2  -4    0.24    0.44
  -4   2  -4   63.74    2.09
  -3   2  -4    6.76    0.69
  -2   2  -4   74.29    2.31
  -1   2  -4    2.53    0.47
   0   2  -4   31.05    1.18
   1   2  -4    4.15    0.35
   2   2  -4   77.82    2.41
   3   2  -4    5.29    0.69
   4   2  -4   61.31    2.20
   5   2  -4    0.41    0.39
   6   2  -4  184.34    4.30
   7   2  -4   37.36    1.50
   8   2  -4    0.84    0.55
   9   2  -4    5.75    1.13
  10   2  -4    1.24    0.85
  11   2  -4    7.79    1.41
  12   2  -4   24.31    2.29
  13   2  -4    5.19    1.38
  14   2  -4    0.03    1.05
 -13   3  -4    0.11    1.40
 -12   3  -4   20.54    2.79
 -11   3  -4   -1.01    1.13
 -10   3  -4   85.91    4.65
  -9   3  -4    7.16    1.58
  -8   3  -4    1.86    1.16
  -7   3  -4   23.91    2.35
  -6   3  -4   -0.34    0.81
  -5   3  -4    3.66    0.76
  -4   3  -4   52.10    2.09
  -3   3  -4    5.78    0.82
  -2   3  -4   12.72    1.04
  -1   3  -4    5.50    0.68
   0   3  -4   -0.08    0.41
   1   3  -4    6.01    1.26
   2   3  -4   15.03    1.21
   3   3  -4    6.77    0.91
   4   3  -4   49.02    2.22
   5   3  -4    4.01    0.86
   6   3  -4    1.19    0.72
   7   3  -4   22.19    1.73
   8   3  -4    1.81    0.78
   9   3  -4    5.16    1.75
  10   3  -4   85.64    5.46
  11   3  -4   -1.18    1.50
  12   3  -4   16.57    2.93
  13   3  -4   -0.13    1.77
 -11   4  -4    1.59    1.45
 -10   4  -4    1.90    1.40
  -9   4  -4    3.65    1.49
  -8   4  -4    0.15    1.12
  -7   4  -4   12.82    1.95
  -6   4  -4   77.85    4.17
  -5   4  -4   -0.25    0.66
  -4   4  -4   28.42    1.77
  -3   4  -4    0.05    1.01
  -2   4  -4   27.18    2.77
  -1   4  -4    2.26    1.19
   0   4  -4   17.94    2.31
   1   4  -4    1.30    1.18
   2   4  -4   30.77    3.01
   3   4  -4    1.68    0.76
   4   4  -4   27.64    1.96
   5   4  -4   -1.03    0.64
   6   4  -4   84.06    3.40
   7   4  -4   15.90    1.66
   8   4  -4    1.07    0.92
   9   4  -4    1.83    1.54
  10   4  -4    0.24    1.62
  11   4  -4    1.51    1.92
  -4   5  -4   18.40    2.61
  -3   5  -4    2.83    1.62
  -2   5  -4    6.73    1.98
  -1   5  -4    0.19    1.25
   0   5  -4    0.22    1.28
   1   5  -4    4.09    1.60
   2   5  -4    4.21    1.68
   3   5  -4    3.60    1.59
   4   5  -4   10.92    2.34
   5   5  -4    1.12    1.06
   6   5  -4   -0.71    0.96
   7   5  -4    7.29    1.48
   8   5  -4    0.14    1.14
  -3   6  -4    2.58    1.83
  -2   6  -4    9.85    2.55
  -1   6  -4   -1.18    1.46
   0   6  -4    3.31    1.92
   1   6  -4   -0.74    1.47
  -3  -6  -3    3.13    2.03
  -2  -6  -3    2.87    1.18
  -1  -6  -3    0.50    1.02
   0  -6  -3    0.50    0.98
   1  -6  -3    0.11    0.97
   2  -6  -3    3.74    1.18
   3  -6  -3    5.07    1.95
   4  -6  -3    2.10    2.00
  -8  -5  -3    0.45    0.96
  -7  -5  -3   10.66    1.53
  -6  -5  -3    3.91    1.09
  -5  -5  -3    2.62    0.97
  -4  -5  -3   72.11    3.16
  -3  -5  -3   -0.37    0.75
  -2  -5  -3    9.48    1.26
  -1  -5  -3    2.95    0.90
   0  -5  -3    0.71    0.78
   1  -5  -3    3.68    0.95
   2  -5  -3    6.22    1.10
   3  -5  -3   -0.82    0.75
   4  -5  -3   69.08    3.07
   5  -5  -3    4.67    1.19
   6  -5  -3    5.32    1.29
   7  -5  -3    7.39    1.45
   8  -5  -3    0.45    1.03
   9  -5  -3    2.00    2.10
 -11  -4  -3    4.84    1.34
 -10  -4  -3   -0.13    0.89
  -9  -4  -3    8.37    1.29
  -8  -4  -3   13.20    1.44
  -7  -4  -3    3.84    0.94
  -6  -4  -3   -0.48    0.56
  -5  -4  -3    2.36    0.70
  -4  -4  -3   12.49    1.01
  -3  -4  -3   13.15    0.98
  -2  -4  -3    6.02    0.72
  -1  -4  -3    1.69    0.66
   0  -4  -3    1.64    0.64
   1  -4  -3    3.35    0.77
   2  -4  -3    4.52    0.88
   3  -4  -3   15.02    1.36
   4  -4  -3   12.65    1.28
   5  -4  -3    0.78    0.79
   6  -4  -3    0.60    0.76
   7  -4  -3    7.42    1.20
   8  -4  -3    9.19    1.38
   9  -4  -3    6.94    1.35
  10  -4  -3    1.41    1.11
  11  -4  -3    5.17    1.49
 -13  -3  -3   11.14    1.73
 -12  -3  -3    6.32    1.39
 -11  -3  -3    0.15    0.90
 -10  -3  -3   -0.01    0.78
  -9  -3  -3    1.19    0.77
  -8  -3  -3   -0.74    0.53
  -7  -3  -3   20.67    1.58
  -6  -3  -3   10.85    1.10
  -5  -3  -3    7.98    0.90
  -4  -3  -3  183.82    5.04
  -3  -3  -3    1.20    0.48
  -2  -3  -3   18.00    0.94
  -1  -3  -3    9.32    0.68
   0  -3  -3    2.55    0.44
   1  -3  -3   10.15    0.68
   2  -3  -3   20.11    0.92
   3  -3  -3    1.54    0.40
   4  -3  -3  178.94    4.04
   5  -3  -3    6.95    0.95
   6  -3  -3   10.50    1.16
   7  -3  -3   21.99    1.68
   8  -3  -3   -0.56    0.71
   9  -3  -3    0.63    0.78
  10  -3  -3    0.93    0.99
  11  -3  -3   -1.06    1.01
  12  -3  -3    6.28    1.67
  13  -3  -3    6.73    1.71
 -14  -2  -3   10.09    2.23
 -13  -2  -3    1.36    1.42
 -12  -2  -3   72.18    4.24
 -11  -2  -3   11.92    2.00
 -10  -2  -3    0.83    0.99
  -9  -2  -3   20.37    2.29
  -8  -2  -3   23.51    2.31
  -7  -2  -3   16.15    1.84
  -6  -2  -3    0.12    0.65
  -5  -2  -3    2.27    0.41
  -4  -2  -3   31.18    1.39
  -3  -2  -3   35.18    1.35
  -2  -2  -3   14.57    0.81
  -1  -2  -3    4.88    0.40
   0  -2  -3   -0.24    0.20
   1  -2  -3    4.78    0.39
   2  -2  -3   14.06    0.64
   3  -2  -3   35.13    1.07
   4  -2  -3   30.46    1.10
   5  -2  -3    1.86    0.44
   6  -2  -3   -0.08    0.37
   7  -2  -3   16.69    1.05
   8  -2  -3   23.68    1.31
   9  -2  -3   19.31    1.33
  10  -2  -3   -0.19    0.61
  11  -2  -3   11.15    1.70
  12  -2  -3   59.44    3.19
  13  -2  -3    0.62    1.08
  14  -2  -3    9.64    1.72
 -14  -1  -3   18.25    2.65
 -13  -1  -3   21.66    2.64
 -12  -1  -3   10.63    1.90
 -11  -1  -3    0.76    0.93
 -10  -1  -3    1.44    0.64
  -9  -1  -3    1.72    0.80
  -8  -1  -3   -0.34    0.64
  -7  -1  -3   42.93    2.17
  -6  -1  -3   22.31    1.49
  -5  -1  -3   14.64    1.15
  -4  -1  -3  376.49   11.94
  -2  -1  -3   36.60    1.83
  -1  -1  -3   25.52    0.87
   0  -1  -3    8.51    0.37
   1  -1  -3   24.87    0.67
   2  -1  -3   41.55    1.05
   3  -1  -3    2.03    0.30
   4  -1  -3  371.76    7.35
   5  -1  -3   15.40    0.82
   6  -1  -3   26.28    1.19
   7  -1  -3   41.71    1.68
   8  -1  -3    0.73    0.55
   9  -1  -3    0.84    0.58
  10  -1  -3    0.11    0.58
  11  -1  -3    0.52    0.63
  12  -1  -3   10.49    1.11
  13  -1  -3   16.84    1.46
  14  -1  -3   13.98    1.88
  15  -1  -3    0.45    1.15
 -15   0  -3    1.21    1.31
 -14   0  -3   10.67    1.43
 -13   0  -3    2.10    1.25
 -12   0  -3   76.03    4.15
 -11   0  -3   15.56    1.91
 -10   0  -3   -0.27    0.81
  -9   0  -3   27.06    2.29
  -8   0  -3   33.51    2.23
  -7   0  -3   19.20    1.74
  -6   0  -3    0.26    0.52
  -5   0  -3    4.62    0.50
  -4   0  -3   53.64    1.70
  -3   0  -3   59.25    2.34
  -1   0  -3    6.90    0.93
   0   0  -3    0.13    0.48
   1   0  -3    7.45    0.51
   2   0  -3   20.59    0.85
   3   0  -3   58.20    1.52
   4   0  -3   55.84    1.26
   5   0  -3    3.74    0.35
   6   0  -3    0.08    0.35
   7   0  -3   23.97    1.22
   8   0  -3   32.33    1.45
   9   0  -3   29.14    1.49
  10   0  -3   -0.08    0.53
  11   0  -3   14.49    1.66
  12   0  -3   79.53    3.46
  13   0  -3   -0.28    0.94
  14   0  -3   14.30    1.87
  15   0  -3   -0.20    1.14
 -15   1  -3   -0.51    1.24
 -14   1  -3   10.41    2.13
 -13   1  -3   16.39    2.35
 -12   1  -3   11.82    1.95
 -11   1  -3   -0.69    0.86
 -10   1  -3   -0.59    0.85
  -9   1  -3    1.84    0.98
  -8   1  -3    1.08    0.94
  -7   1  -3   33.91    2.39
  -6   1  -3   22.68    1.91
  -5   1  -3   15.39    0.81
  -4   1  -3  373.27    8.78
  -3   1  -3    1.30    0.36
  -2   1  -3   41.14    1.37
  -1   1  -3   25.17    0.97
   0   1  -3    8.43    0.53
   1   1  -3   22.23    0.98
   2   1  -3   39.60    1.43
   3   1  -3    1.43    0.32
   4   1  -3  373.65    7.47
   5   1  -3   14.53    0.83
   6   1  -3   20.79    1.07
   7   1  -3   40.29    2.05
   8   1  -3   -0.06    0.73
   9   1  -3    0.15    0.74
  10   1  -3    1.21    0.85
  11   1  -3    2.13    0.95
  12   1  -3    5.71    1.27
  13   1  -3   15.90    1.82
  14   1  -3   11.88    1.75
  15   1  -3    2.68    1.51
 -14   2  -3   12.41    2.27
 -13   2  -3    1.22    1.26
 -12   2  -3   65.87    4.02
 -11   2  -3   15.75    2.20
 -10   2  -3   -0.83    0.90
  -9   2  -3   18.12    2.18
  -8   2  -3   21.64    2.23
  -7   2  -3   16.31    1.89
  -6   2  -3    0.22    0.42
  -5   2  -3    2.93    0.58
  -4   2  -3   31.68    1.41
  -3   2  -3   34.98    1.41
  -2   2  -3   14.59    0.91
  -1   2  -3    4.51    0.55
   0   2  -3   -0.15    0.29
   1   2  -3    5.30    0.38
   2   2  -3   12.70    0.92
   3   2  -3   36.19    1.53
   4   2  -3   34.88    1.55
   5   2  -3    1.77    0.48
   6   2  -3    0.48    0.43
   7   2  -3   15.68    1.10
   8   2  -3   24.49    1.40
   9   2  -3   20.55    1.81
  10   2  -3    0.31    0.85
  11   2  -3   14.13    1.72
  12   2  -3   56.21    3.11
  13   2  -3    0.01    1.04
  14   2  -3   11.28    1.77
 -13   3  -3    9.37    2.16
 -12   3  -3    8.30    1.88
 -11   3  -3    0.27    1.28
 -10   3  -3    1.44    1.20
  -9   3  -3   -0.06    0.99
  -8   3  -3   -0.80    0.84
  -7   3  -3   24.54    2.39
  -6   3  -3   12.17    1.67
  -5   3  -3    7.90    0.94
  -4   3  -3  193.69    5.08
  -3   3  -3    0.57    0.55
  -2   3  -3   17.07    1.22
  -1   3  -3    8.39    0.83
   0   3  -3    2.99    0.54
   1   3  -3   11.27    1.58
   2   3  -3   17.02    1.31
   3   3  -3    0.39    0.59
   4   3  -3  190.26    5.34
   5   3  -3    8.27    1.06
   6   3  -3   11.04    1.18
   7   3  -3   22.79    1.71
   8   3  -3    0.32    0.70
   9   3  -3    1.57    1.32
  10   3  -3   -0.08    1.30
  11   3  -3    1.35    1.07
  12   3  -3    6.00    1.49
  13   3  -3    8.47    1.70
 -11   4  -3    2.96    1.61
 -10   4  -3    1.39    1.15
  -9   4  -3    8.53    1.75
  -8   4  -3   12.28    1.96
  -7   4  -3    4.72    1.40
  -6   4  -3   -0.66    0.94
  -5   4  -3   -0.58    0.68
  -4   4  -3   13.43    1.25
  -3   4  -3   16.25    1.31
  -2   4  -3    2.17    1.16
  -1   4  -3    1.80    1.12
   0   4  -3   -1.82    0.89
   1   4  -3    1.41    1.12
   2   4  -3    5.01    1.40
   3   4  -3   17.95    1.53
   4   4  -3   12.48    1.38
   5   4  -3   -0.44    0.73
   6   4  -3   -0.43    0.77
   7   4  -3    7.46    1.26
   8   4  -3    9.72    1.42
   9   4  -3    9.08    2.21
  10   4  -3   -0.62    1.48
  11   4  -3    2.80    2.07
  -9   5  -3    0.83    1.43
  -4   5  -3   77.48    4.70
  -3   5  -3    0.79    1.40
  -2   5  -3    4.03    1.77
  -1   5  -3    2.36    1.49
   0   5  -3    1.98    1.51
   1   5  -3    2.74    1.48
   2   5  -3    5.93    1.86
   3   5  -3    0.36    1.26
   4   5  -3   67.32    4.66
   5   5  -3    3.18    1.67
   6   5  -3    5.99    1.38
   7   5  -3   11.04    1.63
   8   5  -3    0.92    1.12
   9   5  -3    1.72    1.85
  -3   6  -3    3.73    1.82
  -2   6  -3    4.74    2.17
  -1   6  -3    0.46    1.76
   0   6  -3   -1.48    1.52
   1   6  -3    2.82    1.90
   2   6  -3    3.31    1.90
  -3  -6  -2    0.32    1.57
  -2  -6  -2   -0.08    0.96
  -1  -6  -2    2.11    1.16
   0  -6  -2   10.74    2.20
   1  -6  -2    4.73    1.21
   2  -6  -2    0.77    1.06
   3  -6  -2   -2.03    1.56
   4  -6  -2   -1.49    1.80
  -8  -5  -2    8.02    1.42
  -7  -5  -2    0.09    0.87
  -6  -5  -2    1.59    0.95
  -5  -5  -2    9.12    1.35
  -4  -5  -2    1.62    0.91
  -3  -5  -2    1.32    0.84
  -2  -5  -2   30.22    2.11
  -1  -5  -2    0.82    0.79
   0  -5  -2   -0.48    0.66
   1  -5  -2    1.94    0.85
   2  -5  -2   29.28    2.05
   3  -5  -2    0.39    0.81
   4  -5  -2    1.75    0.94
   5  -5  -2   10.29    1.45
   6  -5  -2    1.59    1.04
   7  -5  -2   -0.68    0.92
   8  -5  -2    5.41    1.37
   9  -5  -2   12.03    2.73
 -11  -4  -2    5.96    1.43
 -10  -4  -2    2.23    1.10
  -9  -4  -2   -1.40    0.70
  -8  -4  -2    1.25    0.81
  -7  -4  -2    1.78    0.79
  -6  -4  -2    5.43    0.94
  -5  -4  -2   24.90    1.73
  -4  -4  -2    1.73    0.57
  -3  -4  -2    1.38    0.51
  -2  -4  -2    1.37    0.50
  -1  -4  -2    6.50    0.72
   0  -4  -2   20.72    1.10
   1  -4  -2    6.38    0.91
   2  -4  -2    3.13    0.78
   3  -4  -2    0.85    0.65
   4  -4  -2    1.12    0.67
   5  -4  -2   25.41    1.85
   6  -4  -2    5.95    1.04
   7  -4  -2    1.79    0.89
   8  -4  -2    0.60    0.88
   9  -4  -2    0.35    0.93
  10  -4  -2    1.38    1.15
  11  -4  -2    3.36    1.40
  12  -4  -2    3.14    1.97
 -13  -3  -2   -2.11    0.93
 -12  -3  -2    3.22    1.25
 -11  -3  -2   12.88    1.64
 -10  -3  -2   20.10    1.83
  -9  -3  -2   21.92    1.79
  -8  -3  -2   18.75    1.50
  -7  -3  -2    0.62    0.63
  -6  -3  -2    2.79    0.69
  -5  -3  -2   24.44    1.47
  -4  -3  -2    4.11    0.69
  -3  -3  -2    1.68    0.52
  -2  -3  -2   87.91    2.24
  -1  -3  -2    2.31    0.43
   0  -3  -2    0.12    0.32
   1  -3  -2    2.65    0.43
   2  -3  -2   93.39    2.21
   3  -3  -2    1.82    0.43
   4  -3  -2    2.71    0.51
   5  -3  -2   27.19    1.18
   6  -3  -2    3.59    0.59
   7  -3  -2   -0.02    0.65
   8  -3  -2   19.53    1.66
   9  -3  -2   21.87    1.85
  10  -3  -2   19.19    1.95
  11  -3  -2    6.34    1.46
  12  -3  -2    0.05    1.27
  13  -3  -2    0.40    1.28
 -14  -2  -2    5.08    1.76
 -13  -2  -2    2.55    1.39
 -12  -2  -2    1.91    1.31
 -11  -2  -2    9.70    1.85
 -10  -2  -2    3.06    1.19
  -9  -2  -2    1.34    0.94
  -8  -2  -2    3.22    1.07
  -7  -2  -2    5.35    1.22
  -6  -2  -2    8.81    1.34
  -5  -2  -2   62.92    1.86
  -4  -2  -2    3.78    0.58
  -3  -2  -2    3.95    0.54
  -2  -2  -2    5.12    0.55
  -1  -2  -2   14.89    0.66
   0  -2  -2   42.44    1.14
   1  -2  -2   16.65    0.65
   2  -2  -2    5.35    0.43
   3  -2  -2    4.12    0.42
   4  -2  -2    3.27    0.43
   5  -2  -2   66.70    1.81
   6  -2  -2    8.89    0.76
   7  -2  -2    4.02    0.64
   8  -2  -2    2.04    0.58
   9  -2  -2    0.87    0.56
  10  -2  -2    2.57    0.77
  11  -2  -2    7.88    1.08
  12  -2  -2    0.16    0.70
  13  -2  -2    1.98    1.14
  14  -2  -2    6.72    1.59
 -14  -1  -2    1.02    1.25
 -13  -1  -2   -0.33    1.04
 -12  -1  -2   -0.60    0.88
 -11  -1  -2   16.34    2.14
 -10  -1  -2   37.67    1.83
  -9  -1  -2   37.50    1.74
  -8  -1  -2   31.99    1.50
  -7  -1  -2    0.86    0.60
  -6  -1  -2    4.58    0.76
  -5  -1  -2   51.45    2.23
  -4  -1  -2    8.93    0.62
  -3  -1  -2    2.78    0.61
  -2  -1  -2  195.56    6.85
  -1  -1  -2    6.30    0.44
   0  -1  -2   -0.20    0.16
   1  -1  -2    6.73    0.35
   2  -1  -2  206.49    4.01
   3  -1  -2    2.45    0.33
   4  -1  -2    8.10    0.57
   5  -1  -2   53.82    1.57
   6  -1  -2    6.07    0.67
   7  -1  -2   -0.01    0.43
   8  -1  -2   31.94    1.58
   9  -1  -2   38.28    1.77
  10  -1  -2   37.68    1.80
  11  -1  -2   17.28    1.37
  12  -1  -2    1.04    0.69
  13  -1  -2    1.36    0.74
  14  -1  -2    0.01    0.75
  15  -1  -2    6.51    1.55
 -15   0  -2    6.50    1.88
 -14   0  -2    8.78    1.94
 -13   0  -2    2.49    1.19
 -12   0  -2    1.58    1.12
 -11   0  -2   10.22    1.64
 -10   0  -2    6.28    1.31
  -9   0  -2    1.34    0.88
  -8   0  -2    0.69    0.74
  -7   0  -2    6.43    1.08
  -6   0  -2   16.52    1.43
  -5   0  -2  109.65    4.10
  -4   0  -2    6.70    0.82
  -3   0  -2    8.82    0.84
  -2   0  -2    8.82    0.69
   0   0  -2   75.13    2.84
   1   0  -2   27.14    0.75
   2   0  -2    8.32    0.39
   3   0  -2    8.50    0.45
   4   0  -2    7.10    0.59
   5   0  -2  108.80    2.66
   6   0  -2   15.63    0.97
   7   0  -2    7.58    0.77
   8   0  -2    0.15    0.48
   9   0  -2    1.25    0.56
  10   0  -2    3.02    0.69
  11   0  -2   11.23    1.13
  12   0  -2    1.21    0.89
  13   0  -2    0.99    0.99
  14   0  -2    9.40    1.60
  15   0  -2   10.40    1.72
 -15   1  -2    8.87    1.92
 -14   1  -2   -0.59    1.19
 -13   1  -2    0.45    1.19
 -12   1  -2    2.50    1.26
 -11   1  -2   17.39    2.14
 -10   1  -2   34.73    2.65
  -9   1  -2   39.35    2.71
  -8   1  -2   26.75    2.39
  -7   1  -2    1.05    0.78
  -6   1  -2    5.91    1.02
  -5   1  -2   52.82    2.63
  -4   1  -2    8.43    0.59
  -3   1  -2    2.56    0.41
  -2   1  -2  203.77    4.90
  -1   1  -2    7.50    0.52
   0   1  -2   -0.08    0.20
   1   1  -2    7.56    0.55
   2   1  -2  205.03    4.12
   3   1  -2    2.24    0.38
   4   1  -2    9.06    0.61
   5   1  -2   54.26    1.57
   6   1  -2    6.16    0.61
   7   1  -2    0.35    0.40
   8   1  -2   30.63    2.11
   9   1  -2   43.53    2.37
  10   1  -2   40.62    2.47
  11   1  -2   17.57    1.82
  12   1  -2    1.55    0.86
  13   1  -2    0.72    0.91
  14   1  -2    0.13    0.95
  15   1  -2   13.51    2.55
 -14   2  -2   10.97    2.17
 -13   2  -2    2.35    1.40
 -12   2  -2    1.21    1.16
 -11   2  -2    8.83    1.81
 -10   2  -2    4.81    1.38
  -9   2  -2    0.48    0.96
  -8   2  -2    1.94    1.01
  -7   2  -2    5.04    1.25
  -6   2  -2    9.85    0.88
  -5   2  -2   64.90    2.13
  -4   2  -2    2.87    0.58
  -3   2  -2    4.24    0.60
  -2   2  -2    5.88    0.62
  -1   2  -2   16.28    0.89
   0   2  -2   46.08    1.44
   1   2  -2   15.62    0.96
   2   2  -2    3.85    0.57
   3   2  -2    3.46    0.60
   4   2  -2    1.83    0.57
   5   2  -2   60.99    1.88
   6   2  -2    9.94    0.85
   7   2  -2    4.87    0.69
   8   2  -2    0.09    0.50
   9   2  -2    0.53    0.75
  10   2  -2    3.63    1.10
  11   2  -2    8.88    1.49
  12   2  -2    1.34    1.02
  13   2  -2    0.57    1.05
  14   2  -2    5.76    1.42
 -13   3  -2   -0.72    1.26
 -12   3  -2    0.23    1.29
 -11   3  -2   11.17    2.05
 -10   3  -2   20.69    2.51
  -9   3  -2   18.47    2.34
  -8   3  -2   18.58    2.21
  -7   3  -2    0.90    0.93
  -6   3  -2    2.41    1.06
  -5   3  -2   27.32    1.50
  -3   3  -2    1.07    0.59
  -2   3  -2   83.64    2.76
  -1   3  -2    2.88    0.60
   0   3  -2    0.41    0.41
   1   3  -2    1.93    1.01
   2   3  -2   82.64    2.97
   3   3  -2   -0.18    0.56
   4   3  -2    3.12    1.17
   5   3  -2   20.95    1.59
   6   3  -2    2.27    0.75
   7   3  -2    0.12    0.67
   8   3  -2   14.53    1.47
   9   3  -2   25.16    2.95
  10   3  -2   17.35    1.85
  11   3  -2    5.81    1.37
  12   3  -2   -0.26    1.03
  13   3  -2    1.03    1.24
 -11   4  -2    5.59    1.82
 -10   4  -2    2.64    1.35
  -9   4  -2    0.08    1.15
  -8   4  -2    0.83    1.10
  -7   4  -2    3.02    1.25
  -6   4  -2    2.93    1.20
  -5   4  -2   28.41    1.82
  -4   4  -2   -0.09    0.67
  -3   4  -2    1.94    0.72
  -2   4  -2    3.62    1.30
  -1   4  -2    8.13    1.67
   0   4  -2   15.86    2.33
   1   4  -2    6.41    1.55
   2   4  -2    2.96    1.28
   3   4  -2    2.37    0.81
   4   4  -2    1.24    0.82
   5   4  -2   28.70    2.06
   6   4  -2    4.94    1.06
   7   4  -2    2.23    0.94
   8   4  -2    0.65    0.85
   9   4  -2    3.15    1.66
  10   4  -2    2.94    1.83
  11   4  -2    4.17    2.12
  -9   5  -2    7.60    1.90
  -4   5  -2    2.66    1.53
  -3   5  -2    0.95    1.28
  -2   5  -2   27.71    3.38
  -1   5  -2    3.85    1.52
   0   5  -2   -0.92    1.13
   1   5  -2    0.86    1.24
   2   5  -2   31.72    3.49
   3   5  -2    0.85    1.35
   4   5  -2    4.27    1.70
   5   5  -2    7.67    2.09
   6   5  -2    0.59    1.05
   7   5  -2    1.52    1.16
   8   5  -2    6.70    1.46
  -3   6  -2    1.27    1.61
  -2   6  -2   -1.01    1.57
  -1   6  -2    3.86    2.04
   0   6  -2    6.10    2.20
   1   6  -2    1.69    1.73
   2   6  -2   -0.79    1.56
  -3  -6  -1    0.24    1.57
  -2  -6  -1    0.30    1.02
  -1  -6  -1    1.33    1.08
   0  -6  -1    7.95    1.93
   1  -6  -1   -0.63    0.96
   2  -6  -1   -1.23    0.94
   3  -6  -1   -0.19    1.68
  -9  -5  -1    1.10    1.45
  -8  -5  -1   12.72    1.57
  -7  -5  -1    1.16    0.77
  -6  -5  -1    0.29    0.84
  -5  -5  -1    4.59    1.08
  -4  -5  -1   -0.27    0.76
  -3  -5  -1    4.02    1.01
  -2  -5  -1   45.77    2.37
  -1  -5  -1    3.87    1.00
   0  -5  -1    1.82    0.87
   1  -5  -1    2.55    0.90
   2  -5  -1   44.87    2.36
   3  -5  -1    3.69    1.05
   4  -5  -1    0.32    0.83
   5  -5  -1    5.83    1.22
   6  -5  -1    0.57    0.94
   7  -5  -1    0.13    0.95
   8  -5  -1   10.31    1.59
 -11  -4  -1    2.20    1.11
 -10  -4  -1    0.67    0.93
  -9  -4  -1    5.15    1.11
  -8  -4  -1   19.42    1.75
  -7  -4  -1    2.22    0.76
  -6  -4  -1   58.12    2.45
  -5  -4  -1    6.20    0.96
  -4  -4  -1   11.00    0.94
  -3  -4  -1    2.79    0.58
  -2  -4  -1    1.41    0.49
  -1  -4  -1    0.64    0.46
   1  -4  -1    1.25    0.48
   2  -4  -1    0.86    0.65
   3  -4  -1    3.31    0.79
   4  -4  -1   10.97    1.22
   5  -4  -1    5.25    1.00
   6  -4  -1   56.61    2.59
   7  -4  -1    1.57    0.88
   8  -4  -1   23.54    1.96
   9  -4  -1    5.00    1.22
  10  -4  -1    1.12    1.04
  11  -4  -1    6.68    1.53
  12  -4  -1   -0.21    1.83
 -13  -3  -1    3.60    1.35
 -12  -3  -1    1.04    1.02
 -11  -3  -1   -0.75    0.81
 -10  -3  -1   19.10    1.82
  -9  -3  -1    3.26    0.89
  -8  -3  -1   24.01    1.79
  -7  -3  -1    2.42    0.70
  -6  -3  -1   -0.53    0.46
  -5  -3  -1   17.39    1.30
  -4  -3  -1    0.10    0.46
  -3  -3  -1   19.82    1.17
  -2  -3  -1  131.48    3.08
  -1  -3  -1    9.31    0.68
   0  -3  -1    2.22    0.42
   1  -3  -1    9.08    0.67
   2  -3  -1  131.41    3.03
   3  -3  -1   16.47    0.91
   4  -3  -1    1.81    0.45
   5  -3  -1   16.26    0.99
   6  -3  -1    0.39    0.43
   7  -3  -1    2.72    0.60
   8  -3  -1   28.61    1.45
   9  -3  -1    3.87    1.02
  10  -3  -1   22.09    2.08
  11  -3  -1   -0.17    1.00
  12  -3  -1    0.49    1.22
  13  -3  -1    1.75    1.43
 -14  -2  -1   34.41    3.53
 -13  -2  -1    3.90    1.54
 -12  -2  -1   -1.18    1.02
 -11  -2  -1    6.53    1.65
 -10  -2  -1    0.06    0.96
  -9  -2  -1   13.56    1.91
  -8  -2  -1   41.03    2.77
  -7  -2  -1    5.19    1.21
  -6  -2  -1  125.05    5.26
  -5  -2  -1   14.29    1.48
  -4  -2  -1   24.90    1.21
  -3  -2  -1    8.97    0.74
  -2  -2  -1    1.10    0.35
  -1  -2  -1    2.62    0.33
   1  -2  -1    2.89    0.33
   2  -2  -1    1.32    0.30
   3  -2  -1    8.89    0.57
   4  -2  -1   26.87    1.00
   5  -2  -1   14.75    0.87
   6  -2  -1  128.52    3.08
   7  -2  -1    5.96    0.71
   8  -2  -1   41.28    1.65
   9  -2  -1   10.16    1.02
  10  -2  -1    0.68    0.60
  11  -2  -1    6.97    1.08
  12  -2  -1    0.09    0.65
  13  -2  -1    0.89    1.14
  14  -2  -1   41.43    3.06
 -15  -1  -1    3.85    1.64
 -14  -1  -1    2.91    1.46
 -13  -1  -1    7.25    1.74
 -12  -1  -1    3.23    1.30
 -11  -1  -1   -0.12    0.81
 -10  -1  -1   36.79    1.76
  -9  -1  -1    7.03    0.89
  -8  -1  -1   54.58    2.01
  -7  -1  -1    5.60    0.68
  -6  -1  -1    0.51    0.38
  -5  -1  -1   35.09    1.29
  -4  -1  -1    0.38    0.27
  -3  -1  -1   36.06    1.16
  -2  -1  -1  304.99   10.27
  -1  -1  -1   17.18    0.71
   0  -1  -1    6.14    0.33
   1  -1  -1   18.62    0.57
   2  -1  -1  317.85    6.02
   3  -1  -1   40.87    1.09
   4  -1  -1    0.77    0.30
   5  -1  -1   36.10    1.23
   6  -1  -1    0.77    0.42
   7  -1  -1    3.52    0.64
   8  -1  -1   53.22    1.97
   9  -1  -1    7.42    0.90
  10  -1  -1   35.99    1.79
  11  -1  -1    0.70    0.61
  12  -1  -1    0.24    0.64
  13  -1  -1    5.32    0.93
  14  -1  -1    2.50    0.85
  15  -1  -1    2.28    0.89
 -15   0  -1    2.80    1.55
 -14   0  -1   40.93    3.35
 -13   0  -1    2.69    0.92
 -12   0  -1   -0.08    0.89
 -11   0  -1    9.24    1.61
 -10   0  -1   -1.05    0.70
  -9   0  -1   12.79    1.63
  -8   0  -1   63.75    3.20
  -7   0  -1    9.07    1.20
  -6   0  -1  201.61    7.22
  -5   0  -1   24.87    1.58
  -4   0  -1   44.06    2.04
  -3   0  -1   18.09    1.17
  -2   0  -1    2.47    0.43
   1   0  -1    5.58    0.27
   2   0  -1    2.78    0.34
   3   0  -1   18.97    0.84
   4   0  -1   48.60    1.44
   5   0  -1   27.18    1.10
   6   0  -1  206.14    4.57
   7   0  -1    8.54    0.80
   8   0  -1   67.12    2.14
   9   0  -1   15.20    1.15
  10   0  -1   -0.23    0.51
  11   0  -1   11.05    1.13
  12   0  -1   -0.16    0.56
  13   0  -1    2.17    1.02
  14   0  -1   53.06    3.13
  15   0  -1    3.63    1.40
 -15   1  -1    2.42    1.48
 -14   1  -1    1.58    1.28
 -13   1  -1    1.27    1.32
 -12   1  -1    1.52    1.13
 -11   1  -1    1.06    1.03
 -10   1  -1   27.53    2.65
  -9   1  -1    7.01    1.39
  -8   1  -1   50.54    3.04
  -7   1  -1    7.27    1.20
  -6   1  -1    0.04    0.59
  -5   1  -1   33.57    2.07
  -4   1  -1    0.45    0.28
  -3   1  -1   39.02    1.28
  -2   1  -1  314.61    7.31
  -1   1  -1   17.76    0.80
   0   1  -1    5.85    0.34
   1   1  -1   17.14    0.82
   2   1  -1  304.91    6.13
   3   1  -1   39.11    1.12
   4   1  -1    0.94    0.33
   5   1  -1   32.63    1.18
   6   1  -1    0.02    0.31
   7   1  -1    5.54    0.60
   8   1  -1   55.39    2.57
   9   1  -1    6.89    1.18
  10   1  -1   40.48    2.59
  11   1  -1   -0.26    0.81
  12   1  -1    0.15    0.84
  13   1  -1    5.25    1.30
  14   1  -1    1.92    1.09
  15   1  -1    3.73    1.29
 -14   2  -1   36.63    3.63
 -13   2  -1    2.40    1.41
 -12   2  -1   -1.02    1.11
 -11   2  -1   10.63    1.90
 -10   2  -1    0.51    0.95
  -9   2  -1   10.68    1.72
  -8   2  -1   42.15    2.81
  -7   2  -1    3.50    1.18
  -6   2  -1  128.29    3.59
  -5   2  -1   14.80    1.02
  -4   2  -1   25.05    1.24
  -3   2  -1    8.44    0.77
  -2   2  -1    1.07    0.42
  -1   2  -1    2.87    0.48
   0   2  -1   -1.62    0.32
   1   2  -1    3.47    0.53
   2   2  -1    1.02    0.44
   3   2  -1    9.52    0.84
   4   2  -1   24.66    1.34
   5   2  -1   13.90    0.91
   6   2  -1  126.00    3.17
   7   2  -1    5.31    0.68
   8   2  -1   43.94    1.69
   9   2  -1   10.23    1.38
  10   2  -1    0.13    0.80
  11   2  -1    9.83    1.48
  12   2  -1    0.23    0.94
  13   2  -1    0.74    1.02
  14   2  -1   35.32    2.77
 -13   3  -1    2.72    1.62
 -12   3  -1   -0.29    1.28
 -11   3  -1    0.36    1.13
 -10   3  -1   21.00    2.50
  -9   3  -1    2.01    1.20
  -8   3  -1   25.35    2.59
  -7   3  -1    1.74    1.06
  -6   3  -1   -1.35    0.73
  -5   3  -1   17.49    1.31
  -4   3  -1   -0.57    0.54
  -3   3  -1   14.91    1.17
  -2   3  -1  133.97    3.80
  -1   3  -1    8.16    0.80
   0   3  -1    2.62    0.49
   1   3  -1    8.77    1.45
   2   3  -1  132.97    4.03
   3   3  -1   17.47    1.35
   4   3  -1    0.57    0.63
   5   3  -1   15.40    1.37
   6   3  -1   -0.03    0.58
   7   3  -1    2.38    0.79
   8   3  -1   29.72    2.01
   9   3  -1    1.96    1.27
  10   3  -1   17.42    1.84
  11   3  -1   -1.57    0.91
  12   3  -1    1.23    1.17
  13   3  -1    4.56    1.51
 -11   4  -1    1.58    1.47
 -10   4  -1    1.00    1.23
  -9   4  -1    2.51    1.38
  -8   4  -1   22.89    2.56
  -7   4  -1    2.86    1.18
  -6   4  -1   53.81    3.30
  -5   4  -1    6.15    1.04
  -4   4  -1   10.72    1.18
  -3   4  -1    1.92    0.74
  -2   4  -1   -0.08    1.00
  -1   4  -1    0.60    1.05
   0   4  -1   -2.35    1.16
   1   4  -1    1.39    1.18
   2   4  -1    1.79    1.24
   3   4  -1    3.99    0.93
   4   4  -1   12.03    1.37
   5   4  -1    6.64    1.17
   6   4  -1   54.01    2.68
   7   4  -1    1.62    0.89
   8   4  -1   22.01    1.92
   9   4  -1    2.96    1.67
  10   4  -1    1.18    1.43
  11   4  -1    2.73    1.91
  -9   5  -1    0.30    1.29
  -4   5  -1    0.56    1.36
  -3   5  -1    6.17    1.84
  -2   5  -1   48.20    3.84
  -1   5  -1    4.59    1.54
   0   5  -1   -0.48    1.19
   1   5  -1    1.24    1.32
   2   5  -1   49.25    3.86
   3   5  -1    5.53    1.72
   4   5  -1    1.21    1.37
   5   5  -1    4.29    1.71
   6   5  -1    1.21    1.07
   7   5  -1    1.75    1.14
   8   5  -1   12.08    1.75
  -3   6  -1    1.83    1.67
  -2   6  -1    2.23    1.90
  -1   6  -1   -0.67    1.65
   0   6  -1    0.98    1.74
   1   6  -1   -1.44    1.41
   2   6  -1   -0.47    1.59
  -4  -6   0    0.85    1.76
  -3  -6   0    0.62    1.65
  -2  -6   0    1.65    1.08
  -1  -6   0    0.35    1.02
   0  -6   0  139.04    5.01
   1  -6   0    0.06    0.98
   2  -6   0   -1.13    0.87
  -9  -5   0   -0.10    1.26
  -8  -5   0   15.45    1.67
  -7  -5   0   -0.41    0.68
  -6  -5   0    2.31    0.79
  -5  -5   0   -0.33    0.61
  -4  -5   0   14.05    1.53
  -3  -5   0    1.93    0.87
  -2  -5   0   10.60    1.30
  -1  -5   0    0.70    0.70
   0  -5   0   -1.22    0.65
   1  -5   0    0.17    0.72
   2  -5   0    9.52    1.29
   3  -5   0    0.68    0.80
   4  -5   0   16.40    1.63
   5  -5   0    1.03    0.93
   6  -5   0    2.82    1.15
   7  -5   0   -0.34    0.93
   8  -5   0   13.46    2.39
 -11  -4   0    2.07    1.04
 -10  -4   0   10.29    1.47
  -9  -4   0    0.67    0.82
  -8  -4   0   29.72    2.09
  -7  -4   0    0.88    0.72
  -6  -4   0   19.38    1.57
  -5  -4   0    0.45    0.59
  -4  -4   0    0.66    0.52
  -3  -4   0    0.76    0.47
  -2  -4   0    2.51    0.57
  -1  -4   0   -0.76    0.41
   0  -4   0  379.56    7.91
   1  -4   0   -0.30    0.40
   2  -4   0    1.67    0.51
   3  -4   0    0.21    0.45
   4  -4   0    1.27    0.69
   5  -4   0    1.28    0.74
   6  -4   0   19.56    1.68
   7  -4   0   -0.77    0.65
   8  -4   0   26.46    2.09
   9  -4   0    1.88    1.04
  10  -4   0   10.58    1.60
  11  -4   0   -0.32    1.12
 -13  -3   0    0.33    1.03
 -12  -3   0    2.37    1.05
 -11  -3   0   -0.25    0.85
 -10  -3   0   34.92    2.37
  -9  -3   0   -0.25    0.64
  -8  -3   0   28.63    1.95
  -7  -3   0    0.60    0.59
  -6  -3   0    7.48    0.96
  -5  -3   0    0.17    0.47
  -4  -3   0   29.04    1.56
  -3  -3   0    0.38    0.45
  -2  -3   0   22.62    1.03
  -1  -3   0    0.28    0.32
   0  -3   0    0.15    0.33
   1  -3   0   -0.05    0.32
   2  -3   0   25.09    1.02
   3  -3   0    0.54    0.38
   4  -3   0   37.30    1.32
   5  -3   0    1.00    0.44
   6  -3   0    9.84    0.84
   7  -3   0   -0.20    0.41
   8  -3   0   33.42    1.59
   9  -3   0    0.49    0.53
  10  -3   0   36.66    2.60
  11  -3   0    0.62    1.04
  12  -3   0    4.24    1.42
  13  -3   0    3.46    1.47
 -14  -2   0   10.70    2.19
 -13  -2   0    1.63    1.29
 -12  -2   0    0.55    1.10
 -11  -2   0   -0.59    0.86
 -10  -2   0   24.25    2.56
  -9  -2   0    0.11    0.84
  -8  -2   0   61.81    3.38
  -7  -2   0    0.21    0.74
  -6  -2   0   38.41    2.41
  -5  -2   0   -0.66    0.33
  -4  -2   0    1.72    0.48
  -3  -2   0   -0.36    0.28
  -2  -2   0    3.39    0.47
  -1  -2   0   -0.09    0.26
   0  -2   0  928.82   17.58
   1  -2   0   -0.10    0.22
   2  -2   0    3.97    0.40
   3  -2   0    0.02    0.25
   4  -2   0    2.71    0.41
   5  -2   0    0.31    0.37
   6  -2   0   44.59    1.50
   7  -2   0    0.20    0.47
   8  -2   0   63.26    2.07
   9  -2   0   -0.86    0.47
  10  -2   0   27.68    1.68
  11  -2   0    0.38    0.61
  12  -2   0    0.50    0.72
  13  -2   0   -0.71    0.72
  14  -2   0    8.39    1.60
 -15  -1   0    1.38    1.41
 -14  -1   0    0.52    1.19
 -13  -1   0    0.01    1.00
 -12  -1   0    8.31    1.70
 -11  -1   0   -0.52    0.79
 -10  -1   0   71.02    2.55
  -9  -1   0   -0.05    0.51
  -8  -1   0   62.41    2.16
  -7  -1   0    0.33    0.42
  -6  -1   0   18.67    1.08
  -5  -1   0    0.12    0.31
  -4  -1   0   76.82    2.13
  -3  -1   0    0.11    0.23
  -2  -1   0   35.79    1.68
  -1  -1   0    0.09    0.23
   0  -1   0   -1.06    0.18
   1  -1   0    0.22    0.19
   2  -1   0   39.16    0.98
   3  -1   0    0.13    0.25
   4  -1   0   78.55    1.92
   5  -1   0    0.22    0.33
   6  -1   0   21.37    1.13
   7  -1   0    0.80    0.47
   8  -1   0   57.37    2.08
   9  -1   0   -0.80    0.51
  10  -1   0   70.70    2.43
  11  -1   0    0.24    0.59
  12  -1   0    7.14    1.02
  13  -1   0    0.27    0.68
  14  -1   0   -0.57    0.71
  15  -1   0   -0.40    0.77
 -15   0   0   -0.79    1.15
 -14   0   0   11.80    2.03
 -13   0   0    0.21    0.72
 -12   0   0   -0.52    0.63
 -11   0   0   -0.60    0.83
 -10   0   0   32.23    2.41
  -9   0   0   -0.14    0.76
  -8   0   0   88.11    4.03
  -7   0   0   -0.36    0.58
  -6   0   0   65.93    2.93
  -5   0   0    0.08    0.46
  -4   0   0    4.21    0.68
  -3   0   0   -0.40    0.42
  -2   0   0    7.96    0.63
  -1   0   0    0.03    0.14
   1   0   0    0.17    0.11
   2   0   0    7.41    0.47
   3   0   0    0.06    0.32
   4   0   0    4.22    0.50
   5   0   0    0.02    0.35
   6   0   0   64.88    1.93
   7   0   0   -0.29    0.41
   8   0   0   94.62    2.67
   9   0   0    0.46    0.53
  10   0   0   34.60    1.72
  11   0   0    0.97    0.62
  12   0   0    0.20    0.58
  13   0   0    0.92    0.68
  14   0   0    9.48    1.60
  15   0   0    0.28    1.08
 -15   1   0    1.25    0.92
 -14   1   0    0.55    1.23
 -13   1   0    1.16    1.15
 -12   1   0    6.08    1.52
 -11   1   0   -0.35    0.92
 -10   1   0   64.79    3.76
  -9   1   0    0.14    0.81
  -8   1   0   50.86    3.16
  -7   1   0   -0.31    0.68
  -6   1   0   18.38    1.72
  -5   1   0    0.31    0.62
  -4   1   0   76.09    2.15
  -3   1   0   -0.13    0.27
  -2   1   0   36.07    1.21
  -1   1   0   -0.40    0.30
   0   1   0   -1.27    0.21
   1   1   0    0.25    0.31
   2   1   0   36.07    1.05
   3   1   0   -0.15    0.25
   4   1   0   82.10    1.94
   5   1   0   -0.15    0.28
   6   1   0   19.36    0.96
   7   1   0   -0.21    0.34
   8   1   0   67.16    2.85
   9   1   0   -0.17    0.71
  10   1   0   67.33    3.04
  11   1   0    0.67    0.79
  12   1   0    8.86    1.36
  13   1   0   -0.75    0.86
  14   1   0   -0.78    0.78
  15   1   0   -1.23    0.89
 -14   2   0    6.82    1.84
 -13   2   0   -0.32    1.23
 -12   2   0    0.35    1.15
 -11   2   0    3.13    1.26
 -10   2   0   20.62    2.39
  -9   2   0   -0.41    0.87
  -8   2   0   60.18    3.43
  -7   2   0   -0.33    0.76
  -6   2   0   39.79    1.63
  -5   2   0   -0.17    0.40
  -4   2   0    1.59    0.51
  -3   2   0   -0.72    0.34
  -2   2   0    3.61    0.51
  -1   2   0    0.49    0.35
   0   2   0  952.46   21.31
   1   2   0    0.17    0.20
   2   2   0    3.54    0.56
   3   2   0   -0.51    0.36
   4   2   0    1.16    0.51
   5   2   0    0.05    0.37
   6   2   0   39.82    1.54
   7   2   0   -0.17    0.42
   8   2   0   59.19    2.03
   9   2   0   -0.40    0.64
  10   2   0   22.00    1.98
  11   2   0   -1.43    0.72
  12   2   0    2.18    1.01
  13   2   0   -1.78    0.85
  14   2   0    6.72    1.46
 -13   3   0   -0.95    1.18
 -12   3   0    3.60    1.69
 -11   3   0   -0.11    1.15
 -10   3   0   38.74    3.33
  -9   3   0   -1.46    0.84
  -8   3   0   32.45    2.87
  -7   3   0   -0.98    0.78
  -6   3   0    8.02    1.41
  -5   3   0   -0.09    0.53
  -4   3   0   36.75    1.69
  -3   3   0   -0.12    0.53
  -2   3   0   20.92    1.37
  -1   3   0    0.29    0.44
   0   3   0    0.05    0.38
   1   3   0   -0.52    0.77
   2   3   0   16.41    2.23
   3   3   0   -0.14    0.57
   4   3   0   38.42    1.89
   5   3   0   -1.10    0.54
   6   3   0    8.35    1.08
   7   3   0   -0.35    0.62
   8   3   0   29.05    2.01
   9   3   0    0.54    1.19
  10   3   0   35.48    2.57
  11   3   0   -0.13    0.96
  12   3   0    1.06    1.21
  13   3   0    0.74    1.24
 -11   4   0    0.68    1.37
 -10   4   0    6.31    1.73
  -9   4   0    0.19    1.15
  -8   4   0   27.83    2.71
  -7   4   0    0.24    0.91
  -6   4   0   17.58    2.09
  -5   4   0   -0.27    0.67
  -4   4   0    1.23    0.74
  -3   4   0   -0.59    0.55
  -2   4   0    2.70    1.22
  -1   4   0    1.16    1.01
   0   4   0  406.39   14.71
   1   4   0   -0.44    0.96
   2   4   0    0.01    1.07
   3   4   0    0.17    0.66
   4   4   0    1.05    0.77
   5   4   0   -0.39    0.73
   6   4   0   22.92    1.85
   7   4   0   -1.04    0.74
   8   4   0   29.15    2.20
   9   4   0   -0.79    1.26
  10   4   0   10.84    2.36
  11   4   0    1.11    1.59
  -9   5   0   -1.46    1.14
  -4   5   0   15.30    2.47
  -3   5   0    1.00    1.33
  -2   5   0   12.57    2.41
  -1   5   0    2.52    1.48
   0   5   0    0.28    1.26
   1   5   0    0.98    1.29
   2   5   0    6.96    2.01
   3   5   0    0.97    1.41
   4   5   0   15.68    2.59
   5   5   0    0.30    1.34
   6   5   0    2.63    1.18
   7   5   0    0.03    1.00
   8   5   0   15.15    1.92
  -3   6   0    1.97    1.62
  -2   6   0   -0.27    1.60
  -1   6   0   -0.22    1.67
   1   6   0   -0.26    1.54
   2   6   0    0.01    1.64
  -4  -6   1    0.45    1.81
  -3  -6   1    3.03    1.88
  -2  -6   1    0.56    1.09
  -1  -6   1   -0.71    0.93
   0  -6   1    1.48    1.05
   1  -6   1    1.20    1.36
   2  -6   1    0.97    1.36
  -9  -5   1    1.12    1.40
  -8  -5   1   14.67    1.63
  -7  -5   1    1.74    0.81
  -6  -5   1    0.71    0.69
  -5  -5   1    7.40    0.98
  -4  -5   1   -0.45    0.60
  -3  -5   1    5.20    0.84
  -2  -5   1   46.60    2.35
  -1  -5   1    3.59    0.92
   0  -5   1   -0.47    0.71
   1  -5   1    2.86    0.89
   2  -5   1   48.43    2.35
   3  -5   1    4.16    1.00
   4  -5   1    1.16    0.88
   5  -5   1    9.34    1.37
   6  -5   1   -0.47    0.88
   7  -5   1    2.25    1.38
   8  -5   1    8.46    2.03
 -11  -4   1    3.47    1.20
 -10  -4   1    0.55    0.89
  -9  -4   1    3.41    1.00
  -8  -4   1   21.12    1.77
  -7  -4   1    2.16    0.80
  -6  -4   1   56.88    2.45
  -5  -4   1    6.96    1.01
  -4  -4   1    9.81    1.11
  -3  -4   1    3.16    0.61
  -2  -4   1    0.82    0.49
  -1  -4   1    1.34    0.50
   0  -4   1    1.00    0.47
   1  -4   1    1.14    0.49
   2  -4   1    0.23    0.46
   3  -4   1    3.15    0.60
   4  -4   1   11.60    0.94
   5  -4   1    8.25    1.09
   6  -4   1   57.01    2.60
   7  -4   1    2.20    0.91
   8  -4   1   20.02    1.80
   9  -4   1    2.82    1.12
  10  -4   1   -0.32    1.26
  11  -4   1    4.35    1.96
 -13  -3   1    3.73    1.26
 -12  -3   1   -0.12    0.94
 -11  -3   1    1.14    0.90
 -10  -3   1   19.92    1.80
  -9  -3   1    4.42    0.94
  -8  -3   1   25.87    1.86
  -7  -3   1    1.94    0.68
  -6  -3   1   -0.04    0.49
  -5  -3   1   17.45    1.29
  -4  -3   1    1.05    0.53
  -3  -3   1   14.92    1.12
  -2  -3   1  129.59    3.73
  -1  -3   1    8.70    0.66
   0  -3   1    2.99    0.48
   1  -3   1    9.85    0.69
   2  -3   1  135.42    3.06
   3  -3   1   17.45    0.96
   4  -3   1    0.37    0.40
   5  -3   1   19.27    1.08
   6  -3   1   -0.04    0.39
   7  -3   1    3.23    0.63
   8  -3   1   29.75    1.51
   9  -3   1    3.18    0.74
  10  -3   1   25.00    1.57
  11  -3   1    0.13    0.95
  12  -3   1    0.95    1.23
  13  -3   1    3.16    2.48
 -14  -2   1   37.09    3.67
 -13  -2   1    0.81    1.17
 -12  -2   1   -0.42    0.98
 -11  -2   1    4.91    1.41
 -10  -2   1   -1.08    0.71
  -9  -2   1   10.57    1.64
  -8  -2   1   41.11    2.66
  -7  -2   1    6.19    1.22
  -6  -2   1  127.41    5.24
  -5  -2   1   15.32    1.09
  -4  -2   1   25.09    1.22
  -3  -2   1    8.09    0.72
  -2  -2   1    1.63    0.37
  -1  -2   1    3.23    0.43
   1  -2   1    2.63    0.34
   2  -2   1    0.87    0.27
   3  -2   1    8.81    0.59
   4  -2   1   26.77    0.99
   5  -2   1   16.04    0.90
   6  -2   1  127.94    3.09
   7  -2   1    4.80    0.66
   8  -2   1   40.64    1.65
   9  -2   1   11.71    1.05
  10  -2   1    0.32    0.59
  11  -2   1   10.27    1.13
  12  -2   1   -1.23    0.62
  13  -2   1    0.80    0.79
  14  -2   1   37.64    2.31
 -15  -1   1    2.68    1.64
 -14  -1   1    0.80    1.21
 -13  -1   1    2.67    1.26
 -12  -1   1    0.63    1.02
 -11  -1   1   -0.62    0.81
 -10  -1   1   34.19    2.63
  -9  -1   1    8.75    0.95
  -8  -1   1   54.76    2.00
  -7  -1   1    5.17    0.66
  -6  -1   1    0.27    0.37
  -5  -1   1   34.94    1.27
  -4  -1   1    0.72    0.29
  -3  -1   1   35.68    1.12
  -2  -1   1  313.93    7.39
  -1  -1   1   16.76    0.72
   0  -1   1    6.31    0.34
   1  -1   1   18.52    0.58
   2  -1   1  322.25    6.03
   3  -1   1   40.12    1.10
   4  -1   1    1.33    0.33
   5  -1   1   35.21    1.22
   6  -1   1    0.28    0.39
   7  -1   1    5.29    0.71
   8  -1   1   48.58    1.96
   9  -1   1    7.20    0.89
  10  -1   1   35.15    1.70
  11  -1   1    0.07    0.58
  12  -1   1    1.63    0.68
  13  -1   1    3.04    0.87
  14  -1   1    1.91    0.83
  15  -1   1    2.10    0.90
 -15   0   1    5.87    1.78
 -14   0   1   48.02    3.50
 -13   0   1    2.30    0.87
 -12   0   1   -0.54    0.64
 -11   0   1   13.13    1.29
 -10   0   1    0.32    0.81
  -9   0   1   13.70    1.69
  -8   0   1   62.34    3.22
  -7   0   1    8.76    1.19
  -6   0   1  211.52    7.26
  -5   0   1   26.18    1.61
  -4   0   1   45.46    2.06
  -3   0   1   19.33    1.21
  -2   0   1    2.75    0.45
  -1   0   1    5.91    0.40
   1   0   1    5.99    0.23
   2   0   1    2.23    0.32
   3   0   1   18.43    0.80
   4   0   1   44.93    1.39
   5   0   1   25.29    1.10
   6   0   1  206.42    4.55
   7   0   1    9.60    0.85
   8   0   1   69.00    2.17
   9   0   1   15.25    1.19
  10   0   1    0.86    0.55
  11   0   1   14.53    1.25
  12   0   1   -0.19    0.61
  13   0   1    1.24    0.79
  14   0   1   48.56    2.42
  15   0   1    2.62    1.31
 -15   1   1    3.83    1.13
 -14   1   1    3.88    1.07
 -13   1   1    3.19    1.36
 -12   1   1    1.80    1.22
 -11   1   1    0.20    0.91
 -10   1   1   34.03    2.95
  -9   1   1    6.49    1.36
  -8   1   1   50.72    3.01
  -7   1   1    3.73    1.04
  -6   1   1    0.15    0.64
  -5   1   1   38.12    2.12
  -4   1   1    0.89    0.29
  -3   1   1   37.01    1.26
  -2   1   1  312.63    7.31
  -1   1   1   17.64    0.80
   0   1   1    5.88    0.43
   1   1   1   17.43    0.56
   2   1   1  313.89    6.15
   3   1   1   37.78    1.10
   4   1   1    0.46    0.25
   5   1   1   35.45    1.03
   6   1   1    0.12    0.28
   7   1   1    4.51    0.51
   8   1   1   53.95    2.01
   9   1   1    7.28    0.93
  10   1   1   38.55    2.51
  11   1   1    0.36    0.75
  12   1   1    3.04    1.03
  13   1   1    6.18    1.25
  14   1   1    4.07    1.27
  15   1   1    1.66    1.15
 -14   2   1   35.58    3.56
 -13   2   1    0.39    1.27
 -12   2   1    1.10    1.11
 -11   2   1   10.81    1.86
 -10   2   1    0.62    0.99
  -9   2   1    9.88    1.68
  -8   2   1   40.65    2.81
  -7   2   1    4.61    1.21
  -6   2   1  130.58    3.61
  -5   2   1   15.09    1.01
  -4   2   1   25.59    1.25
  -3   2   1    9.33    0.77
  -2   2   1    0.99    0.42
  -1   2   1    2.97    0.47
   0   2   1    1.36    0.58
   1   2   1    3.26    0.32
   2   2   1    1.06    0.45
   3   2   1    7.69    0.80
   4   2   1   25.00    1.08
   5   2   1   14.38    0.92
   6   2   1  127.85    3.18
   7   2   1    3.55    0.60
   8   2   1   40.39    1.62
   9   2   1    6.63    1.14
  10   2   1    0.45    0.79
  11   2   1    7.63    1.35
  12   2   1   -0.73    0.85
  13   2   1    3.27    1.17
  14   2   1   35.04    2.74
 -13   3   1    1.47    1.39
 -12   3   1    2.47    1.44
 -11   3   1    0.18    1.10
 -10   3   1   28.35    2.84
  -9   3   1    2.05    1.22
  -8   3   1   27.24    2.60
  -7   3   1    2.40    1.08
  -6   3   1   -0.17    0.81
  -5   3   1   17.18    1.28
  -4   3   1    2.10    0.70
  -3   3   1   15.44    1.17
  -2   3   1  133.65    3.80
  -1   3   1   10.47    0.85
   0   3   1    2.15    0.49
   1   3   1    8.57    0.65
   2   3   1  133.56    4.07
   3   3   1   16.27    1.31
   4   3   1    0.03    0.63
   5   3   1   15.72    1.38
   6   3   1    0.37    0.61
   7   3   1    2.04    0.79
   8   3   1   25.51    1.87
   9   3   1    1.80    0.89
  10   3   1   16.83    1.84
  11   3   1    1.15    1.02
  12   3   1    1.23    1.16
  13   3   1    3.52    1.47
 -11   4   1    1.50    1.46
 -10   4   1    0.11    1.19
  -9   4   1    5.75    1.59
  -8   4   1   27.08    2.72
  -7   4   1    3.40    1.19
  -6   4   1   54.40    3.26
  -5   4   1    6.20    0.99
  -4   4   1    9.13    1.09
  -3   4   1    3.93    0.82
  -2   4   1    0.34    0.99
  -1   4   1    1.86    1.18
   1   4   1    2.01    1.25
   2   4   1   -0.62    1.06
   3   4   1    3.62    1.34
   4   4   1   12.06    1.39
   5   4   1    7.56    1.22
   6   4   1   59.66    2.80
   7   4   1    0.95    0.86
   8   4   1   26.06    2.07
   9   4   1    5.98    1.73
  10   4   1    0.88    1.40
  11   4   1    2.93    1.77
  -9   5   1    0.71    1.29
  -4   5   1    1.25    1.31
  -3   5   1    6.78    1.82
  -2   5   1   47.52    4.25
  -1   5   1    4.78    1.67
   0   5   1   -0.69    1.17
   1   5   1    7.12    1.90
   2   5   1   47.91    3.86
   3   5   1    4.59    1.70
   4   5   1    0.87    1.40
   5   5   1    6.43    1.90
   6   5   1   -0.36    0.94
   7   5   1    0.99    1.03
   8   5   1   13.61    1.77
  -3   6   1    0.57    1.60
  -2   6   1   -1.22    1.43
  -1   6   1   -1.65    1.43
   0   6   1    8.72    2.18
   1   6   1   -2.14    1.30
   2   6   1   -0.25    1.56
  -4  -6   2    2.84    1.81
  -3  -6   2    2.41    1.83
  -2  -6   2    0.86    1.10
  -1  -6   2    3.30    1.20
   0  -6   2    5.20    1.69
   1  -6   2   -0.20    1.27
   2  -6   2    0.57    1.35
  -9  -5   2    8.80    2.10
  -8  -5   2    6.31    1.22
  -7  -5   2    0.82    0.88
  -6  -5   2    1.91    0.76
  -5  -5   2    8.36    1.05
  -4  -5   2    4.80    0.86
  -3  -5   2    0.59    0.62
  -2  -5   2   32.74    1.63
  -1  -5   2    1.20    0.62
   0  -5   2   -0.27    0.70
   1  -5   2    2.11    0.82
   2  -5   2   30.92    2.07
   3  -5   2    0.27    0.82
   4  -5   2    4.25    1.07
   5  -5   2   10.17    2.00
   6  -5   2    1.52    1.32
   7  -5   2    0.47    1.22
   8  -5   2    6.84    1.92
 -11  -4   2    5.30    1.31
 -10  -4   2    0.58    0.90
  -9  -4   2    1.25    0.83
  -8  -4   2    0.73    0.73
  -7  -4   2    3.03    0.83
  -6  -4   2    5.82    0.98
  -5  -4   2   28.77    1.86
  -4  -4   2    1.04    0.62
  -3  -4   2    2.09    0.55
  -2  -4   2    3.39    0.60
  -1  -4   2    6.76    0.74
   0  -4   2   18.18    1.11
   1  -4   2    7.91    0.77
   2  -4   2    1.97    0.55
   3  -4   2    1.63    0.54
   4  -4   2    1.07    0.52
   5  -4   2   25.67    1.36
   6  -4   2    3.16    0.67
   7  -4   2    1.04    0.79
   8  -4   2   -0.11    0.75
   9  -4   2   -0.19    1.13
  10  -4   2    0.99    1.45
  11  -4   2    6.74    2.18
 -13  -3   2    1.74    1.16
 -12  -3   2    1.02    0.96
 -11  -3   2    9.00    1.40
 -10  -3   2   17.12    1.67
  -9  -3   2   19.62    1.67
  -8  -3   2   15.45    1.41
  -7  -3   2   -0.43    0.51
  -6  -3   2    3.65    0.75
  -5  -3   2   27.51    1.49
  -4  -3   2    3.96    0.69
  -3  -3   2    1.96    0.55
  -2  -3   2   83.38    2.70
  -1  -3   2    2.22    0.44
   0  -3   2   -1.02    0.26
   1  -3   2    3.11    0.48
   2  -3   2   84.80    2.19
   3  -3   2    0.80    0.42
   4  -3   2    9.76    0.89
   5  -3   2   26.83    1.20
   6  -3   2    2.04    0.52
   7  -3   2    0.15    0.46
   8  -3   2   14.90    1.14
   9  -3   2   21.60    1.42
  10  -3   2   18.60    1.36
  11  -3   2    7.77    1.09
  12  -3   2    0.68    1.97
  13  -3   2   -0.25    2.02
 -14  -2   2    8.09    1.90
 -13  -2   2    4.67    1.49
 -12  -2   2    1.48    1.17
 -11  -2   2    9.59    1.70
 -10  -2   2    3.20    1.14
  -9  -2   2    1.54    0.93
  -8  -2   2    1.63    0.87
  -7  -2   2    4.77    1.12
  -6  -2   2   11.30    1.43
  -5  -2   2   63.69    2.20
  -4  -2   2    4.40    0.59
  -3  -2   2    5.27    0.59
  -2  -2   2    5.24    0.56
  -1  -2   2   16.10    0.83
   0  -2   2   42.81    1.17
   1  -2   2   16.05    0.68
   2  -2   2    4.59    0.43
   3  -2   2    4.55    0.44
   4  -2   2    4.49    0.49
   5  -2   2   64.04    1.81
   6  -2   2    6.93    0.71
   7  -2   2    3.96    0.64
   8  -2   2    0.82    0.53
   9  -2   2    0.40    0.56
  10  -2   2    4.15    0.81
  11  -2   2    8.28    1.09
  12  -2   2    1.66    0.76
  13  -2   2    1.02    0.77
  14  -2   2    8.11    1.16
 -15  -1   2   11.04    2.25
 -14  -1   2   -0.10    1.20
 -13  -1   2   -0.20    1.09
 -12  -1   2    0.89    1.09
 -11  -1   2   20.30    2.34
 -10  -1   2   37.09    2.67
  -9  -1   2   43.07    1.79
  -8  -1   2   31.61    1.50
  -7  -1   2    1.40    0.46
  -6  -1   2    5.75    0.62
  -5  -1   2   54.14    1.67
  -4  -1   2    7.84    0.55
  -3  -1   2    2.64    0.31
  -2  -1   2  204.78    4.94
  -1  -1   2    6.76    0.47
   0  -1   2   -0.23    0.22
   1  -1   2    7.42    0.38
   2  -1   2  204.70    4.02
   3  -1   2    2.40    0.35
   4  -1   2    8.38    0.59
   5  -1   2   54.51    1.59
   6  -1   2    6.53    0.68
   7  -1   2    1.27    0.51
   8  -1   2   30.72    1.55
   9  -1   2   39.59    1.75
  10  -1   2   38.53    1.79
  11  -1   2   16.05    1.34
  12  -1   2    2.85    0.80
  13  -1   2    0.65    0.73
  14  -1   2    0.45    0.74
  15  -1   2   10.89    1.64
 -15   0   2   13.56    2.20
 -14   0   2    5.74    1.61
 -13   0   2    1.53    0.79
 -12   0   2    1.08    0.71
 -11   0   2   11.45    1.22
 -10   0   2    3.88    0.81
  -9   0   2    1.51    0.84
  -8   0   2    2.79    0.92
  -7   0   2    8.30    1.19
  -6   0   2   14.38    1.38
  -5   0   2  111.83    4.13
  -4   0   2    8.03    0.87
  -3   0   2   10.07    0.86
  -2   0   2    9.11    0.49
  -1   0   2   28.50    0.77
   0   0   2   75.51    2.46
   1   0   2   29.33    0.57
   2   0   2    8.73    0.37
   3   0   2    9.05    0.48
   4   0   2    7.14    0.59
   5   0   2  109.08    2.65
   6   0   2   15.00    0.96
   7   0   2    7.10    0.78
   8   0   2    2.37    0.60
   9   0   2    0.56    0.53
  10   0   2    4.54    0.77
  11   0   2   13.61    1.21
  12   0   2    0.25    0.60
  13   0   2    0.98    0.70
  14   0   2   11.63    1.32
  15   0   2   11.30    1.75
 -15   1   2   13.14    1.60
 -14   1   2    0.12    0.82
 -13   1   2    0.27    1.07
 -12   1   2    0.61    1.10
 -11   1   2   17.62    2.18
 -10   1   2   36.22    2.70
  -9   1   2   38.82    2.65
  -8   1   2   28.23    2.43
  -7   1   2    1.99    0.89
  -6   1   2    6.44    1.12
  -5   1   2   51.08    1.66
  -4   1   2    9.20    0.62
  -3   1   2    2.79    0.41
  -2   1   2  202.67    4.91
  -1   1   2    6.18    0.49
   0   1   2   -0.07    0.26
   1   1   2    6.78    0.39
   2   1   2  203.65    3.48
   3   1   2    2.73    0.26
   4   1   2    7.65    0.49
   5   1   2   52.88    1.32
   6   1   2    5.62    0.50
   7   1   2   -0.13    0.32
   8   1   2   33.07    1.58
   9   1   2   38.42    1.78
  10   1   2   35.76    1.76
  11   1   2   19.01    1.79
  12   1   2    1.66    0.89
  13   1   2   -0.42    0.81
  14   1   2    2.39    1.06
  15   1   2    6.89    2.18
 -14   2   2    9.71    2.06
 -13   2   2    1.75    1.34
 -12   2   2    0.68    1.16
 -11   2   2    8.13    1.67
 -10   2   2    4.88    1.35
  -9   2   2    0.33    0.96
  -8   2   2    0.40    0.98
  -7   2   2    5.69    1.31
  -6   2   2    9.80    0.87
  -5   2   2   65.15    2.16
  -4   2   2    3.65    0.60
  -3   2   2    4.42    0.59
  -2   2   2    5.45    0.60
  -1   2   2   15.28    0.90
   0   2   2   41.53    1.43
   1   2   2   15.75    0.66
   2   2   2    4.98    0.36
   3   2   2    3.10    0.60
   4   2   2    3.66    0.51
   5   2   2   61.92    1.87
   6   2   2    7.92    0.76
   7   2   2    4.75    0.65
   8   2   2    0.17    0.47
   9   2   2    0.57    0.78
  10   2   2    2.76    1.03
  11   2   2    5.79    1.26
  12   2   2    1.09    0.98
  13   2   2    0.23    0.95
  14   2   2    6.43    1.49
 -13   3   2    0.38    1.36
 -12   3   2    2.16    1.36
 -11   3   2   11.85    2.10
 -10   3   2   21.13    2.49
  -9   3   2   18.21    2.28
  -8   3   2   18.90    2.18
  -7   3   2    0.84    0.93
  -6   3   2    0.47    0.87
  -5   3   2   24.57    1.47
  -4   3   2    3.29    0.74
  -3   3   2    1.06    0.61
  -2   3   2   87.83    2.79
  -1   3   2    1.97    0.54
   0   3   2   -0.53    0.34
   1   3   2    3.66    0.49
   2   3   2   91.76    3.06
   3   3   2    0.95    0.61
   4   3   2    3.57    0.81
   5   3   2   24.90    1.70
   6   3   2    2.92    0.78
   7   3   2   -0.77    0.62
   8   3   2   16.77    1.49
   9   3   2   18.68    1.78
  10   3   2   21.61    1.97
  11   3   2    7.82    1.46
  12   3   2    0.80    1.14
  13   3   2   -0.51    1.19
 -11   4   2    4.41    1.63
 -10   4   2    1.22    1.34
  -9   4   2    0.57    1.17
  -8   4   2    0.82    1.06
  -7   4   2    0.99    1.09
  -6   4   2    5.53    1.40
  -5   4   2   26.12    1.75
  -4   4   2    1.49    0.70
  -3   4   2    2.19    0.72
  -2   4   2    2.58    1.16
  -1   4   2    9.33    1.79
   0   4   2   21.13    2.59
   1   4   2    5.96    1.65
   2   4   2    1.55    1.29
   3   4   2    1.72    1.26
   4   4   2    1.19    0.81
   5   4   2   25.79    1.96
   6   4   2    7.95    1.27
   7   4   2    1.47    0.88
   8   4   2    1.16    0.92
   9   4   2   -0.97    1.23
  10   4   2    2.67    1.56
  11   4   2    7.92    2.13
  -9   5   2   10.71    2.01
  -8   5   2    4.08    1.60
  -4   5   2    2.04    1.47
  -3   5   2    0.98    1.25
  -2   5   2   34.58    3.49
  -1   5   2    1.24    1.32
   0   5   2   -1.63    1.12
   1   5   2    2.67    1.49
   2   5   2   34.28    3.55
   3   5   2    0.38    1.35
   4   5   2    0.86    1.44
   5   5   2   11.18    2.28
   6   5   2    1.45    1.46
   7   5   2    0.76    1.04
   8   5   2    5.76    1.38
  -3   6   2    2.62    1.65
  -2   6   2    0.82    1.68
  -1   6   2    1.86    1.84
   0   6   2   11.54    2.47
   1   6   2    0.57    1.62
   2   6   2   -0.27    1.58
  -4  -6   3    5.09    2.02
  -1  -6   3   -0.03    1.34
   0  -6   3   -0.81    1.21
   1  -6   3    2.02    1.48
   2  -6   3    0.03    1.32
  -9  -5   3    1.07    1.52
  -8  -5   3    0.92    0.93
  -7  -5   3   10.84    1.43
  -6  -5   3    4.79    0.88
  -5  -5   3    3.34    0.81
  -4  -5   3   70.28    2.43
  -3  -5   3    0.01    0.62
  -2  -5   3    6.66    0.86
  -1  -5   3    2.69    0.71
   0  -5   3    0.70    0.61
   1  -5   3    2.98    0.93
   2  -5   3    5.10    1.05
   3  -5   3    0.41    1.08
   4  -5   3   65.87    4.35
   5  -5   3    1.19    1.22
   6  -5   3    3.08    1.44
   7  -5   3   11.47    2.20
   8  -5   3    1.71    1.42
 -11  -4   3    6.60    1.28
 -10  -4   3   -0.37    0.84
  -9  -4   3   11.17    1.34
  -8  -4   3   10.60    1.31
  -7  -4   3    7.38    1.12
  -6  -4   3    1.06    0.67
  -5  -4   3   -0.28    0.54
  -4  -4   3   11.76    1.19
  -3  -4   3   16.02    1.08
  -2  -4   3    5.78    0.69
  -1  -4   3    2.55    0.58
   0  -4   3    0.32    0.43
   1  -4   3    1.45    0.52
   2  -4   3    5.63    0.71
   3  -4   3   15.09    1.04
   4  -4   3   14.30    1.01
   5  -4   3    0.27    0.51
   6  -4   3    2.69    0.62
   7  -4   3    7.23    0.89
   8  -4   3    8.79    1.87
   9  -4   3    8.57    2.00
  10  -4   3   -0.75    1.19
  11  -4   3    4.42    2.05
 -13  -3   3   11.38    1.64
 -12  -3   3    7.88    1.35
 -11  -3   3    1.24    0.87
 -10  -3   3    0.10    0.73
  -9  -3   3   -0.11    0.64
  -8  -3   3    0.28    0.60
  -7  -3   3   22.50    1.61
  -6  -3   3   10.07    1.08
  -5  -3   3    8.21    0.97
  -4  -3   3  175.77    5.04
  -3  -3   3    1.49    0.54
  -2  -3   3   17.10    1.16
  -1  -3   3    9.65    0.71
   0  -3   3    3.25    0.48
   1  -3   3    9.52    0.71
   2  -3   3   18.04    0.93
   3  -3   3    0.28    0.40
   4  -3   3  184.07    4.11
   5  -3   3    8.35    0.76
   6  -3   3   11.94    0.94
   7  -3   3   22.50    1.29
   8  -3   3   -0.02    0.53
   9  -3   3    0.58    0.58
  10  -3   3    1.38    0.68
  11  -3   3    1.90    0.81
  12  -3   3    3.78    1.19
  13  -3   3    6.18    2.56
 -14  -2   3    8.67    1.94
 -13  -2   3    1.74    1.29
 -12  -2   3   60.62    3.86
 -11  -2   3   12.00    1.93
 -10  -2   3    1.05    0.96
  -9  -2   3   19.76    2.17
  -8  -2   3   21.21    2.14
  -7  -2   3   15.72    1.76
  -6  -2   3   -0.86    0.57
  -5  -2   3    3.23    0.62
  -4  -2   3   34.13    1.42
  -3  -2   3   33.38    1.36
  -2  -2   3   11.65    0.82
  -1  -2   3    4.37    0.50
   0  -2   3   -0.11    0.22
   1  -2   3    5.34    0.44
   2  -2   3   14.98    0.68
   3  -2   3   32.57    1.09
   4  -2   3   34.99    1.16
   5  -2   3    3.05    0.49
   6  -2   3    1.19    0.46
   7  -2   3   16.31    1.08
   8  -2   3   22.80    1.36
   9  -2   3   19.71    1.36
  10  -2   3    0.12    0.56
  11  -2   3   11.81    1.24
  12  -2   3   58.03    2.45
  13  -2   3    1.33    0.80
  14  -2   3    9.21    1.52
 -15  -1   3    0.04    1.33
 -14  -1   3   14.17    2.27
 -13  -1   3   17.88    2.46
 -12  -1   3    9.68    1.83
 -11  -1   3    0.03    0.84
 -10  -1   3    0.58    0.87
  -9  -1   3    1.60    0.58
  -8  -1   3    0.07    0.46
  -7  -1   3   43.14    1.61
  -6  -1   3   25.24    1.13
  -5  -1   3   14.94    0.84
  -4  -1   3  386.16    8.61
  -3  -1   3    1.89    0.29
  -2  -1   3   44.42    1.01
  -1  -1   3   25.62    0.67
   0  -1   3    8.39    0.40
   1  -1   3   26.14    0.71
   2  -1   3   44.27    1.10
   3  -1   3    1.23    0.29
   4  -1   3  373.53    7.37
   5  -1   3   15.42    0.87
   6  -1   3   25.92    1.20
   7  -1   3   41.90    1.61
   8  -1   3    0.07    0.52
   9  -1   3    1.49    0.62
  10  -1   3    0.99    0.61
  11  -1   3    1.27    0.61
  12  -1   3    9.76    1.15
  13  -1   3   14.68    1.43
  14  -1   3   12.22    1.34
  15  -1   3   -0.47    0.95
 -15   0   3    1.00    1.33
 -14   0   3   18.40    2.49
 -13   0   3    0.56    0.77
 -12   0   3   80.03    3.01
 -11   0   3   18.32    1.47
 -10   0   3    1.10    0.61
  -9   0   3   28.44    1.61
  -8   0   3   34.10    1.60
  -7   0   3   25.83    1.97
  -6   0   3   -0.66    0.52
  -5   0   3    4.41    0.76
  -4   0   3   56.87    1.67
  -3   0   3   57.66    1.63
  -2   0   3   22.83    0.81
  -1   0   3    8.15    0.39
   0   0   3   -0.21    0.13
   1   0   3    7.94    0.30
   2   0   3   23.24    0.60
   3   0   3   58.44    1.15
   4   0   3   55.12    1.30
   5   0   3    4.49    0.54
   6   0   3   -0.57    0.34
   7   0   3   24.33    1.22
   8   0   3   35.53    1.49
   9   0   3   30.54    1.62
  10   0   3   -0.20    0.49
  11   0   3   14.74    1.27
  12   0   3   79.75    2.74
  13   0   3    0.93    0.72
  14   0   3   12.97    1.39
  15   0   3    0.60    0.80
 -15   1   3   -0.62    0.84
 -14   1   3    9.61    1.40
 -13   1   3   17.17    1.67
 -12   1   3   10.65    1.83
 -11   1   3    0.30    0.91
 -10   1   3    2.41    1.15
  -9   1   3    3.70    1.17
  -8   1   3   -0.42    0.79
  -7   1   3   40.83    2.56
  -6   1   3   23.81    1.87
  -5   1   3   16.75    0.90
  -4   1   3  375.44    8.82
  -3   1   3    1.89    0.37
  -2   1   3   41.98    1.37
  -1   1   3   26.23    0.97
   0   1   3    9.02    0.56
   1   1   3   25.76    0.75
   2   1   3   42.82    0.85
   3   1   3    1.42    0.23
   4   1   3  374.21    5.64
   5   1   3   14.42    0.72
   6   1   3   23.25    0.95
   7   1   3   41.40    1.68
   8   1   3    0.46    0.54
   9   1   3    1.13    0.60
  10   1   3    0.77    0.61
  11   1   3    0.65    0.60
  12   1   3   10.28    1.42
  13   1   3   18.14    1.87
  14   1   3   12.14    1.71
  15   1   3    0.61    1.64
 -14   2   3    7.73    1.95
 -13   2   3   -1.53    1.02
 -12   2   3   57.63    3.85
 -11   2   3   12.95    1.95
 -10   2   3   -0.35    0.85
  -9   2   3   19.04    2.21
  -8   2   3   23.60    2.33
  -7   2   3   17.57    1.96
  -6   2   3   -0.02    0.43
  -5   2   3    1.40    0.53
  -4   2   3   34.07    1.42
  -3   2   3   37.18    1.45
  -2   2   3   13.43    0.89
  -1   2   3    5.21    0.56
   0   2   3    0.39    0.33
   1   2   3    5.12    0.42
   2   2   3   13.48    0.62
   3   2   3   33.55    1.01
   4   2   3   32.83    0.91
   5   2   3    2.61    0.50
   6   2   3   -0.76    0.39
   7   2   3   14.66    1.02
   8   2   3   23.24    1.29
   9   2   3   20.92    1.81
  10   2   3    0.26    0.79
  11   2   3   10.33    1.47
  12   2   3   59.07    3.21
  13   2   3    1.03    1.07
  14   2   3   12.16    1.78
 -13   3   3   11.57    2.24
 -12   3   3    4.82    1.63
 -11   3   3    0.36    1.24
 -10   3   3    0.95    1.19
  -9   3   3    1.88    1.20
  -8   3   3   -0.34    0.97
  -7   3   3   21.95    2.31
  -6   3   3   11.43    1.62
  -5   3   3    8.91    0.97
  -4   3   3  178.58    5.03
  -3   3   3    0.71    0.54
  -2   3   3   19.82    1.24
  -1   3   3   10.23    0.90
   0   3   3    2.06    0.53
   1   3   3   10.60    0.77
   2   3   3   17.43    1.37
   3   3   3    0.37    0.63
   4   3   3  190.34    5.38
   5   3   3    6.20    0.95
   6   3   3   11.46    1.22
   7   3   3   17.27    1.53
   8   3   3   -0.12    0.63
   9   3   3    0.53    0.74
  10   3   3    0.57    0.84
  11   3   3    1.26    1.08
  12   3   3    4.62    1.45
  13   3   3    7.83    1.63
 -11   4   3    5.03    1.75
 -10   4   3    0.32    1.15
  -9   4   3   10.76    1.92
  -8   4   3    9.59    1.78
  -7   4   3    7.56    1.54
  -6   4   3   -1.11    0.92
  -5   4   3    0.83    0.74
  -4   4   3   14.40    1.28
  -3   4   3   14.58    1.26
  -2   4   3    7.12    1.61
  -1   4   3    1.21    1.06
   0   4   3   -0.34    1.03
   1   4   3    0.69    1.11
   2   4   3    5.99    1.64
   3   4   3   16.07    2.26
   4   4   3   13.59    1.45
   5   4   3    0.32    0.74
   6   4   3   -0.92    0.72
   7   4   3    5.76    1.16
   8   4   3    9.71    1.38
   9   4   3    8.51    1.96
  10   4   3   -0.56    1.25
  11   4   3    3.56    1.71
  -9   5   3    0.11    1.21
  -8   5   3    0.03    1.27
  -4   5   3   67.27    4.40
  -3   5   3   -0.90    1.20
  -2   5   3    8.75    2.05
  -1   5   3    3.48    1.58
   0   5   3    0.08    1.20
   1   5   3    3.57    1.63
   2   5   3    4.16    1.78
   3   5   3    1.41    1.43
   4   5   3   74.08    4.88
   5   5   3    1.18    1.45
   6   5   3    6.96    2.01
   7   5   3    8.97    1.50
   8   5   3    2.31    1.14
  -3   6   3    7.05    2.01
  -2   6   3    0.90    1.53
  -1   6   3   -0.33    1.44
   0   6   3    0.69    1.55
   1   6   3   -0.72    1.45
   2   6   3    0.71    1.65
  -1  -6   4   -0.06    1.26
   0  -6   4    6.21    1.84
   1  -6   4    1.25    1.40
  -8  -5   4    1.41    0.94
  -7  -5   4    6.45    1.23
  -6  -5   4    0.95    0.74
  -5  -5   4   -0.24    0.63
  -4  -5   4   19.46    1.38
  -3  -5   4    2.66    0.74
  -2  -5   4    4.59    0.82
  -1  -5   4    1.45    0.67
   0  -5   4    0.18    0.58
   1  -5   4    1.41    0.65
   2  -5   4    4.44    0.95
   3  -5   4    3.84    1.40
   4  -5   4   19.38    2.54
   5  -5   4    1.57    1.19
   6  -5   4    0.78    1.23
   7  -5   4    6.54    1.82
   8  -5   4    0.00    1.26
 -11  -4   4    3.34    1.13
 -10  -4   4    1.20    0.90
  -9  -4   4    3.71    1.03
  -8  -4   4    1.12    0.78
  -7  -4   4   14.33    1.46
  -6  -4   4   83.78    3.12
  -5  -4   4    0.25    0.59
  -4  -4   4   26.56    1.76
  -3  -4   4    2.75    0.61
  -2  -4   4   33.30    1.38
  -1  -4   4    1.52    0.52
   0  -4   4   12.77    0.92
   1  -4   4    1.54    0.53
   2  -4   4   34.78    1.40
   3  -4   4    2.66    0.60
   4  -4   4   24.55    1.35
   5  -4   4    0.26    0.51
   6  -4   4   82.38    3.08
   7  -4   4   15.43    1.45
   8  -4   4    1.63    0.76
   9  -4   4    5.11    1.73
  10  -4   4    0.96    1.35
  11  -4   4    3.14    1.96
 -13  -3   4    1.45    1.07
 -12  -3   4   19.71    1.95
 -11  -3   4    1.06    0.87
 -10  -3   4   83.41    3.33
  -9  -3   4    7.36    1.12
  -8  -3   4    1.47    0.71
  -7  -3   4   20.90    1.57
  -6  -3   4    1.23    0.60
  -5  -3   4    3.42    0.69
  -4  -3   4   52.55    2.06
  -3  -3   4    7.25    0.84
  -2  -3   4   13.29    1.04
  -1  -3   4    3.60    0.51
   0  -3   4    0.00    0.35
   1  -3   4    4.47    0.54
   2  -3   4   14.25    0.85
   3  -3   4    6.46    0.65
   4  -3   4   51.19    1.65
   5  -3   4    3.85    0.59
   6  -3   4    0.46    0.44
   7  -3   4   20.49    1.26
   8  -3   4    1.23    0.59
   9  -3   4    9.72    1.00
  10  -3   4   81.89    3.38
  11  -3   4    1.28    0.88
  12  -3   4   16.13    1.90
  13  -3   4    1.65    1.10
 -14  -2   4    0.67    1.35
 -13  -2   4    2.43    1.34
 -12  -2   4   25.49    2.81
 -11  -2   4    7.29    1.58
 -10  -2   4    1.11    0.93
  -9  -2   4    8.04    1.45
  -8  -2   4    0.20    0.76
  -7  -2   4   32.74    2.28
  -6  -2   4  180.45    5.08
  -5  -2   4    0.04    0.39
  -4  -2   4   60.89    2.06
  -3  -2   4    6.05    0.64
  -2  -2   4   74.72    2.27
  -1  -2   4    3.00    0.44
   0  -2   4   30.04    0.96
   1  -2   4    3.20    0.38
   2  -2   4   78.42    1.84
   3  -2   4    5.88    0.51
   4  -2   4   58.90    1.65
   5  -2   4    0.84    0.39
   6  -2   4  188.55    4.20
   7  -2   4   33.91    1.42
   8  -2   4    0.68    0.53
   9  -2   4    9.25    0.97
  10  -2   4    0.42    0.60
  11  -2   4    6.44    1.02
  12  -2   4   25.50    1.79
  13  -2   4    4.88    1.22
  14  -2   4    0.94    0.95
 -15  -1   4    1.56    1.35
 -14  -1   4    9.78    2.00
 -13  -1   4    1.69    1.15
 -12  -1   4   30.67    2.99
 -11  -1   4    3.33    1.25
 -10  -1   4  148.09    6.41
  -9  -1   4   15.64    1.20
  -8  -1   4    1.87    0.56
  -7  -1   4   40.77    1.59
  -6  -1   4    0.99    0.40
  -5  -1   4    7.86    0.63
  -4  -1   4  108.13    2.74
  -3  -1   4   13.44    0.66
  -2  -1   4   29.39    0.77
  -1  -1   4    9.59    0.44
   0  -1   4   -0.02    0.18
   1  -1   4    9.02    0.37
   2  -1   4   27.75    0.82
   3  -1   4   13.38    0.66
   4  -1   4  106.64    2.46
   5  -1   4    8.18    0.66
   6  -1   4    1.16    0.46
   7  -1   4   43.76    1.66
   8  -1   4    2.01    0.63
   9  -1   4   14.97    1.20
  10  -1   4  143.99    3.92
  11  -1   4    2.49    0.74
  12  -1   4   30.23    1.86
  13  -1   4    2.84    0.87
  14  -1   4   10.09    1.29
  15  -1   4   -0.44    0.96
 -15   0   4    0.41    1.38
 -14   0   4    1.35    1.18
 -13   0   4    6.98    1.14
 -12   0   4   35.81    2.09
 -11   0   4    9.77    1.13
 -10   0   4    1.27    0.63
  -9   0   4   13.65    1.16
  -8   0   4    1.24    0.56
  -7   0   4   50.72    1.85
  -6   0   4  279.19    6.67
  -5   0   4    0.74    0.36
  -4   0   4   95.45    2.51
  -3   0   4   12.63    0.67
  -2   0   4  139.28    3.24
  -1   0   4    5.35    0.36
   0   0   4   49.74    1.32
   1   0   4    4.77    0.26
   2   0   4  135.90    2.20
   3   0   4   12.49    0.50
   4   0   4   95.60    2.30
   5   0   4    0.25    0.33
   6   0   4  273.11    5.80
   7   0   4   49.54    1.70
   8   0   4    1.07    0.52
   9   0   4   11.65    1.04
  10   0   4    0.38    0.53
  11   0   4    9.73    1.06
  12   0   4   36.20    2.02
  13   0   4    7.18    1.07
  14   0   4    0.44    0.71
  15   0   4   -0.14    0.78
 -15   1   4    2.09    1.42
 -14   1   4    8.68    1.32
 -13   1   4    2.16    0.92
 -12   1   4   29.07    2.02
 -11   1   4    1.43    1.02
 -10   1   4  139.92    6.20
  -9   1   4   17.78    1.94
  -8   1   4    1.24    0.90
  -7   1   4   40.21    2.53
  -6   1   4    1.10    0.70
  -5   1   4    8.14    0.71
  -4   1   4  104.74    2.90
  -3   1   4   13.86    0.82
  -2   1   4   26.38    1.07
  -1   1   4    7.69    0.59
   0   1   4   -0.36    0.29
   1   1   4    8.78    0.47
   2   1   4   29.14    0.66
   3   1   4   13.98    0.50
   4   1   4  107.88    1.87
   5   1   4    7.59    0.54
   6   1   4    1.27    0.37
   7   1   4   38.71    1.30
   8   1   4    0.81    0.61
   9   1   4   17.21    1.29
  10   1   4  151.96    3.99
  11   1   4    2.43    0.71
  12   1   4   29.93    1.85
  13   1   4    2.59    1.03
  14   1   4    8.84    1.53
  15   1   4    1.09    1.53
 -14   2   4   -1.20    1.08
 -13   2   4    4.93    1.69
 -12   2   4   25.84    2.83
 -11   2   4    9.60    1.76
 -10   2   4    2.22    1.22
  -9   2   4    6.75    1.52
  -8   2   4    0.47    0.95
  -7   2   4   41.20    2.64
  -6   2   4  183.81    4.97
  -5   2   4    0.57    0.48
  -4   2   4   65.26    2.12
  -3   2   4    5.85    0.67
  -2   2   4   76.05    2.33
  -1   2   4    2.89    0.50
   0   2   4   30.97    1.21
   1   2   4    3.71    0.44
   2   2   4   75.90    2.45
   3   2   4    6.53    0.47
   4   2   4   60.48    1.41
   5   2   4    0.56    0.39
   6   2   4  191.49    4.30
   7   2   4   33.44    1.42
   8   2   4    0.96    0.51
   9   2   4    4.98    1.05
  10   2   4    1.38    0.87
  11   2   4    6.93    1.35
  12   2   4   20.94    2.04
  13   2   4    5.68    1.33
  14   2   4   -0.92    1.00
 -13   3   4    4.23    1.67
 -12   3   4   20.25    2.61
 -11   3   4    0.47    1.27
 -10   3   4   74.66    4.49
  -9   3   4    9.36    1.79
  -8   3   4    2.01    1.07
  -7   3   4   23.79    2.36
  -6   3   4    0.81    0.86
  -5   3   4    2.92    0.67
  -4   3   4   52.26    2.11
  -3   3   4    6.25    0.83
  -2   3   4   12.61    1.03
  -1   3   4    3.79    0.64
   0   3   4   -0.02    0.40
   1   3   4    5.03    0.59
   2   3   4   13.41    1.79
   3   3   4    6.77    0.95
   4   3   4   51.88    2.28
   5   3   4    3.20    0.81
   6   3   4   -0.22    0.59
   7   3   4   23.15    1.65
   8   3   4    1.65    0.74
   9   3   4    8.70    1.27
  10   3   4   84.24    3.64
  11   3   4    2.63    1.16
  12   3   4   13.54    1.91
  13   3   4    1.50    1.26
 -11   4   4    4.59    1.66
 -10   4   4    0.00    1.22
  -9   4   4    2.87    1.36
  -8   4   4    1.91    1.14
  -7   4   4   12.94    1.95
  -6   4   4   80.74    4.20
  -5   4   4    0.85    0.69
  -4   4   4   27.59    1.65
  -3   4   4    2.58    0.73
  -2   4   4   33.30    3.13
  -1   4   4    2.55    1.16
   0   4   4   11.64    2.01
   1   4   4    0.84    1.06
   2   4   4   30.31    3.09
   3   4   4   -0.24    1.07
   4   4   4   22.45    1.84
   5   4   4    1.91    0.83
   6   4   4   79.57    3.37
   7   4   4   16.37    1.60
   8   4   4    1.37    0.87
   9   4   4    0.42    1.30
  10   4   4    2.67    1.55
  11   4   4    2.82    1.80
  -9   5   4    4.41    1.72
  -8   5   4    2.76    1.42
  -4   5   4   22.57    2.77
  -3   5   4    1.76    1.27
  -2   5   4    1.72    1.50
  -1   5   4    1.83    1.41
   0   5   4    2.47    1.44
   1   5   4   -0.49    1.34
   2   5   4    4.45    1.73
   3   5   4    4.40    1.75
   4   5   4   23.20    3.09
   5   5   4    5.62    1.84
   6   5   4   -0.38    1.31
   7   5   4    5.67    1.32
   8   5   4    0.40    1.02
  -3   6   4   -1.24    1.35
  -2   6   4    6.40    2.04
  -1   6   4    0.55    1.42
   0   6   4    4.73    1.82
   1   6   4   -0.54    1.37
   0  -6   5   -0.90    1.25
  -8  -5   5    8.51    1.40
  -7  -5   5   -0.41    0.77
  -6  -5   5    0.27    0.68
  -5  -5   5    1.32    0.73
  -4  -5   5   33.16    1.79
  -3  -5   5    0.86    0.66
  -2  -5   5    3.81    0.78
  -1  -5   5    4.63    0.78
   0  -5   5    0.01    0.67
   1  -5   5    2.07    0.80
   2  -5   5    2.48    0.83
   3  -5   5    1.09    0.77
   4  -5   5   28.99    3.22
   5  -5   5    1.40    1.25
   6  -5   5   -0.13    1.19
   7  -5   5   -1.25    1.12
   8  -5   5    3.49    1.65
 -11  -4   5   -1.01    0.86
 -10  -4   5    3.86    1.09
  -9  -4   5    0.34    0.81
  -8  -4   5    6.97    1.12
  -7  -4   5    5.43    1.01
  -6  -4   5    1.83    0.76
  -5  -4   5    4.27    0.88
  -4  -4   5    0.73    0.60
  -3  -4   5    0.35    0.47
  -2  -4   5   83.69    2.39
  -1  -4   5    3.80    0.63
   0  -4   5    0.49    0.45
   1  -4   5    4.80    0.66
   2  -4   5   87.48    2.41
   3  -4   5   -0.39    0.44
   4  -4   5    0.22    0.56
   5  -4   5    4.45    0.83
   6  -4   5    2.44    0.78
   7  -4   5    3.83    0.89
   8  -4   5    6.52    1.11
   9  -4   5    0.56    0.77
  10  -4   5    2.96    1.63
  11  -4   5   -1.03    1.48
 -13  -3   5    1.29    1.53
 -12  -3   5    5.93    1.26
 -11  -3   5    0.33    0.81
 -10  -3   5    0.12    0.69
  -9  -3   5    3.28    0.85
  -8  -3   5   18.14    1.52
  -7  -3   5    0.19    0.58
  -6  -3   5    0.06    0.51
  -5  -3   5    2.12    0.64
  -4  -3   5   78.16    2.66
  -3  -3   5    2.86    0.63
  -2  -3   5   12.96    1.01
  -1  -3   5   12.68    0.82
   0  -3   5    1.48    0.42
   1  -3   5   12.84    0.80
   2  -3   5   12.44    0.82
   3  -3   5    3.98    0.55
   4  -3   5   80.55    2.16
   5  -3   5    2.47    0.53
   6  -3   5    0.47    0.45
   7  -3   5    0.77    0.50
   8  -3   5   15.31    1.43
   9  -3   5    3.18    0.88
  10  -3   5    1.23    0.81
  11  -3   5    1.46    0.88
  12  -3   5    5.31    1.19
  13  -3   5   -0.94    1.10
 -14  -2   5    1.29    1.41
 -13  -2   5    6.32    1.76
 -12  -2   5   41.18    3.16
 -11  -2   5    0.45    0.99
 -10  -2   5    5.85    1.40
  -9  -2   5    0.57    0.84
  -8  -2   5   15.81    1.84
  -7  -2   5   12.49    1.61
  -6  -2   5    8.69    0.91
  -5  -2   5   10.57    0.96
  -4  -2   5    0.22    0.39
  -3  -2   5    0.12    0.34
  -2  -2   5  198.12    3.97
  -1  -2   5   10.48    0.76
   0  -2   5   -0.43    0.22
   1  -2   5   11.46    0.61
   2  -2   5  200.30    4.11
   3  -2   5   -0.33    0.25
   4  -2   5    1.44    0.38
   5  -2   5    9.87    0.74
   6  -2   5    7.15    0.72
   7  -2   5   13.51    1.01
   8  -2   5   16.65    1.17
   9  -2   5   -0.22    0.51
  10  -2   5    9.12    1.02
  11  -2   5    0.14    0.63
  12  -2   5   37.47    2.51
  13  -2   5    7.88    1.36
  14  -2   5    0.54    0.95
 -14  -1   5   28.41    3.12
 -13  -1   5   -0.37    1.07
 -12  -1   5   12.66    2.04
 -11  -1   5    0.35    0.93
 -10  -1   5   -0.18    0.84
  -9  -1   5    7.03    0.84
  -8  -1   5   31.67    1.49
  -7  -1   5   -0.23    0.39
  -6  -1   5    0.08    0.36
  -5  -1   5    5.66    0.56
  -4  -1   5  173.05    4.01
  -3  -1   5    8.01    0.55
  -2  -1   5   22.95    0.69
  -1  -1   5   30.29    0.80
   0  -1   5    4.94    0.34
   1  -1   5   27.91    0.76
   2  -1   5   21.78    0.62
   3  -1   5    8.36    0.52
   4  -1   5  157.30    3.46
   5  -1   5    5.41    0.58
   6  -1   5   -0.48    0.34
   7  -1   5    0.23    0.46
   8  -1   5   34.55    1.57
   9  -1   5    5.80    0.85
  10  -1   5    0.21    0.56
  11  -1   5    2.11    0.68
  12  -1   5   12.47    1.25
  13  -1   5    0.77    0.73
  14  -1   5   33.28    2.12
 -15   0   5   -2.00    1.22
 -14   0   5    4.51    1.51
 -13   0   5    8.63    1.20
 -12   0   5   52.63    2.34
 -11   0   5   -0.54    0.56
 -10   0   5   12.08    1.17
  -9   0   5    0.42    0.55
  -8   0   5   22.14    1.39
  -7   0   5   17.16    1.15
  -6   0   5   10.14    0.81
  -5   0   5   15.46    0.89
  -4   0   5    1.26    0.35
  -3   0   5    0.90    0.29
  -2   0   5  339.13    7.66
  -1   0   5   19.22    0.71
   0   0   5   -0.20    0.22
   1   0   5   18.84    0.54
   2   0   5  338.56    5.60
   3   0   5    0.39    0.24
   4   0   5    0.99    0.29
   5   0   5   14.88    0.87
   6   0   5   10.13    0.80
   7   0   5   16.15    1.06
   8   0   5   19.05    1.22
   9   0   5   -0.19    0.46
  10   0   5   13.34    1.13
  11   0   5    1.35    0.64
  12   0   5   50.40    2.11
  13   0   5    7.55    1.09
  14   0   5    3.70    0.92
  15   0   5    0.50    0.86
 -15   1   5    1.19    1.34
 -14   1   5   28.50    3.04
 -13   1   5    1.40    0.81
 -12   1   5   10.62    1.28
 -11   1   5    2.32    0.75
 -10   1   5   -0.37    0.57
  -9   1   5    7.21    1.40
  -8   1   5   29.67    2.30
  -7   1   5    0.53    0.78
  -6   1   5    0.01    0.67
  -5   1   5    5.84    0.65
  -4   1   5  154.88    4.17
  -3   1   5    6.83    0.63
  -2   1   5   21.09    1.01
  -1   1   5   28.49    1.13
   0   1   5    5.28    0.51
   1   1   5   29.48    0.73
   2   1   5   21.04    0.57
   3   1   5    7.86    0.40
   4   1   5  163.95    2.66
   5   1   5    5.58    0.41
   6   1   5    0.27    0.33
   7   1   5    0.33    0.39
   8   1   5   32.61    1.64
   9   1   5    4.70    0.82
  10   1   5   -0.54    0.54
  11   1   5    1.62    0.68
  12   1   5   12.81    1.23
  13   1   5    0.54    0.71
  14   1   5   30.28    2.48
  15   1   5    4.88    1.86
 -14   2   5    3.98    1.63
 -13   2   5    4.04    1.59
 -12   2   5   44.63    3.30
 -11   2   5   -0.20    1.03
 -10   2   5    7.63    1.62
  -9   2   5   -0.40    0.82
  -8   2   5   15.19    1.97
  -7   2   5   12.24    1.68
  -6   2   5    8.12    0.87
  -5   2   5   11.38    0.94
  -4   2   5    1.51    0.51
  -3   2   5    0.31    0.40
  -2   2   5  198.48    5.11
  -1   2   5   10.36    0.79
   0   2   5    0.04    0.35
   1   2   5   12.47    0.77
   2   2   5  200.69    5.30
   3   2   5    0.65    0.29
   4   2   5    0.75    0.29
   5   2   5   10.68    0.61
   6   2   5    7.11    0.75
   7   2   5   10.21    0.87
   8   2   5   16.95    1.16
   9   2   5    0.22    0.70
  10   2   5    8.35    1.32
  11   2   5   -0.26    0.86
  12   2   5   33.06    2.63
  13   2   5    6.61    1.38
  14   2   5    1.98    1.18
 -12   3   5    8.76    2.00
 -11   3   5   -0.44    1.13
 -10   3   5   -0.40    1.08
  -9   3   5    2.35    1.20
  -8   3   5   16.77    2.10
  -7   3   5    0.64    0.89
  -6   3   5    1.07    0.91
  -5   3   5    3.08    0.69
  -4   3   5   78.42    2.71
  -3   3   5    4.22    0.72
  -2   3   5   12.56    1.04
  -1   3   5   13.82    1.07
   0   3   5    0.85    0.49
   1   3   5   13.75    0.95
   2   3   5   11.56    1.75
   3   3   5    2.58    0.75
   4   3   5   75.90    2.90
   5   3   5    2.66    0.77
   6   3   5    0.18    0.61
   7   3   5    0.55    0.67
   8   3   5   16.17    1.49
   9   3   5    2.77    0.93
  10   3   5    0.36    0.84
  11   3   5   -0.24    0.87
  12   3   5    4.84    1.48
  13   3   5    0.80    1.58
 -11   4   5    0.48    1.41
 -10   4   5    4.25    1.54
  -9   4   5    0.58    1.10
  -8   4   5    6.94    1.60
  -7   4   5    4.63    1.39
  -6   4   5    1.88    1.11
  -5   4   5    3.85    0.86
  -4   4   5   -0.28    0.62
  -3   4   5    0.01    0.57
  -2   4   5   84.84    2.93
  -1   4   5    2.19    1.25
   0   4   5    0.22    1.02
   1   4   5    4.36    1.52
   2   4   5   86.15    4.97
   3   4   5    0.76    1.15
   4   4   5    2.67    1.30
   5   4   5    4.42    0.99
   6   4   5    3.42    1.04
   7   4   5    4.76    1.06
   8   4   5    6.84    1.23
   9   4   5    0.92    1.22
  10   4   5    2.00    1.55
  11   4   5   -1.48    1.33
  -9   5   5    0.45    1.42
  -8   5   5    8.31    1.94
  -4   5   5   34.34    3.43
  -3   5   5    3.37    1.51
  -2   5   5    5.81    1.71
  -1   5   5    3.93    1.57
   0   5   5    0.30    1.22
   1   5   5    3.56    1.67
   2   5   5    6.42    1.86
   3   5   5    3.53    1.57
   4   5   5   28.17    3.44
   5   5   5    0.56    1.31
   6   5   5   -1.64    1.23
   7   5   5    1.27    1.49
   8   5   5    9.04    1.50
  -3   6   5    0.11    1.59
  -2   6   5   30.49    3.69
  -1   6   5   -0.63    1.38
   0   6   5   -0.33    1.37
  -8  -5   6   12.84    1.59
  -7  -5   6   -0.20    0.84
  -6  -5   6    1.13    0.75
  -5  -5   6   -0.25    0.66
  -4  -5   6    4.53    0.85
  -3  -5   6    6.09    0.89
  -2  -5   6    1.61    0.80
  -1  -5   6    7.44    1.14
   0  -5   6    0.91    0.73
   1  -5   6    8.51    1.16
   2  -5   6    0.86    0.74
   3  -5   6    4.82    1.01
   4  -5   6    4.75    1.03
   5  -5   6   -0.60    1.15
   6  -5   6    1.66    1.38
   7  -5   6    0.43    1.36
   8  -5   6   11.71    2.42
 -11  -4   6    0.64    0.96
 -10  -4   6    6.57    1.28
  -9  -4   6    4.13    1.08
  -8  -4   6   28.18    2.06
  -7  -4   6   -1.33    0.57
  -6  -4   6   13.78    1.35
  -5  -4   6    0.50    0.63
  -4  -4   6    5.12    0.90
  -3  -4   6   12.97    1.02
  -2  -4   6    4.13    0.65
  -1  -4   6   22.15    1.22
   0  -4   6   19.53    1.17
   1  -4   6   19.59    1.17
   2  -4   6    4.00    0.64
   3  -4   6   12.71    1.25
   4  -4   6    5.84    0.95
   5  -4   6   -0.56    0.57
   6  -4   6   13.55    1.39
   7  -4   6   -0.26    0.63
   8  -4   6   24.97    1.95
   9  -4   6    4.06    1.09
  10  -4   6    4.45    1.09
  11  -4   6    2.71    1.86
 -13  -3   6    0.26    1.42
 -12  -3   6    0.47    0.91
 -11  -3   6    1.02    0.87
 -10  -3   6    4.66    1.02
  -9  -3   6    0.66    0.68
  -8  -3   6   29.98    1.84
  -7  -3   6    2.27    0.71
  -6  -3   6    0.98    0.61
  -5  -3   6    0.64    0.55
  -4  -3   6   12.31    1.08
  -3  -3   6   14.75    1.14
  -2  -3   6    0.20    0.47
  -1  -3   6   28.16    1.09
   0  -3   6    0.28    0.36
   1  -3   6   26.76    1.06
   2  -3   6    1.44    0.44
   3  -3   6   15.28    0.92
   4  -3   6   11.22    0.83
   5  -3   6   -0.04    0.42
   6  -3   6    1.25    0.50
   7  -3   6    1.30    0.67
   8  -3   6   31.16    1.90
   9  -3   6    1.35    0.74
  10  -3   6    4.92    1.09
  11  -3   6   -0.38    0.73
  12  -3   6   -0.09    0.84
  13  -3   6   -0.13    0.96
 -14  -2   6   -1.26    1.17
 -13  -2   6    0.14    1.10
 -12  -2   6   22.83    2.58
 -11  -2   6    2.39    1.10
 -10  -2   6    7.83    1.54
  -9  -2   6    8.39    1.51
  -8  -2   6   58.83    3.30
  -7  -2   6    0.33    0.50
  -6  -2   6   27.66    1.47
  -5  -2   6    0.02    0.42
  -4  -2   6   12.06    0.94
  -3  -2   6   27.39    0.85
  -2  -2   6   12.07    0.58
  -1  -2   6   53.59    1.35
   0  -2   6   45.69    1.04
   1  -2   6   55.73    1.40
   2  -2   6   11.76    0.64
   3  -2   6   27.36    0.97
   4  -2   6   12.66    0.77
   5  -2   6    0.17    0.36
   6  -2   6   31.28    1.29
   7  -2   6    0.11    0.43
   8  -2   6   57.44    1.99
   9  -2   6    6.94    0.86
  10  -2   6   10.58    1.37
  11  -2   6    2.56    0.91
  12  -2   6   14.76    1.73
  13  -2   6    0.01    0.78
  14  -2   6   -0.09    1.10
 -14  -1   6    0.99    1.28
 -13  -1   6    0.52    1.08
 -12  -1   6   -1.62    0.76
 -11  -1   6    0.64    0.94
 -10  -1   6    9.28    1.50
  -9  -1   6    1.58    0.58
  -8  -1   6   49.05    1.87
  -7  -1   6    2.86    0.60
  -6  -1   6    2.72    0.52
  -5  -1   6    2.00    0.44
  -4  -1   6   23.99    0.99
  -3  -1   6   25.06    0.80
  -2  -1   6    2.59    0.30
  -1  -1   6   55.98    1.27
   0  -1   6   -0.17    0.20
   1  -1   6   54.43    1.31
   2  -1   6    2.67    0.26
   3  -1   6   24.62    0.74
   4  -1   6   23.24    0.92
   5  -1   6    2.52    0.44
   6  -1   6    3.05    0.54
   7  -1   6    3.24    0.62
   8  -1   6   49.32    1.87
   9  -1   6    0.75    0.56
  10  -1   6    6.88    0.93
  11  -1   6    1.25    0.64
  12  -1   6    0.33    0.65
  13  -1   6    0.45    0.70
  14  -1   6    0.13    0.87
 -15   0   6   -0.07    1.33
 -14   0   6   -0.16    1.16
 -13   0   6    0.23    0.79
 -12   0   6   26.68    1.88
 -11   0   6    3.41    0.83
 -10   0   6   17.57    1.36
  -9   0   6   10.79    1.05
  -8   0   6   83.08    2.65
  -7   0   6    0.03    0.42
  -6   0   6   43.13    1.57
  -5   0   6    0.69    0.36
  -4   0   6   18.38    0.87
  -3   0   6   44.98    1.36
  -2   0   6   17.47    0.73
  -1   0   6   95.12    2.33
   0   0   6   75.36    1.95
   1   0   6   93.29    2.37
   2   0   6   16.68    0.56
   3   0   6   43.26    1.05
   4   0   6   17.56    0.69
   5   0   6    0.29    0.27
   6   0   6   39.39    1.43
   7   0   6    0.64    0.44
   8   0   6   77.24    2.37
   9   0   6   11.33    1.01
  10   0   6   14.21    1.20
  11   0   6    1.89    0.62
  12   0   6   23.40    1.64
  13   0   6   -0.15    0.70
  14   0   6    0.35    0.75
  15   0   6    1.07    1.53
 -15   1   6    6.25    1.82
 -14   1   6    0.35    1.15
 -13   1   6    0.84    0.77
 -12   1   6    0.71    0.74
 -11   1   6    0.22    0.64
 -10   1   6    8.79    1.06
  -9   1   6    1.36    0.60
  -8   1   6   50.39    1.98
  -7   1   6    4.37    1.05
  -6   1   6    3.60    0.93
  -5   1   6    2.24    0.54
  -4   1   6   23.38    0.85
  -3   1   6   24.44    0.80
  -2   1   6    2.19    0.45
  -1   1   6   54.72    1.75
   0   1   6    0.31    0.33
   1   1   6   57.28    1.33
   2   1   6    2.59    0.26
   3   1   6   26.07    0.69
   4   1   6   24.38    0.71
   5   1   6    1.58    0.29
   6   1   6    4.04    0.49
   7   1   6    2.68    0.49
   8   1   6   48.99    1.94
   9   1   6    1.30    0.60
  10   1   6    8.08    0.93
  11   1   6    0.68    0.62
  12   1   6    0.06    0.62
  13   1   6   -0.36    0.64
  14   1   6   -0.63    0.93
  15   1   6    8.00    2.20
 -14   2   6    1.05    1.30
 -13   2   6   -0.14    1.24
 -12   2   6   18.67    2.49
 -11   2   6    2.21    1.30
 -10   2   6   11.12    1.81
  -9   2   6    6.83    1.45
  -8   2   6   58.78    3.38
  -7   2   6   -0.65    0.74
  -6   2   6   30.29    1.54
  -5   2   6    0.62    0.52
  -4   2   6   12.88    1.00
  -3   2   6   26.15    1.32
  -2   2   6   10.80    0.87
  -1   2   6   54.84    1.84
   0   2   6   43.14    1.61
   1   2   6   52.84    1.78
   2   2   6   11.42    0.67
   3   2   6   28.72    1.00
   4   2   6   11.75    0.62
   5   2   6    0.42    0.30
   6   2   6   29.37    1.30
   7   2   6   -0.09    0.43
   8   2   6   54.72    1.97
   9   2   6    6.66    1.07
  10   2   6    9.76    1.40
  11   2   6    0.47    0.89
  12   2   6   15.74    1.82
  13   2   6    0.97    1.01
  14   2   6    0.81    1.04
 -12   3   6    1.71    1.43
 -11   3   6   -0.03    1.09
 -10   3   6    9.07    1.80
  -9   3   6    0.26    0.98
  -8   3   6   29.45    2.78
  -7   3   6    3.08    1.15
  -6   3   6    1.94    0.98
  -5   3   6    1.11    0.60
  -4   3   6   12.93    1.12
  -3   3   6   13.76    1.16
  -2   3   6    0.38    0.52
  -1   3   6   27.79    1.41
   0   3   6   -0.04    0.44
   1   3   6   23.86    1.28
   2   3   6    0.78    0.44
   3   3   6   13.97    1.31
   4   3   6   11.56    1.21
   5   3   6    1.03    0.66
   6   3   6    1.36    0.68
   7   3   6    1.81    0.72
   8   3   6   29.10    1.98
   9   3   6    0.66    0.75
  10   3   6    3.23    1.05
  11   3   6   -1.67    0.82
  12   3   6   -1.50    1.00
 -11   4   6    2.24    1.50
 -10   4   6    9.30    1.90
  -9   4   6    7.96    1.76
  -8   4   6   33.72    3.08
  -7   4   6    1.30    1.08
  -6   4   6   14.79    1.98
  -5   4   6    0.33    0.62
  -4   4   6    5.05    0.94
  -3   4   6   11.19    1.14
  -2   4   6    4.98    0.85
  -1   4   6   18.78    2.35
   0   4   6   21.31    2.50
   1   4   6   24.89    2.73
   2   4   6    7.94    1.70
   3   4   6   12.38    2.09
   4   4   6    4.89    1.52
   5   4   6   -0.01    0.70
   6   4   6   13.71    1.54
   7   4   6    0.15    0.79
   8   4   6   30.04    2.25
   9   4   6    1.76    1.41
  10   4   6    3.24    1.60
  11   4   6   -0.80    1.35
  -8   5   6   17.08    2.38
  -4   5   6    6.16    1.80
  -3   5   6    6.57    1.79
  -2   5   6   -0.81    1.06
  -1   5   6    7.40    1.83
   0   5   6    0.32    1.21
   1   5   6    7.25    1.98
   2   5   6   -0.03    1.31
   3   5   6    5.75    1.91
   4   5   6    5.68    1.81
   5   5   6    0.33    1.29
   6   5   6    0.68    1.47
   7   5   6    0.76    1.53
   8   5   6   15.04    1.88
  -3   6   6    2.34    1.77
  -2   6   6    1.22    1.69
  -1   6   6    8.77    2.27
  -2  -6   7    3.99    1.71
  -8  -5   7    7.66    1.34
  -7  -5   7   15.26    1.62
  -6  -5   7    4.09    0.88
  -5  -5   7    0.88    0.85
  -4  -5   7   -0.76    0.72
  -3  -5   7   13.22    1.43
  -2  -5   7    9.70    1.25
  -1  -5   7    7.23    1.13
   0  -5   7   57.91    2.64
   1  -5   7    4.21    0.95
   2  -5   7   10.94    1.34
   3  -5   7   13.11    1.42
   4  -5   7    0.36    0.78
   5  -5   7    0.53    0.82
   6  -5   7    1.64    0.91
   7  -5   7   11.32    2.26
 -11  -4   7    1.91    1.52
 -10  -4   7    9.38    1.41
  -9  -4   7    1.59    0.87
  -8  -4   7    9.77    1.29
  -7  -4   7   -0.06    0.65
  -6  -4   7   27.84    1.91
  -5  -4   7    5.82    0.96
  -4  -4   7   -0.04    0.58
  -3  -4   7   32.32    1.42
  -2  -4   7    4.02    0.65
  -1  -4   7    3.40    0.61
   0  -4   7   -0.48    0.46
   1  -4   7    3.98    0.81
   2  -4   7    4.18    0.80
   3  -4   7   33.64    1.79
   4  -4   7    0.62    0.60
   5  -4   7    5.03    0.92
   6  -4   7   26.14    1.86
   7  -4   7    0.45    0.68
   8  -4   7    7.72    1.22
   9  -4   7   -0.53    0.74
  10  -4   7    7.19    1.31
  11  -4   7   -0.44    1.09
 -13  -3   7    7.70    2.13
 -12  -3   7    0.77    0.90
 -11  -3   7    8.75    1.28
 -10  -3   7   16.61    1.58
  -9  -3   7    1.08    0.71
  -8  -3   7   18.11    1.53
  -7  -3   7   28.14    1.82
  -6  -3   7    9.98    1.10
  -5  -3   7    4.30    0.75
  -4  -3   7    0.98    0.51
  -3  -3   7   34.96    1.61
  -2  -3   7   26.08    1.42
  -1  -3   7   17.53    0.95
   0  -3   7  149.53    3.37
   1  -3   7   16.05    0.91
   2  -3   7   30.43    1.14
   3  -3   7   35.83    1.27
   4  -3   7    0.51    0.54
   5  -3   7    3.35    0.72
   6  -3   7   10.52    1.12
   7  -3   7   28.56    1.88
   8  -3   7   20.20    1.67
   9  -3   7    0.54    0.73
  10  -3   7   11.62    1.51
  11  -3   7    3.78    1.11
  12  -3   7   -0.41    0.85
  13  -3   7    5.90    1.66
 -13  -2   7    2.04    1.33
 -12  -2   7    1.72    1.19
 -11  -2   7    0.03    0.99
 -10  -2   7   22.47    2.41
  -9  -2   7    2.41    1.02
  -8  -2   7   20.10    2.06
  -7  -2   7    0.04    0.49
  -6  -2   7   57.49    2.20
  -5  -2   7   13.21    1.04
  -4  -2   7    0.22    0.41
  -3  -2   7   77.39    1.79
  -2  -2   7    9.26    0.54
  -1  -2   7    7.25    0.50
   0  -2   7   -0.11    0.20
   1  -2   7    7.80    0.44
   2  -2   7    8.87    0.55
   3  -2   7   74.61    1.88
   4  -2   7    0.54    0.36
   5  -2   7   11.43    0.79
   6  -2   7   60.86    1.85
   7  -2   7    1.14    0.48
   8  -2   7   17.36    1.18
   9  -2   7    1.80    0.83
  10  -2   7   16.19    1.70
  11  -2   7    0.88    0.77
  12  -2   7    0.79    0.80
  13  -2   7    3.48    1.15
  14  -2   7    9.61    2.08
 -14  -1   7    5.14    1.61
 -13  -1   7   13.45    2.12
 -12  -1   7    0.67    0.97
 -11  -1   7   16.01    2.04
 -10  -1   7   27.26    2.52
  -9  -1   7    0.67    0.51
  -8  -1   7   32.27    1.50
  -7  -1   7   51.12    1.87
  -6  -1   7   18.26    1.09
  -5  -1   7    8.29    0.71
  -4  -1   7    1.62    0.41
  -3  -1   7   67.05    1.55
  -2  -1   7   52.09    1.27
  -1  -1   7   33.85    0.91
   0  -1   7  308.03    5.86
   1  -1   7   32.45    0.94
   2  -1   7   50.83    1.34
   3  -1   7   64.01    1.37
   4  -1   7    1.30    0.33
   5  -1   7    7.04    0.62
   6  -1   7   16.52    1.01
   7  -1   7   50.81    1.82
   8  -1   7   34.62    1.60
   9  -1   7    0.64    0.58
  10  -1   7   25.24    1.55
  11  -1   7   11.90    1.16
  12  -1   7    0.32    0.73
  13  -1   7   11.41    1.51
  14  -1   7    2.40    1.04
 -15   0   7    2.24    1.43
 -14   0   7   12.20    2.17
 -13   0   7    8.48    1.72
 -12   0   7   -0.24    0.66
 -11   0   7    1.44    0.72
 -10   0   7   26.80    1.70
  -9   0   7    1.33    0.59
  -8   0   7   23.19    1.43
  -7   0   7    1.23    0.49
  -6   0   7   88.34    2.57
  -5   0   7   16.45    0.91
  -4   0   7    0.62    0.34
  -3   0   7  112.45    2.88
  -2   0   7   12.87    0.66
  -1   0   7   12.60    0.62
   0   0   7    0.02    0.24
   1   0   7   11.79    0.55
   2   0   7   13.93    0.51
   3   0   7  114.68    2.16
   4   0   7    0.59    0.27
   5   0   7   14.87    0.73
   6   0   7   86.21    2.30
   7   0   7    0.53    0.45
   8   0   7   27.22    1.33
   9   0   7    1.57    0.58
  10   0   7   26.17    1.56
  11   0   7    2.21    0.67
  12   0   7    0.39    0.63
  13   0   7    6.17    1.00
  14   0   7   13.00    1.40
 -15   1   7    2.23    1.56
 -14   1   7    5.60    1.65
 -13   1   7    9.65    1.89
 -12   1   7   -0.69    0.63
 -11   1   7   13.41    1.34
 -10   1   7   25.48    1.71
  -9   1   7    1.53    0.65
  -8   1   7   35.19    1.63
  -7   1   7   49.63    1.90
  -6   1   7   16.11    1.04
  -5   1   7    7.72    0.57
  -4   1   7    2.27    0.33
  -3   1   7   63.69    1.55
  -2   1   7   50.42    1.77
  -1   1   7   33.23    1.34
   0   1   7  311.09    7.38
   1   1   7   34.14    0.98
   2   1   7   53.49    1.06
   3   1   7   67.44    1.28
   4   1   7    2.08    0.29
   5   1   7    7.50    0.48
   6   1   7   19.05    0.77
   7   1   7   51.29    1.54
   8   1   7   36.29    1.63
   9   1   7    2.13    0.66
  10   1   7   27.49    1.63
  11   1   7   10.54    1.11
  12   1   7   -0.26    0.60
  13   1   7   11.76    1.25
  14   1   7    3.96    0.95
  15   1   7    2.89    1.94
 -14   2   7    9.08    2.07
 -13   2   7    2.81    1.58
 -12   2   7   -0.78    1.03
 -11   2   7    0.03    1.07
 -10   2   7   21.06    2.41
  -9   2   7    2.24    1.16
  -8   2   7   15.10    1.94
  -7   2   7   -0.47    0.74
  -6   2   7   58.95    2.26
  -5   2   7   10.95    0.98
  -4   2   7    0.27    0.48
  -3   2   7   73.05    2.46
  -2   2   7   10.45    0.86
  -1   2   7    7.92    0.77
   0   2   7    0.26    0.36
   1   2   7    7.36    0.69
   2   2   7    8.54    0.62
   3   2   7   75.86    1.94
   4   2   7    0.68    0.30
   5   2   7    9.48    0.63
   6   2   7   60.55    1.55
   7   2   7    0.39    0.46
   8   2   7   16.63    1.17
   9   2   7    2.97    0.88
  10   2   7   17.23    1.74
  11   2   7    1.04    0.94
  12   2   7   -0.66    0.88
  13   2   7    1.77    1.08
  14   2   7    7.28    2.03
 -12   3   7   -0.37    1.26
 -11   3   7    7.48    1.80
 -10   3   7   17.00    2.30
  -9   3   7    0.54    1.09
  -8   3   7   16.39    2.18
  -7   3   7   27.26    2.59
  -6   3   7    6.11    1.39
  -5   3   7    4.48    0.79
  -4   3   7    0.21    0.58
  -3   3   7   32.98    1.63
  -2   3   7   27.73    1.49
  -1   3   7   17.01    1.21
   0   3   7  149.95    4.19
   1   3   7   15.96    1.12
   2   3   7   25.15    2.55
   3   3   7   32.20    2.65
   4   3   7    0.84    0.65
   5   3   7    3.54    0.85
   6   3   7    7.72    1.08
   7   3   7   28.51    1.81
   8   3   7   21.61    1.71
   9   3   7    0.97    0.78
  10   3   7   16.13    1.76
  11   3   7    3.80    1.26
  12   3   7   -0.33    1.14
 -10   4   7    8.80    1.99
  -9   4   7   -0.25    1.19
  -8   4   7    6.17    1.59
  -7   4   7    0.21    1.00
  -6   4   7   30.43    2.73
  -5   4   7    6.20    1.00
  -4   4   7   -0.70    0.59
  -3   4   7   31.97    1.81
  -2   4   7    3.82    0.79
  -1   4   7    1.37    1.20
   0   4   7   -0.77    0.97
   1   4   7    2.92    1.34
   2   4   7    5.55    1.55
   3   4   7   30.63    3.19
   4   4   7   -0.66    0.96
   5   4   7    5.28    1.07
   6   4   7   26.01    2.07
   7   4   7    0.43    0.81
   8   4   7    7.25    1.29
   9   4   7    0.81    1.33
  10   4   7    5.55    1.85
  -8   5   7    9.85    1.96
  -4   5   7    1.62    1.30
  -3   5   7   13.28    2.32
  -2   5   7    9.31    2.05
  -1   5   7    5.89    1.79
   0   5   7   57.14    4.26
   1   5   7    6.54    1.88
   2   5   7   12.58    2.39
   3   5   7   12.28    2.41
   4   5   7   -0.13    1.27
   5   5   7    0.04    1.35
   6   5   7    4.63    1.78
   7   5   7   16.68    2.76
   8   5   7    8.14    2.16
  -2  -6   8   11.23    2.20
  -1  -6   8    7.55    1.95
  -8  -5   8   13.30    2.30
  -7  -5   8    0.33    0.87
  -6  -5   8   24.80    2.02
  -5  -5   8    2.57    0.97
  -4  -5   8    1.84    0.90
  -3  -5   8   20.51    1.73
  -2  -5   8   16.83    1.58
  -1  -5   8    7.54    1.16
   0  -5   8    0.49    0.72
   1  -5   8    7.15    1.13
   2  -5   8   16.95    1.60
   3  -5   8   22.27    1.84
   4  -5   8    2.12    0.90
   5  -5   8    2.11    0.93
   6  -5   8   22.26    1.94
   7  -5   8   -1.93    1.11
 -11  -4   8    0.92    1.37
 -10  -4   8   10.33    1.44
  -9  -4   8   -0.32    0.79
  -8  -4   8    5.70    1.06
  -7  -4   8    0.22    0.69
  -6  -4   8    9.83    1.21
  -5  -4   8    0.83    0.66
  -4  -4   8    8.03    1.07
  -3  -4   8    0.60    0.50
  -2  -4   8   31.51    1.42
  -1  -4   8   23.16    1.59
   0  -4   8   53.17    2.26
   1  -4   8   19.00    1.50
   2  -4   8   31.78    1.84
   3  -4   8    0.05    0.62
   4  -4   8    8.09    1.08
   5  -4   8    1.69    0.72
   6  -4   8    9.90    1.20
   7  -4   8    0.88    0.77
   8  -4   8    2.31    0.89
   9  -4   8   -0.03    0.79
  10  -4   8    8.91    1.47
  11  -4   8    1.03    1.27
 -13  -3   8    0.74    1.48
 -12  -3   8    2.29    1.02
 -11  -3   8    0.51    0.78
 -10  -3   8    2.29    0.86
  -9  -3   8    1.26    0.73
  -8  -3   8   25.91    1.82
  -7  -3   8    1.64    0.68
  -6  -3   8   55.62    2.34
  -5  -3   8    7.79    0.96
  -4  -3   8   11.01    1.05
  -3  -3   8   47.15    1.92
  -2  -3   8   43.39    1.82
  -1  -3   8   17.58    0.95
   0  -3   8    0.22    0.36
   1  -3   8   20.55    0.99
   2  -3   8   42.49    1.82
   3  -3   8   46.92    1.96
   4  -3   8   10.56    1.03
   5  -3   8    7.44    0.94
   6  -3   8   59.70    2.42
   7  -3   8    1.05    0.66
   8  -3   8   24.13    1.85
   9  -3   8    0.75    0.75
  10  -3   8    0.92    0.85
  11  -3   8   -0.45    0.81
  12  -3   8    2.37    1.06
 -13  -2   8    9.24    1.90
 -12  -2   8    4.74    1.46
 -11  -2   8    0.78    1.05
 -10  -2   8   21.97    2.36
  -9  -2   8    1.28    0.93
  -8  -2   8    7.54    0.98
  -7  -2   8    1.84    0.63
  -6  -2   8   26.05    1.47
  -5  -2   8    2.24    0.57
  -4  -2   8   21.38    1.19
  -3  -2   8    1.55    0.34
  -2  -2   8   71.86    1.73
  -1  -2   8   49.87    1.32
   0  -2   8  120.16    2.25
   1  -2   8   47.78    1.12
   2  -2   8   69.10    2.25
   3  -2   8    1.23    0.37
   4  -2   8   22.91    0.97
   5  -2   8    2.26    0.50
   6  -2   8   25.07    1.62
   7  -2   8    1.79    0.65
   8  -2   8    7.27    1.07
   9  -2   8   -0.60    0.62
  10  -2   8   14.47    1.64
  11  -2   8    2.34    0.86
  12  -2   8    6.23    1.24
  13  -2   8    5.32    1.21
 -14  -1   8   28.26    3.07
 -13  -1   8    0.15    1.13
 -12  -1   8    2.65    1.21
 -11  -1   8    0.61    0.96
 -10  -1   8    4.25    1.17
  -9  -1   8    2.68    0.99
  -8  -1   8   49.96    1.88
  -7  -1   8    2.44    0.58
  -6  -1   8  108.08    3.03
  -5  -1   8   17.77    0.98
  -4  -1   8   19.79    0.96
  -3  -1   8   92.19    2.05
  -2  -1   8   84.09    1.85
  -1  -1   8   38.20    1.01
   0  -1   8    1.15    0.27
   1  -1   8   36.45    1.05
   2  -1   8   82.47    1.93
   3  -1   8   89.47    1.79
   4  -1   8   19.51    0.72
   5  -1   8   17.13    0.91
   6  -1   8  106.62    2.74
   7  -1   8    2.80    0.59
   8  -1   8   48.42    1.85
   9  -1   8    2.71    0.62
  10  -1   8    4.13    0.76
  11  -1   8   -0.06    0.65
  12  -1   8    4.19    1.03
  13  -1   8   -0.53    0.77
  14  -1   8   23.16    2.18
 -14   0   8    8.65    1.94
 -13   0   8   10.12    1.86
 -12   0   8   10.92    1.24
 -11   0   8    1.59    0.72
 -10   0   8   26.12    1.66
  -9   0   8    0.58    0.56
  -8   0   8   11.32    1.01
  -7   0   8    1.84    0.54
  -6   0   8   33.55    1.39
  -5   0   8    3.78    0.53
  -4   0   8   33.24    1.22
  -3   0   8    1.45    0.35
  -2   0   8  112.65    2.84
  -1   0   8   70.17    1.91
   0   0   8  176.15    4.29
   1   0   8   68.90    1.95
   2   0   8  116.43    2.08
   3   0   8    2.16    0.29
   4   0   8   32.63    0.94
   5   0   8    4.28    0.44
   6   0   8   35.76    1.30
   7   0   8    2.50    0.53
   8   0   8   12.94    1.00
   9   0   8    1.32    0.55
  10   0   8   24.31    1.52
  11   0   8    1.22    0.63
  12   0   8    9.32    1.10
  13   0   8   10.99    1.23
  14   0   8   13.25    1.76
 -14   1   8   23.67    2.84
 -13   1   8    1.56    1.24
 -12   1   8    4.48    1.38
 -11   1   8    0.33    0.95
 -10   1   8    2.44    0.69
  -9   1   8    2.61    0.69
  -8   1   8   46.17    1.89
  -7   1   8    2.38    0.56
  -6   1   8  104.00    3.02
  -5   1   8   15.27    0.90
  -4   1   8   19.19    0.78
  -3   1   8   91.43    2.79
  -2   1   8   85.85    2.55
  -1   1   8   38.07    1.48
   0   1   8    0.37    0.24
   1   1   8   39.99    1.11
   2   1   8   84.26    1.51
   3   1   8   94.55    1.68
   4   1   8   18.20    0.67
   5   1   8   15.54    0.69
   6   1   8  107.25    2.07
   7   1   8    3.06    0.53
   8   1   8   46.96    1.84
   9   1   8    2.43    0.68
  10   1   8    3.56    0.76
  11   1   8    0.56    0.62
  12   1   8    4.76    0.90
  13   1   8    0.56    0.71
  14   1   8   24.54    1.82
 -13   2   8   12.04    2.20
 -12   2   8    5.12    1.56
 -11   2   8    1.23    1.13
 -10   2   8   15.53    2.11
  -9   2   8    1.28    1.01
  -8   2   8    7.73    1.49
  -7   2   8    1.45    0.91
  -6   2   8   25.47    1.59
  -5   2   8    3.23    0.71
  -4   2   8   21.37    1.38
  -3   2   8    0.60    0.52
  -2   2   8   73.37    2.40
  -1   2   8   51.00    1.84
   0   2   8  123.94    3.43
   1   2   8   47.45    1.75
   2   2   8   72.51    2.29
   3   2   8    0.94    0.38
   4   2   8   23.39    0.88
   5   2   8    2.50    0.42
   6   2   8   24.85    1.00
   7   2   8    0.90    0.50
   8   2   8    7.98    0.86
   9   2   8    0.58    0.72
  10   2   8   16.12    1.69
  11   2   8    1.94    1.01
  12   2   8    2.23    1.06
  13   2   8    7.93    1.47
  14   2   8    9.63    2.16
 -12   3   8    2.62    1.54
 -11   3   8    0.43    1.26
 -10   3   8    2.69    1.26
  -9   3   8    3.93    1.39
  -8   3   8   24.83    2.57
  -7   3   8    0.83    0.97
  -6   3   8   65.03    2.48
  -5   3   8    8.50    1.03
  -4   3   8   10.29    1.06
  -3   3   8   46.49    2.01
  -2   3   8   43.18    1.88
  -1   3   8   23.32    1.35
   0   3   8    0.67    0.51
   1   3   8   19.05    1.18
   2   3   8   40.51    2.99
   3   3   8   48.13    3.25
   4   3   8    9.73    1.15
   5   3   8    8.32    1.04
   6   3   8   53.46    2.50
   7   3   8    0.75    0.70
   8   3   8   27.77    1.95
   9   3   8    1.19    0.83
  10   3   8    1.40    0.91
  11   3   8   -0.69    0.90
  12   3   8    0.78    1.10
 -10   4   8    9.56    1.97
  -9   4   8    0.84    1.21
  -8   4   8    3.79    1.43
  -7   4   8   -0.12    1.07
  -6   4   8    9.63    1.69
  -5   4   8    0.78    0.72
  -4   4   8    7.88    1.08
  -3   4   8    1.60    0.71
  -2   4   8   31.34    1.74
  -1   4   8   25.38    2.71
   0   4   8   52.29    3.73
   1   4   8   21.94    2.66
   2   4   8   27.79    3.07
   3   4   8   -0.66    1.05
   4   4   8   13.64    2.20
   5   4   8    1.41    1.25
   6   4   8   10.93    1.40
   7   4   8    0.64    0.85
   8   4   8    3.55    1.13
   9   4   8   -0.76    1.18
  10   4   8    6.51    2.03
  -8   5   8   12.32    2.19
  -4   5   8    5.36    1.73
  -3   5   8   16.24    2.50
  -2   5   8   19.41    2.71
  -1   5   8    6.03    1.83
   0   5   8    1.85    1.42
   1   5   8    7.12    1.96
   2   5   8   18.36    2.73
   3   5   8   15.23    2.68
   4   5   8    2.90    1.65
   5   5   8    1.85    1.57
   6   5   8   25.28    3.23
   7   5   8    0.74    1.58
   8   5   8   10.63    2.46
  -7  -5   9   -0.74    0.87
  -6  -5   9    2.39    1.04
  -5  -5   9    1.51    0.96
  -4  -5   9    0.02    0.78
  -3  -5   9    1.30    0.89
  -2  -5   9   15.17    1.51
  -1  -5   9    3.67    0.97
   0  -5   9    9.06    1.26
   1  -5   9    3.20    0.95
   2  -5   9   13.35    1.48
   3  -5   9    1.61    0.88
   4  -5   9   -0.59    0.77
   5  -5   9    1.31    0.89
   6  -5   9    2.08    0.95
   7  -5   9    0.50    0.91
 -11  -4   9    1.96    1.55
 -10  -4   9    1.57    0.93
  -9  -4   9    2.03    0.92
  -8  -4   9   32.72    2.21
  -7  -4   9    5.98    0.98
  -6  -4   9    4.57    0.93
  -5  -4   9   30.51    1.84
  -4  -4   9    3.70    0.84
  -3  -4   9    0.85    0.66
  -2  -4   9    1.14    0.64
  -1  -4   9   -0.07    0.55
   0  -4   9   -0.54    0.54
   1  -4   9    0.57    0.62
   2  -4   9    1.00    0.61
   3  -4   9    0.24    0.61
   4  -4   9    3.49    0.83
   5  -4   9   28.19    1.95
   6  -4   9    4.73    0.97
   7  -4   9    5.31    1.05
   8  -4   9   30.40    2.24
   9  -4   9    1.12    0.89
  10  -4   9    0.50    0.98
  11  -4   9   -0.20    1.19
 -12  -3   9    8.79    1.36
 -11  -3   9    3.52    0.99
 -10  -3   9    7.60    1.17
  -9  -3   9    0.38    0.68
  -8  -3   9   44.60    2.17
  -7  -3   9    0.42    0.62
  -6  -3   9    5.88    0.87
  -5  -3   9    3.15    0.70
  -4  -3   9    0.25    0.50
  -3  -3   9    6.52    0.82
  -2  -3   9   37.36    1.69
  -1  -3   9   16.22    0.92
   0  -3   9   29.59    1.45
   1  -3   9   16.95    1.24
   2  -3   9   38.49    1.71
   3  -3   9    5.86    0.86
   4  -3   9    0.94    0.56
   5  -3   9    3.14    0.70
   6  -3   9    5.48    0.90
   7  -3   9   -0.06    0.60
   8  -3   9   47.51    2.34
   9  -3   9    0.40    0.73
  10  -3   9    8.68    1.35
  11  -3   9    3.00    1.04
  12  -3   9    6.08    1.41
 -13  -2   9   10.04    1.97
 -12  -2   9    0.87    1.11
 -11  -2   9   -0.10    0.90
 -10  -2   9    0.64    0.99
  -9  -2   9    2.52    0.75
  -8  -2   9   60.44    2.41
  -7  -2   9   15.05    1.23
  -6  -2   9    9.27    0.95
  -5  -2   9   66.43    2.28
  -4  -2   9    6.44    0.75
  -3  -2   9    0.02    0.30
  -2  -2   9    2.76    0.39
  -1  -2   9    0.32    0.29
   0  -2   9    0.24    0.22
   1  -2   9   -0.07    0.22
   2  -2   9    2.57    0.32
   3  -2   9    0.40    0.43
   4  -2   9    6.48    0.80
   5  -2   9   61.69    2.34
   6  -2   9    8.92    1.02
   7  -2   9   11.56    1.23
   8  -2   9   63.10    2.69
   9  -2   9    0.54    0.76
  10  -2   9    0.42    0.75
  11  -2   9   -0.04    0.67
  12  -2   9    1.49    0.88
  13  -2   9    5.41    1.26
 -14  -1   9   -0.15    1.21
 -13  -1   9    0.58    1.11
 -12  -1   9   12.21    1.98
 -11  -1   9    7.66    1.53
 -10  -1   9   11.31    1.74
  -9  -1   9    1.29    0.89
  -8  -1   9   80.01    2.63
  -7  -1   9   -0.30    0.44
  -6  -1   9   11.01    0.89
  -5  -1   9    6.07    0.68
  -4  -1   9    0.25    0.28
  -3  -1   9   11.17    0.58
  -2  -1   9   77.54    1.76
  -1  -1   9   29.52    0.86
   0  -1   9   52.05    1.30
   1  -1   9   29.55    0.91
   2  -1   9   75.33    1.85
   3  -1   9   11.43    0.70
   4  -1   9    0.28    0.25
   5  -1   9    5.37    0.56
   6  -1   9   10.91    0.80
   7  -1   9   -0.19    0.44
   8  -1   9   82.41    2.49
   9  -1   9    0.16    0.68
  10  -1   9   14.27    1.49
  11  -1   9    5.90    1.16
  12  -1   9   13.30    1.58
  13  -1   9    0.32    0.80
  14  -1   9    0.57    0.90
 -13   0   9   12.35    1.98
 -12   0   9    3.65    0.89
 -11   0   9    0.51    0.66
 -10   0   9    1.36    0.62
  -9   0   9    4.40    0.74
  -8   0   9   84.49    2.70
  -7   0   9   15.70    1.13
  -6   0   9   13.25    0.97
  -5   0   9   93.77    2.65
  -4   0   9    7.86    0.65
  -3   0   9    0.95    0.34
  -2   0   9    3.12    0.41
  -1   0   9    0.39    0.27
   0   0   9    0.28    0.29
   1   0   9    0.22    0.22
   2   0   9    3.46    0.40
   3   0   9    0.38    0.22
   4   0   9    8.05    0.51
   5   0   9   93.24    2.00
   6   0   9   12.11    0.72
   7   0   9   18.69    1.10
   8   0   9   86.24    2.45
   9   0   9    4.54    0.70
  10   0   9    1.71    0.60
  11   0   9    0.35    0.57
  12   0   9    0.08    0.75
  13   0   9   14.58    1.75
  14   0   9    6.74    1.37
 -14   1   9    0.27    1.23
 -13   1   9    1.15    1.24
 -12   1   9   13.74    2.09
 -11   1   9    5.66    1.48
 -10   1   9   15.57    1.95
  -9   1   9   -0.12    0.53
  -8   1   9   83.77    2.69
  -7   1   9   -0.02    0.43
  -6   1   9    9.59    0.81
  -5   1   9    5.66    0.58
  -4   1   9    0.93    0.50
  -3   1   9   10.13    0.51
  -2   1   9   76.74    2.48
  -1   1   9   29.12    1.32
   0   1   9   54.91    1.37
   1   1   9   27.88    0.95
   2   1   9   78.57    1.63
   3   1   9   11.20    0.52
   4   1   9    0.50    0.27
   5   1   9    5.62    0.46
   6   1   9    9.31    0.60
   7   1   9    0.58    0.35
   8   1   9   81.25    2.48
   9   1   9    0.61    0.53
  10   1   9   14.78    1.25
  11   1   9    5.54    0.92
  12   1   9   12.55    1.24
  13   1   9    1.40    0.79
  14   1   9    1.59    0.83
 -13   2   9    7.32    1.87
 -12   2   9    1.07    1.29
 -11   2   9   -0.50    0.96
 -10   2   9    2.05    1.17
  -9   2   9    2.57    1.12
  -8   2   9   57.62    3.46
  -7   2   9   12.61    1.76
  -6   2   9    9.43    1.05
  -5   2   9   65.57    2.44
  -4   2   9    4.27    0.78
  -3   2   9    0.26    0.50
  -2   2   9    2.23    0.61
  -1   2   9    0.53    0.47
   0   2   9    0.36    0.43
   1   2   9    0.31    0.43
   2   2   9    2.58    0.56
   3   2   9    0.36    0.36
   4   2   9    4.76    0.55
   5   2   9   63.45    1.46
   6   2   9    9.20    0.62
   7   2   9   13.59    0.75
   8   2   9   62.00    1.85
   9   2   9    1.86    0.67
  10   2   9    3.37    0.92
  11   2   9   -0.54    0.85
  12   2   9   -0.67    0.89
  13   2   9    7.37    1.42
  14   2   9    5.69    1.99
 -12   3   9    9.86    2.09
 -11   3   9    3.59    1.53
 -10   3   9    9.79    1.93
  -9   3   9    1.23    1.13
  -8   3   9   51.53    3.29
  -7   3   9    0.20    0.84
  -6   3   9    4.30    0.90
  -5   3   9    3.05    0.79
  -4   3   9   -0.47    0.55
  -3   3   9    5.65    0.87
  -2   3   9   38.11    1.77
  -1   3   9   18.64    1.33
   0   3   9   24.73    1.45
   1   3   9   17.16    1.19
   2   3   9   38.28    1.66
   3   3   9    6.20    1.46
   4   3   9    1.03    0.61
   5   3   9    3.40    0.84
   6   3   9    5.03    0.98
   7   3   9   -0.31    0.60
   8   3   9   45.84    2.34
   9   3   9    1.52    1.07
  10   3   9    9.23    1.46
  11   3   9    3.21    1.20
  12   3   9    8.47    1.55
 -10   4   9    4.02    1.55
  -9   4   9    0.64    1.24
  -8   4   9   31.01    3.11
  -7   4   9    6.66    1.58
  -6   4   9    5.41    1.42
  -5   4   9   32.59    2.08
  -4   4   9    1.18    0.71
  -3   4   9    1.04    0.67
  -2   4   9    1.01    0.70
  -1   4   9   -0.24    0.88
   0   4   9    1.38    1.18
   1   4   9   -1.00    0.95
   2   4   9    1.70    1.21
   3   4   9    0.01    1.07
   4   4   9    0.10    1.12
   5   4   9   34.84    3.36
   6   4   9    4.44    1.10
   7   4   9    5.88    1.20
   8   4   9   33.02    2.37
   9   4   9    0.35    1.29
  10   4   9    4.08    1.76
  -8   5   9   24.25    2.90
  -4   5   9   -1.53    1.16
  -3   5   9    3.99    1.62
  -2   5   9   15.20    2.51
  -1   5   9    5.48    1.72
   0   5   9    7.48    1.82
   1   5   9    4.15    1.62
   2   5   9   14.79    2.54
   3   5   9    4.08    1.72
   4   5   9    0.79    1.40
   5   5   9   -0.67    1.25
   6   5   9    3.56    1.77
   7   5   9    0.30    1.47
   8   5   9   22.84    3.27
  -7  -5  10    1.99    1.47
  -6  -5  10    0.59    0.88
  -5  -5  10   -0.35    0.79
  -4  -5  10    2.31    0.95
  -3  -5  10   -0.51    0.76
  -2  -5  10   11.90    1.44
  -1  -5  10   -0.55    0.74
   0  -5  10    0.21    0.75
   1  -5  10    1.58    0.82
   2  -5  10   11.27    1.39
   3  -5  10    0.06    0.79
   4  -5  10    0.13    0.79
   5  -5  10    0.06    0.85
   6  -5  10    0.92    0.92
   7  -5  10    2.62    1.09
 -10  -4  10    1.31    0.95
  -9  -4  10    3.45    0.98
  -8  -4  10    0.08    0.75
  -7  -4  10    5.35    1.05
  -6  -4  10    1.05    0.75
  -5  -4  10    0.64    0.69
  -4  -4  10   33.89    1.87
  -3  -4  10    1.39    0.70
  -2  -4  10    5.40    0.90
  -1  -4  10   19.80    1.52
   0  -4  10   32.40    1.77
   1  -4  10   24.39    1.67
   2  -4  10    4.04    0.85
   3  -4  10    1.41    0.71
   4  -4  10   34.47    1.90
   5  -4  10   -0.01    0.65
   6  -4  10    0.36    0.67
   7  -4  10    5.11    1.05
   8  -4  10    0.00    0.78
   9  -4  10    4.56    1.14
  10  -4  10    1.40    1.02
 -12  -3  10   16.66    1.76
 -11  -3  10    0.62    0.84
 -10  -3  10    3.13    0.99
  -9  -3  10    3.32    0.87
  -8  -3  10    6.63    1.03
  -7  -3  10    6.91    0.98
  -6  -3  10    2.66    0.73
  -5  -3  10   -0.15    0.51
  -4  -3  10    0.06    0.49
  -3  -3  10    0.22    0.49
  -2  -3  10   26.74    1.41
  -1  -3  10    1.02    0.52
   0  -3  10   -0.02    0.45
   1  -3  10    0.53    0.52
   2  -3  10   25.01    1.44
   3  -3  10    0.37    0.52
   4  -3  10    0.15    0.52
   5  -3  10    0.22    0.55
   6  -3  10   -0.19    0.57
   7  -3  10    7.43    1.06
   8  -3  10    6.10    1.07
   9  -3  10    2.42    0.91
  10  -3  10    3.77    1.06
  11  -3  10   -0.46    0.87
  12  -3  10   14.74    1.89
 -13  -2  10    1.48    1.38
 -12  -2  10   -0.44    0.75
 -11  -2  10   14.85    1.53
 -10  -2  10    2.90    0.80
  -9  -2  10    7.69    1.03
  -8  -2  10    0.74    0.60
  -7  -2  10   11.33    1.11
  -6  -2  10    1.51    0.56
  -5  -2  10    0.71    0.48
  -4  -2  10   72.97    2.34
  -3  -2  10    2.82    0.43
  -2  -2  10   15.25    0.76
  -1  -2  10   50.19    1.40
   0  -2  10   70.67    1.48
   1  -2  10   50.00    1.44
   2  -2  10   13.05    0.78
   3  -2  10    2.18    0.46
   4  -2  10   69.34    2.44
   5  -2  10    0.69    0.54
   6  -2  10    0.61    0.55
   7  -2  10   11.31    1.24
   8  -2  10    0.54    0.64
   9  -2  10    4.45    1.03
  10  -2  10    0.69    0.78
  11  -2  10   14.05    1.73
  12  -2  10    0.28    0.81
  13  -2  10    0.80    0.87
 -14  -1  10    6.69    1.76
 -13  -1  10    1.38    1.25
 -12  -1  10   27.83    2.85
 -11  -1  10   -0.78    0.82
 -10  -1  10    7.82    1.50
  -9  -1  10    4.07    1.15
  -8  -1  10   11.40    1.01
  -7  -1  10   15.17    1.10
  -6  -1  10    3.82    0.66
  -5  -1  10    0.04    0.40
  -4  -1  10    0.06    0.27
  -3  -1  10    0.48    0.25
  -2  -1  10   49.15    1.26
  -1  -1  10    3.73    0.34
   0  -1  10   -0.15    0.21
   1  -1  10    3.69    0.38
   2  -1  10   46.79    1.34
   3  -1  10    0.78    0.36
   4  -1  10    0.10    0.24
   5  -1  10    0.08    0.29
   6  -1  10    4.76    0.92
   7  -1  10   11.81    1.34
   8  -1  10   10.02    1.28
   9  -1  10    4.40    0.97
  10  -1  10    6.88    1.14
  11  -1  10    0.96    0.73
  12  -1  10   25.60    2.16
  13  -1  10    1.67    0.92
  14  -1  10    3.23    1.15
 -12   0  10    0.01    0.65
 -11   0  10   20.22    1.55
 -10   0  10    2.41    0.70
  -9   0  10   10.59    1.04
  -8   0  10    0.74    0.52
  -7   0  10   15.98    1.14
  -6   0  10    1.18    0.49
  -5   0  10    1.12    0.44
  -4   0  10   96.93    2.70
  -3   0  10    3.21    0.45
  -2   0  10   19.01    0.86
  -1   0  10   71.28    2.02
   0   0  10  102.80    2.76
   1   0  10   71.07    2.07
   2   0  10   20.34    0.81
   3   0  10    3.50    0.33
   4   0  10   99.41    2.01
   5   0  10    1.51    0.34
   6   0  10    1.02    0.39
   7   0  10   17.39    1.05
   8   0  10    1.05    0.49
   9   0  10   10.52    0.96
  10   0  10    1.62    0.64
  11   0  10   18.22    1.77
  12   0  10   -0.41    0.74
  13   0  10    0.06    0.86
  14   0  10   13.37    1.78
 -14   1  10    1.56    1.40
 -13   1  10    2.67    1.34
 -12   1  10   27.38    2.83
 -11   1  10   -0.01    0.88
 -10   1  10    7.28    1.52
  -9   1  10    4.82    1.22
  -8   1  10    9.75    1.54
  -7   1  10   15.35    1.07
  -6   1  10    4.48    0.61
  -5   1  10    0.60    0.34
  -4   1  10   -0.02    0.25
  -3   1  10    0.54    0.21
  -2   1  10   47.28    1.88
  -1   1  10    3.55    0.62
   0   1  10   -0.10    0.24
   1   1  10    3.92    0.43
   2   1  10   49.96    1.19
   3   1  10    1.37    0.27
   4   1  10    0.03    0.26
   5   1  10    0.31    0.30
   6   1  10    3.63    0.45
   7   1  10   15.10    0.79
   8   1  10   11.70    1.02
   9   1  10    5.35    0.79
  10   1  10    8.37    0.98
  11   1  10    0.26    0.57
  12   1  10   27.67    1.78
  13   1  10    2.95    0.83
  14   1  10    5.35    1.30
 -13   2  10    0.39    1.31
 -12   2  10    0.82    1.19
 -11   2  10   14.64    2.21
 -10   2  10    1.65    1.11
  -9   2  10    9.17    1.67
  -8   2  10    1.44    0.99
  -7   2  10    9.86    1.60
  -6   2  10    1.38    0.69
  -5   2  10    0.29    0.60
  -4   2  10   72.26    2.59
  -3   2  10    2.76    0.71
  -2   2  10   11.28    1.04
  -1   2  10   49.56    1.97
   0   2  10   70.40    2.41
   1   2  10   52.45    1.94
   2   2  10   13.53    1.05
   3   2  10    3.27    0.65
   4   2  10   70.44    1.70
   5   2  10    0.91    0.35
   6   2  10    1.02    0.36
   7   2  10   12.46    0.73
   8   2  10   -0.18    0.45
   9   2  10    8.36    0.99
  10   2  10    0.67    0.85
  11   2  10   13.86    1.67
  12   2  10   -1.56    0.88
  13   2  10   -0.59    0.97
 -12   3  10   19.68    2.81
 -11   3  10    1.27    1.23
 -10   3  10    2.69    1.44
  -9   3  10    4.56    1.47
  -8   3  10    3.44    1.27
  -7   3  10    7.24    1.50
  -6   3  10    2.46    0.83
  -5   3  10   -0.34    0.56
  -4   3  10   -0.16    0.60
  -3   3  10    0.28    0.56
  -2   3  10   27.18    1.59
  -1   3  10    1.26    0.62
   0   3  10   -0.38    0.48
   1   3  10    1.36    0.55
   2   3  10   25.33    1.43
   3   3  10    1.18    0.51
   4   3  10   -0.62    0.81
   5   3  10   -0.50    0.61
   6   3  10    1.80    0.78
   7   3  10    9.11    1.19
   8   3  10    6.05    1.07
   9   3  10    2.61    1.34
  10   3  10    1.55    1.01
  11   3  10   -0.04    1.01
  12   3  10   16.48    2.00
 -10   4  10   -0.09    1.24
  -9   4  10    3.10    1.46
  -8   4  10    0.68    1.18
  -7   4  10    2.65    1.30
  -6   4  10    0.82    1.04
  -5   4  10    0.24    0.73
  -4   4  10   35.43    2.02
  -3   4  10    1.13    0.73
  -2   4  10    5.92    0.95
  -1   4  10   18.94    2.55
   0   4  10   32.95    3.27
   1   4  10   22.61    2.72
   2   4  10    5.71    1.67
   3   4  10    2.58    1.28
   4   4  10   34.27    3.46
   5   4  10   -0.69    1.09
   6   4  10   -0.53    1.03
   7   4  10    4.59    1.09
   8   4  10   -1.08    0.82
   9   4  10    1.15    1.29
  10   4  10    1.53    1.59
  -4   5  10    1.19    1.37
  -3   5  10   -0.62    1.27
  -2   5  10    8.79    2.09
  -1   5  10    0.24    1.35
   0   5  10    1.59    1.43
   1   5  10    1.24    1.50
   2   5  10    9.68    2.31
   3   5  10    0.57    1.39
   4   5  10    1.45    1.50
   5   5  10   -0.16    1.34
   6   5  10   -0.75    1.33
   7   5  10    5.01    2.00
  -7  -5  11    3.50    1.61
  -6  -5  11   36.27    2.44
  -5  -5  11    4.39    1.10
  -4  -5  11    3.28    1.03
  -3  -5  11    7.03    1.21
  -2  -5  11    6.45    1.19
  -1  -5  11    0.50    0.82
   0  -5  11   13.04    1.48
   1  -5  11    0.46    0.82
   2  -5  11    7.38    1.22
   3  -5  11    8.61    1.33
   4  -5  11    5.60    1.18
   5  -5  11    5.62    1.16
   6  -5  11   25.91    2.20
   7  -5  11   -0.81    1.06
 -10  -4  11   56.61    3.95
  -9  -4  11    0.65    0.87
  -8  -4  11    0.46    0.82
  -7  -4  11   -0.82    0.69
  -6  -4  11    0.48    0.75
  -5  -4  11    1.05    0.74
  -4  -4  11   18.73    1.53
  -3  -4  11   10.28    1.17
  -2  -4  11   16.15    1.38
  -1  -4  11    2.26    0.72
   0  -4  11    0.36    0.61
   1  -4  11    2.68    0.79
   2  -4  11   13.45    1.30
   3  -4  11    8.02    1.11
   4  -4  11   18.18    1.57
   5  -4  11    0.08    0.67
   6  -4  11    2.19    0.84
   7  -4  11    0.55    0.82
   8  -4  11    0.37    0.83
   9  -4  11    0.78    0.90
  10  -4  11   56.41    3.18
 -11  -3  11    0.60    1.20
 -10  -3  11    0.93    0.82
  -9  -3  11    0.10    0.70
  -8  -3  11    0.66    0.69
  -7  -3  11    2.98    0.74
  -6  -3  11   70.34    2.65
  -5  -3  11   14.05    1.25
  -4  -3  11    8.16    0.95
  -3  -3  11   20.34    1.39
  -2  -3  11   21.09    1.33
  -1  -3  11   -0.22    0.47
   0  -3  11   34.50    1.66
   1  -3  11   -0.22    0.48
   2  -3  11   21.47    1.43
   3  -3  11   20.48    1.46
   4  -3  11    8.04    0.99
   5  -3  11   13.47    1.25
   6  -3  11   66.37    2.74
   7  -3  11    2.60    0.81
   8  -3  11    0.42    0.71
   9  -3  11    0.30    0.75
  10  -3  11    0.32    0.81
  11  -3  11   -0.26    0.92
  12  -3  11    3.06    1.17
 -13  -2  11    2.43    1.47
 -12  -2  11   14.11    2.16
 -11  -2  11    7.64    1.15
 -10  -2  11   93.58    3.38
  -9  -2  11    0.42    0.62
  -8  -2  11    2.31    0.67
  -7  -2  11    1.35    0.59
  -6  -2  11    2.69    0.64
  -5  -2  11    3.13    0.61
  -4  -2  11   40.66    1.60
  -3  -2  11   19.33    0.88
  -2  -2  11   32.47    1.10
  -1  -2  11    4.36    0.47
   0  -2  11   -0.27    0.31
   1  -2  11    4.65    0.53
   2  -2  11   32.12    1.18
   3  -2  11   20.82    1.01
   4  -2  11   37.09    1.71
   5  -2  11    2.78    0.65
   6  -2  11    3.77    0.78
   7  -2  11    3.34    0.82
   8  -2  11    0.48    0.68
   9  -2  11    1.42    0.83
  10  -2  11   86.42    3.79
  11  -2  11    4.48    1.10
  12  -2  11    8.57    1.41
  13  -2  11    1.11    1.01
 -14  -1  11    1.70    1.37
 -13  -1  11   13.10    2.05
 -12  -1  11    7.16    1.57
 -11  -1  11   -0.69    0.83
 -10  -1  11    1.04    0.93
  -9  -1  11    0.54    0.83
  -8  -1  11    1.14    0.59
  -7  -1  11    6.01    0.77
  -6  -1  11  126.95    3.46
  -5  -1  11   25.30    0.97
  -4  -1  11   15.08    0.72
  -3  -1  11   38.54    1.12
  -2  -1  11   41.85    1.14
  -1  -1  11    0.73    0.26
   0  -1  11   64.99    1.60
   1  -1  11    0.94    0.31
   2  -1  11   43.43    1.27
   3  -1  11   39.97    1.30
   4  -1  11   14.05    0.88
   5  -1  11   23.96    1.14
   6  -1  11  122.40    4.05
   7  -1  11    4.67    0.92
   8  -1  11    1.56    0.73
   9  -1  11    0.46    0.72
  10  -1  11   -0.03    0.63
  11  -1  11    0.97    0.80
  12  -1  11    6.44    1.21
  13  -1  11   13.51    1.67
 -12   0  11   13.12    1.92
 -11   0  11   11.03    1.20
 -10   0  11  127.16    3.78
  -9   0  11    1.59    0.63
  -8   0  11    0.43    0.54
  -7   0  11    3.64    0.63
  -6   0  11    3.19    0.61
  -5   0  11    3.44    0.55
  -4   0  11   53.72    1.77
  -3   0  11   27.84    1.13
  -2   0  11   45.54    1.50
  -1   0  11    6.77    0.58
   0   0  11    0.47    0.32
   1   0  11    6.45    0.41
   2   0  11   45.13    1.27
   3   0  11   29.36    0.83
   4   0  11   54.32    1.30
   5   0  11    3.34    0.41
   6   0  11    3.61    0.45
   7   0  11    3.40    0.48
   8   0  11    0.95    0.51
   9   0  11    2.58    0.84
  10   0  11  117.90    4.22
  11   0  11    9.96    1.35
  12   0  11   15.51    1.71
  13   0  11    3.05    1.10
  14   0  11    2.28    1.12
 -14   1  11    1.45    1.39
 -13   1  11   11.78    2.14
 -12   1  11    8.22    1.75
 -11   1  11   -0.16    1.03
 -10   1  11    0.08    0.95
  -9   1  11   -0.25    0.87
  -8   1  11    2.32    1.03
  -7   1  11    5.53    1.18
  -6   1  11  121.21    5.13
  -5   1  11   23.89    1.11
  -4   1  11   12.59    0.72
  -3   1  11   39.07    1.76
  -2   1  11   40.75    1.77
  -1   1  11    0.78    0.53
   0   1  11   68.93    1.71
   1   1  11    0.11    0.32
   2   1  11   40.86    1.09
   3   1  11   39.55    0.98
   4   1  11   11.74    0.61
   5   1  11   22.49    0.84
   6   1  11  122.04    2.33
   7   1  11    5.76    0.54
   8   1  11    2.25    0.64
   9   1  11    0.12    0.54
  10   1  11    0.52    0.59
  11   1  11    0.53    0.61
  12   1  11    7.55    1.24
  13   1  11   14.28    1.79
  14   1  11   -1.68    1.23
 -13   2  11    0.42    1.35
 -12   2  11   10.84    2.11
 -11   2  11    7.35    1.79
 -10   2  11   96.94    4.95
  -9   2  11    2.20    1.12
  -8   2  11    0.73    0.95
  -7   2  11    0.09    0.81
  -6   2  11    3.23    0.80
  -5   2  11    1.57    0.71
  -4   2  11   38.55    1.86
  -3   2  11   17.63    1.36
  -2   2  11   33.12    1.66
  -1   2  11    5.19    0.77
   0   2  11    0.12    0.50
   1   2  11    4.94    0.75
   2   2  11   31.75    1.54
   3   2  11   20.37    1.26
   4   2  11   38.56    1.20
   5   2  11    2.17    0.40
   6   2  11    2.18    0.39
   7   2  11    2.41    0.45
   8   2  11    1.27    0.51
   9   2  11    2.61    0.72
  10   2  11   94.12    2.99
  11   2  11    9.49    1.39
  12   2  11   11.79    1.62
  13   2  11    2.59    1.19
 -11   3  11    0.35    1.33
 -10   3  11    1.04    1.27
  -9   3  11   -1.37    0.98
  -8   3  11    0.29    0.99
  -7   3  11    2.87    1.21
  -6   3  11   68.39    2.83
  -5   3  11   12.74    1.32
  -4   3  11    6.62    0.98
  -3   3  11   20.83    1.53
  -2   3  11   20.81    1.51
  -1   3  11    0.98    0.62
   0   3  11   38.02    1.74
   1   3  11    0.40    0.53
   2   3  11   21.51    1.34
   3   3  11   19.75    1.27
   4   3  11   10.36    1.82
   5   3  11   12.95    1.36
   6   3  11   69.77    2.93
   7   3  11    1.58    0.82
   8   3  11    0.80    0.80
   9   3  11    1.47    1.20
  10   3  11    0.27    1.26
  11   3  11   -0.33    0.95
  12   3  11    4.70    1.36
 -10   4  11   48.02    3.82
  -9   4  11    1.05    1.31
  -8   4  11    1.25    1.29
  -7   4  11   -0.15    1.16
  -6   4  11    1.50    1.21
  -5   4  11    1.20    0.81
  -4   4  11   18.19    1.61
  -3   4  11    9.24    1.21
  -2   4  11   14.89    1.37
  -1   4  11    1.24    1.11
   0   4  11    0.37    1.11
   1   4  11    1.48    1.27
   2   4  11   15.31    2.32
   3   4  11    7.50    1.78
   4   4  11   14.35    2.40
   5   4  11    2.61    1.41
   6   4  11    0.23    1.11
   7   4  11    1.22    1.28
   8   4  11    2.42    1.05
   9   4  11    0.95    1.53
  -4   5  11    2.46    1.52
  -3   5  11   10.05    2.28
  -2   5  11    6.20    1.83
  -1   5  11   -0.56    1.29
   0   5  11   15.53    2.57
   1   5  11   -0.42    1.18
   2   5  11    7.99    2.16
   3   5  11   10.23    2.38
   4   5  11    1.87    1.64
   5   5  11    5.02    1.91
   6   5  11   33.39    3.81
   7   5  11    2.88    1.76
  -7  -5  12   -0.83    1.29
  -6  -5  12    1.01    1.43
  -5  -5  12    7.70    1.33
  -4  -5  12    3.16    1.03
  -3  -5  12    0.74    0.84
  -2  -5  12    6.45    1.17
  -1  -5  12    0.03    0.82
   0  -5  12   -0.22    0.77
   1  -5  12    1.75    0.92
   2  -5  12    5.63    1.14
   3  -5  12   -1.07    0.77
   4  -5  12    3.61    1.07
   5  -5  12    6.17    1.21
   6  -5  12    0.14    0.87
  -9  -4  12    0.63    1.28
  -8  -4  12    0.06    0.81
  -7  -4  12   14.19    1.47
  -6  -4  12    7.29    1.12
  -5  -4  12   12.17    1.34
  -4  -4  12   75.24    2.92
  -3  -4  12    0.02    0.62
  -2  -4  12    5.06    0.92
  -1  -4  12    1.66    0.73
   0  -4  12    9.92    1.15
   1  -4  12    1.54    0.70
   2  -4  12    4.90    0.90
   3  -4  12    0.90    0.69
   4  -4  12   73.19    4.13
   5  -4  12   13.95    1.46
   6  -4  12   10.65    1.32
   7  -4  12   11.31    1.43
   8  -4  12    1.81    0.95
   9  -4  12    0.99    0.96
 -11  -3  12   15.29    2.30
 -10  -3  12    6.82    1.68
  -9  -3  12   38.07    2.07
  -8  -3  12    6.77    1.02
  -7  -3  12    0.52    0.61
  -6  -3  12    2.51    0.73
  -5  -3  12   18.21    1.37
  -4  -3  12   10.19    1.03
  -3  -3  12   -0.62    0.45
  -2  -3  12   16.98    1.25
  -1  -3  12    3.81    0.71
   0  -3  12   -0.39    0.47
   1  -3  12    4.18    0.72
   2  -3  12   12.03    1.13
   3  -3  12    0.25    0.56
   4  -3  12    6.99    0.97
   5  -3  12   14.75    1.35
   6  -3  12    1.40    0.70
   7  -3  12    0.03    0.61
   8  -3  12    6.20    1.10
   9  -3  12   37.05    2.36
  10  -3  12    6.23    1.25
  11  -3  12    8.38    1.44
 -13  -2  12    0.92    1.29
 -12  -2  12    1.46    1.20
 -11  -2  12    2.52    1.23
 -10  -2  12    1.03    0.99
  -9  -2  12    0.04    0.62
  -8  -2  12    2.36    0.68
  -7  -2  12   22.02    1.48
  -6  -2  12   16.91    1.25
  -5  -2  12   27.55    1.38
  -4  -2  12  158.32    4.34
  -3  -2  12    1.90    0.42
  -2  -2  12   10.58    0.70
  -1  -2  12    4.79    0.51
   0  -2  12   22.72    0.95
   1  -2  12    4.67    0.52
   2  -2  12   12.05    0.80
   3  -2  12    1.11    0.43
   4  -2  12  158.86    4.53
   5  -2  12   27.83    1.60
   6  -2  12   18.93    1.48
   7  -2  12   23.40    1.77
   8  -2  12    2.36    0.77
   9  -2  12   -0.28    0.74
  10  -2  12    0.87    0.92
  11  -2  12    5.04    1.17
  12  -2  12    1.78    1.00
  13  -2  12   -0.57    1.53
 -14  -1  12    6.06    1.78
 -13  -1  12    1.66    1.23
 -12  -1  12   45.81    3.18
 -11  -1  12   16.07    2.08
 -10  -1  12    9.59    1.64
  -9  -1  12   58.56    3.27
  -8  -1  12   11.66    1.10
  -7  -1  12    0.35    0.49
  -6  -1  12    3.15    0.48
  -5  -1  12   29.82    1.06
  -4  -1  12   14.78    0.74
  -3  -1  12    0.25    0.27
  -2  -1  12   27.77    0.90
  -1  -1  12    6.40    0.46
   0  -1  12    0.32    0.26
   1  -1  12    6.88    0.52
   2  -1  12   27.13    1.02
   3  -1  12   -0.45    0.34
   4  -1  12   12.49    0.88
   5  -1  12   26.07    1.26
   6  -1  12    4.37    0.67
   7  -1  12    0.26    0.66
   8  -1  12   12.21    1.36
   9  -1  12   57.26    2.69
  10  -1  12   11.25    1.37
  11  -1  12   17.34    1.74
  12  -1  12   41.20    2.76
  13  -1  12    2.31    1.03
 -12   0  12   -0.69    1.06
 -11   0  12    5.52    1.40
 -10   0  12    0.80    0.63
  -9   0  12    0.69    0.58
  -8   0  12    2.55    0.64
  -7   0  12   28.75    1.41
  -6   0  12   22.82    1.21
  -5   0  12   37.46    1.50
  -4   0  12  214.79    5.28
  -3   0  12    2.49    0.45
  -2   0  12   14.34    0.83
  -1   0  12    6.52    0.60
   0   0  12   31.39    1.24
   1   0  12    6.58    0.41
   2   0  12   14.86    0.74
   3   0  12    3.25    0.43
   4   0  12  214.02    3.84
   5   0  12   39.10    1.13
   6   0  12   22.59    0.97
   7   0  12   28.61    1.36
   8   0  12    2.32    0.74
   9   0  12   -0.13    0.61
  10   0  12   -0.18    0.65
  11   0  12    7.60    1.26
  12   0  12    3.21    1.01
  13   0  12    2.03    1.08
  14   0  12   12.86    2.73
 -14   1  12    8.13    1.97
 -13   1  12    4.76    1.50
 -12   1  12   47.54    3.40
 -11   1  12   17.83    2.24
 -10   1  12    9.88    1.72
  -9   1  12   58.08    3.44
  -8   1  12   10.67    1.63
  -7   1  12   -0.13    0.83
  -6   1  12    1.22    0.85
  -5   1  12   27.03    2.08
  -4   1  12   14.60    1.62
  -3   1  12   -0.05    0.62
  -2   1  12   27.22    1.51
  -1   1  12    6.40    0.47
   0   1  12   -0.07    0.28
   1   1  12    6.03    0.56
   2   1  12   27.75    1.10
   3   1  12    0.09    0.28
   4   1  12   13.90    0.66
   5   1  12   29.60    0.95
   6   1  12    3.43    0.45
   7   1  12    0.33    0.35
   8   1  12   12.62    0.86
   9   1  12   60.56    2.10
  10   1  12   11.61    1.10
  11   1  12   13.40    1.63
  12   1  12   44.40    2.90
  13   1  12    3.50    1.12
 -13   2  12    2.45    1.57
 -12   2  12   -1.14    1.19
 -11   2  12    4.68    1.54
 -10   2  12   -1.11    0.99
  -9   2  12    1.48    1.13
  -8   2  12    0.97    0.98
  -7   2  12   21.79    2.30
  -6   2  12   13.57    1.37
  -5   2  12   28.01    1.73
  -4   2  12  159.79    4.70
  -3   2  12    0.97    0.66
  -2   2  12    9.57    1.09
  -1   2  12    4.24    0.78
   0   2  12   21.91    1.38
   1   2  12    5.84    0.82
   2   2  12   12.36    1.09
   3   2  12    1.22    0.45
   4   2  12  160.23    3.66
   5   2  12   30.14    1.00
   6   2  12   16.49    0.84
   7   2  12   21.83    0.98
   8   2  12    1.99    0.58
   9   2  12    0.06    0.60
  10   2  12    1.26    0.68
  11   2  12    3.55    1.11
  12   2  12    0.54    0.94
  13   2  12    1.85    1.59
 -11   3  12    9.85    2.10
 -10   3  12    6.32    1.71
  -9   3  12   36.41    3.39
  -8   3  12    7.81    1.65
  -7   3  12    0.14    1.03
  -6   3  12    1.82    0.83
  -5   3  12   17.16    1.50
  -4   3  12    9.09    1.11
  -3   3  12    0.36    0.61
  -2   3  12   13.43    1.29
  -1   3  12    2.76    0.73
   0   3  12   -0.33    0.52
   1   3  12    1.96    0.69
   2   3  12   15.08    1.25
   3   3  12   -0.18    0.51
   4   3  12    6.38    1.73
   5   3  12   17.56    2.39
   6   3  12    1.84    0.82
   7   3  12    0.41    0.74
   8   3  12    3.93    1.04
   9   3  12   39.14    3.51
  10   3  12    5.52    1.68
  11   3  12   11.13    2.14
  12   3  12   29.12    2.53
  -9   4  12   -0.26    1.31
  -8   4  12    3.16    1.42
  -7   4  12    8.96    1.90
  -6   4  12    8.34    1.74
  -5   4  12   12.04    1.39
  -4   4  12   74.03    3.04
  -3   4  12    0.44    0.72
  -2   4  12    6.10    0.99
  -1   4  12    2.50    0.82
   0   4  12    9.43    2.02
   1   4  12    1.37    1.28
   2   4  12    0.87    1.19
   3   4  12    0.88    1.17
   4   4  12   75.78    4.82
   5   4  12    9.80    2.09
   6   4  12    6.97    1.91
   7   4  12    9.50    2.17
   8   4  12    1.69    1.00
   9   4  12   -1.11    1.28
  -7   5  12   -0.65    1.45
  -4   5  12    2.15    1.66
  -3   5  12    0.29    1.43
  -2   5  12    7.96    2.15
  -1   5  12    1.08    1.51
   0   5  12    0.13    1.34
   1   5  12   -1.40    1.29
   2   5  12    6.40    2.01
   3   5  12    0.00    1.38
   4   5  12    5.95    2.01
   5   5  12    5.32    1.99
   6   5  12    1.65    1.72
  -5  -5  13   13.46    1.58
  -4  -5  13    7.76    1.32
  -3  -5  13    3.78    1.04
  -2  -5  13    9.32    1.37
  -1  -5  13    9.60    1.36
   0  -5  13   13.21    1.49
   1  -5  13    8.84    1.32
   2  -5  13    8.93    1.33
   3  -5  13    2.32    1.05
   4  -5  13   10.10    1.43
   5  -5  13    9.45    1.40
   6  -5  13    1.49    1.54
  -9  -4  13    6.22    1.78
  -8  -4  13    0.31    1.19
  -7  -4  13    2.40    1.32
  -6  -4  13    3.43    0.92
  -5  -4  13    0.10    0.69
  -4  -4  13    1.14    0.74
  -3  -4  13    2.10    0.77
  -2  -4  13    5.10    0.92
  -1  -4  13    4.73    0.95
   0  -4  13    0.39    0.64
   1  -4  13    3.14    0.83
   2  -4  13    7.30    1.03
   3  -4  13    1.35    0.73
   4  -4  13   -0.81    0.64
   5  -4  13   -0.91    0.65
   6  -4  13    1.78    0.86
   7  -4  13    1.41    0.88
   8  -4  13    1.85    0.95
   9  -4  13    6.87    1.33
 -11  -3  13    0.62    1.25
 -10  -3  13    0.58    1.13
  -9  -3  13    0.51    1.06
  -8  -3  13    0.12    0.96
  -7  -3  13    0.13    0.90
  -6  -3  13    9.33    1.10
  -5  -3  13   25.52    1.53
  -4  -3  13   24.42    1.48
  -3  -3  13    8.99    0.98
  -2  -3  13   21.48    1.45
  -1  -3  13   25.65    1.49
   0  -3  13   29.57    1.54
   1  -3  13   27.22    1.50
   2  -3  13   23.56    1.56
   3  -3  13    7.36    0.95
   4  -3  13   21.29    1.55
   5  -3  13   24.61    1.72
   6  -3  13    8.14    1.15
   7  -3  13   -0.21    0.66
   8  -3  13    1.71    0.86
   9  -3  13    0.89    0.83
  10  -3  13   -0.06    0.89
  11  -3  13   -1.01    0.85
 -12  -2  13    6.05    1.64
 -11  -2  13   13.88    2.06
 -10  -2  13    0.52    1.02
  -9  -2  13    8.39    1.60
  -8  -2  13    0.45    0.84
  -7  -2  13    5.75    1.25
  -6  -2  13    5.54    0.80
  -5  -2  13    0.28    0.45
  -4  -2  13   -0.25    0.38
  -3  -2  13    1.91    0.44
  -2  -2  13   17.73    0.87
  -1  -2  13    8.25    0.64
   0  -2  13    0.14    0.36
   1  -2  13    8.15    0.68
   2  -2  13   15.10    0.92
   3  -2  13    2.02    0.49
   4  -2  13   -0.30    0.39
   5  -2  13   -0.14    0.53
   6  -2  13    5.67    0.97
   7  -2  13    5.88    1.02
   8  -2  13    0.81    0.76
   9  -2  13    9.00    1.33
  10  -2  13    1.30    0.93
  11  -2  13   10.11    1.48
  12  -2  13    5.65    1.21
 -13  -1  13    1.59    1.29
 -12  -1  13    2.17    1.23
 -11  -1  13    1.15    1.03
 -10  -1  13    1.19    0.98
  -9  -1  13    1.23    0.92
  -8  -1  13    1.78    0.65
  -7  -1  13   -0.17    0.50
  -6  -1  13   15.39    1.12
  -5  -1  13   43.44    1.71
  -4  -1  13   42.01    1.64
  -3  -1  13   14.39    1.02
  -2  -1  13   43.18    1.64
  -1  -1  13   45.85    1.25
   0  -1  13   57.38    1.50
   1  -1  13   47.84    1.35
   2  -1  13   43.18    1.35
   3  -1  13   14.84    0.90
   4  -1  13   44.20    1.52
   5  -1  13   42.45    1.61
   6  -1  13   13.81    1.06
   7  -1  13   -0.14    0.61
   8  -1  13    2.54    0.78
   9  -1  13    2.22    0.77
  10  -1  13    0.09    0.67
  11  -1  13   -0.25    0.68
  12  -1  13    0.76    0.85
  13  -1  13    1.34    0.93
 -11   0  13   23.20    2.46
 -10   0  13    4.24    1.21
  -9   0  13   13.99    1.22
  -8   0  13    0.62    0.55
  -7   0  13    6.53    0.79
  -6   0  13    9.41    0.88
  -5   0  13   -0.60    0.40
  -4   0  13   -0.06    0.37
  -3   0  13    2.20    0.45
  -2   0  13   22.34    1.04
  -1   0  13   10.32    0.78
   0   0  13    0.07    0.35
   1   0  13   12.73    0.86
   2   0  13   22.18    0.87
   3   0  13    1.84    0.41
   4   0  13    0.41    0.40
   5   0  13    0.63    0.43
   6   0  13    9.18    0.81
   7   0  13    7.82    0.81
   8   0  13   -0.11    0.57
   9   0  13   14.36    1.46
  10   0  13    3.01    0.91
  11   0  13   19.21    1.83
  12   0  13    9.53    1.45
  13   0  13    3.08    1.09
 -13   1  13    3.12    1.57
 -12   1  13    2.31    1.35
 -11   1  13   -0.65    1.03
 -10   1  13    0.18    1.07
  -9   1  13   -0.49    0.93
  -8   1  13    2.64    1.10
  -7   1  13    1.41    0.90
  -6   1  13   14.91    1.80
  -5   1  13   44.57    2.66
  -4   1  13   43.53    2.61
  -3   1  13   16.07    1.64
  -2   1  13   48.56    2.00
  -1   1  13   43.97    1.96
   0   1  13   55.70    1.60
   1   1  13   44.85    1.44
   2   1  13   44.25    1.46
   3   1  13   13.30    0.71
   4   1  13   42.67    1.09
   5   1  13   44.15    1.16
   6   1  13   13.31    0.85
   7   1  13    0.01    0.35
   8   1  13    2.95    0.54
   9   1  13    1.06    0.61
  10   1  13   -1.08    0.66
  11   1  13   -0.13    0.81
  12   1  13    2.44    1.01
  13   1  13    1.46    1.01
 -12   2  13    3.93    1.54
 -11   2  13   13.55    2.30
 -10   2  13    6.08    1.57
  -9   2  13   11.77    1.96
  -8   2  13    0.66    1.08
  -7   2  13    2.81    1.15
  -6   2  13    4.54    0.96
  -5   2  13    0.28    0.63
  -4   2  13   -0.14    0.60
  -3   2  13    2.97    0.80
  -2   2  13   13.97    1.28
  -1   2  13    7.68    1.00
   0   2  13   -0.40    0.53
   1   2  13    9.58    1.04
   2   2  13   16.33    1.29
   3   2  13    3.46    0.70
   4   2  13   -0.57    0.42
   5   2  13   -0.12    0.39
   6   2  13    7.12    0.60
   7   2  13    5.92    0.59
   8   2  13   -0.50    0.49
   9   2  13   10.26    1.08
  10   2  13    3.92    0.86
  11   2  13   16.23    1.40
  12   2  13    8.40    2.15
  13   2  13    1.15    1.60
 -11   3  13   -1.69    1.24
 -10   3  13   -0.58    1.13
  -9   3  13   -0.44    1.11
  -8   3  13   -0.49    1.06
  -7   3  13    1.81    1.12
  -6   3  13    6.89    1.58
  -5   3  13   24.97    1.85
  -4   3  13   25.00    1.81
  -3   3  13    9.13    1.13
  -2   3  13   23.04    1.63
  -1   3  13   25.44    1.61
   0   3  13   30.85    1.71
   1   3  13   26.13    1.61
   2   3  13   23.67    1.51
   3   3  13    9.15    1.03
   4   3  13   20.89    2.79
   5   3  13   24.18    2.85
   6   3  13    9.62    1.27
   7   3  13    0.25    0.78
   8   3  13    1.43    0.87
   9   3  13    0.24    1.18
  10   3  13   -0.06    1.26
  11   3  13   -1.01    1.28
  -9   4  13    5.80    1.85
  -8   4  13   -0.60    1.21
  -7   4  13    2.96    1.48
  -6   4  13    2.14    1.32
  -5   4  13   -0.25    0.79
  -4   4  13   -0.18    0.74
  -3   4  13    1.86    0.82
  -2   4  13    7.03    1.09
  -1   4  13    3.71    0.89
   0   4  13    0.65    1.13
   1   4  13    6.40    1.68
   2   4  13    8.39    1.95
   3   4  13    1.50    1.44
   4   4  13   -0.72    1.17
   5   4  13   -0.89    1.21
   6   4  13    2.62    1.65
   7   4  13    0.42    1.49
   8   4  13    2.06    1.49
   9   4  13    5.54    1.92
  -4   5  13    6.94    2.04
  -3   5  13    0.98    1.62
  -2   5  13    8.95    2.29
  -1   5  13    8.80    2.23
   0   5  13   14.42    2.72
   1   5  13   12.43    2.56
   2   5  13    9.76    2.28
   3   5  13    3.11    1.70
   4   5  13   12.51    2.58
   5   5  13   10.31    2.64
  -4  -5  14   10.14    2.03
  -3  -5  14   -1.15    1.09
  -2  -5  14   -1.70    0.74
  -1  -5  14    2.62    1.01
   0  -5  14    0.48    0.89
   1  -5  14    1.34    0.91
   2  -5  14   -0.96    0.80
   3  -5  14    0.09    0.86
   4  -5  14    6.47    1.31
   5  -5  14    0.76    0.94
  -8  -4  14    0.27    1.24
  -7  -4  14   11.15    1.92
  -6  -4  14    1.67    1.26
  -5  -4  14   -0.48    1.05
  -4  -4  14    0.26    1.03
  -3  -4  14    2.90    0.86
  -2  -4  14   16.60    1.47
  -1  -4  14   -0.05    0.63
   0  -4  14    1.65    0.76
   1  -4  14   -0.12    0.65
   2  -4  14   15.92    1.52
   3  -4  14    1.35    0.81
   4  -4  14    0.35    0.75
   5  -4  14    0.78    0.76
   6  -4  14    0.69    0.84
   7  -4  14    9.69    1.44
   8  -4  14    0.51    0.89
   9  -4  14    0.58    1.52
 -11  -3  14    1.27    1.29
 -10  -3  14    1.18    1.27
  -9  -3  14   17.00    2.23
  -8  -3  14    5.77    1.45
  -7  -3  14    0.10    0.92
  -6  -3  14   48.08    3.15
  -5  -3  14    1.58    0.96
  -4  -3  14   19.10    2.11
  -3  -3  14    1.81    0.66
  -2  -3  14    1.38    0.60
  -1  -3  14    2.29    0.65
   0  -3  14   -0.18    0.51
   1  -3  14    3.06    0.58
   2  -3  14    0.91    0.59
   3  -3  14    1.97    0.66
   4  -3  14   21.42    1.57
   5  -3  14    1.29    0.67
   6  -3  14   48.69    2.34
   7  -3  14    1.68    0.79
   8  -3  14    1.84    0.97
   9  -3  14   10.37    1.52
  10  -3  14    2.05    1.08
  11  -3  14    1.07    1.06
 -12  -2  14    1.80    1.28
 -11  -2  14    3.43    1.30
 -10  -2  14    9.08    1.75
  -9  -2  14   -0.28    0.90
  -8  -2  14    3.79    1.20
  -7  -2  14   29.16    2.24
  -6  -2  14    3.71    1.05
  -5  -2  14    1.66    0.88
  -4  -2  14    2.64    0.86
  -3  -2  14    3.34    0.65
  -2  -2  14   41.33    1.68
  -1  -2  14    0.14    0.36
   0  -2  14    5.48    0.57
   1  -2  14    0.90    0.42
   2  -2  14   40.30    1.39
   3  -2  14    4.53    0.61
   4  -2  14    3.00    0.56
   5  -2  14    0.32    0.54
   6  -2  14    2.83    0.80
   7  -2  14   24.79    1.90
   8  -2  14    1.91    0.93
   9  -2  14    0.26    0.79
  10  -2  14   10.96    1.54
  11  -2  14    1.70    1.02
  12  -2  14    1.96    0.95
 -12  -1  14    1.48    1.17
 -11  -1  14    1.96    1.16
 -10  -1  14    4.15    1.19
  -9  -1  14   17.97    1.99
  -8  -1  14    6.05    0.86
  -7  -1  14    2.45    0.67
  -6  -1  14   83.81    2.70
  -5  -1  14    1.27    0.54
  -4  -1  14   32.74    1.46
  -3  -1  14    3.26    0.63
  -2  -1  14    1.51    0.52
  -1  -1  14    4.53    0.66
   0  -1  14   -0.40    0.43
   1  -1  14    4.54    0.50
   2  -1  14    1.09    0.43
   3  -1  14    4.03    0.57
   4  -1  14   33.56    1.36
   5  -1  14    0.44    0.49
   6  -1  14   82.96    2.47
   7  -1  14    2.04    0.79
   8  -1  14    5.03    1.00
   9  -1  14   18.35    1.69
  10  -1  14    3.17    0.92
  11  -1  14    1.37    0.87
  12  -1  14    1.72    0.96
  13  -1  14    1.43    1.01
 -11   0  14    1.09    1.08
 -10   0  14   10.27    1.76
  -9   0  14    1.66    0.96
  -8   0  14    7.28    1.35
  -7   0  14   37.34    1.64
  -6   0  14    3.16    0.62
  -5   0  14    0.69    0.44
  -4   0  14    4.99    0.64
  -3   0  14    5.21    0.62
  -2   0  14   50.23    1.74
  -1   0  14    0.80    0.42
   0   0  14    8.22    0.74
   1   0  14    1.72    0.49
   2   0  14   54.23    1.88
   3   0  14    4.83    0.53
   4   0  14    3.66    0.55
   5   0  14    1.17    0.48
   6   0  14    3.31    0.61
   7   0  14   35.94    1.47
   8   0  14    3.02    0.83
   9   0  14   -0.25    0.65
  10   0  14   15.51    1.62
  11   0  14    4.40    1.02
  12   0  14   -1.10    0.77
  13   0  14    2.59    1.09
 -13   1  14    1.93    1.45
 -12   1  14    2.43    1.42
 -11   1  14    1.03    1.18
 -10   1  14    3.20    1.26
  -9   1  14   18.69    2.21
  -8   1  14    5.31    1.31
  -7   1  14    2.58    1.03
  -6   1  14   81.63    4.05
  -5   1  14    0.95    0.89
  -4   1  14   30.36    2.24
  -3   1  14    1.09    0.81
  -2   1  14    2.89    0.91
  -1   1  14    3.59    0.76
   0   1  14    0.12    0.55
   1   1  14    5.59    0.60
   2   1  14    1.54    0.46
   3   1  14    3.99    0.45
   4   1  14   32.38    1.11
   5   1  14    0.84    0.34
   6   1  14   83.65    1.83
   7   1  14    2.70    0.50
   8   1  14    6.41    0.77
   9   1  14   16.36    1.63
  10   1  14    3.77    0.97
  11   1  14    1.49    0.87
  12   1  14    0.12    0.86
  13   1  14    1.52    1.05
 -12   2  14    1.98    1.46
 -11   2  14    2.94    1.33
 -10   2  14   10.96    2.01
  -9   2  14    0.57    1.10
  -8   2  14    3.54    1.25
  -7   2  14   20.68    2.36
  -6   2  14    4.49    1.16
  -5   2  14   -0.20    0.64
  -4   2  14    3.32    0.83
  -3   2  14    5.23    0.94
  -2   2  14   38.59    1.93
  -1   2  14    0.56    0.63
   0   2  14    5.64    0.88
   1   2  14    2.28    0.71
   2   2  14   36.45    1.90
   3   2  14    2.38    0.74
   4   2  14    2.81    0.73
   5   2  14    0.50    0.62
   6   2  14    2.69    0.49
   7   2  14   28.33    1.12
   8   2  14    3.83    0.58
   9   2  14   -0.40    0.61
  10   2  14   11.54    1.19
  11   2  14    1.95    1.00
  12   2  14   -0.02    1.34
 -10   3  14    3.91    1.55
  -9   3  14    8.31    1.92
  -8   3  14    0.95    1.20
  -7   3  14    2.70    1.24
  -6   3  14   51.63    3.33
  -5   3  14    1.55    0.78
  -4   3  14   18.98    1.65
  -3   3  14    0.11    0.67
  -2   3  14    0.98    0.68
  -1   3  14    1.30    0.74
   0   3  14   -0.02    0.60
   1   3  14    1.57    0.69
   2   3  14   -0.09    0.58
   3   3  14    1.13    0.66
   4   3  14   17.78    2.53
   5   3  14    0.38    1.06
   6   3  14   48.47    3.87
   7   3  14    0.28    0.84
   8   3  14    3.14    1.07
   9   3  14   13.61    2.22
  10   3  14    2.07    1.47
  11   3  14   -0.11    1.57
  -8   4  14    2.42    1.47
  -7   4  14   16.56    2.35
  -6   4  14    1.08    1.26
  -5   4  14    0.00    0.80
  -4   4  14    0.69    0.80
  -3   4  14    1.89    0.84
  -2   4  14   18.26    1.62
  -1   4  14    0.27    0.74
   0   4  14    5.16    1.67
   1   4  14    0.35    1.25
   2   4  14   18.01    2.64
   3   4  14    2.25    1.48
   4   4  14    1.75    1.44
   5   4  14    0.49    1.40
   6   4  14    5.35    1.83
   7   4  14   16.95    2.71
   8   4  14    2.14    1.69
  -4   5  14    9.00    2.33
  -3   5  14    1.02    1.39
  -2   5  14    0.14    1.53
  -1   5  14    1.86    1.70
   0   5  14   -1.08    1.33
   1   5  14    5.85    1.98
   2   5  14   -0.11    1.44
   3   5  14    0.05    1.51
   4   5  14    8.58    2.39
  -3  -5  15    0.76    1.25
  -2  -5  15    2.82    1.42
  -1  -5  15    0.22    1.19
   0  -5  15   63.81    4.26
   1  -5  15    0.63    1.21
   2  -5  15    2.76    1.07
   3  -5  15    0.06    0.87
   4  -5  15    1.77    1.45
   5  -5  15   -1.34    1.36
  -8  -4  15    8.02    1.82
  -7  -4  15    0.32    1.22
  -6  -4  15   -1.26    1.05
  -5  -4  15    5.86    1.54
  -4  -4  15   17.11    2.27
  -3  -4  15    0.73    1.03
  -2  -4  15   14.38    2.01
  -1  -4  15    7.97    1.64
   0  -4  15   -0.17    0.68
   1  -4  15    8.89    1.14
   2  -4  15   11.85    1.33
   3  -4  15    1.95    0.86
   4  -4  15   19.55    1.71
   5  -4  15    5.59    1.06
   6  -4  15    0.19    0.80
   7  -4  15    1.86    0.92
   8  -4  15   10.72    1.54
   9  -4  15    3.05    2.08
 -10  -3  15    4.00    1.54
  -9  -3  15    0.13    1.13
  -8  -3  15    7.71    1.64
  -7  -3  15    1.93    1.09
  -6  -3  15   15.03    1.95
  -5  -3  15    0.31    0.84
  -4  -3  15    3.71    1.12
  -3  -3  15    0.22    0.85
  -2  -3  15    5.60    1.30
  -1  -3  15    2.25    1.04
   0  -3  15  158.51    4.61
   1  -3  15    2.88    0.56
   2  -3  15    3.93    0.79
   3  -3  15    0.38    0.60
   4  -3  15    2.77    0.78
   5  -3  15   -0.58    0.56
   6  -3  15   15.62    1.50
   7  -3  15    1.10    0.78
   8  -3  15    5.72    1.17
   9  -3  15    3.63    1.18
  10  -3  15    4.86    1.33
  11  -3  15   -2.57    2.03
 -12  -2  15    4.58    1.63
 -11  -2  15    0.83    1.23
 -10  -2  15    8.16    1.69
  -9  -2  15   12.66    1.90
  -8  -2  15   24.63    2.43
  -7  -2  15    4.82    1.26
  -6  -2  15    4.66    1.17
  -5  -2  15   13.86    1.69
  -4  -2  15   43.09    2.62
  -3  -2  15    4.02    0.73
  -2  -2  15   29.37    1.47
  -1  -2  15   20.66    1.33
   0  -2  15    0.64    0.51
   1  -2  15   21.57    1.37
   2  -2  15   30.41    1.22
   3  -2  15    4.34    0.59
   4  -2  15   40.03    1.52
   5  -2  15   10.59    1.16
   6  -2  15    2.83    0.85
   7  -2  15    1.14    0.77
   8  -2  15   25.51    2.09
   9  -2  15    8.32    1.39
  10  -2  15    6.11    1.29
  11  -2  15    1.87    0.95
  12  -2  15    5.94    2.17
 -11  -1  15   -0.18    1.01
 -10  -1  15    5.31    1.29
  -9  -1  15    4.22    1.19
  -8  -1  15   14.24    1.70
  -7  -1  15    2.97    0.72
  -6  -1  15   23.21    1.39
  -5  -1  15   -0.28    0.47
  -4  -1  15    7.53    0.84
  -3  -1  15    2.35    0.60
  -2  -1  15    6.90    0.78
  -1  -1  15    4.60    0.68
   0  -1  15  253.64    6.46
   1  -1  15    5.60    0.74
   2  -1  15    5.76    0.77
   3  -1  15    2.92    0.65
   4  -1  15    6.19    0.71
   5  -1  15   -0.31    0.44
   6  -1  15   22.62    1.35
   7  -1  15    1.83    0.79
   8  -1  15   10.57    1.28
   9  -1  15    2.12    0.85
  10  -1  15    7.76    1.21
  11  -1  15    0.60    0.82
  12  -1  15    4.75    1.14
  13  -1  15    2.96    1.72
 -11   0  15    1.10    1.12
 -10   0  15   13.60    1.92
  -9   0  15   16.92    2.05
  -8   0  15   27.24    2.49
  -7   0  15    4.55    1.16
  -6   0  15    4.56    0.69
  -5   0  15   13.02    1.00
  -4   0  15   54.55    1.88
  -3   0  15    7.18    0.73
  -2   0  15   39.61    1.55
  -1   0  15   28.49    1.27
   0   0  15    0.02    0.41
   1   0  15   29.32    1.31
   2   0  15   40.23    1.66
   3   0  15    7.37    0.85
   4   0  15   55.65    2.06
   5   0  15   14.44    0.97
   6   0  15    4.73    0.67
   7   0  15    3.39    0.65
   8   0  15   31.14    1.45
   9   0  15   16.61    1.57
  10   0  15   11.73    1.44
  11   0  15    0.34    0.80
  12   0  15    7.13    1.28
  13   0  15    7.21    1.40
 -13   1  15    1.04    1.39
 -12   1  15    3.47    1.59
 -11   1  15    0.28    1.21
 -10   1  15    5.83    1.50
  -9   1  15    1.56    1.08
  -8   1  15   11.81    1.75
  -7   1  15    1.31    0.96
  -6   1  15   25.41    2.37
  -5   1  15   -0.19    0.76
  -4   1  15    7.22    1.32
  -3   1  15    1.22    0.85
  -2   1  15    5.17    1.16
  -1   1  15    5.11    1.07
   0   1  15  259.17    6.98
   1   1  15    4.87    0.88
   2   1  15    5.82    0.67
   3   1  15    0.84    0.46
   4   1  15    7.19    0.74
   5   1  15   -0.54    0.35
   6   1  15   25.26    1.24
   7   1  15    4.18    0.66
   8   1  15   13.53    1.06
   9   1  15    2.60    0.88
  10   1  15    4.97    1.06
  11   1  15   -0.32    0.82
  12   1  15    4.16    1.18
  13   1  15    0.81    1.48
 -12   2  15    4.82    1.68
 -11   2  15    0.80    1.31
 -10   2  15    9.45    1.97
  -9   2  15    9.14    1.81
  -8   2  15   23.59    2.59
  -7   2  15    1.70    1.10
  -6   2  15    1.94    1.08
  -5   2  15    9.76    1.25
  -4   2  15   39.34    2.09
  -3   2  15    7.50    1.05
  -2   2  15   29.51    1.79
  -1   2  15   18.85    1.51
   0   2  15    0.14    0.61
   1   2  15   20.24    1.52
   2   2  15   31.29    1.76
   3   2  15    4.39    0.86
   4   2  15   42.94    2.01
   5   2  15   12.15    1.21
   6   2  15    3.58    0.56
   7   2  15    3.16    0.53
   8   2  15   25.20    1.17
   9   2  15   13.80    1.52
  10   2  15    7.83    1.30
  11   2  15    0.14    0.96
  12   2  15    0.10    1.48
 -10   3  15    5.81    1.75
  -9   3  15    1.98    1.38
  -8   3  15    4.43    1.58
  -7   3  15    3.28    1.35
  -6   3  15   16.46    2.19
  -5   3  15   -1.15    0.70
  -4   3  15    3.14    0.92
  -3   3  15    0.75    0.78
  -2   3  15    2.82    0.87
  -1   3  15    2.11    0.79
   0   3  15  151.32    4.80
   1   3  15    2.35    0.78
   2   3  15    2.28    0.76
   3   3  15    0.74    0.67
   4   3  15    1.79    1.40
   5   3  15    2.27    1.36
   6   3  15   11.88    2.31
   7   3  15    1.19    1.45
   8   3  15    7.51    1.36
   9   3  15    1.48    1.42
  10   3  15    5.13    1.84
  -8   4  15   11.89    2.17
  -7   4  15    0.65    1.35
  -6   4  15    5.45    1.65
  -5   4  15    6.02    1.27
  -4   4  15   19.79    1.84
  -3   4  15    2.11    0.88
  -2   4  15   14.79    1.50
  -1   4  15    9.91    1.23
   0   4  15    1.55    1.24
   1   4  15    5.23    1.68
   2   4  15   16.22    2.67
   3   4  15    0.18    1.29
   4   4  15   21.65    3.06
   5   4  15    5.85    2.03
   6   4  15    0.84    1.42
   7   4  15    0.42    1.49
   8   4  15    8.60    2.41
  -4   5  15    4.07    1.97
  -3   5  15    0.37    1.50
  -2   5  15   -0.23    1.47
  -1   5  15    0.22    1.45
   0   5  15   65.36    5.08
   1   5  15   -0.44    1.52
   2   5  15    0.03    1.64
   3   5  15    0.56    1.64
  -1  -5  16    1.50    1.44
   0  -5  16   -0.65    1.18
   1  -5  16    1.19    1.35
   2  -5  16    2.20    1.34
  -7  -4  16   -0.71    1.16
  -6  -4  16    2.81    1.36
  -5  -4  16    3.74    1.42
  -4  -4  16   -1.00    0.96
  -3  -4  16    1.10    1.16
  -2  -4  16   49.04    3.46
  -1  -4  16   15.54    2.10
   0  -4  16    9.39    1.79
   1  -4  16   11.23    1.83
   2  -4  16   51.43    3.48
   3  -4  16    1.94    1.24
   4  -4  16    0.04    0.98
   5  -4  16    3.56    0.98
   6  -4  16    1.14    0.92
   7  -4  16    0.17    0.86
   8  -4  16   18.97    3.10
 -10  -3  16    6.90    1.71
  -9  -3  16    2.75    1.37
  -8  -3  16   18.97    2.34
  -7  -3  16    1.33    1.08
  -6  -3  16   15.24    2.03
  -5  -3  16    0.51    1.01
  -4  -3  16    3.32    1.17
  -3  -3  16    4.18    1.27
  -2  -3  16   10.66    1.58
  -1  -3  16    2.88    1.10
   0  -3  16    0.57    0.87
   1  -3  16    1.61    0.98
   2  -3  16    8.32    1.54
   3  -3  16    7.03    1.44
   4  -3  16    1.12    0.69
   5  -3  16    1.29    0.69
   6  -3  16   13.22    1.41
   7  -3  16    0.49    0.81
   8  -3  16   17.90    1.85
   9  -3  16    0.08    0.97
  10  -3  16    5.25    1.42
 -12  -2  16    2.15    1.38
 -11  -2  16    0.61    1.17
 -10  -2  16    9.02    1.78
  -9  -2  16   -1.16    0.93
  -8  -2  16   39.81    2.81
  -7  -2  16   -0.31    0.83
  -6  -2  16    2.33    1.01
  -5  -2  16    8.77    1.43
  -4  -2  16    1.98    0.88
  -3  -2  16    6.42    0.85
  -2  -2  16   99.40    3.11
  -1  -2  16   34.06    1.56
   0  -2  16   21.14    1.38
   1  -2  16   31.87    1.59
   2  -2  16  102.84    3.20
   3  -2  16    5.64    0.85
   4  -2  16    1.52    0.61
   5  -2  16    9.41    0.88
   6  -2  16    2.80    0.84
   7  -2  16   -0.02    0.68
   8  -2  16   37.17    2.37
   9  -2  16   -0.41    0.79
  10  -2  16    8.16    1.40
  11  -2  16    1.06    0.92
  12  -2  16    4.63    2.04
 -10  -1  16   11.34    1.79
  -9  -1  16    1.79    1.06
  -8  -1  16   28.83    2.48
  -7  -1  16    0.01    0.58
  -6  -1  16   26.63    1.42
  -5  -1  16    0.94    0.56
  -4  -1  16    6.30    0.81
  -3  -1  16    6.52    0.78
  -2  -1  16   15.97    1.13
  -1  -1  16    6.27    0.77
   0  -1  16   -0.71    0.44
   1  -1  16    5.25    0.74
   2  -1  16   13.95    1.12
   3  -1  16    7.01    0.85
   4  -1  16    4.06    0.75
   5  -1  16    1.86    0.64
   6  -1  16   22.54    1.34
   7  -1  16    0.55    0.52
   8  -1  16   25.03    1.90
   9  -1  16    0.53    0.69
  10  -1  16   13.31    1.49
  11  -1  16    6.05    1.17
  12  -1  16   -0.30    0.82
  13  -1  16    1.41    1.67
 -11   0  16    1.01    1.17
 -10   0  16    9.87    1.74
  -9   0  16    0.80    1.03
  -8   0  16   49.99    3.09
  -7   0  16   -0.16    0.77
  -6   0  16    2.59    1.01
  -5   0  16    8.69    1.43
  -4   0  16    0.67    0.47
  -3   0  16    6.79    0.72
  -2   0  16  132.45    3.69
  -1   0  16   42.97    1.67
   0   0  16   28.07    1.33
   1   0  16   45.34    1.73
   2   0  16  135.23    3.79
   3   0  16    6.70    0.81
   4   0  16    1.21    0.55
   5   0  16   12.63    1.13
   6   0  16    3.73    0.79
   7   0  16    1.04    0.53
   8   0  16   48.10    1.81
   9   0  16    0.64    0.69
  10   0  16   12.63    1.48
  11   0  16    0.93    0.89
  12   0  16    4.08    1.16
  13   0  16    4.17    1.84
 -12   1  16   -0.85    1.19
 -11   1  16    6.19    1.73
 -10   1  16   11.28    1.90
  -9   1  16    0.96    1.04
  -8   1  16   21.72    2.39
  -7   1  16    1.83    1.06
  -6   1  16   25.60    2.39
  -5   1  16    0.82    0.89
  -4   1  16    5.30    1.20
  -3   1  16    8.07    1.33
  -2   1  16   14.94    1.68
  -1   1  16    4.83    1.10
   0   1  16   -0.78    0.67
   1   1  16    6.63    1.21
   2   1  16   16.19    1.67
   3   1  16    7.11    0.83
   4   1  16    3.49    0.69
   5   1  16    1.36    0.61
   6   1  16   21.67    1.53
   7   1  16    0.66    0.65
   8   1  16   27.33    1.78
   9   1  16    0.06    0.72
  10   1  16   11.75    1.44
  11   1  16    6.35    1.23
  12   1  16    1.05    0.93
 -11   2  16    1.73    1.37
 -10   2  16    7.72    1.85
  -9   2  16    0.03    1.10
  -8   2  16   30.39    3.05
  -7   2  16    0.42    1.06
  -6   2  16    1.17    1.03
  -5   2  16    8.93    1.59
  -4   2  16    0.69    0.71
  -3   2  16    3.16    0.88
  -2   2  16   93.74    3.51
  -1   2  16   32.09    1.86
   0   2  16   21.93    1.62
   1   2  16   29.87    1.79
   2   2  16  102.71    3.51
   3   2  16    4.22    0.88
   4   2  16    0.00    0.60
   5   2  16    7.60    1.05
   6   2  16    3.69    0.89
   7   2  16    0.60    0.59
   8   2  16   38.96    2.14
  10   2  16   10.85    2.15
  11   2  16    2.06    1.51
 -10   3  16    8.55    2.06
  -9   3  16   -0.56    1.17
  -8   3  16   17.04    2.41
  -7   3  16   -1.03    0.99
  -6   3  16   16.50    2.29
  -5   3  16    0.55    0.82
  -4   3  16    2.92    0.94
  -3   3  16    2.61    0.90
  -2   3  16    7.97    1.17
  -1   3  16    4.27    0.91
   0   3  16    0.28    0.68
   1   3  16    4.81    0.96
   2   3  16    8.04    1.10
   3   3  16    5.18    0.93
   4   3  16    4.42    1.55
   5   3  16    1.11    1.39
   6   3  16   17.85    2.78
   7   3  16    1.25    1.52
   8   3  16   19.69    3.02
   9   3  16    1.23    1.33
  -8   4  16   16.02    2.58
  -7   4  16    1.07    1.37
  -6   4  16    3.37    1.50
  -5   4  16    4.38    1.08
  -4   4  16   -0.02    0.86
  -3   4  16    2.64    1.02
  -2   4  16   44.29    2.53
  -1   4  16   14.25    1.48
   0   4  16    9.54    2.25
   1   4  16   14.44    2.53
   2   4  16   56.44    4.30
   3   4  16    4.70    1.79
   4   4  16   -0.32    1.32
   5   4  16    1.49    1.60
   6   4  16    2.42    1.67
   7   4  16    0.14    1.59
   8   4  16   17.02    3.13
  -4   5  16    2.18    1.94
  -3   5  16   -0.56    1.61
  -2   5  16    3.58    1.89
  -1   5  16    1.98    1.68
   0   5  16    1.27    1.66
   1   5  16    3.48    1.70
  -7  -4  17    2.13    1.45
  -6  -4  17    1.88    1.37
  -5  -4  17    7.47    1.79
  -4  -4  17    2.15    1.29
  -3  -4  17    1.74    1.23
  -2  -4  17   10.66    1.89
  -1  -4  17    1.44    1.24
   0  -4  17    0.84    1.10
   1  -4  17    1.34    1.07
   2  -4  17    5.20    1.41
   3  -4  17    1.15    1.03
   4  -4  17    0.30    1.02
   5  -4  17    8.33    1.74
   6  -4  17    3.84    1.40
   7  -4  17    0.44    1.08
 -10  -3  17    4.36    1.58
  -9  -3  17    1.96    1.37
  -8  -3  17   -0.10    1.01
  -7  -3  17   18.78    2.32
  -6  -3  17   -0.28    0.91
  -5  -3  17    2.92    1.19
  -4  -3  17    8.90    1.64
  -3  -3  17    5.62    1.35
  -2  -3  17    0.43    0.85
  -1  -3  17   -1.14    0.73
   0  -3  17   24.34    2.47
   1  -3  17   -0.13    0.82
   2  -3  17    0.51    0.65
   3  -3  17    7.66    1.51
   4  -3  17    6.85    1.50
   5  -3  17    2.08    1.07
   6  -3  17    0.91    0.95
   7  -3  17   13.18    2.10
   8  -3  17    0.56    1.09
   9  -3  17    3.02    1.41
 -11  -2  17   -2.00    1.03
 -10  -2  17    0.46    1.18
  -9  -2  17   15.33    2.04
  -8  -2  17    5.88    1.42
  -7  -2  17    0.97    1.02
  -6  -2  17   11.47    1.68
  -5  -2  17   17.46    1.95
  -4  -2  17    0.94    0.84
  -3  -2  17    6.18    0.87
  -2  -2  17   19.52    1.34
  -1  -2  17    1.72    0.62
   0  -2  17   -0.39    0.47
   1  -2  17    1.40    0.64
   2  -2  17   18.01    1.36
   3  -2  17    5.29    0.87
   4  -2  17    1.78    0.66
   5  -2  17   14.37    1.29
   6  -2  17   11.48    1.75
   7  -2  17    4.23    1.23
   8  -2  17   11.18    1.86
   9  -2  17   15.25    2.17
  10  -2  17    1.41    1.16
  11  -2  17   -0.09    1.07
  -8  -1  17   -0.49    0.80
  -7  -1  17   31.00    1.61
  -6  -1  17    1.08    0.60
  -5  -1  17    4.11    0.76
  -4  -1  17   15.23    1.19
  -3  -1  17   13.82    1.10
  -2  -1  17    0.60    0.55
  -1  -1  17    0.70    0.51
   0  -1  17   50.40    1.93
   1  -1  17    0.71    0.50
   2  -1  17    1.34    0.56
   3  -1  17   11.92    1.10
   4  -1  17   15.21    1.26
   5  -1  17    4.11    0.79
   6  -1  17    0.40    0.63
   7  -1  17   30.94    1.82
   8  -1  17    0.37    0.96
   9  -1  17    2.09    1.10
  10  -1  17    3.36    1.30
  11  -1  17   21.15    2.64
  12  -1  17    0.96    1.21
 -11   0  17    2.42    1.30
 -10   0  17    4.08    1.32
  -9   0  17   15.10    2.03
  -8   0  17   10.86    1.67
  -7   0  17    5.83    1.27
  -6   0  17   17.70    1.97
  -5   0  17   18.32    2.00
  -4   0  17    1.94    0.92
  -3   0  17    4.79    1.13
  -2   0  17   27.51    1.32
  -1   0  17    2.52    0.55
   0   0  17   -0.48    0.42
   1   0  17    2.57    0.60
   2   0  17   25.42    1.41
   3   0  17    7.09    0.84
   4   0  17    1.63    0.61
   5   0  17   19.63    1.43
   6   0  17   13.67    1.26
   7   0  17    2.74    0.77
   8   0  17    8.81    1.11
   9   0  17   21.16    2.43
  10   0  17    3.37    1.29
  11   0  17    1.01    1.07
  12   0  17    2.21    1.38
 -12   1  17   -0.73    1.16
 -11   1  17   20.78    2.61
 -10   1  17   -1.33    1.06
  -9   1  17    4.93    1.50
  -8   1  17    0.75    1.08
  -7   1  17   24.32    2.51
  -6   1  17   -0.04    0.84
  -5   1  17    2.17    1.02
  -4   1  17   11.73    1.67
  -3   1  17   11.83    1.58
  -2   1  17    1.41    0.82
  -1   1  17   -0.32    0.73
   0   1  17   53.20    2.91
   1   1  17    0.04    0.74
   2   1  17    0.86    0.81
   3   1  17   10.99    1.50
   4   1  17   15.60    1.20
   5   1  17    3.04    0.72
   6   1  17    0.43    0.59
   7   1  17   30.11    1.76
   8   1  17    0.89    0.69
   9   1  17    3.86    0.91
  10   1  17    3.88    1.48
  11   1  17   23.58    2.99
  12   1  17   -0.18    1.26
 -11   2  17    0.24    1.23
 -10   2  17    2.81    1.39
  -9   2  17   14.84    2.23
  -8   2  17   11.45    1.98
  -7   2  17    2.28    1.20
  -6   2  17    9.95    1.67
  -5   2  17   15.20    1.99
  -4   2  17    0.88    0.92
  -3   2  17    4.71    1.01
  -2   2  17   17.84    1.58
  -1   2  17    1.70    0.75
   0   2  17   -0.31    0.61
   1   2  17    1.81    0.77
   2   2  17   18.40    1.57
   3   2  17    5.82    1.02
   4   2  17    1.66    0.78
   5   2  17   14.75    1.40
   6   2  17   11.76    1.34
   7   2  17    2.49    0.85
   8   2  17    6.25    1.38
  -9   3  17    3.53    1.60
  -8   3  17    1.71    1.34
  -7   3  17   15.67    2.28
  -6   3  17   -0.11    1.02
  -5   3  17    2.03    0.98
  -4   3  17   10.90    1.39
  -3   3  17    6.70    1.14
  -2   3  17    1.01    0.79
  -1   3  17    1.31    0.73
   0   3  17   27.38    1.96
   1   3  17   -0.46    0.68
   2   3  17    0.57    0.70
   3   3  17    8.10    1.17
   4   3  17    7.05    1.10
   5   3  17    3.46    1.56
   6   3  17   -1.23    1.22
   7   3  17   19.36    3.01
   8   3  17   -0.35    1.56
  -7   4  17    2.58    1.50
  -6   4  17    8.56    1.85
  -5   4  17   10.55    1.47
  -4   4  17    0.79    0.93
  -3   4  17    1.45    0.91
  -2   4  17    8.43    1.30
  -1   4  17    0.22    0.85
   0   4  17    0.18    1.34
   1   4  17   -0.23    1.35
   2   4  17   12.43    2.41
   3   4  17    1.45    1.62
   4   4  17    0.07    1.55
   5   4  17    8.17    2.41
   6   4  17    8.43    2.43
   7   4  17   -0.39    1.63
   8   4  17    2.44    1.94
  -6  -4  18    0.30    1.21
  -5  -4  18    0.30    1.15
  -4  -4  18   18.03    2.44
  -3  -4  18    4.97    1.55
  -2  -4  18    1.18    1.18
  -1  -4  18    1.56    1.18
   0  -4  18   -0.03    0.95
   1  -4  18    1.17    1.13
   2  -4  18   -0.03    1.03
   3  -4  18    0.18    1.04
   4  -4  18   11.81    2.04
   5  -4  18    1.27    1.21
   6  -4  18   -0.45    1.10
  -9  -3  18    0.33    1.16
  -8  -3  18    5.02    1.56
  -7  -3  18    1.35    1.16
  -6  -3  18    0.28    1.06
  -5  -3  18    3.56    1.33
  -4  -3  18    3.98    1.26
  -3  -3  18   28.29    2.72
  -2  -3  18    7.38    1.53
  -1  -3  18    9.49    1.63
   0  -3  18   -0.78    0.81
   1  -3  18   14.07    1.91
   2  -3  18    8.79    1.09
   3  -3  18   26.90    2.68
   4  -3  18    2.75    1.12
   5  -3  18    4.64    1.30
   6  -3  18    1.32    1.07
   7  -3  18    1.35    1.15
   8  -3  18    4.01    1.47
   9  -3  18    0.13    1.15
 -11  -2  18   -0.16    1.17
 -10  -2  18    0.24    1.11
  -9  -2  18   -1.71    0.90
  -8  -2  18    3.47    1.27
  -7  -2  18    5.44    1.35
  -6  -2  18   -0.16    0.88
  -5  -2  18    2.56    1.01
  -4  -2  18   27.87    2.51
  -3  -2  18    6.58    0.90
  -2  -2  18   -0.86    0.53
  -1  -2  18    1.49    0.64
   0  -2  18    1.39    0.62
   1  -2  18    1.09    0.62
   2  -2  18    1.24    0.57
   3  -2  18    5.85    0.92
   4  -2  18   32.94    1.71
   5  -2  18    2.47    0.75
   6  -2  18   -0.26    0.81
   7  -2  18    4.95    1.42
   8  -2  18    2.62    1.13
   9  -2  18    0.18    1.06
  10  -2  18   -1.12    0.91
  -7  -1  18    4.15    0.82
  -6  -1  18    3.82    0.77
  -5  -1  18    6.94    0.90
  -4  -1  18    3.90    0.73
  -3  -1  18   54.51    2.08
  -2  -1  18   14.68    1.16
  -1  -1  18   21.33    1.31
   0  -1  18    0.28    0.51
   1  -1  18   18.05    1.28
   2  -1  18   15.89    1.23
   3  -1  18   49.85    2.10
   4  -1  18    1.48    0.65
   5  -1  18    5.97    0.89
   6  -1  18    3.16    0.80
   7  -1  18    4.46    0.89
   8  -1  18    3.65    1.19
   9  -1  18   -0.21    0.88
  10  -1  18    0.13    1.04
  11  -1  18    1.72    1.27
 -10   0  18   -0.25    1.11
  -9   0  18    0.45    1.05
  -8   0  18    4.53    1.32
  -7   0  18    7.47    1.43
  -6   0  18    0.25    0.90
  -5   0  18    3.75    1.09
  -4   0  18   36.72    2.51
  -3   0  18    6.77    1.32
  -2   0  18    1.49    0.89
  -1   0  18    1.86    0.55
   0   0  18    2.78    0.61
   1   0  18    1.74    0.57
   2   0  18    0.40    0.50
   3   0  18    8.67    0.94
   4   0  18   35.54    1.72
   5   0  18    2.28    0.71
   6   0  18    0.41    0.58
   7   0  18    8.97    1.10
   8   0  18    5.45    0.95
   9   0  18    0.51    1.07
  10   0  18   -0.40    0.98
  11   0  18    0.33    1.18
  12   0  18    0.55    1.31
 -12   1  18   12.02    2.23
 -11   1  18    2.99    1.44
 -10   1  18    1.33    1.23
  -9   1  18    0.53    1.04
  -8   1  18    7.77    1.62
  -7   1  18    4.92    1.34
  -6   1  18    1.25    1.02
  -5   1  18    4.97    1.26
  -4   1  18    0.86    0.94
  -3   1  18   51.33    3.07
  -2   1  18   15.68    1.81
  -1   1  18   22.01    2.13
   0   1  18   -0.02    0.74
   1   1  18   21.09    2.03
   2   1  18   10.56    1.54
   3   1  18   50.85    2.96
   4   1  18    3.08    1.01
   5   1  18    5.95    0.90
   6   1  18    2.90    0.75
   7   1  18    4.31    0.91
   8   1  18    7.50    1.10
   9   1  18   -0.44    0.70
  10   1  18   -0.19    1.03
  11   1  18    2.34    1.47
  12   1  18   14.23    2.48
 -10   2  18    0.11    1.24
  -9   2  18    2.34    1.39
  -8   2  18    3.61    1.41
  -7   2  18    5.25    1.52
  -6   2  18    1.11    1.04
  -5   2  18    2.38    1.18
  -4   2  18   26.98    2.57
  -3   2  18    4.12    0.98
  -2   2  18    0.55    0.76
  -1   2  18    1.33    0.79
   0   2  18    2.25    0.81
   1   2  18    2.40    0.83
   2   2  18    0.61    0.71
   3   2  18    3.84    0.90
   4   2  18   28.94    1.87
   5   2  18    1.06    0.79
   6   2  18   -0.06    0.71
   7   2  18    6.53    1.15
   8   2  18    1.75    1.14
  -9   3  18    0.24    1.38
  -8   3  18    3.68    1.61
  -7   3  18    2.30    1.36
  -6   3  18    0.10    1.11
  -5   3  18    3.37    1.10
  -4   3  18    0.87    0.87
  -3   3  18   32.52    2.27
  -2   3  18    5.64    1.05
  -1   3  18   12.46    1.42
   0   3  18   -0.31    0.73
   1   3  18    9.31    1.25
   2   3  18    8.00    1.19
   3   3  18   31.28    2.01
   4   3  18    1.80    0.83
   5   3  18    1.61    1.64
   6   3  18   -0.35    1.53
   7   3  18    1.87    1.72
   8   3  18    3.14    2.02
  -6   4  18   -1.34    1.18
  -5   4  18   -0.15    1.04
  -4   4  18   14.30    1.73
  -3   4  18    3.73    1.12
  -2   4  18    1.81    0.94
  -1   4  18   -0.72    0.86
   0   4  18    1.51    1.60
   1   4  18    2.54    1.57
   2   4  18   -0.45    1.36
   3   4  18    5.05    2.09
   4   4  18   11.89    2.70
   5   4  18    0.29    1.68
   6   4  18    0.65    1.62
   7   4  18    8.34    2.40
  -5  -4  19    3.49    1.61
  -4  -4  19    6.57    1.68
  -3  -4  19    1.51    1.29
  -2  -4  19    1.53    1.30
  -1  -4  19    0.01    1.10
   0  -4  19   -0.43    0.97
   1  -4  19   -0.54    0.99
   2  -4  19    1.86    1.18
   3  -4  19   -1.06    0.90
   4  -4  19    2.41    1.28
   5  -4  19    2.92    1.45
  -9  -3  19   -0.99    1.21
  -8  -3  19    2.84    1.35
  -7  -3  19    8.37    1.72
  -6  -3  19   38.09    3.01
  -5  -3  19    1.07    1.07
  -4  -3  19   18.25    2.24
  -3  -3  19    1.97    1.21
  -2  -3  19    9.81    1.73
  -1  -3  19    3.23    1.24
   0  -3  19    6.21    1.45
   1  -3  19    2.81    1.16
   2  -3  19   10.35    1.18
   3  -3  19    0.04    0.91
   4  -3  19   15.15    2.12
   5  -3  19    1.77    1.17
   6  -3  19   40.88    3.08
   7  -3  19    7.10    1.67
   8  -3  19    3.08    1.42
 -10  -2  19   29.87    2.96
  -9  -2  19    9.76    1.80
  -8  -2  19    2.75    1.25
  -7  -2  19    0.84    1.10
  -6  -2  19   21.36    2.22
  -5  -2  19    8.55    1.59
  -4  -2  19   12.07    1.72
  -3  -2  19    0.04    0.82
  -2  -2  19    0.82    0.65
  -1  -2  19   -0.25    0.55
   0  -2  19    0.45    0.57
   1  -2  19   -0.47    0.56
   2  -2  19    0.55    0.52
   3  -2  19   -0.29    0.58
   4  -2  19   11.10    1.19
   5  -2  19    7.51    1.03
   6  -2  19   15.53    2.06
   7  -2  19    0.98    1.01
   8  -2  19    0.48    1.03
   9  -2  19    6.63    1.63
  10  -2  19   31.39    3.22
  -7  -1  19   14.57    1.87
  -6  -1  19   65.04    2.43
  -5  -1  19    1.42    0.67
  -4  -1  19   42.96    1.86
  -3  -1  19    3.67    0.76
  -2  -1  19   16.06    1.24
  -1  -1  19    6.60    0.85
   0  -1  19   10.70    1.05
   1  -1  19    5.57    0.83
   2  -1  19   15.52    1.24
   3  -1  19    4.39    0.81
   4  -1  19   37.85    1.89
   5  -1  19    1.24    0.66
   6  -1  19   59.47    2.52
   7  -1  19   13.63    1.37
   8  -1  19    4.78    1.35
   9  -1  19   -0.60    0.92
  10  -1  19   -0.12    1.00
  11  -1  19    4.69    1.61
 -10   0  19   36.75    3.25
  -9   0  19   12.49    1.95
  -8   0  19    2.62    1.23
  -7   0  19   -0.08    0.90
  -6   0  19   21.81    2.29
  -5   0  19    3.77    1.14
  -4   0  19   15.34    1.86
  -3   0  19   -0.39    0.78
  -2   0  19    0.53    0.85
  -1   0  19    0.29    0.81
   0   0  19    0.22    0.80
   1   0  19    0.07    0.49
   2   0  19   -0.08    0.53
   3   0  19    0.45    0.53
   4   0  19   14.52    1.24
   5   0  19    7.94    1.03
   6   0  19   21.05    1.58
   7   0  19    0.84    0.68
   8   0  19    3.03    0.84
   9   0  19   11.48    1.95
  10   0  19   34.25    3.27
  11   0  19   -0.42    1.08
 -11   1  19    9.18    1.94
 -10   1  19    0.42    1.15
  -9   1  19    1.62    1.25
  -8   1  19    3.42    1.30
  -7   1  19   11.26    1.84
  -6   1  19   59.65    3.59
  -5   1  19    2.09    1.13
  -4   1  19   36.34    2.69
  -3   1  19    3.70    1.14
  -2   1  19   14.78    1.86
  -1   1  19    4.44    1.19
   0   1  19    7.63    1.38
   1   1  19    4.73    1.21
   2   1  19   16.35    1.94
   3   1  19    3.68    1.05
   4   1  19   37.78    2.51
   5   1  19    3.58    1.14
   6   1  19   57.73    3.38
   7   1  19   10.25    1.73
   8   1  19    6.50    1.08
   9   1  19    1.30    0.82
  10   1  19   -0.09    1.18
  11   1  19   12.97    2.29
 -10   2  19   32.79    3.40
  -9   2  19   11.50    2.10
  -8   2  19    2.10    1.32
  -7   2  19    1.43    1.20
  -6   2  19   19.46    2.35
  -5   2  19    3.51    1.31
  -4   2  19    8.81    1.62
  -3   2  19    0.65    0.92
  -2   2  19    1.06    0.77
  -1   2  19   -0.19    0.70
   0   2  19    0.52    0.75
   1   2  19   -0.03    0.72
   2   2  19    0.33    0.72
   3   2  19    1.03    0.79
   4   2  19    9.40    1.26
   5   2  19    5.16    1.02
   6   2  19   13.85    1.53
   7   2  19    2.49    1.00
   8   2  19    3.23    1.21
  -8   3  19    0.98    1.47
  -7   3  19    8.37    1.94
  -6   3  19   32.50    3.21
  -5   3  19    1.77    1.01
  -4   3  19   22.14    1.98
  -3   3  19    4.05    1.01
  -2   3  19    9.45    1.35
  -1   3  19    3.50    1.04
   0   3  19    6.16    1.14
   1   3  19    2.41    0.94
   2   3  19    6.74    1.17
   3   3  19    1.07    0.81
   4   3  19   25.53    1.96
   5   3  19    0.43    1.58
   6   3  19   38.33    4.34
   7   3  19   10.09    2.55
   8   3  19    2.84    2.02
  -6   4  19    6.97    1.98
  -5   4  19    3.53    1.56
  -4   4  19    8.38    1.48
  -3   4  19   -0.36    0.85
  -2   4  19   -0.07    0.90
  -1   4  19    0.45    0.88
   0   4  19   -1.76    1.23
   1   4  19    0.32    1.59
   2   4  19   -0.97    1.44
   3   4  19    1.14    1.62
   4   4  19    1.11    1.66
   5   4  19    7.29    2.36
   6   4  19    8.85    2.59
  -4  -4  20   19.19    2.62
  -3  -4  20    8.58    1.93
  -2  -4  20    8.75    1.84
  -1  -4  20    1.67    1.37
   0  -4  20    1.33    1.24
   1  -4  20   -0.67    1.06
   2  -4  20    9.38    1.91
   3  -4  20    4.92    1.58
   4  -4  20   12.32    2.14
  -8  -3  20   13.47    2.18
  -7  -3  20    2.14    1.31
  -6  -3  20   -1.24    1.02
  -5  -3  20    7.59    1.68
  -4  -3  20    1.00    1.07
  -3  -3  20    1.66    1.13
  -2  -3  20   19.57    2.33
  -1  -3  20    0.46    1.07
   0  -3  20   -0.86    0.85
   1  -3  20   -1.15    0.85
   2  -3  20   22.81    1.70
   3  -3  20    1.26    1.09
   4  -3  20    0.40    0.93
   5  -3  20    5.80    1.56
   6  -3  20   -1.78    0.92
   7  -3  20    1.21    1.17
  -8  -2  20   16.84    2.14
  -7  -2  20    6.29    1.51
  -6  -2  20    0.96    0.98
  -5  -2  20    3.20    1.17
  -4  -2  20   31.27    2.47
  -3  -2  20   13.87    1.82
  -2  -2  20   17.76    1.40
  -1  -2  20    1.35    0.66
   0  -2  20    2.58    0.73
   1  -2  20    3.70    0.81
   2  -2  20   17.17    1.42
   3  -2  20   13.28    1.32
   4  -2  20   27.45    1.87
   5  -2  20    4.10    0.91
   6  -2  20    0.04    0.94
   7  -2  20    5.84    1.52
   8  -2  20   12.79    2.06
   9  -2  20    0.01    1.06
  -6  -1  20   -0.71    0.98
  -5  -1  20   11.46    1.73
  -4  -1  20    1.32    0.62
  -3  -1  20    3.37    0.75
  -2  -1  20   37.04    1.76
  -1  -1  20    1.17    0.61
   0  -1  20   -0.21    0.52
   1  -1  20    0.31    0.56
   2  -1  20   38.83    1.81
   3  -1  20    2.04    0.71
   4  -1  20    0.00    0.60
   5  -1  20    9.69    1.14
   6  -1  20    0.65    0.68
   7  -1  20    1.12    0.72
   8  -1  20   21.21    2.53
   9  -1  20   -0.89    0.96
  10  -1  20    1.47    1.22
 -10   0  20    0.01    1.12
  -9   0  20   -0.31    1.13
  -8   0  20   19.20    2.27
  -7   0  20    9.67    1.69
  -6   0  20    0.32    0.89
  -5   0  20    4.23    1.25
  -4   0  20   34.53    2.64
  -3   0  20   18.07    2.14
  -2   0  20   25.86    2.39
  -1   0  20    0.44    0.88
   0   0  20    5.99    1.28
   1   0  20    3.68    1.15
   2   0  20   22.20    1.50
   3   0  20   21.39    1.46
   4   0  20   38.78    1.85
   5   0  20    6.53    0.95
   6   0  20    0.10    0.64
   7   0  20    8.08    1.13
   8   0  20   16.58    1.51
   9   0  20   -0.86    0.89
  10   0  20    0.81    1.20
  11   0  20    5.21    1.73
 -11   1  20    5.12    1.72
 -10   1  20    2.36    1.34
  -9   1  20   -0.95    1.07
  -8   1  20   22.50    2.59
  -7   1  20   -0.01    1.04
  -6   1  20    0.45    0.95
  -5   1  20   12.45    1.85
  -4   1  20    0.00    0.84
  -3   1  20    2.99    1.12
  -2   1  20   34.63    2.60
  -1   1  20   -0.85    0.75
   0   1  20    0.16    0.81
   1   1  20   -0.36    0.78
   2   1  20   35.28    2.57
   3   1  20    2.78    1.03
   4   1  20    0.82    0.90
   5   1  20    7.59    1.43
   6   1  20    1.25    1.04
   7   1  20   -0.48    0.89
   8   1  20   21.48    2.35
   9   1  20    1.10    1.00
  -9   2  20    0.72    1.24
  -8   2  20   12.25    2.13
  -7   2  20    4.65    1.52
  -6   2  20   -0.48    1.05
  -5   2  20    5.69    1.44
  -4   2  20   30.47    2.85
  -3   2  20   15.40    1.99
  -2   2  20   14.18    1.88
  -1   2  20    1.15    1.08
   0   2  20    4.70    1.07
   1   2  20    2.41    0.89
   2   2  20   15.94    1.57
   3   2  20   15.18    1.55
   4   2  20   31.75    2.05
   5   2  20    4.46    1.04
   6   2  20    1.95    1.09
   7   2  20   11.76    1.64
   8   2  20   15.07    1.99
  -7   3  20    1.28    1.39
  -6   3  20    0.65    1.20
  -5   3  20    6.96    1.69
  -4   3  20   -1.33    0.87
  -3   3  20    1.69    0.93
  -2   3  20   16.89    1.77
  -1   3  20    0.01    0.84
   0   3  20    0.84    0.88
   1   3  20   -0.04    0.83
   2   3  20   22.08    1.90
   3   3  20   -0.89    0.78
   4   3  20    0.97    0.89
   5   3  20    6.62    2.40
   6   3  20   -1.33    1.60
   7   3  20    0.82    1.84
  -5   4  20    0.94    1.42
  -4   4  20   15.79    1.90
  -3   4  20    5.77    1.34
  -2   4  20   10.11    1.56
  -1   4  20    1.66    1.07
   0   4  20    1.06    1.77
   1   4  20    1.43    1.74
   2   4  20    6.04    2.18
   3   4  20    8.00    2.43
   4   4  20   18.48    3.33
  -3  -4  21   14.30    2.33
  -2  -4  21   -0.52    1.20
  -1  -4  21    9.80    1.99
   0  -4  21   -1.19    1.02
   1  -4  21   10.09    1.98
   2  -4  21    0.09    1.25
  -7  -3  21    0.73    1.32
  -6  -3  21    9.78    1.92
  -5  -3  21    0.37    1.12
  -4  -3  21   -0.60    1.02
  -3  -3  21    0.08    0.99
  -2  -3  21    1.21    1.16
  -1  -3  21    5.46    1.52
   0  -3  21    1.60    1.08
   1  -3  21    8.75    1.66
   2  -3  21    0.45    1.00
   3  -3  21    0.08    0.73
   4  -3  21    2.35    1.14
   5  -3  21    0.40    1.02
   6  -3  21    9.72    1.87
   7  -3  21   -1.16    1.04
  -7  -2  21    0.20    1.06
  -6  -2  21   -0.50    1.01
  -5  -2  21   -0.66    1.00
  -4  -2  21    7.37    1.50
  -3  -2  21   24.52    2.39
  -2  -2  21    0.73    0.69
  -1  -2  21   22.85    1.61
   0  -2  21   -0.62    0.61
   1  -2  21   23.50    1.64
   2  -2  21    1.41    0.64
   3  -2  21   19.62    1.56
   4  -2  21    4.89    0.96
   5  -2  21    0.42    0.70
   6  -2  21    1.40    0.82
   7  -2  21    0.19    1.03
   8  -2  21    2.34    1.31
   9  -2  21    5.29    1.60
  -6  -1  21   17.96    2.16
  -5  -1  21   -0.33    0.94
  -4  -1  21   -0.60    0.88
  -3  -1  21    0.29    0.62
  -2  -1  21    1.65    0.68
  -1  -1  21   14.28    1.22
   0  -1  21    0.84    0.61
   1  -1  21   10.36    1.08
   2  -1  21    0.86    0.61
   3  -1  21   -0.07    0.62
   4  -1  21    0.18    0.66
   5  -1  21    0.63    0.68
   6  -1  21   15.15    1.44
   7  -1  21    1.23    0.77
   8  -1  21    1.06    1.13
   9  -1  21    2.22    1.29
  10  -1  21    0.82    1.17
 -10   0  21   15.12    2.26
  -9   0  21    7.72    1.75
  -8   0  21    2.81    1.36
  -7   0  21    0.17    1.04
  -6   0  21    2.09    1.09
  -5   0  21    2.29    1.16
  -4   0  21    4.62    1.31
  -3   0  21   30.33    2.69
  -2   0  21   -0.66    0.82
  -1   0  21   28.10    2.56
   0   0  21   -0.58    0.80
   1   0  21   32.56    2.44
   2   0  21    0.83    0.85
   3   0  21   29.16    2.58
   4   0  21    7.12    0.99
   5   0  21    0.06    0.62
   6   0  21    2.56    0.82
   7   0  21    0.52    0.72
   8   0  21    2.43    0.84
   9   0  21    4.63    1.62
  10   0  21   15.20    2.34
 -10   1  21   -0.13    1.22
  -9   1  21    1.07    1.30
  -8   1  21    1.78    1.23
  -7   1  21    1.37    1.16
  -6   1  21   13.08    1.99
  -5   1  21    0.22    0.93
  -4   1  21    0.00    0.88
  -3   1  21    0.42    0.92
  -2   1  21    0.45    0.98
  -1   1  21   13.25    1.81
   0   1  21    2.86    1.08
   1   1  21   11.11    1.65
   2   1  21    0.53    0.95
   3   1  21    0.20    0.90
   4   1  21    0.06    0.75
   5   1  21    0.69    0.94
   6   1  21   15.66    2.02
   7   1  21   -1.05    0.93
   8   1  21   -0.65    1.07
   9   1  21    2.62    1.24
  -9   2  21    3.19    1.56
  -8   2  21    2.09    1.47
  -7   2  21    0.85    1.22
  -6   2  21    2.89    1.33
  -5   2  21    1.26    1.13
  -4   2  21    5.63    1.47
  -3   2  21   22.13    2.42
  -2   2  21   -0.30    0.91
  -1   2  21   21.39    2.32
   0   2  21   -0.81    0.85
   1   2  21   17.55    2.15
   2   2  21   -0.53    0.83
   3   2  21   21.52    2.28
   4   2  21    4.93    1.33
   5   2  21   -1.22    0.91
   6   2  21    0.35    1.07
   7   2  21    3.52    1.16
   8   2  21    0.95    1.22
  -7   3  21   -0.12    1.28
  -6   3  21   10.54    2.08
  -5   3  21   -1.45    1.17
  -4   3  21    0.35    1.13
  -3   3  21   -0.74    0.86
  -2   3  21    0.44    0.93
  -1   3  21    7.72    1.31
   0   3  21    1.58    0.98
   1   3  21    7.86    1.32
   2   3  21   -0.02    0.89
   3   3  21   -0.04    0.87
   4   3  21   -0.22    1.67
   5   3  21   -0.70    1.65
   6   3  21    9.75    2.65
   7   3  21   -1.31    1.87
  -4   4  21    3.83    1.26
  -3   4  21   14.14    1.77
  -2   4  21   -0.02    1.03
  -1   4  21   10.35    1.63
   0   4  21   -1.34    1.62
   1   4  21   13.72    2.98
   2   4  21    1.25    1.86
  -7  -3  22    0.04    1.36
  -6  -3  22    0.57    1.23
  -5  -3  22   10.68    1.95
  -4  -3  22    0.85    1.20
  -3  -3  22    6.20    1.61
  -2  -3  22   -1.43    0.94
  -1  -3  22   -0.61    1.01
   0  -3  22    1.30    1.18
   1  -3  22   -1.23    1.05
   2  -3  22    0.15    0.95
   3  -3  22    4.22    1.04
   4  -3  22    0.16    1.00
   5  -3  22    3.29    1.42
   6  -3  22   -0.13    1.13
  -6  -2  22    3.32    1.36
  -5  -2  22   -1.73    0.90
  -4  -2  22    4.63    1.39
  -3  -2  22   10.74    1.76
  -2  -2  22    9.25    1.10
  -1  -2  22    7.71    1.07
   0  -2  22   17.70    1.48
   1  -2  22   10.05    1.21
   2  -2  22    7.64    1.01
   3  -2  22   11.53    1.26
   4  -2  22    2.80    0.87
   5  -2  22    0.56    0.75
   6  -2  22    1.42    0.84
   7  -2  22   12.72    2.16
   8  -2  22    5.46    1.62
  -6  -1  22   -1.12    1.05
  -5  -1  22   15.33    2.03
  -4  -1  22    0.82    1.00
  -3  -1  22    6.04    1.37
  -2  -1  22    0.48    1.00
  -1  -1  22    2.42    0.74
   0  -1  22    0.92    0.63
   1  -1  22    1.88    0.70
   2  -1  22    0.00    0.62
   3  -1  22    6.93    1.00
   4  -1  22   -0.21    0.68
   5  -1  22   15.84    1.48
   6  -1  22    0.76    0.77
   7  -1  22    1.36    0.85
   8  -1  22    3.42    1.36
   9  -1  22    6.68    1.71
  -9   0  22    1.30    1.27
  -8   0  22    7.26    1.67
  -7   0  22   16.52    2.17
  -6   0  22    3.69    1.35
  -5   0  22    0.23    1.02
  -4   0  22    3.84    1.30
  -3   0  22   16.23    2.07
  -2   0  22   12.54    1.84
  -1   0  22    9.20    1.57
   0   0  22   20.15    2.24
   1   0  22    7.85    1.56
   2   0  22   12.33    1.84
   3   0  22   10.89    1.76
   4   0  22    2.01    1.12
   5   0  22    2.86    1.16
   6   0  22    4.37    0.95
   7   0  22   19.68    1.64
   8   0  22    7.48    1.13
   9   0  22    0.04    1.09
  10   0  22    3.99    1.53
  -9   1  22    7.89    1.83
  -8   1  22    4.11    1.47
  -7   1  22    3.16    1.30
  -6   1  22    0.13    1.05
  -5   1  22   14.68    2.00
  -4   1  22    0.98    1.05
  -3   1  22    6.43    1.45
  -2   1  22   -0.17    0.93
  -1   1  22    3.44    1.24
   0   1  22    0.00    0.82
   1   1  22    1.54    1.03
   2   1  22    0.43    0.90
   3   1  22    5.90    1.41
   4   1  22    0.49    0.92
   5   1  22   13.85    1.86
   6   1  22    0.26    0.94
   7   1  22    2.23    1.18
   8   1  22    2.65    1.29
   9   1  22    8.18    1.79
  -8   2  22    9.07    1.95
  -7   2  22   13.14    2.22
  -6   2  22    2.49    1.39
  -5   2  22   -0.87    1.05
  -4   2  22    2.02    1.24
  -3   2  22   11.03    1.86
  -2   2  22   10.97    1.80
  -1   2  22   11.63    1.84
   0   2  22   17.68    2.10
   1   2  22   11.14    1.73
   2   2  22    9.71    1.65
   3   2  22   13.06    1.82
   4   2  22    2.20    1.16
   5   2  22   -1.47    0.89
   6   2  22    4.01    1.34
   7   2  22   18.39    2.15
   8   2  22    8.93    1.81
  -6   3  22    1.00    1.45
  -5   3  22   14.76    2.28
  -4   3  22   -0.17    1.06
  -3   3  22    3.85    1.51
  -2   3  22    1.53    1.07
  -1   3  22    1.27    1.01
   0   3  22   -0.11    0.91
   1   3  22    1.10    0.99
   2   3  22   -1.03    0.88
   3   3  22    4.28    1.15
   4   3  22    1.80    1.85
   5   3  22   15.85    3.26
   6   3  22    3.46    2.24
   7   3  22   -2.10    1.77
  -2   4  22    3.79    1.55
  -6  -3  23    6.36    1.66
  -5  -3  23    2.49    1.48
  -4  -3  23    6.53    1.74
  -3  -3  23   -0.24    1.19
  -2  -3  23    6.48    1.61
  -1  -3  23   29.69    2.98
   0  -3  23   21.89    2.65
   2  -3  23    3.18    1.39
   3  -3  23   -0.35    0.97
   4  -3  23    1.20    1.30
   5  -3  23    2.16    1.35
  -4  -2  23    5.19    1.48
  -3  -2  23    3.16    1.33
  -2  -2  23    5.45    1.43
  -1  -2  23    6.07    1.05
   0  -2  23    0.25    0.73
   1  -2  23    4.03    0.93
   2  -2  23    3.19    0.81
   3  -2  23    3.72    0.94
   4  -2  23    2.86    0.91
   5  -2  23    0.11    0.81
   6  -2  23    6.03    1.16
   7  -2  23   -1.77    0.99
  -6  -1  23    9.16    1.76
  -5  -1  23    6.02    1.51
  -4  -1  23    8.78    1.66
  -3  -1  23    0.85    1.08
  -2  -1  23   12.29    1.84
   0  -1  23   31.57    2.87
   1  -1  23   55.65    2.36
   2  -1  23   11.33    1.22
   3  -1  23    0.18    0.68
   4  -1  23    7.95    1.17
   5  -1  23    7.70    1.09
   6  -1  23    9.21    1.25
   7  -1  23    4.11    0.97
   8  -1  23    1.96    1.32
   9  -1  23   -0.64    0.96
  -9   0  23   -0.28    1.28
  -8   0  23    7.45    1.68
  -7   0  23    0.00    1.11
  -6   0  23    6.22    1.60
  -5   0  23    2.03    1.25
  -4   0  23    8.88    1.70
  -3   0  23    7.72    1.54
  -2   0  23    5.44    1.33
  -1   0  23    8.46    1.61
   0   0  23    0.73    0.98
   1   0  23   10.04    1.66
   2   0  23    3.23    1.16
   3   0  23    6.71    1.47
   4   0  23    7.18    1.49
   5   0  23    0.66    1.09
   6   0  23    4.43    1.41
   7   0  23    0.75    1.11
   8   0  23    7.25    1.71
  -9   1  23    0.48    1.42
  -8   1  23    5.27    1.63
  -7   1  23    4.58    1.49
  -6   1  23    7.75    1.69
  -5   1  23    4.81    1.51
  -4   1  23    8.06    1.60
  -3   1  23    0.81    1.07
  -2   1  23    7.91    1.68
  -1   1  23   56.88    3.52
   0   1  23   37.78    2.77
   2   1  23   10.00    1.73
   3   1  23    0.11    0.97
   4   1  23   11.24    1.77
   5   1  23    5.84    1.48
   6   1  23    7.79    1.67
   7   1  23    2.09    1.27
   8   1  23    1.73    1.22
   9   1  23   -0.84    1.08
  -7   2  23    0.68    1.30
  -6   2  23    6.06    1.67
  -5   2  23   -0.76    1.05
  -4   2  23    4.57    1.52
  -3   2  23    2.48    1.27
  -2   2  23    2.80    1.29
  -1   2  23    7.42    1.63
   0   2  23    0.70    1.13
   1   2  23    6.03    1.43
   2   2  23    5.33    1.44
   3   2  23    4.50    1.30
   4   2  23    6.12    1.43
   5   2  23    1.33    1.08
   6   2  23    6.18    1.60
   7   2  23   -0.63    1.11
  -5   3  23    1.99    1.40
  -4   3  23    7.01    1.71
  -3   3  23    0.40    1.15
  -2   3  23    7.70    1.76
  -1   3  23   28.90    4.06
   0   3  23   26.66    2.23
   1   3  23   32.03    4.15
   2   3  23    5.84    1.28
   3   3  23    0.10    0.95
   4   3  23    5.97    2.32
   5   3  23    5.38    2.41
   6   3  23    3.57    2.35
  -5  -3  24    8.62    2.00
  -4  -3  24    3.24    1.48
  -3  -3  24   -0.52    1.26
  -2  -3  24    1.38    1.36
  -1  -3  24   -0.70    1.14
   0  -3  24    0.39    1.22
   1  -3  24    4.09    1.43
   2  -3  24    1.33    1.20
   3  -3  24    0.28    1.20
   4  -3  24    0.92    1.28
  -3  -2  24    5.54    1.43
  -2  -2  24   14.63    2.05
  -1  -2  24    2.41    0.89
   0  -2  24    1.24    0.83
   1  -2  24    3.08    0.91
   2  -2  24   12.52    1.35
   3  -2  24    6.00    1.08
   4  -2  24   12.98    1.46
   5  -2  24   -0.47    0.77
   6  -2  24   -0.23    0.84
   7  -2  24    2.17    1.38
  -5  -1  24   20.91    2.43
  -4  -1  24    4.04    1.35
  -3  -1  24    1.60    1.16
  -2  -1  24    0.10    1.05
  -1  -1  24    6.80    1.48
   0  -1  24    1.93    1.12
   1  -1  24    2.99    1.21
   2  -1  24    0.22    1.07
   3  -1  24    0.18    0.74
   4  -1  24    2.54    0.91
   5  -1  24   17.88    1.64
   6  -1  24   16.86    1.60
   7  -1  24    2.62    0.97
   8  -1  24    7.29    1.87
  -9   0  24    1.67    1.41
  -8   0  24    7.49    1.81
  -7   0  24   -0.37    1.19
  -6   0  24    0.69    1.19
  -5   0  24   -0.72    1.13
  -4   0  24   21.72    2.48
  -3   0  24    7.12    1.63
  -2   0  24   13.94    2.05
  -1   0  24    3.45    1.25
   0   0  24    2.92    1.20
   1   0  24    1.65    1.11
   2   0  24   14.44    2.02
   3   0  24    9.15    1.67
   4   0  24   20.35    2.37
   5   0  24    1.13    1.11
   6   0  24   -0.02    1.09
   7   0  24    2.77    1.33
   8   0  24    5.23    1.65
  -8   1  24    8.85    1.82
  -7   1  24    2.25    1.40
  -6   1  24   11.95    2.09
  -5   1  24   18.04    2.43
  -4   1  24    1.67    1.30
  -3   1  24   -1.21    0.99
  -2   1  24    1.59    1.09
  -1   1  24    1.73    1.14
   0   1  24   -0.26    0.97
   1   1  24    3.37    1.25
   2   1  24    0.95    1.02
   3   1  24    0.60    1.01
   4   1  24    1.20    0.97
   5   1  24   20.80    2.35
   6   1  24   17.94    2.39
   7   1  24    3.61    1.37
   8   1  24   16.12    2.23
  -6   2  24    2.28    1.35
  -5   2  24   -0.21    1.16
  -4   2  24   15.80    2.31
  -3   2  24    6.11    1.65
  -2   2  24    8.94    1.80
  -1   2  24    3.06    1.40
   0   2  24    2.90    1.24
   1   2  24    2.69    1.30
   2   2  24   15.21    2.11
   3   2  24    6.28    1.53
   4   2  24   15.51    2.04
   5   2  24    2.03    1.25
   6   2  24   -0.79    1.09
   7   2  24    3.27    1.46
  -3   3  24    0.46    1.32
  -2   3  24    0.25    1.30
  -1   3  24    5.41    1.59
   0   3  24    0.44    1.22
   1   3  24    2.55    1.36
   2   3  24    0.39    1.16
   3   3  24   -0.49    1.19
  -3  -3  25   -0.54    1.25
  -2  -3  25   -0.75    1.23
  -1  -3  25    1.04    1.35
   0  -3  25   14.29    2.20
   1  -3  25    3.60    1.52
   2  -3  25    0.18    1.16
  -1  -2  25    3.26    0.97
   0  -2  25   -0.60    0.75
   1  -2  25    3.14    0.94
   2  -2  25    1.07    0.80
   3  -2  25    5.54    1.10
   4  -2  25    3.04    0.98
   5  -2  25    3.30    1.04
   6  -2  25    0.07    1.24
  -5  -1  25   -0.52    1.21
  -4  -1  25    7.07    1.73
  -3  -1  25    1.58    1.22
  -2  -1  25    0.99    1.14
  -1  -1  25    3.05    1.33
   0  -1  25   17.12    2.21
   1  -1  25    1.46    1.16
   2  -1  25   -0.31    1.13
   3  -1  25    1.01    1.21
   4  -1  25    9.70    1.73
   5  -1  25    1.18    1.25
   6  -1  25    6.03    1.15
   7  -1  25    4.85    1.56
   8  -1  25   -0.96    1.20
  -8   0  25   -0.44    1.31
  -7   0  25    2.70    1.41
  -6   0  25   -0.64    1.20
  -5   0  25    1.55    1.28
  -4   0  25    3.27    1.46
  -3   0  25    4.10    1.42
  -2   0  25   -0.76    0.99
  -1   0  25    6.30    1.58
   0   0  25    0.38    1.08
   1   0  25    3.21    1.36
   2   0  25    2.40    1.23
   3   0  25    8.41    1.64
   4   0  25    3.60    1.33
   5   0  25    3.60    1.42
   6   0  25   -1.30    0.99
   7   0  25    2.04    1.35
  -7   1  25    3.62    1.63
  -6   1  25    5.93    1.68
  -5   1  25    1.11    1.28
  -4   1  25    6.48    1.67
  -3   1  25    0.53    1.09
  -2   1  25   -0.82    1.02
  -1   1  25    4.04    1.30
   0   1  25   22.09    2.47
   1   1  25    4.14    1.37
   2   1  25    0.83    1.04
   3   1  25    2.26    1.25
   4   1  25    6.63    1.63
   5   1  25    0.95    1.16
   6   1  25    4.88    1.53
   7   1  25    2.98    1.42
  -5   2  25    1.46    1.36
  -4   2  25    3.11    1.57
  -3   2  25    6.32    1.71
  -2   2  25    0.21    1.14
  -1   2  25    3.58    1.41
   0   2  25   -0.90    1.07
   1   2  25    3.48    1.44
   2   2  25    1.75    1.27
   3   2  25    7.37    1.72
   4   2  25    2.50    1.30
   5   2  25    2.23    1.39
   6   2  25   -0.03    1.20
  -2   3  25   -0.32    1.36
  -1   3  25    2.89    1.50
   0   3  25   13.66    2.19
   1   3  25    2.60    1.39
   2   3  25    1.31    1.42
   3   3  25    0.44    1.21
   0  -2  26    4.47    1.60
   1  -2  26    7.42    1.26
   2  -2  26    0.18    0.85
   3  -2  26   14.50    1.54
   4  -2  26    1.85    0.99
   5  -2  26    5.42    1.67
  -5  -1  26    1.26    1.33
  -4  -1  26    0.29    1.32
  -3  -1  26    3.24    1.47
  -2  -1  26    0.21    1.16
  -1  -1  26    0.55    1.27
   0  -1  26   -0.56    1.04
   1  -1  26   -0.21    1.17
   2  -1  26   -1.98    0.92
   3  -1  26    1.34    1.31
   4  -1  26    5.18    1.34
   5  -1  26   -1.62    1.11
  -7   0  26   -0.19    1.39
  -6   0  26    9.91    2.02
  -5   0  26    9.74    1.93
  -4   0  26   -1.34    1.08
  -3   0  26   14.06    2.20
  -2   0  26    1.98    1.29
  -1   0  26    9.31    1.83
   0   0  26    9.81    1.87
   1   0  26   11.68    1.96
   2   0  26    1.85    1.14
   3   0  26   14.33    2.20
   4   0  26    3.09    1.43
   5   0  26    8.39    1.82
   6   0  26   12.78    2.20
  -6   1  26    1.49    1.37
  -5   1  26    0.65    1.33
  -4   1  26    4.06    1.48
  -3   1  26    1.29    1.26
  -2   1  26    1.11    1.21
  -1   1  26    0.45    1.08
   0   1  26    0.82    1.22
   1   1  26   -0.34    1.02
   2   1  26    0.61    1.11
   3   1  26    1.72    1.20
   4   1  26    1.86    1.24
   5   1  26    2.10    1.39
   6   1  26    1.99    1.47
  -3   2  26   13.05    2.20
  -2   2  26    0.31    1.26
  -1   2  26    5.93    1.59
   0   2  26    7.53    1.85
   1   2  26    6.16    1.65
   2   2  26    2.76    1.44
   3   2  26   10.23    1.91
   4   2  26    3.18    1.39
   5   2  26    7.97    1.78
   0  -2  27   -0.27    1.36
   1  -2  27   -0.09    1.43
   2  -2  27    3.35    1.60
   3  -2  27   -0.51    1.30
   4  -2  27    2.86    1.53
  -4  -1  27    5.87    1.78
  -3  -1  27   -0.54    1.21
  -2  -1  27    6.89    1.69
  -1  -1  27    0.53    1.21
   0  -1  27   12.11    2.07
   1  -1  27   -0.95    1.14
   2  -1  27    8.10    1.85
   3  -1  27   -0.35    1.11
   4  -1  27    4.56    1.59
  -6   0  27    1.15    1.38
  -5   0  27   10.48    2.07
  -4   0  27    3.98    1.55
  -3   0  27   -0.07    1.20
  -2   0  27    1.97    1.40
  -1   0  27    3.99    1.44
   0   0  27   -0.15    1.01
   1   0  27    0.44    1.13
   2   0  27    3.00    1.44
   3   0  27   -0.84    1.12
   4   0  27    2.37    1.34
   5   0  27   12.71    2.24
  -4   1  27    5.11    1.63
  -3   1  27    0.46    1.13
  -2   1  27    5.57    1.63
  -1   1  27    1.18    1.26
   0   1  27   17.03    2.33
   1   1  27    0.41    1.13
   2   1  27    6.40    1.70
   3   1  27   -0.71    1.15
   4   1  27    7.73    1.73
  -1   2  27   -0.78    1.25
   0   2  27    1.32    1.35
   1   2  27   -0.58    1.25
   2   2  27    3.31    1.49
   0  -2  28    1.48    1.53
  -4  -1  28    1.63    1.44
  -3  -1  28   10.18    1.96
  -2  -1  28   -0.27    1.28
  -1  -1  28    6.97    1.78
   0  -1  28   -0.79    1.17
   1  -1  28    8.83    1.91
   2  -1  28    1.90    1.39
  -4   0  28    7.62    1.91
  -3   0  28    3.30    1.49
  -2   0  28   13.69    2.27
  -1   0  28   -0.92    1.12
   0   0  28    2.17    1.37
   1   0  28    0.91    1.28
   2   0  28   12.27    2.10
   3   0  28    4.54    1.54
  -2   1  28    0.78    1.24
  -1   1  28    7.67    1.89
   0   1  28    0.84    1.35
   1   1  28    9.06    1.85
   0   0   0    0.00    0.00
;
_shelx_hkl_checksum              13600
loop_
_space_group_symop_operation_xyz
'x, y, z'
'-x+1/2, -y, z+1/2'
'-x, y+1/2, -z'
'x+1/2, -y+1/2, -z+1/2'
'-x, -y, -z'
'x-1/2, y, -z-1/2'
'x, -y-1/2, z'
'-x-1/2, y-1/2, z-1/2'
loop_
_atom_site_label
_atom_site_type_symbol
_atom_site_fract_x
_atom_site_fract_y
_atom_site_fract_z
_atom_site_U_iso_or_equiv
_atom_site_adp_type
_atom_site_occupancy
_atom_site_site_symmetry_order
_atom_site_calc_flag
_atom_site_refinement_flags_posn
_atom_site_refinement_flags_adp
_atom_site_refinement_flags_occupancy
_atom_site_disorder_assembly
_atom_site_disorder_group
K K 0.21476(19) 0.2500 0.45854(11) 0.0196(4) Uani 1 2 d S T P . .
Sn1 Sn 0.32879(5) 0.2500 0.14869(3) 0.01055(12) Uani 1 2 d S T P . .
Sn2 Sn 0.39021(5) 0.2500 0.75813(3) 0.01116(12) Uani 1 2 d S T P . .
Sn3 Sn 0.51891(5) 0.2500 0.62159(3) 0.01258(12) Uani 1 2 d S T P . .
As1 As 0.01512(8) 0.2500 0.62022(4) 0.01045(16) Uani 1 2 d S T P . .
As2 As 0.12616(8) 0.2500 0.06768(4) 0.01172(17) Uani 1 2 d S T P . .
As3 As 0.27428(8) 0.2500 0.28142(4) 0.01133(16) Uani 1 2 d S T P . .
loop_
_atom_site_aniso_label
_atom_site_aniso_U_11
_atom_site_aniso_U_22
_atom_site_aniso_U_33
_atom_site_aniso_U_23
_atom_site_aniso_U_13
_atom_site_aniso_U_12
K 0.0192(8) 0.0173(8) 0.0223(9) 0.000 -0.0050(7) 0.000
Sn1 0.0079(2) 0.0102(2) 0.0136(3) 0.000 0.00049(18) 0.000
Sn2 0.0096(2) 0.0107(2) 0.0132(3) 0.000 -0.00090(19) 0.000
Sn3 0.0083(2) 0.0123(2) 0.0171(3) 0.000 0.00130(19) 0.000
As1 0.0083(3) 0.0102(3) 0.0129(4) 0.000 -0.0007(3) 0.000
As2 0.0100(3) 0.0118(4) 0.0134(4) 0.000 -0.0005(3) 0.000
As3 0.0102(4) 0.0106(3) 0.0132(4) 0.000 -0.0006(3) 0.000
loop_
_atom_type_symbol
_atom_type_description
_atom_type_scat_dispersion_real
_atom_type_scat_dispersion_imag
_atom_type_scat_source
K K 0.2009 0.2494 'International Tables Vol C Tables 4.2.6.8 and 6.1.1.4'
As As 0.0499 2.0058 'International Tables Vol C Tables 4.2.6.8 and 6.1.1.4'
Sn Sn -0.6537 1.4246 'International Tables Vol C Tables 4.2.6.8 and 6.1.1.4'
loop_
_geom_angle_atom_site_label_1
_geom_angle_atom_site_label_2
_geom_angle_atom_site_label_3
_geom_angle
_geom_angle_site_symmetry_1
_geom_angle_site_symmetry_3
As2 K As2 75.16(4) 2_565 2
As2 K As1 164.42(7) 2_565 5_556
As2 K As1 104.073(19) 2 5_556
As2 K As1 104.073(19) 2_565 5_566
As2 K As1 164.42(7) 2 5_566
As1 K As1 72.37(4) 5_556 5_566
As2 K As3 122.17(5) 2_565 .
As2 K As3 122.17(5) 2 .
As1 K As3 71.79(4) 5_556 .
As1 K As3 71.79(4) 5_566 .
As2 K As1 74.97(4) 2_565 .
As2 K As1 74.97(4) 2 .
As1 K As1 89.73(4) 5_556 .
As1 K As1 89.73(4) 5_566 .
As3 K As1 156.89(6) . .
As2 K Sn3 64.70(3) 2_565 5_666
As2 K Sn3 103.89(5) 2 5_666
As1 K Sn3 129.46(6) 5_556 5_666
As1 K Sn3 89.39(3) 5_566 5_666
As3 K Sn3 57.70(3) . 5_666
As1 K Sn3 138.10(4) . 5_666
As2 K Sn3 103.89(5) 2_565 5_656
As2 K Sn3 64.70(3) 2 5_656
As1 K Sn3 89.39(3) 5_556 5_656
As1 K Sn3 129.46(6) 5_566 5_656
As3 K Sn3 57.70(3) . 5_656
As1 K Sn3 138.10(4) . 5_656
Sn3 K Sn3 66.35(4) 5_666 5_656
As2 K K 127.58(2) 2_565 1_545
As2 K K 52.42(2) 2 1_545
As1 K K 53.82(2) 5_556 1_545
As1 K K 126.18(2) 5_566 1_545
As3 K K 90.0 . 1_545
As1 K K 90.0 . 1_545
Sn3 K K 123.177(18) 5_666 1_545
Sn3 K K 56.824(18) 5_656 1_545
As2 K K 52.42(2) 2_565 1_565
As2 K K 127.58(2) 2 1_565
As1 K K 126.18(2) 5_556 1_565
As1 K K 53.82(2) 5_566 1_565
As3 K K 90.0 . 1_565
As1 K K 90.0 . 1_565
Sn3 K K 56.824(18) 5_666 1_565
Sn3 K K 123.177(18) 5_656 1_565
K K K 180.0 1_545 1_565
As2 Sn1 As3 114.74(3) . .
As2 Sn1 As1 110.83(3) . 2_564
As3 Sn1 As1 109.28(2) . 2_564
As2 Sn1 As1 110.83(3) . 2_554
As3 Sn1 As1 109.28(2) . 2_554
As1 Sn1 As1 100.99(3) 2_564 2_554
As1 Sn2 As3 98.76(3) 6_657 2
As1 Sn2 As3 98.76(3) 6_657 2_565
As3 Sn2 As3 99.24(3) 2 2_565
As1 Sn2 Sn3 124.89(3) 6_657 .
As3 Sn2 Sn3 115.42(2) 2 .
As3 Sn2 Sn3 115.42(2) 2_565 .
As2 Sn3 As2 96.99(3) 2 2_565
As2 Sn3 Sn2 95.61(2) 2 .
As2 Sn3 Sn2 95.61(2) 2_565 .
As2 Sn3 K 130.36(4) 2 5_666
As2 Sn3 K 80.10(3) 2_565 5_666
Sn2 Sn3 K 134.02(3) . 5_666
As2 Sn3 K 80.10(3) 2 5_656
As2 Sn3 K 130.36(4) 2_565 5_656
Sn2 Sn3 K 134.02(3) . 5_656
K Sn3 K 66.35(4) 5_666 5_656
Sn1 As1 Sn1 100.99(3) 2_565 2
Sn1 As1 Sn2 96.07(3) 2_565 6_557
Sn1 As1 Sn2 96.07(3) 2 6_557
Sn1 As1 K 162.55(4) 2_565 5_556
Sn1 As1 K 92.46(2) 2 5_556
Sn2 As1 K 93.49(4) 6_557 5_556
Sn1 As1 K 92.46(2) 2_565 5_566
Sn1 As1 K 162.55(4) 2 5_566
Sn2 As1 K 93.49(4) 6_557 5_566
K As1 K 72.37(4) 5_556 5_566
Sn1 As1 K 81.01(3) 2_565 .
Sn1 As1 K 81.01(3) 2 .
Sn2 As1 K 175.35(4) 6_557 .
K As1 K 90.27(4) 5_556 .
K As1 K 90.27(5) 5_566 .
Sn1 As2 Sn3 101.78(3) . 2_554
Sn1 As2 Sn3 101.78(3) . 2_564
Sn3 As2 Sn3 96.99(3) 2_554 2_564
Sn1 As2 K 89.47(4) . 2_554
Sn3 As2 K 92.57(2) 2_554 2_554
Sn3 As2 K 163.38(4) 2_564 2_554
Sn1 As2 K 89.47(4) . 2_564
Sn3 As2 K 163.38(4) 2_554 2_564
Sn3 As2 K 92.57(2) 2_564 2_564
K As2 K 75.16(4) 2_554 2_564
Sn1 As3 Sn2 88.27(3) . 2_554
Sn1 As3 Sn2 88.27(3) . 2_564
Sn2 As3 Sn2 99.24(3) 2_554 2_564
Sn1 As3 K 177.82(5) . .
Sn2 As3 K 93.14(3) 2_554 .
Sn2 As3 K 93.14(3) 2_564 .
loop_
_geom_bond_atom_site_label_1
_geom_bond_atom_site_label_2
_geom_bond_distance
_geom_bond_site_symmetry_2
K As2 3.3484(17) 2_565
K As2 3.3484(17) 2
K As1 3.4588(17) 5_556
K As1 3.4588(17) 5_566
K As3 3.462(2) .
K As1 3.718(2) .
K Sn3 3.7316(18) 5_666
K Sn3 3.7316(18) 5_656
K K 4.0840(5) 1_545
K K 4.0840(5) 1_565
Sn1 As2 2.5885(10) .
Sn1 As3 2.6134(10) .
Sn1 As1 2.6466(6) 2_564
Sn1 As1 2.6466(6) 2_554
Sn2 As1 2.6649(10) 6_657
Sn2 As3 2.6805(7) 2
Sn2 As3 2.6805(7) 2_565
Sn2 Sn3 2.9366(8) .
Sn3 As2 2.7267(7) 2
Sn3 As2 2.7267(7) 2_565
Sn3 K 3.7316(18) 5_666
Sn3 K 3.7316(18) 5_656
As1 Sn1 2.6466(6) 2_565
As1 Sn1 2.6466(6) 2
As1 Sn2 2.6649(10) 6_557
As1 K 3.4587(17) 5_556
As1 K 3.4587(17) 5_566
As2 Sn3 2.7267(7) 2_554
As2 Sn3 2.7267(7) 2_564
As2 K 3.3483(17) 2_554
As2 K 3.3483(17) 2_564
As3 Sn2 2.6805(7) 2_554
As3 Sn2 2.6805(7) 2_564
