#------------------------------------------------------------------------------
#$Date: 2021-03-24 10:10:07 +0200 (Wed, 24 Mar 2021) $
#$Revision: 263291 $
#$URL: file:///home/coder/svn-repositories/cod/cif/1/56/12/1561230.cif $
#------------------------------------------------------------------------------
#
# This file is available in the Crystallography Open Database (COD),
# http://www.crystallography.net/
#
# All data on this site have been placed in the public domain by the
# contributors.
#
data_1561230
loop_
_publ_author_name
'M\;aczka, Miros\/law'
'Kucharska, Edyta'
'G\;agor, Anna'
'Pikul, Adam'
'Hanuza, Jerzy'
_publ_section_title
;
 Synthesis, magnetic and vibrational properties of two novel mixed-valence
 iron(II)-iron(III) formate frameworks
;
_journal_name_full               'Journal of Solid State Chemistry'
_journal_page_first              163
_journal_page_last               169
_journal_paper_doi               10.1016/j.jssc.2017.10.016
_journal_volume                  258
_journal_year                    2018
_chemical_absolute_configuration .
_chemical_formula_sum            'C9 H16 Fe2 N O12'
_chemical_formula_weight         441.9
_space_group_IT_number           163
_space_group_name_Hall           '-P 3 2c'
_space_group_name_H-M_alt        'P -3 1 c'
_symmetry_cell_setting           trigonal
_symmetry_Int_Tables_number      163
_symmetry_space_group_name_Hall  '-P 3 2c'
_symmetry_space_group_name_H-M   'P -3 1 c'
_cell_angle_alpha                90
_cell_angle_beta                 90
_cell_angle_gamma                120
_cell_formula_units_Z            2
_cell_length_a                   8.3389(2)
_cell_length_b                   8.3389(2)
_cell_length_c                   13.7419(5)
_cell_measurement_temperature    295
_cell_volume                     827.55(4)
_diffrn_ambient_temperature      295
_diffrn_measurement_device       PANalitycal
_diffrn_measurement_device_type  'powder diffractometer'
_diffrn_radiation_probe          x-ray
_diffrn_radiation_type           CuK\a
_diffrn_radiation_wavelength     1.5418
_exptl_absorpt_coefficient_mu    14.677
_exptl_crystal_density_diffrn    1.7735
_exptl_crystal_F_000             418
_pd_instr_location               ' ?'
_pd_meas_2theta_range_inc        0.026
_pd_meas_2theta_range_max        90.976
_pd_meas_2theta_range_min        5.999
_pd_meas_number_of_points        3237
_pd_proc_2theta_range_inc        0.026
_pd_proc_2theta_range_max        90.976
_pd_proc_2theta_range_min        5.999
_pd_proc_ls_background_function  '7 Legendre polynoms'
_pd_proc_ls_pref_orient_corr     none
_pd_proc_ls_profile_function     Pseudo-Voigt
_pd_proc_ls_prof_R_factor        0.0132
_pd_proc_ls_prof_wR_expected     0.0141
_pd_proc_ls_prof_wR_factor       0.0170
_refine_diff_density_max         0.11
_refine_diff_density_min         -0.07
_refine_ls_goodness_of_fit_all   1.21
_refine_ls_hydrogen_treatment    constr
_refine_ls_number_constraints    1
_refine_ls_number_parameters     29
_refine_ls_number_restraints     5
_refine_ls_R_factor_all          0.1551
_refine_ls_R_factor_gt           0.0672
_refine_ls_shift/su_max          0.0457
_refine_ls_shift/su_mean         0.0114
_refine_ls_weighting_scheme      sigma
_refine_ls_wR_factor_all         0.0621
_refine_ls_wR_factor_gt          0.0524
_cod_data_source_file            EtMeAFeFe.cif
_cod_data_source_block           I
_cod_depositor_comments
;
The following automatic conversions were performed:

data item '_diffrn_radiation_probe' value 'X-ray' was changed to
'x-ray' in accordance with the built-in table derived from the CIF
Core dictionary named 'cif_core.dic' version 2.4.5 last updated on
2014-11-21.

Automatic conversion script
Id: cif_fix_values 8369 2020-08-20 11:38:08Z andrius 
;
_cod_original_cell_volume        827.56(4)
_cod_original_sg_symbol_Hall     '-P 3;-2c'
_cod_original_formula_sum        'C9 H16 Fe2 N1 O12'
_cod_database_code               1561230
loop_
_space_group_symop_id
_space_group_symop_operation_xyz
1 x,y,z
2 -y,x-y,z
3 -x+y,-x,z
4 -y,-x,-z+1/2
5 -x+y,y,-z+1/2
6 x,x-y,-z+1/2
7 -x,-y,-z
8 y,-x+y,-z
9 x-y,x,-z
10 y,x,z+1/2
11 x-y,-y,z+1/2
12 -x,-x+y,z+1/2
loop_
_atom_site_label
_atom_site_type_symbol
_atom_site_fract_x
_atom_site_fract_y
_atom_site_fract_z
_atom_site_adp_type
_atom_site_U_iso_or_equiv
_atom_site_site_symmetry_multiplicity
_atom_site_occupancy
_atom_site_calc_flag
_atom_site_refinement_flags
_atom_site_disorder_assembly
_atom_site_disorder_group
Fe1 Fe 0.333333 0.666667 0.25 Uiso 0.174(7) 2 1 d . . .
Fe2 Fe 0 0 0 Uiso 0.176(7) 2 1 d . . .
O1 O 0.1211(16) 0.4617(13) 0.1603(11) Uiso 0.196(8) 12 1 d . . .
O2 O -0.0055(17) 0.1988(12) 0.0784(9) Uiso 0.172(8) 12 1 d . . .
C3 C 0.1280(10) 0.3358(16) 0.1167(18) Uiso 0.184(9) 12 1 d . . .
C2a C -0.312661 0.291705 0.10558 Uiso 0.082 12 0.3333 d . . .
C1a C -0.333333 0.333333 0.202764 Uiso 0.069 4 0.5 d . . .
N1a N -0.275466 0.280316 0.285172 Uiso 0.069 12 0.1667 d . . .
loop_
_atom_type_symbol
_atom_type_scat_dispersion_real
_atom_type_scat_dispersion_imag
_atom_type_scat_source
C 0.0181 0.0091 'International Tables Vol C tables 4.2.6.8 and 6.1.1.1'
H 0.0000 0.0000 'International Tables Vol C tables 4.2.6.8 and 6.1.1.1'
Fe -1.1336 3.1974 'International Tables Vol C tables 4.2.6.8 and 6.1.1.1'
N 0.0311 0.0180 'International Tables Vol C tables 4.2.6.8 and 6.1.1.1'
O 0.0492 0.0322 'International Tables Vol C tables 4.2.6.8 and 6.1.1.1'
loop_
_geom_angle_atom_site_label_1
_geom_angle_atom_site_label_2
_geom_angle_atom_site_label_3
_geom_angle_site_symmetry_1
_geom_angle_site_symmetry_2
_geom_angle_site_symmetry_3
_geom_angle
O1 Fe1 O1 . . 2_665 89.9(5)
O1 Fe1 O1 . . 3_565 89.9(5)
O1 Fe1 O1 . . 4_665 177.2(6)
O1 Fe1 O1 . . 5_555 92.1(5)
O1 Fe1 O1 . . 6_565 88.1(5)
O1 Fe1 O1 2_665 . 3_565 89.9(7)
O1 Fe1 O1 2_665 . 4_665 92.1(5)
O1 Fe1 O1 2_665 . 5_555 88.1(6)
O1 Fe1 O1 2_665 . 6_565 177.2(6)
O1 Fe1 O1 3_565 . 4_665 88.1(5)
O1 Fe1 O1 3_565 . 5_555 177.2(6)
O1 Fe1 O1 3_565 . 6_565 92.1(7)
O1 Fe1 O1 4_665 . 5_555 89.9(5)
O1 Fe1 O1 4_665 . 6_565 89.9(5)
O1 Fe1 O1 5_555 . 6_565 89.9(7)
O2 Fe2 O2 . . 2_555 93.7(6)
O2 Fe2 O2 . . 3_555 93.7(6)
O2 Fe2 O2 . . 7_555 180.0(5)
O2 Fe2 O2 . . 8_555 86.3(6)
O2 Fe2 O2 . . 9_555 86.3(6)
O2 Fe2 O2 2_555 . 3_555 93.7(5)
O2 Fe2 O2 2_555 . 7_555 86.3(6)
O2 Fe2 O2 2_555 . 8_555 180.0(5)
O2 Fe2 O2 2_555 . 9_555 86.3(5)
O2 Fe2 O2 3_555 . 7_555 86.3(6)
O2 Fe2 O2 3_555 . 8_555 86.3(5)
O2 Fe2 O2 3_555 . 9_555 180.0(5)
O2 Fe2 O2 7_555 . 8_555 93.7(6)
O2 Fe2 O2 7_555 . 9_555 93.7(6)
O2 Fe2 O2 8_555 . 9_555 93.7(5)
Fe1 O1 C3 . . . 126.1(11)
Fe2 O2 C3 . . . 127.5(12)
O1 C3 O2 . . . 125.8(12)
C2a C1a N1a 3_455 . 3_455 126.096(2)
C2a N1a C1a 4_555 . . 131.5758(15)
loop_
_geom_bond_atom_site_label_1
_geom_bond_atom_site_label_2
_geom_bond_site_symmetry_1
_geom_bond_site_symmetry_2
_geom_bond_distance
Fe1 O1 . . 2.133(11)
Fe1 O1 . 2_665 2.133(14)
Fe1 O1 . 3_565 2.133(15)
Fe1 O1 . 4_665 2.133(11)
Fe1 O1 . 5_555 2.133(14)
Fe1 O1 . 6_565 2.133(15)
Fe2 O2 . . 1.996(12)
Fe2 O2 . 2_555 1.996(11)
Fe2 O2 . 3_555 1.996(17)
Fe2 O2 . 7_555 1.996(12)
Fe2 O2 . 8_555 1.996(11)
Fe2 O2 . 9_555 1.996(17)
O1 C3 . . 1.24(2)
O2 C3 . . 1.245(16)
C2a C2a . 2_565 0.79384(5)
C2a C2a . 3_455 0.79384(3)
C2a C1a . . 1.41196(9)
C2a N1a . 4_555 1.54320(10)
C1a C1a . 4_555 1.29823(9)
C1a N1a . . 1.38711(7)
C1a N1a . 2_565 1.38712(7)
C1a N1a . 3_455 1.38712(7)
C1a N1a . 4_555 0.81801(2)
C1a N1a . 5_455 0.81801(6)
C1a N1a . 6_565 0.81801(6)
N1a N1a . 2_565 1.38743(7)
N1a N1a . 3_455 1.38743(7)
N1a N1a . 4_555 0.96751(7)
loop_
_pd_proc_point_id
_pd_proc_2theta_corrected
_pd_proc_intensity_net
_pd_calc_intensity_net
_pd_proc_ls_weight
1 5.9673 5119.00 5258.36 71.55
2 5.9935 5114.00 5258.94 71.51
3 6.0198 5093.00 5259.52 71.37
4 6.0460 5101.00 5260.08 71.42
5 6.0723 5148.00 5260.64 71.75
6 6.0986 5162.00 5261.19 71.85
7 6.1248 5211.00 5261.73 72.19
8 6.1511 5131.00 5262.26 71.63
9 6.1773 5203.00 5262.78 72.13
10 6.2036 5141.00 5263.29 71.70
11 6.2299 5195.00 5263.80 72.08
12 6.2561 5228.00 5264.30 72.30
13 6.2824 5099.00 5264.79 71.41
14 6.3086 5207.00 5265.27 72.16
15 6.3349 5213.00 5265.75 72.20
16 6.3612 5181.00 5266.22 71.98
17 6.3874 5291.00 5266.68 72.74
18 6.4137 5278.00 5267.13 72.65
19 6.4399 5133.00 5267.57 71.64
20 6.4662 5233.00 5268.01 72.34
21 6.4925 5289.00 5268.44 72.73
22 6.5187 5205.00 5268.86 72.15
23 6.5450 5267.00 5269.28 72.57
24 6.5712 5391.00 5269.69 73.42
25 6.5975 5031.00 5270.09 70.93
26 6.6238 5329.00 5270.49 73.00
27 6.6500 5134.00 5270.87 71.65
28 6.6763 5212.00 5271.26 72.19
29 6.7025 5276.00 5271.63 72.64
30 6.7288 5270.00 5272.00 72.59
31 6.7551 5212.00 5272.36 72.19
32 6.7813 5318.00 5272.71 72.92
33 6.8076 5216.00 5273.06 72.22
34 6.8338 5212.00 5273.40 72.19
35 6.8601 5416.00 5273.74 73.59
36 6.8864 5140.00 5274.07 71.69
37 6.9126 5270.00 5274.39 72.59
38 6.9389 5188.00 5274.71 72.03
39 6.9651 5188.00 5275.02 72.03
40 6.9914 5279.00 5275.32 72.66
41 7.0177 5259.00 5275.62 72.52
42 7.0439 5302.00 5275.91 72.81
43 7.0702 5229.00 5276.20 72.31
44 7.0964 5181.00 5276.48 71.98
45 7.1227 5409.00 5276.76 73.55
46 7.1490 5297.00 5277.03 72.78
47 7.1752 5267.00 5277.29 72.57
48 7.2015 5446.00 5277.55 73.80
49 7.2277 5226.00 5277.80 72.29
50 7.2540 5328.00 5278.05 72.99
51 7.2803 5382.00 5278.29 73.36
52 7.3065 5301.00 5278.52 72.81
53 7.3328 5353.00 5278.75 73.16
54 7.3590 5340.00 5278.98 73.08
55 7.3853 5322.00 5279.20 72.95
56 7.4116 5333.00 5279.41 73.03
57 7.4378 5515.00 5279.62 74.26
58 7.4641 5336.00 5279.83 73.05
59 7.4903 5333.00 5280.03 73.03
60 7.5166 5515.00 5280.22 74.26
61 7.5429 5315.00 5280.41 72.90
62 7.5691 5286.00 5280.60 72.70
63 7.5954 5412.00 5280.77 73.57
64 7.6216 5297.00 5280.95 72.78
65 7.6479 5420.00 5281.12 73.62
66 7.6742 5316.00 5281.28 72.91
67 7.7004 5368.00 5281.44 73.27
68 7.7267 5350.00 5281.60 73.14
69 7.7529 5471.00 5281.75 73.97
70 7.7792 5394.00 5281.89 73.44
71 7.8055 5345.00 5282.04 73.11
72 7.8317 5433.00 5282.17 73.71
73 7.8580 5290.00 5282.30 72.73
74 7.8842 5130.00 5282.43 71.62
75 7.9105 5255.00 5282.55 72.49
76 7.9368 5289.00 5282.67 72.73
77 7.9630 5391.00 5282.79 73.42
78 7.9893 5284.00 5282.90 72.69
79 8.0155 5514.00 5283.00 74.26
80 8.0418 5264.00 5283.10 72.55
81 8.0681 5356.00 5283.20 73.18
82 8.0943 5299.00 5283.29 72.79
83 8.1206 5404.00 5283.38 73.51
84 8.1468 5319.00 5283.47 72.93
85 8.1731 5341.00 5283.55 73.08
86 8.1994 5302.00 5283.62 72.81
87 8.2256 5384.00 5283.70 73.38
88 8.2519 5350.00 5283.76 73.14
89 8.2781 5284.00 5283.83 72.69
90 8.3044 5295.00 5283.89 72.77
91 8.3307 5355.00 5283.94 73.18
92 8.3569 5270.00 5284.00 72.59
93 8.3832 5357.00 5284.04 73.19
94 8.4094 5373.00 5284.09 73.30
95 8.4357 5334.00 5284.13 73.03
96 8.4620 5405.00 5284.17 73.52
97 8.4882 5459.00 5284.20 73.89
98 8.5145 5536.00 5284.23 74.40
99 8.5407 5321.00 5284.25 72.95
100 8.5670 5332.00 5284.28 73.02
101 8.5933 5308.00 5284.29 72.86
102 8.6195 5302.00 5284.31 72.81
103 8.6458 5410.00 5284.32 73.55
104 8.6720 5356.00 5284.33 73.18
105 8.6983 5275.00 5284.33 72.63
106 8.7246 5334.00 5284.33 73.03
107 8.7508 5254.00 5284.33 72.48
108 8.7771 5316.00 5284.32 72.91
109 8.8033 5296.00 5284.31 72.77
110 8.8296 5190.00 5284.30 72.04
111 8.8559 5261.00 5284.28 72.53
112 8.8821 5353.00 5284.26 73.16
113 8.9084 5282.00 5284.24 72.68
114 8.9346 5300.00 5284.21 72.80
115 8.9609 5264.00 5284.18 72.55
116 8.9872 5214.00 5284.15 72.21
117 9.0134 5286.00 5284.11 72.70
118 9.0397 5406.00 5284.07 73.53
119 9.0659 5323.00 5284.03 72.96
120 9.0922 5360.00 5283.98 73.21
121 9.1185 5374.00 5283.93 73.31
122 9.1447 5438.00 5283.88 73.74
123 9.1710 5452.00 5283.83 73.84
124 9.1972 5429.00 5283.77 73.68
125 9.2235 5242.00 5283.70 72.40
126 9.2498 5412.00 5283.64 73.57
127 9.2760 5415.00 5283.57 73.59
128 9.3023 5299.00 5283.50 72.79
129 9.3285 5366.00 5283.43 73.25
130 9.3548 5275.00 5283.35 72.63
131 9.3811 5317.00 5283.27 72.92
132 9.4073 5416.00 5283.19 73.59
133 9.4336 5344.00 5283.10 73.10
134 9.4598 5476.00 5283.01 74.00
135 9.4861 5198.00 5282.92 72.10
136 9.5124 5223.00 5282.83 72.27
137 9.5386 5376.00 5282.73 73.32
138 9.5649 5248.00 5282.63 72.44
139 9.5911 5388.00 5282.53 73.40
140 9.6174 5311.00 5282.42 72.88
141 9.6437 5436.00 5282.31 73.73
142 9.6699 5416.00 5282.20 73.59
143 9.6962 5322.00 5282.09 72.95
144 9.7224 5327.00 5281.97 72.99
145 9.7487 5303.00 5281.85 72.82
146 9.7750 5282.00 5281.73 72.68
147 9.8012 5510.00 5281.61 74.23
148 9.8275 5275.00 5281.48 72.63
149 9.8537 5414.00 5281.35 73.58
150 9.8800 5494.00 5281.22 74.12
151 9.9063 5284.00 5281.08 72.69
152 9.9325 5295.00 5280.95 72.77
153 9.9588 5352.00 5280.81 73.16
154 9.9850 5373.00 5280.66 73.30
155 10.0113 5361.00 5280.52 73.22
156 10.0376 5205.00 5280.37 72.15
157 10.0638 5261.00 5280.22 72.53
158 10.0901 5420.00 5280.07 73.62
159 10.1163 5205.00 5279.91 72.15
160 10.1426 5482.00 5279.76 74.04
161 10.1689 5231.00 5279.60 72.33
162 10.1951 5325.00 5279.43 72.97
163 10.2214 5196.00 5279.27 72.08
164 10.2476 5311.00 5279.10 72.88
165 10.2739 5227.00 5278.93 72.30
166 10.3002 5288.00 5278.76 72.72
167 10.3264 5286.00 5278.59 72.70
168 10.3527 5359.00 5278.41 73.21
169 10.3789 5182.00 5278.23 71.99
170 10.4052 5365.00 5278.05 73.25
171 10.4315 5231.00 5277.87 72.33
172 10.4577 5246.00 5277.68 72.43
173 10.4840 5317.00 5277.50 72.92
174 10.5102 5325.00 5277.31 72.97
175 10.5365 5353.00 5277.11 73.16
176 10.5628 5251.00 5276.92 72.46
177 10.5890 5367.00 5276.72 73.26
178 10.6153 5273.00 5276.52 72.62
179 10.6415 5388.00 5276.32 73.40
180 10.6678 5413.00 5276.12 73.57
181 10.6941 5192.00 5275.92 72.06
182 10.7203 5287.00 5275.71 72.71
183 10.7466 5320.00 5275.50 72.94
184 10.7728 5333.00 5275.29 73.03
185 10.7991 5252.00 5275.08 72.47
186 10.8254 5245.00 5274.86 72.42
187 10.8516 5357.00 5274.64 73.19
188 10.8779 5237.00 5274.42 72.37
189 10.9041 5348.00 5274.20 73.13
190 10.9304 5058.00 5273.98 71.12
191 10.9567 5277.00 5273.75 72.64
192 10.9829 5222.00 5273.53 72.26
193 11.0092 5258.00 5273.30 72.51
194 11.0354 5149.00 5273.06 71.76
195 11.0617 5207.00 5272.83 72.16
196 11.0880 5249.00 5272.60 72.45
197 11.1142 5235.00 5272.36 72.35
198 11.1405 5329.00 5272.12 73.00
199 11.1667 5331.00 5271.88 73.01
200 11.1930 5309.00 5271.64 72.86
201 11.2193 5219.00 5271.39 72.24
202 11.2455 5161.00 5271.14 71.84
203 11.2718 5239.00 5270.90 72.38
204 11.2980 5249.00 5270.65 72.45
205 11.3243 5172.00 5270.39 71.92
206 11.3506 5273.00 5270.14 72.62
207 11.3768 5246.00 5269.88 72.43
208 11.4031 5165.00 5269.63 71.87
209 11.4293 5325.00 5269.37 72.97
210 11.4556 5272.00 5269.11 72.61
211 11.4819 5259.00 5268.84 72.52
212 11.5081 5286.00 5268.58 72.70
213 11.5344 5229.00 5268.31 72.31
214 11.5606 5265.00 5268.04 72.56
215 11.5869 5197.00 5267.77 72.09
216 11.6132 5233.00 5268.92 72.34
217 11.6394 5225.00 5269.51 72.28
218 11.6657 5167.00 5269.51 71.88
219 11.6919 5312.00 5269.57 72.88
220 11.7182 5244.00 5269.71 72.42
221 11.7445 5369.00 5269.97 73.27
222 11.7707 5239.00 5270.43 72.38
223 11.7970 5109.00 5271.38 71.48
224 11.8232 5260.00 5274.91 72.53
225 11.8495 5210.00 5285.66 72.18
226 11.8758 5302.00 5304.58 72.81
227 11.9020 5237.00 5329.16 72.37
228 11.9283 5368.00 5357.62 73.27
229 11.9545 5311.00 5390.05 72.88
230 11.9808 5401.00 5427.28 73.49
231 12.0071 5293.00 5470.50 72.75
232 12.0333 5351.00 5521.47 73.15
233 12.0596 5412.00 5582.75 73.57
234 12.0858 5602.00 5658.32 74.85
235 12.1121 5570.00 5754.79 74.63
236 12.1384 5736.00 5884.24 75.74
237 12.1646 5885.00 6072.69 76.71
238 12.1909 6385.00 6399.38 79.91
239 12.2171 6911.00 7043.37 83.13
240 12.2434 6830.00 7379.59 82.64
241 12.2697 6311.00 6522.71 79.44
242 12.2959 5386.00 5652.11 73.39
243 12.3222 5272.00 5344.30 72.61
244 12.3484 5227.00 5297.59 72.30
245 12.3747 5291.00 5283.93 72.74
246 12.4010 5198.00 5276.40 72.10
247 12.4272 5211.00 5271.65 72.19
248 12.4535 5262.00 5268.41 72.54
249 12.4797 5282.00 5266.05 72.68
250 12.5060 5304.00 5264.25 72.83
251 12.5323 5164.00 5262.84 71.86
252 12.5585 5286.00 5261.68 72.70
253 12.5848 5261.00 5260.71 72.53
254 12.6110 5287.00 5259.87 72.71
255 12.6373 5280.00 5259.15 72.66
256 12.6636 5205.00 5258.50 72.15
257 12.6898 5239.00 5257.93 72.38
258 12.7161 5128.00 5257.42 71.61
259 12.7423 5200.00 5256.97 72.11
260 12.7686 5352.00 5256.59 73.16
261 12.7949 5328.00 5256.30 72.99
262 12.8211 5253.00 5256.20 72.48
263 12.8474 5282.00 5256.46 72.68
264 12.8736 5210.00 5256.24 72.18
265 12.8999 5328.00 5254.04 72.99
266 12.9262 5217.00 5252.78 72.23
267 12.9524 5239.00 5251.71 72.38
268 12.9787 5265.00 5251.31 72.56
269 13.0049 5353.00 5250.95 73.16
270 13.0312 5298.00 5250.59 72.79
271 13.0575 5227.00 5250.24 72.30
272 13.0837 5062.00 5249.88 71.15
273 13.1100 5242.00 5249.53 72.40
274 13.1362 5133.00 5249.17 71.64
275 13.1625 5162.00 5248.81 71.85
276 13.1888 5251.00 5253.29 72.46
277 13.2150 5236.00 5255.76 72.36
278 13.2413 5145.00 5256.22 71.73
279 13.2675 5313.00 5256.82 72.89
280 13.2938 5233.00 5257.62 72.34
281 13.3201 5246.00 5258.66 72.43
282 13.3463 5373.00 5260.03 73.30
283 13.3726 5238.00 5261.88 72.37
284 13.3988 5326.00 5264.41 72.98
285 13.4251 5185.00 5268.16 72.01
286 13.4514 5315.00 5275.92 72.90
287 13.4776 5317.00 5301.41 72.92
288 13.5039 5415.00 5362.57 73.59
289 13.5301 5480.00 5458.08 74.03
290 13.5564 5648.00 5579.03 75.15
291 13.5827 5523.00 5720.89 74.32
292 13.6089 5844.00 5886.71 76.45
293 13.6352 5920.00 6083.19 76.94
294 13.6614 6107.00 6320.69 78.15
295 13.6877 6403.00 6615.57 80.02
296 13.7140 6646.00 6995.43 81.52
297 13.7402 7158.00 7512.40 84.61
298 13.7665 8012.00 8286.75 89.51
299 13.7927 9270.00 9702.86 96.28
300 13.8190 11842.00 12129.70 108.82
301 13.8453 11413.00 12131.10 106.83
302 13.8715 8759.00 9124.90 93.59
303 13.8978 6237.00 6480.13 78.97
304 13.9240 5710.00 5534.19 75.56
305 13.9503 5493.00 5380.94 74.11
306 13.9766 5299.00 5331.85 72.79
307 14.0028 5330.00 5304.65 73.01
308 14.0291 5203.00 5287.63 72.13
309 14.0553 5392.00 5276.16 73.43
310 14.0816 5299.00 5268.00 72.79
311 14.1079 5261.00 5261.92 72.53
312 14.1341 5125.00 5257.25 71.59
313 14.1604 5109.00 5253.54 71.48
314 14.1866 5291.00 5250.52 72.74
315 14.2129 5325.00 5248.02 72.97
316 14.2392 5155.00 5245.89 71.80
317 14.2654 4996.00 5244.07 70.68
318 14.2917 5244.00 5242.47 72.42
319 14.3179 5249.00 5241.06 72.45
320 14.3442 5241.00 5239.80 72.39
321 14.3705 5221.00 5238.65 72.26
322 14.3967 5162.00 5237.60 71.85
323 14.4230 5365.00 5236.63 73.25
324 14.4492 5138.00 5235.73 71.68
325 14.4755 5260.00 5234.89 72.53
326 14.5018 5197.00 5234.09 72.09
327 14.5280 5235.00 5230.44 72.35
328 14.5543 5362.00 5228.44 73.23
329 14.5805 5278.00 5228.03 72.65
330 14.6068 5234.00 5227.62 72.35
331 14.6331 5351.00 5227.21 73.15
332 14.6593 5182.00 5226.80 71.99
333 14.6856 5178.00 5226.39 71.96
334 14.7118 5138.00 5225.97 71.68
335 14.7381 5189.00 5225.56 72.03
336 14.7644 5211.00 5225.15 72.19
337 14.7906 5250.00 5224.73 72.46
338 14.8169 5208.00 5224.31 72.17
339 14.8431 5177.00 5223.90 71.95
340 14.8694 5193.00 5223.48 72.06
341 14.8957 5236.00 5223.06 72.36
342 14.9219 5239.00 5222.64 72.38
343 14.9482 5169.00 5222.22 71.90
344 14.9744 5223.00 5221.80 72.27
345 15.0007 5201.00 5221.37 72.12
346 15.0270 5247.00 5220.95 72.44
347 15.0532 5121.00 5220.53 71.56
348 15.0795 5065.00 5220.10 71.17
349 15.1057 5086.00 5219.68 71.32
350 15.1320 5174.00 5219.25 71.93
351 15.1583 5294.00 5218.83 72.76
352 15.1845 5162.00 5218.40 71.85
353 15.2108 5049.00 5217.97 71.06
354 15.2370 5178.00 5217.54 71.96
355 15.2633 5143.00 5217.12 71.71
356 15.2896 5185.00 5216.69 72.01
357 15.3158 5050.00 5216.26 71.06
358 15.3421 5274.00 5215.82 72.62
359 15.3683 5236.00 5215.39 72.36
360 15.3946 5184.00 5214.96 72.00
361 15.4209 5160.00 5214.53 71.83
362 15.4471 5222.00 5214.09 72.26
363 15.4734 5113.00 5213.66 71.51
364 15.4996 5112.00 5213.22 71.50
365 15.5259 5147.00 5212.79 71.74
366 15.5522 5158.00 5212.35 71.82
367 15.5784 5215.00 5211.92 72.21
368 15.6047 5321.00 5211.48 72.95
369 15.6309 5078.00 5211.04 71.26
370 15.6572 5256.00 5210.60 72.50
371 15.6835 5161.00 5210.16 71.84
372 15.7097 5085.00 5209.72 71.31
373 15.7360 5206.00 5209.28 72.15
374 15.7622 5116.00 5208.84 71.53
375 15.7885 5274.00 5208.40 72.62
376 15.8148 5207.00 5207.96 72.16
377 15.8410 5107.00 5207.51 71.46
378 15.8673 5140.00 5207.07 71.69
379 15.8935 5309.00 5206.63 72.86
380 15.9198 5200.00 5206.18 72.11
381 15.9461 5331.00 5205.74 73.01
382 15.9723 5156.00 5205.29 71.81
383 15.9986 5183.00 5204.84 71.99
384 16.0248 5228.00 5204.40 72.30
385 16.0511 5095.00 5203.95 71.38
386 16.0774 5319.00 5203.50 72.93
387 16.1036 5158.00 5203.05 71.82
388 16.1299 5253.00 5202.61 72.48
389 16.1561 5204.00 5202.16 72.14
390 16.1824 5178.00 5201.71 71.96
391 16.2087 5128.00 5201.26 71.61
392 16.2349 5159.00 5200.80 71.83
393 16.2612 5247.00 5200.35 72.44
394 16.2874 5206.00 5199.90 72.15
395 16.3137 5052.00 5199.45 71.08
396 16.3400 4998.00 5199.00 70.70
397 16.3662 5139.00 5198.54 71.69
398 16.3925 5136.00 5198.09 71.67
399 16.4187 5203.00 5197.63 72.13
400 16.4450 4965.00 5197.18 70.46
401 16.4713 5101.00 5196.72 71.42
402 16.4975 5240.00 5196.27 72.39
403 16.5238 5157.00 5195.81 71.81
404 16.5500 5138.00 5195.35 71.68
405 16.5763 5136.00 5194.90 71.67
406 16.6026 5193.00 5194.44 72.06
407 16.6288 5287.00 5193.98 72.71
408 16.6551 5251.00 5193.52 72.46
409 16.6813 5266.00 5193.06 72.57
410 16.7076 5174.00 5192.60 71.93
411 16.7339 5226.00 5192.15 72.29
412 16.7601 5204.00 5191.69 72.14
413 16.7864 5114.00 5191.22 71.51
414 16.8126 5311.00 5190.76 72.88
415 16.8389 5125.00 5190.30 71.59
416 16.8652 5151.00 5189.84 71.77
417 16.8914 5170.00 5189.38 71.90
418 16.9177 5272.00 5188.92 72.61
419 16.9439 5015.00 5188.45 70.82
420 16.9702 5187.00 5187.99 72.02
421 16.9965 5245.00 5187.52 72.42
422 17.0227 5211.00 5187.06 72.19
423 17.0490 5226.00 5186.60 72.29
424 17.0752 5326.00 5186.13 72.98
425 17.1015 5348.00 5185.67 73.13
426 17.1278 5384.00 5198.68 73.38
427 17.1540 5183.00 5199.46 71.99
428 17.1803 5368.00 5207.32 73.27
429 17.2065 5299.00 5209.14 72.79
430 17.2328 5281.00 5211.34 72.67
431 17.2591 5329.00 5213.98 73.00
432 17.2853 5398.00 5217.20 73.47
433 17.3116 5492.00 5221.13 74.11
434 17.3378 5405.00 5226.00 73.52
435 17.3641 5338.00 5232.10 73.06
436 17.3904 5316.00 5239.90 72.91
437 17.4166 5435.00 5250.09 73.72
438 17.4429 5314.00 5263.88 72.90
439 17.4691 5590.00 5283.71 74.77
440 17.4954 5638.00 5319.69 75.09
441 17.5217 5759.00 5420.23 75.89
442 17.5479 5924.00 5663.22 76.97
443 17.5742 6237.00 6061.08 78.97
444 17.6004 6699.00 6610.60 81.85
445 17.6267 7224.00 7307.87 84.99
446 17.6530 7928.00 8183.31 89.04
447 17.6792 9061.00 9317.32 95.19
448 17.7055 10839.00 10869.80 104.11
449 17.7317 13212.00 13227.20 114.94
450 17.7580 18085.00 17570.80 134.48
451 17.7843 24256.00 23997.50 155.74
452 17.8105 22356.00 22459.40 149.52
453 17.8368 16806.00 16014.80 129.64
454 17.8630 10253.00 10070.50 101.26
455 17.8893 7021.00 6484.12 83.79
456 17.9156 5888.00 5712.37 76.73
457 17.9418 5644.00 5514.62 75.13
458 17.9681 5474.00 5413.20 73.99
459 17.9943 5435.00 5351.33 73.72
460 18.0206 5323.00 5310.50 72.96
461 18.0469 5221.00 5281.96 72.26
462 18.0731 5154.00 5261.14 71.79
463 18.0994 5303.00 5245.42 72.82
464 18.1256 5251.00 5233.20 72.46
465 18.1519 5210.00 5223.49 72.18
466 18.1782 5296.00 5215.61 72.77
467 18.2044 5344.00 5209.10 73.10
468 18.2307 5387.00 5203.64 73.40
469 18.2569 5064.00 5199.00 71.16
470 18.2832 5257.00 5195.01 72.51
471 18.3095 5430.00 5191.54 73.69
472 18.3357 5102.00 5188.49 71.43
473 18.3620 5229.00 5185.78 72.31
474 18.3882 5295.00 5183.36 72.77
475 18.4145 5288.00 5181.18 72.72
476 18.4408 5136.00 5179.20 71.67
477 18.4670 5165.00 5177.39 71.87
478 18.4933 5160.00 5175.73 71.83
479 18.5195 5147.00 5165.17 71.74
480 18.5458 5155.00 5159.61 71.80
481 18.5721 5280.00 5159.13 72.66
482 18.5983 5133.00 5158.65 71.64
483 18.6246 5190.00 5158.17 72.04
484 18.6508 5116.00 5157.69 71.53
485 18.6771 5123.00 5157.21 71.58
486 18.7034 5214.00 5156.72 72.21
487 18.7296 5130.00 5156.24 71.62
488 18.7559 5006.00 5155.76 70.75
489 18.7821 5310.00 5155.28 72.87
490 18.8084 5044.00 5154.80 71.02
491 18.8347 5225.00 5154.32 72.28
492 18.8609 5230.00 5153.83 72.32
493 18.8872 5203.00 5153.35 72.13
494 18.9134 5097.00 5152.87 71.39
495 18.9397 5196.00 5152.39 72.08
496 18.9660 5047.00 5151.91 71.04
497 18.9922 5090.00 5151.42 71.34
498 19.0185 5230.00 5150.94 72.32
499 19.0447 5084.00 5150.46 71.30
500 19.0710 5241.00 5149.98 72.39
501 19.0973 5113.00 5149.49 71.51
502 19.1235 5075.00 5149.01 71.24
503 19.1498 5189.00 5148.53 72.03
504 19.1760 5097.00 5148.04 71.39
505 19.2023 5066.00 5147.56 71.18
506 19.2286 5168.00 5147.08 71.89
507 19.2548 5094.00 5146.59 71.37
508 19.2811 5069.00 5146.11 71.20
509 19.3073 5143.00 5145.62 71.71
510 19.3336 5103.00 5145.14 71.44
511 19.3599 5086.00 5144.66 71.32
512 19.3861 5149.00 5144.17 71.76
513 19.4124 5159.00 5143.69 71.83
514 19.4386 5189.00 5143.20 72.03
515 19.4649 5068.00 5142.72 71.19
516 19.4912 5054.00 5142.24 71.09
517 19.5174 5098.00 5141.75 71.40
518 19.5437 5203.00 5141.27 72.13
519 19.5699 5155.00 5140.78 71.80
520 19.5962 5118.00 5140.30 71.54
521 19.6225 4999.00 5139.81 70.70
522 19.6487 5105.00 5139.33 71.45
523 19.6750 5059.00 5138.84 71.13
524 19.7012 5078.00 5138.36 71.26
525 19.7275 4995.00 5137.87 70.68
526 19.7538 5113.00 5137.39 71.51
527 19.7800 5079.00 5136.90 71.27
528 19.8063 5078.00 5136.42 71.26
529 19.8325 5124.00 5135.94 71.58
530 19.8588 5101.00 5135.45 71.42
531 19.8851 5101.00 5134.96 71.42
532 19.9113 5094.00 5134.48 71.37
533 19.9376 5130.00 5134.00 71.62
534 19.9638 5225.00 5133.51 72.28
535 19.9901 5049.00 5133.02 71.06
536 20.0164 5091.00 5132.54 71.35
537 20.0426 5214.00 5132.05 72.21
538 20.0689 5171.00 5131.57 71.91
539 20.0951 4965.00 5131.08 70.46
540 20.1214 5206.00 5130.60 72.15
541 20.1477 5046.00 5130.11 71.04
542 20.1739 5225.00 5129.63 72.28
543 20.2002 5078.00 5129.14 71.26
544 20.2264 4930.00 5128.66 70.21
545 20.2527 5283.00 5128.17 72.68
546 20.2790 5123.00 5127.69 71.58
547 20.3052 5096.00 5127.20 71.39
548 20.3315 5118.00 5126.72 71.54
549 20.3577 5202.00 5126.23 72.12
550 20.3840 5128.00 5125.75 71.61
551 20.4103 5039.00 5125.26 70.99
552 20.4365 5166.00 5124.78 71.87
553 20.4628 5008.00 5124.29 70.77
554 20.4890 5152.00 5123.81 71.78
555 20.5153 5229.00 5123.33 72.31
556 20.5416 5119.00 5122.84 71.55
557 20.5678 5179.00 5122.36 71.97
558 20.5941 5158.00 5125.12 71.82
559 20.6203 5059.00 5124.92 71.13
560 20.6466 5152.00 5126.36 71.78
561 20.6729 5103.00 5126.38 71.44
562 20.6991 5104.00 5126.47 71.44
563 20.7254 5263.00 5126.66 72.55
564 20.7516 5232.00 5126.95 72.33
565 20.7779 5119.00 5127.37 71.55
566 20.8042 5189.00 5127.96 72.03
567 20.8304 5214.00 5128.77 72.21
568 20.8567 5222.00 5129.85 72.26
569 20.8829 5176.00 5131.30 71.94
570 20.9092 5185.00 5133.25 72.01
571 20.9355 5216.00 5135.88 72.22
572 20.9617 5257.00 5139.53 72.51
573 20.9880 5144.00 5144.75 71.72
574 21.0142 5247.00 5152.85 72.44
575 21.0405 5265.00 5169.66 72.56
576 21.0668 5232.00 5215.83 72.33
577 21.0930 5366.00 5312.77 73.25
578 21.1193 5557.00 5462.86 74.55
579 21.1455 5783.00 5675.68 76.05
580 21.1718 5952.00 5964.81 77.15
581 21.1981 6269.00 6367.61 79.18
582 21.2243 6943.00 6993.36 83.32
583 21.2506 8380.00 8136.07 91.54
584 21.2768 9903.00 9492.71 99.51
585 21.3031 8841.00 8720.33 94.03
586 21.3294 8055.00 7547.76 89.75
587 21.3556 6839.00 6517.98 82.70
588 21.3819 5763.00 5544.59 75.91
589 21.4081 5464.00 5269.66 73.92
590 21.4344 5361.00 5205.09 73.22
591 21.4607 5189.00 5174.79 72.03
592 21.4869 5142.00 5156.53 71.71
593 21.5132 5142.00 5144.48 71.71
594 21.5394 5194.00 5136.02 72.07
595 21.5657 4977.00 5129.79 70.55
596 21.5920 5048.00 5125.02 71.05
597 21.6182 5105.00 5121.25 71.45
598 21.6445 5072.00 5118.19 71.22
599 21.6707 5147.00 5115.64 71.74
600 21.6970 5067.00 5113.48 71.18
601 21.7233 5112.00 5111.62 71.50
602 21.7495 4894.00 5109.99 69.96
603 21.7758 4933.00 5108.54 70.24
604 21.8020 5067.00 5107.23 71.18
605 21.8283 5058.00 5106.04 71.12
606 21.8546 5128.00 5104.95 71.61
607 21.8808 5085.00 5103.93 71.31
608 21.9071 5033.00 5102.98 70.94
609 21.9333 5077.00 5102.09 71.25
610 21.9596 4965.00 5101.25 70.46
611 21.9859 5092.00 5100.44 71.36
612 22.0121 5164.00 5097.24 71.86
613 22.0384 5070.00 5096.66 71.20
614 22.0646 4974.00 5096.09 70.53
615 22.0909 5270.00 5094.40 72.59
616 22.1172 4979.00 5093.92 70.56
617 22.1434 5058.00 5093.44 71.12
618 22.1697 5077.00 5092.97 71.25
619 22.1959 5098.00 5092.49 71.40
620 22.2222 5097.00 5092.01 71.39
621 22.2485 5098.00 5091.92 71.40
622 22.2747 5108.00 5091.48 71.47
623 22.3010 5029.00 5091.23 70.92
624 22.3272 4920.00 5090.81 70.14
625 22.3535 5102.00 5090.39 71.43
626 22.3798 4983.00 5089.99 70.59
627 22.4060 5048.00 5089.60 71.05
628 22.4323 4982.00 5089.22 70.58
629 22.4585 5148.00 5088.86 71.75
630 22.4848 5143.00 5088.52 71.71
631 22.5111 5126.00 5088.21 71.60
632 22.5373 5030.00 5087.93 70.92
633 22.5636 5257.00 5087.69 72.51
634 22.5898 5164.00 5087.51 71.86
635 22.6161 5035.00 5087.42 70.96
636 22.6424 4966.00 5087.44 70.47
637 22.6686 5013.00 5087.64 70.80
638 22.6949 5144.00 5088.11 71.72
639 22.7211 5164.00 5089.17 71.86
640 22.7474 4930.00 5092.17 70.21
641 22.7737 5181.00 5100.64 71.98
642 22.7999 5141.00 5116.69 71.70
643 22.8262 5077.00 5140.96 71.25
644 22.8524 5183.00 5176.06 71.99
645 22.8787 5440.00 5226.33 73.76
646 22.9050 5332.00 5305.09 73.02
647 22.9312 5516.00 5447.51 74.27
648 22.9575 5724.00 5609.10 75.66
649 22.9837 5579.00 5509.04 74.69
650 23.0100 5355.00 5374.36 73.18
651 23.0363 5224.00 5274.78 72.28
652 23.0625 5182.00 5144.85 71.99
653 23.0888 5077.00 5100.06 71.25
654 23.1150 5065.00 5089.56 71.17
655 23.1413 5168.00 5084.84 71.89
656 23.1676 4998.00 5081.89 70.70
657 23.1938 5039.00 5079.83 70.99
658 23.2201 5243.00 5078.27 72.41
659 23.2463 5087.00 5077.02 71.32
660 23.2726 5160.00 5075.97 71.83
661 23.2989 5046.00 5075.05 71.04
662 23.3251 5076.00 5074.24 71.25
663 23.3514 5235.00 5073.49 72.35
664 23.3776 4967.00 5072.80 70.48
665 23.4039 5022.00 5072.15 70.87
666 23.4302 5116.00 5071.53 71.53
667 23.4564 5053.00 5070.93 71.08
668 23.4827 5021.00 5070.35 70.86
669 23.5089 5027.00 5069.79 70.90
670 23.5352 5042.00 5069.25 71.01
671 23.5615 4996.00 5068.71 70.68
672 23.5877 5092.00 5068.18 71.36
673 23.6140 4989.00 5067.66 70.63
674 23.6402 5086.00 5067.15 71.32
675 23.6665 5114.00 5066.64 71.51
676 23.6928 4979.00 5066.14 70.56
677 23.7190 5007.00 5065.34 70.76
678 23.7453 5103.00 5064.87 71.44
679 23.7715 5236.00 5064.24 72.36
680 23.7978 5037.00 5063.78 70.97
681 23.8241 5122.00 5063.32 71.57
682 23.8503 5067.00 5062.85 71.18
683 23.8766 5140.00 5062.39 71.69
684 23.9028 5216.00 5062.14 72.22
685 23.9291 5051.00 5061.70 71.07
686 23.9554 5075.00 5061.36 71.24
687 23.9816 4982.00 5060.93 70.58
688 24.0079 4999.00 5060.50 70.70
689 24.0341 5189.00 5060.08 72.03
690 24.0604 5158.00 5059.66 71.82
691 24.0867 5203.00 5059.25 72.13
692 24.1129 5069.00 5058.85 71.20
693 24.1392 5020.00 5058.47 70.85
694 24.1654 4962.00 5058.09 70.44
695 24.1917 5020.00 5057.73 70.85
696 24.2180 5084.00 5058.64 71.30
697 24.2442 4918.00 5058.43 70.13
698 24.2705 5086.00 5058.28 71.32
699 24.2967 5195.00 5063.29 72.08
700 24.3230 5059.00 5063.73 71.13
701 24.3493 5114.00 5064.38 71.51
702 24.3755 5108.00 5065.32 71.47
703 24.4018 5170.00 5066.80 71.90
704 24.4280 5155.00 5069.84 71.80
705 24.4543 4993.00 5076.68 70.66
706 24.4806 5019.00 5088.51 70.84
707 24.5068 5099.00 5106.10 71.41
708 24.5331 5146.00 5131.99 71.74
709 24.5593 5264.00 5171.35 72.55
710 24.5856 5109.00 5239.67 71.48
711 24.6119 5538.00 5338.19 74.42
712 24.6381 5458.00 5335.89 73.88
713 24.6644 5197.00 5253.44 72.09
714 24.6906 5156.00 5229.44 71.81
715 24.7169 5278.00 5172.96 72.65
716 24.7432 5239.00 5159.34 72.38
717 24.7694 5269.00 5223.08 72.59
718 24.7957 5501.00 5377.17 74.17
719 24.8219 5641.00 5624.71 75.11
720 24.8482 5979.00 5996.34 77.32
721 24.8745 6545.00 6558.52 80.90
722 24.9007 7565.00 7495.06 86.98
723 24.9270 8977.00 9102.09 94.75
724 24.9532 10036.00 10077.30 100.18
725 24.9795 8143.00 8497.51 90.24
726 25.0058 7856.00 7686.86 88.63
727 25.0320 6598.00 6739.56 81.23
728 25.0583 5525.00 5620.84 74.33
729 25.0845 5267.00 5263.43 72.57
730 25.1108 5122.00 5175.32 71.57
731 25.1371 5144.00 5135.45 71.72
732 25.1633 5031.00 5112.08 70.93
733 25.1896 5051.00 5096.94 71.07
734 25.2158 4980.00 5086.83 70.57
735 25.2421 5052.00 5080.31 71.08
736 25.2684 4978.00 5076.86 70.55
737 25.2946 4960.00 5078.85 70.43
738 25.3209 5064.00 5090.08 71.16
739 25.3471 5056.00 5111.55 71.11
740 25.3734 5134.00 5145.98 71.65
741 25.3997 5243.00 5200.26 72.41
742 25.4259 5422.00 5293.39 73.63
743 25.4522 5840.00 5452.65 76.42
744 25.4784 5998.00 5541.62 77.45
745 25.5047 5550.00 5381.23 74.50
746 25.5310 5491.00 5304.71 74.10
747 25.5572 5270.00 5215.45 72.59
748 25.5835 4983.00 5102.08 70.59
749 25.6097 5203.00 5064.13 72.13
750 25.6360 4980.00 5054.59 70.57
751 25.6623 5107.00 5050.48 71.46
752 25.6885 4979.00 5048.61 70.56
753 25.7148 5030.00 5046.34 70.92
754 25.7410 4987.00 5052.42 70.62
755 25.7673 5051.00 5065.38 71.07
756 25.7936 5028.00 5084.65 70.91
757 25.8198 5076.00 5117.08 71.25
758 25.8461 5253.00 5170.20 72.48
759 25.8723 5237.00 5265.07 72.37
760 25.8986 5487.00 5365.30 74.07
761 25.9249 5204.00 5295.71 72.14
762 25.9511 5194.00 5212.98 72.07
763 25.9774 5163.00 5177.50 71.85
764 26.0036 4965.00 5090.96 70.46
765 26.0299 4937.00 5047.74 70.26
766 26.0562 5030.00 5036.96 70.92
767 26.0824 4965.00 5032.85 70.46
768 26.1087 4956.00 5030.36 70.40
769 26.1349 4988.00 5028.61 70.63
770 26.1612 4877.00 5027.27 69.84
771 26.1875 4883.00 5026.20 69.88
772 26.2137 4938.00 5025.28 70.27
773 26.2400 5013.00 5024.17 70.80
774 26.2662 5006.00 5023.47 70.75
775 26.2925 4965.00 5022.82 70.46
776 26.3188 4963.00 5022.06 70.45
777 26.3450 4993.00 5021.50 70.66
778 26.3713 4977.00 5020.96 70.55
779 26.3975 5048.00 5020.43 71.05
780 26.4238 5065.00 5019.92 71.17
781 26.4501 5054.00 5019.43 71.09
782 26.4763 4999.00 5018.94 70.70
783 26.5026 4938.00 5018.46 70.27
784 26.5288 5131.00 5017.99 71.63
785 26.5551 5035.00 5017.52 70.96
786 26.5814 5077.00 5017.06 71.25
787 26.6076 5029.00 5016.61 70.92
788 26.6339 4955.00 5016.15 70.39
789 26.6601 4999.00 5015.71 70.70
790 26.6864 5009.00 5015.06 70.77
791 26.7127 4912.00 5014.63 70.09
792 26.7389 5005.00 5014.10 70.75
793 26.7652 5070.00 5013.67 71.20
794 26.7914 4868.00 5013.25 69.77
795 26.8177 4820.00 5012.83 69.43
796 26.8440 4942.00 5012.41 70.30
797 26.8702 4787.00 5011.99 69.19
798 26.8965 5000.00 5011.57 70.71
799 26.9227 5036.00 5011.15 70.96
800 26.9490 4927.00 5010.74 70.19
801 26.9753 5062.00 5010.32 71.15
802 27.0015 5099.00 5009.90 71.41
803 27.0278 5073.00 5009.48 71.22
804 27.0540 4979.00 5009.07 70.56
805 27.0803 5014.00 5008.65 70.81
806 27.1066 5145.00 5008.23 71.73
807 27.1328 4959.00 5009.06 70.42
808 27.1591 5028.00 5008.75 70.91
809 27.1853 5005.00 5009.03 70.75
810 27.2116 4950.00 5008.78 70.36
811 27.2379 4866.00 5008.55 69.76
812 27.2641 4864.00 5008.35 69.74
813 27.2904 5044.00 5008.18 71.02
814 27.3166 4933.00 5008.04 70.24
815 27.3429 5041.00 5007.94 71.00
816 27.3692 4950.00 5007.90 70.36
817 27.3954 5086.00 5007.92 71.32
818 27.4217 4922.00 5008.02 70.16
819 27.4479 4909.00 5008.22 70.06
820 27.4742 4937.00 5008.55 70.26
821 27.5005 4931.00 5009.04 70.22
822 27.5267 4890.00 5009.76 69.93
823 27.5530 4956.00 5010.78 70.40
824 27.5792 4929.00 5012.24 70.21
825 27.6055 5018.00 5014.32 70.84
826 27.6318 4974.00 5017.39 70.53
827 27.6580 4994.00 5022.13 70.67
828 27.6843 4992.00 5030.64 70.65
829 27.7105 5065.00 5051.15 71.17
830 27.7368 5105.00 5100.58 71.45
831 27.7631 5158.00 5188.45 71.82
832 27.7893 5375.00 5325.02 73.31
833 27.8156 5597.00 5548.19 74.81
834 27.8418 6168.00 5946.38 78.54
835 27.8681 6946.00 6480.75 83.34
836 27.8944 6486.00 6392.03 80.54
837 27.9206 5839.00 5889.37 76.41
838 27.9469 5987.00 5795.02 77.38
839 27.9731 5589.00 5484.27 74.76
840 27.9994 5091.00 5164.09 71.35
841 28.0257 4988.00 5064.31 70.63
842 28.0519 5024.00 5037.03 70.88
843 28.0782 5028.00 5023.84 70.91
844 28.1044 4974.00 5015.74 70.53
845 28.1307 5034.00 5010.30 70.95
846 28.1570 5111.00 5006.40 71.49
847 28.1832 4906.00 5003.47 70.04
848 28.2095 4946.00 5001.17 70.33
849 28.2357 5001.00 4999.33 70.72
850 28.2620 4978.00 4997.79 70.55
851 28.2883 4877.00 4996.50 69.84
852 28.3145 4855.00 4995.38 69.68
853 28.3408 5110.00 4994.40 71.48
854 28.3670 4979.00 4993.54 70.56
855 28.3933 4914.00 4992.77 70.10
856 28.4196 4887.00 4992.08 69.91
857 28.4458 5078.00 4991.48 71.26
858 28.4721 4990.00 4990.95 70.64
859 28.4983 4915.00 4990.52 70.11
860 28.5246 5085.00 4990.22 71.31
861 28.5509 4853.00 4990.16 69.66
862 28.5771 5038.00 4990.78 70.98
863 28.6034 5060.00 4993.09 71.13
864 28.6296 4984.00 4997.77 70.60
865 28.6559 4980.00 5005.45 70.57
866 28.6822 5002.00 5017.63 70.72
867 28.7084 5074.00 5041.72 71.23
868 28.7347 4961.00 5070.56 70.43
869 28.7609 4991.00 5057.78 70.65
870 28.7872 4981.00 5031.23 70.58
871 28.8135 5035.00 5027.29 70.96
872 28.8397 4898.00 5008.84 69.99
873 28.8660 4984.00 4990.86 70.60
874 28.8922 5058.00 4985.04 71.12
875 28.9185 4944.00 4983.15 70.31
876 28.9448 5033.00 4982.03 70.94
877 28.9710 4947.00 4981.21 70.33
878 28.9973 5020.00 4980.53 70.85
879 29.0235 4900.00 4979.95 70.00
880 29.0498 5035.00 4979.42 70.96
881 29.0761 5026.00 4978.93 70.89
882 29.1023 5079.00 4978.47 71.27
883 29.1286 4967.00 4978.02 70.48
884 29.1548 5034.00 4977.59 70.95
885 29.1811 4953.00 4977.16 70.38
886 29.2074 4948.00 4976.75 70.34
887 29.2336 5033.00 4976.34 70.94
888 29.2599 4908.00 4975.94 70.06
889 29.2861 4907.00 4975.54 70.05
890 29.3124 4938.00 4975.15 70.27
891 29.3387 4964.00 4974.75 70.46
892 29.3649 5050.00 4974.37 71.06
893 29.3912 4998.00 4973.98 70.70
894 29.4174 5068.00 4973.59 71.19
895 29.4437 4910.00 4973.21 70.07
896 29.4700 5051.00 4972.83 71.07
897 29.4962 5023.00 4972.45 70.87
898 29.5225 4983.00 4972.07 70.59
899 29.5487 4800.00 4971.63 69.28
900 29.5750 4972.00 4971.26 70.51
901 29.6013 4889.00 4970.89 69.92
902 29.6275 4968.00 4970.49 70.48
903 29.6538 4917.00 4970.12 70.12
904 29.6800 4948.00 4969.75 70.34
905 29.7063 4905.00 4969.38 70.04
906 29.7326 4917.00 4969.01 70.12
907 29.7588 4973.00 4968.65 70.52
908 29.7851 4960.00 4968.28 70.43
909 29.8113 4909.00 4967.91 70.06
910 29.8376 4908.00 4967.55 70.06
911 29.8639 4967.00 4967.18 70.48
912 29.8901 4909.00 4966.82 70.06
913 29.9164 5071.00 4966.45 71.21
914 29.9426 4930.00 4966.09 70.21
915 29.9689 4878.00 4965.73 69.84
916 29.9952 4919.00 4965.36 70.14
917 30.0214 5064.00 4965.00 71.16
918 30.0477 5080.00 4964.64 71.27
919 30.0739 4989.00 4964.28 70.63
920 30.1002 5070.00 4963.92 71.20
921 30.1265 5046.00 4963.56 71.04
922 30.1527 4910.00 4963.20 70.07
923 30.1790 4849.00 4962.84 69.63
924 30.2052 4944.00 4962.48 70.31
925 30.2315 5080.00 4962.12 71.27
926 30.2578 4945.00 4961.76 70.32
927 30.2840 4995.00 4961.41 70.68
928 30.3103 4927.00 4961.05 70.19
929 30.3365 4883.00 4960.69 69.88
930 30.3628 5085.00 4960.34 71.31
931 30.3891 4892.00 4959.98 69.94
932 30.4153 4871.00 4959.63 69.79
933 30.4416 5026.00 4959.27 70.89
934 30.4678 4815.00 4958.92 69.39
935 30.4941 4942.00 4958.57 70.30
936 30.5204 4839.00 4958.22 69.56
937 30.5466 4990.00 4957.86 70.64
938 30.5729 4922.00 4957.51 70.16
939 30.5991 4901.00 4957.16 70.01
940 30.6254 5154.00 4956.81 71.79
941 30.6517 4979.00 4956.46 70.56
942 30.6779 4908.00 4956.11 70.06
943 30.7042 4913.00 4955.76 70.09
944 30.7304 4991.00 4956.96 70.65
945 30.7567 4850.00 4956.72 69.64
946 30.7830 4960.00 4956.50 70.43
947 30.8092 4870.00 4957.06 69.79
948 30.8355 4873.00 4956.93 69.81
949 30.8617 5007.00 4956.82 70.76
950 30.8880 4933.00 4956.74 70.24
951 30.9143 4985.00 4956.70 70.60
952 30.9405 5005.00 4956.70 70.75
953 30.9668 4840.00 4956.76 69.57
954 30.9930 4938.00 4956.88 70.27
955 31.0193 4868.00 4957.07 69.77
956 31.0456 4842.00 4957.36 69.58
957 31.0718 4871.00 4957.77 69.79
958 31.0981 5079.00 4958.33 71.27
959 31.1243 4947.00 4959.08 70.33
960 31.1506 4896.00 4960.08 69.97
961 31.1769 4924.00 4961.42 70.17
962 31.2031 4930.00 4963.23 70.21
963 31.2294 4994.00 4965.71 70.67
964 31.2556 5018.00 4969.16 70.84
965 31.2819 4955.00 4974.13 70.39
966 31.3082 5039.00 4981.66 70.99
967 31.3344 4989.00 4994.59 70.63
968 31.3607 4871.00 5023.46 69.79
969 31.3869 5216.00 5094.20 72.22
970 31.4132 5163.00 5230.57 71.85
971 31.4395 5362.00 5456.27 73.23
972 31.4657 5867.00 5857.95 76.60
973 31.4920 6726.00 6505.90 82.01
974 31.5182 7281.00 6794.87 85.33
975 31.5445 6222.00 6150.52 78.88
976 31.5708 5885.00 5888.75 76.71
977 31.5970 6099.00 5861.48 78.10
978 31.6233 5509.00 5423.83 74.22
979 31.6495 5079.00 5115.59 71.27
980 31.6758 5005.00 5024.94 70.75
981 31.7021 4956.00 4995.85 70.40
982 31.7283 4998.00 4980.62 70.70
983 31.7546 4956.00 4971.07 70.40
984 31.7808 5096.00 4964.58 71.39
985 31.8071 4998.00 4959.91 70.70
986 31.8334 4933.00 4956.41 70.24
987 31.8596 4963.00 4953.67 70.45
988 31.8859 5045.00 4951.48 71.03
989 31.9121 5027.00 4949.67 70.90
990 31.9384 4971.00 4948.16 70.51
991 31.9647 5012.00 4946.87 70.80
992 31.9909 4813.00 4945.74 69.38
993 32.0172 4925.00 4944.73 70.18
994 32.0434 4917.00 4943.84 70.12
995 32.0697 4906.00 4943.03 70.04
996 32.0960 5027.00 4942.28 70.90
997 32.1222 4930.00 4941.60 70.21
998 32.1485 4805.00 4940.96 69.32
999 32.1747 4920.00 4940.36 70.14
1000 32.2010 4868.00 4939.79 69.77
1001 32.2273 4949.00 4939.25 70.35
1002 32.2535 5049.00 4938.74 71.06
1003 32.2798 4953.00 4938.25 70.38
1004 32.3060 4928.00 4937.78 70.20
1005 32.3323 4921.00 4936.03 70.15
1006 32.3586 4831.00 4935.67 69.51
1007 32.3848 4988.00 4935.31 70.63
1008 32.4111 4927.00 4934.97 70.19
1009 32.4373 5002.00 4934.02 70.72
1010 32.4636 4952.00 4933.72 70.37
1011 32.4899 4781.00 4933.44 69.14
1012 32.5161 5011.00 4933.16 70.79
1013 32.5424 4973.00 4932.89 70.52
1014 32.5686 4929.00 4932.65 70.21
1015 32.5949 4908.00 4932.45 70.06
1016 32.6212 5025.00 4932.60 70.89
1017 32.6474 4919.00 4932.87 70.14
1018 32.6737 4990.00 4933.75 70.64
1019 32.6999 4819.00 4936.20 69.42
1020 32.7262 4927.00 4939.51 70.19
1021 32.7525 4962.00 4944.94 70.44
1022 32.7787 4927.00 4947.12 70.19
1023 32.8050 4963.00 4941.29 70.45
1024 32.8312 5062.00 4938.80 71.15
1025 32.8575 4925.00 4938.83 70.18
1026 32.8838 5036.00 4935.21 70.96
1027 32.9100 4893.00 4932.12 69.95
1028 32.9363 4900.00 4931.08 70.00
1029 32.9625 4866.00 4931.91 69.76
1030 32.9888 4969.00 4931.85 70.49
1031 33.0151 4975.00 4931.91 70.53
1032 33.0413 4974.00 4935.41 70.53
1033 33.0676 5058.00 4935.96 71.12
1034 33.0938 4796.00 4936.70 69.25
1035 33.1201 4996.00 4937.69 70.68
1036 33.1464 4979.00 4938.99 70.56
1037 33.1726 4955.00 4940.73 70.39
1038 33.1989 4879.00 4943.13 69.85
1039 33.2251 4912.00 4946.55 70.09
1040 33.2514 5002.00 4951.81 70.72
1041 33.2777 5023.00 4961.62 70.87
1042 33.3039 4874.00 4984.55 69.81
1043 33.3302 5036.00 5034.07 70.96
1044 33.3564 5076.00 5121.10 71.25
1045 33.3827 5164.00 5274.51 71.86
1046 33.4090 5526.00 5526.89 74.34
1047 33.4352 5598.00 5674.93 74.82
1048 33.4615 5332.00 5438.58 73.02
1049 33.4877 5225.00 5310.84 72.28
1050 33.5140 5244.00 5338.42 72.42
1051 33.5403 5110.00 5217.87 71.48
1052 33.5665 5102.00 5079.32 71.43
1053 33.5928 5181.00 5047.96 71.98
1054 33.6190 5241.00 5079.25 72.39
1055 33.6453 5319.00 5187.68 72.93
1056 33.6716 5450.00 5429.27 73.82
1057 33.6978 5898.00 5858.21 76.80
1058 33.7241 6541.00 6629.85 80.88
1059 33.7503 7911.00 7789.63 88.94
1060 33.7766 7903.00 8072.93 88.90
1061 33.8029 6532.00 6888.09 80.82
1062 33.8291 6610.00 6520.00 81.30
1063 33.8554 6563.00 6587.81 81.01
1064 33.8816 5697.00 5889.35 75.48
1065 33.9079 5114.00 5282.50 71.51
1066 33.9342 5034.00 5084.40 70.95
1067 33.9604 5038.00 5023.06 70.98
1068 33.9867 4963.00 4992.63 70.45
1069 34.0129 5036.00 4973.89 70.96
1070 34.0392 4929.00 4961.33 70.21
1071 34.0655 4982.00 4952.43 70.58
1072 34.0917 4925.00 4945.82 70.18
1073 34.1180 4950.00 4940.76 70.36
1074 34.1442 4996.00 4936.77 70.68
1075 34.1705 4939.00 4933.54 70.28
1076 34.1968 4901.00 4930.88 70.01
1077 34.2230 5025.00 4928.65 70.89
1078 34.2493 5070.00 4926.75 71.20
1079 34.2755 4937.00 4924.59 70.26
1080 34.3018 5053.00 4923.19 71.08
1081 34.3281 4875.00 4921.95 69.82
1082 34.3543 4826.00 4920.58 69.47
1083 34.3806 4974.00 4919.60 70.53
1084 34.4068 4992.00 4918.71 70.65
1085 34.4331 5003.00 4917.90 70.73
1086 34.4594 5099.00 4917.15 71.41
1087 34.4856 4928.00 4916.45 70.20
1088 34.5119 4902.00 4916.96 70.01
1089 34.5381 4913.00 4916.44 70.09
1090 34.5644 5011.00 4915.96 70.79
1091 34.5907 4925.00 4915.52 70.18
1092 34.6169 4953.00 4913.53 70.38
1093 34.6432 4941.00 4913.37 70.29
1094 34.6694 4887.00 4913.24 69.91
1095 34.6957 4886.00 4911.99 69.90
1096 34.7220 4939.00 4912.05 70.28
1097 34.7482 4978.00 4912.25 70.55
1098 34.7745 4856.00 4912.75 69.68
1099 34.8007 4950.00 4913.82 70.36
1100 34.8270 4829.00 4915.70 69.49
1101 34.8533 5049.00 4919.02 71.06
1102 34.8795 4926.00 4923.16 70.19
1103 34.9058 5001.00 4922.71 70.72
1104 34.9320 4795.00 4919.38 69.25
1105 34.9583 4909.00 4919.65 70.06
1106 34.9846 4956.00 4920.61 70.40
1107 35.0108 4983.00 4919.24 70.59
1108 35.0371 4867.00 4919.03 69.76
1109 35.0633 4891.00 4920.64 69.94
1110 35.0896 4900.00 4923.46 70.00
1111 35.1159 5013.00 4927.63 70.80
1112 35.1421 5084.00 4933.87 71.30
1113 35.1684 4910.00 4943.86 70.07
1114 35.1946 4985.00 4962.92 70.60
1115 35.2209 5071.00 5008.94 71.21
1116 35.2472 5196.00 5113.51 72.08
1117 35.2734 5266.00 5308.57 72.57
1118 35.2997 5644.00 5660.06 75.13
1119 35.3259 6222.00 6184.25 78.88
1120 35.3522 6138.00 6328.61 78.35
1121 35.3785 5885.00 5792.57 76.71
1122 35.4047 5517.00 5601.79 74.28
1123 35.4310 5554.00 5671.32 74.53
1124 35.4572 5296.00 5416.81 72.77
1125 35.4835 5170.00 5105.96 71.90
1126 35.5098 4880.00 4989.75 69.86
1127 35.5360 4824.00 4955.04 69.46
1128 35.5623 4904.00 4939.22 70.03
1129 35.5885 4962.00 4929.78 70.44
1130 35.6148 4891.00 4923.61 69.94
1131 35.6411 4835.00 4919.36 69.53
1132 35.6673 4902.00 4916.35 70.01
1133 35.6936 4998.00 4914.18 70.70
1134 35.7198 4850.00 4912.65 69.64
1135 35.7461 4933.00 4911.63 70.24
1136 35.7724 4989.00 4911.09 70.63
1137 35.7986 4927.00 4911.06 70.19
1138 35.8249 4998.00 4911.65 70.70
1139 35.8511 4980.00 4913.10 70.57
1140 35.8774 4922.00 4916.08 70.16
1141 35.9037 4857.00 4922.80 69.69
1142 35.9299 4985.00 4940.10 70.60
1143 35.9562 5003.00 4979.28 70.73
1144 35.9824 5156.00 5052.38 71.81
1145 36.0087 5252.00 5182.71 72.47
1146 36.0350 5402.00 5341.85 73.50
1147 36.0612 5394.00 5305.29 73.44
1148 36.0875 5238.00 5142.10 72.37
1149 36.1137 5233.00 5120.84 72.34
1150 36.1400 5263.00 5135.24 72.55
1151 36.1663 4973.00 5035.40 70.52
1152 36.1925 5064.00 4950.00 71.16
1153 36.2188 4909.00 4919.83 70.06
1154 36.2450 4856.00 4910.40 69.68
1155 36.2713 4809.00 4905.62 69.35
1156 36.2976 4900.00 4902.06 70.00
1157 36.3238 5062.00 4900.00 71.15
1158 36.3501 4863.00 4898.48 69.74
1159 36.3763 4922.00 4897.31 70.16
1160 36.4026 4831.00 4896.37 69.51
1161 36.4289 4949.00 4895.59 70.35
1162 36.4551 4964.00 4894.92 70.46
1163 36.4814 4919.00 4895.01 70.14
1164 36.5076 4928.00 4894.53 70.20
1165 36.5339 4831.00 4894.11 69.51
1166 36.5602 4848.00 4894.06 69.63
1167 36.5864 4902.00 4893.74 70.01
1168 36.6127 4813.00 4893.46 69.38
1169 36.6389 4927.00 4893.20 70.19
1170 36.6652 4820.00 4892.98 69.43
1171 36.6915 4888.00 4892.79 69.91
1172 36.7177 4898.00 4892.62 69.99
1173 36.7440 4818.00 4892.49 69.41
1174 36.7702 4909.00 4892.39 70.06
1175 36.7965 4978.00 4892.32 70.55
1176 36.8228 4861.00 4892.30 69.72
1177 36.8490 4849.00 4892.33 69.63
1178 36.8753 4928.00 4892.42 70.20
1179 36.9015 4867.00 4892.58 69.76
1180 36.9278 4913.00 4892.50 70.09
1181 36.9541 4832.00 4892.90 69.51
1182 36.9803 4996.00 4893.45 70.68
1183 37.0066 4876.00 4894.04 69.83
1184 37.0328 4946.00 4895.11 70.33
1185 37.0591 4931.00 4896.61 70.22
1186 37.0854 5013.00 4898.76 70.80
1187 37.1116 4969.00 4901.94 70.49
1188 37.1379 4911.00 4906.94 70.08
1189 37.1641 4902.00 4915.93 70.01
1190 37.1904 4955.00 4936.34 70.39
1191 37.2167 5164.00 4985.78 71.86
1192 37.2429 5030.00 5085.98 70.92
1193 37.2692 5321.00 5269.08 72.95
1194 37.2954 5538.00 5535.49 74.42
1195 37.3217 5571.00 5607.61 74.64
1196 37.3480 5170.00 5332.82 71.90
1197 37.3742 5087.00 5223.52 71.32
1198 37.4005 5335.00 5274.91 73.04
1199 37.4267 5020.00 5193.43 70.85
1200 37.4530 4854.00 5018.37 69.67
1201 37.4793 4813.00 4938.77 69.38
1202 37.5055 4787.00 4916.02 69.19
1203 37.5318 4955.00 4906.12 70.39
1204 37.5580 4986.00 4900.41 70.61
1205 37.5843 4935.00 4897.44 70.25
1206 37.6106 4845.00 4894.93 69.61
1207 37.6368 4944.00 4893.15 70.31
1208 37.6631 4905.00 4891.84 70.04
1209 37.6893 4953.00 4890.89 70.38
1210 37.7156 4880.00 4890.20 69.86
1211 37.7419 4884.00 4889.73 69.89
1212 37.7681 4959.00 4889.50 70.42
1213 37.7944 4881.00 4889.63 69.86
1214 37.8206 4859.00 4890.35 69.71
1215 37.8469 4856.00 4891.97 69.68
1216 37.8732 4735.00 4894.84 68.81
1217 37.8994 4963.00 4897.62 70.45
1218 37.9257 4922.00 4896.22 70.16
1219 37.9519 4823.00 4894.34 69.45
1220 37.9782 4873.00 4895.34 69.81
1221 38.0045 4836.00 4896.87 69.54
1222 38.0307 4796.00 4896.70 69.25
1223 38.0570 4963.00 4897.46 70.45
1224 38.0832 4906.00 4900.03 70.04
1225 38.1095 4841.00 4904.17 69.58
1226 38.1358 4836.00 4910.30 69.54
1227 38.1620 4884.00 4919.64 69.89
1228 38.1883 4978.00 4934.63 70.55
1229 38.2145 4960.00 4966.38 70.43
1230 38.2408 5018.00 5043.76 70.84
1231 38.2671 5239.00 5216.36 72.38
1232 38.2933 5604.00 5545.35 74.86
1233 38.3196 6344.00 6082.06 79.65
1234 38.3458 6868.00 6459.87 82.87
1235 38.3721 6008.00 5991.85 77.51
1236 38.3984 5540.00 5589.83 74.43
1237 38.4246 5720.00 5650.98 75.63
1238 38.4509 5734.00 5663.79 75.72
1239 38.4771 5180.00 5297.88 71.97
1240 38.5034 4998.00 5042.99 70.70
1241 38.5297 4848.00 4958.32 69.63
1242 38.5559 4941.00 4929.09 70.29
1243 38.5822 4828.00 4913.93 69.48
1244 38.6084 4863.00 4904.44 69.74
1245 38.6347 4916.00 4898.02 70.11
1246 38.6610 4910.00 4893.42 70.07
1247 38.6872 4955.00 4890.00 70.39
1248 38.7135 4901.00 4887.35 70.01
1249 38.7397 4854.00 4885.25 69.67
1250 38.7660 4892.00 4883.58 69.94
1251 38.7923 4974.00 4882.17 70.53
1252 38.8185 4864.00 4880.99 69.74
1253 38.8448 4874.00 4879.99 69.81
1254 38.8710 4791.00 4879.13 69.22
1255 38.8973 4815.00 4878.37 69.39
1256 38.9236 4824.00 4877.71 69.46
1257 38.9498 4808.00 4877.13 69.34
1258 38.9761 4876.00 4876.61 69.83
1259 39.0023 4695.00 4876.16 68.52
1260 39.0286 4854.00 4875.77 69.67
1261 39.0549 4837.00 4875.45 69.55
1262 39.0811 5010.00 4875.21 70.78
1263 39.1074 4803.00 4875.07 69.30
1264 39.1336 4945.00 4875.10 70.32
1265 39.1599 4858.00 4875.49 69.70
1266 39.1862 4911.00 4876.89 70.08
1267 39.2124 4839.00 4880.64 69.56
1268 39.2387 4925.00 4887.23 70.18
1269 39.2649 4944.00 4900.77 70.31
1270 39.2912 4843.00 4912.89 69.59
1271 39.3175 4940.00 4903.19 70.29
1272 39.3437 5011.00 4889.38 70.79
1273 39.3700 4919.00 4889.30 70.14
1274 39.3962 4870.00 4891.94 69.79
1275 39.4225 4839.00 4883.91 69.56
1276 39.4488 5047.00 4875.56 71.04
1277 39.4750 4879.00 4872.54 69.85
1278 39.5013 4998.00 4872.05 70.70
1279 39.5275 4851.00 4873.12 69.65
1280 39.5538 4925.00 4876.54 70.18
1281 39.5801 4814.00 4883.68 69.38
1282 39.6063 4874.00 4894.77 69.81
1283 39.6326 4897.00 4899.84 69.98
1284 39.6588 4817.00 4888.40 69.40
1285 39.6851 4863.00 4881.38 69.74
1286 39.7114 4796.00 4883.13 69.25
1287 39.7376 4943.00 4883.20 70.31
1288 39.7639 4857.00 4875.57 69.69
1289 39.7901 4848.00 4870.22 69.63
1290 39.8164 4828.00 4868.29 69.48
1291 39.8427 4921.00 4867.49 70.15
1292 39.8689 4755.00 4866.99 68.96
1293 39.8952 4919.00 4866.61 70.14
1294 39.9214 4868.00 4866.30 69.77
1295 39.9477 4782.00 4866.03 69.15
1296 39.9740 4859.00 4865.78 69.71
1297 40.0002 4894.00 4865.56 69.96
1298 40.0265 4848.00 4865.34 69.63
1299 40.0527 4973.00 4865.13 70.52
1300 40.0790 4739.00 4864.94 68.84
1301 40.1053 4932.00 4864.74 70.23
1302 40.1315 4874.00 4864.55 69.81
1303 40.1578 4920.00 4864.37 70.14
1304 40.1840 4924.00 4864.19 70.17
1305 40.2103 4977.00 4863.98 70.55
1306 40.2366 4995.00 4863.80 70.68
1307 40.2628 5047.00 4863.63 71.04
1308 40.2891 4813.00 4863.46 69.38
1309 40.3153 4893.00 4863.27 69.95
1310 40.3416 4796.00 4863.72 69.25
1311 40.3679 4917.00 4863.59 70.12
1312 40.3941 4753.00 4863.46 68.94
1313 40.4204 4867.00 4863.35 69.76
1314 40.4466 4879.00 4863.23 69.85
1315 40.4729 4755.00 4863.49 68.96
1316 40.4992 4859.00 4863.42 69.71
1317 40.5254 4861.00 4863.34 69.72
1318 40.5517 4799.00 4863.29 69.27
1319 40.5779 4917.00 4863.25 70.12
1320 40.6042 4780.00 4863.23 69.14
1321 40.6305 4873.00 4863.21 69.81
1322 40.6567 4814.00 4863.22 69.38
1323 40.6830 4959.00 4863.27 70.42
1324 40.7092 4826.00 4863.34 69.47
1325 40.7355 4905.00 4863.45 70.04
1326 40.7618 4970.00 4863.60 70.50
1327 40.7880 4916.00 4863.81 70.11
1328 40.8143 4955.00 4864.08 70.39
1329 40.8405 4745.00 4864.44 68.88
1330 40.8668 4877.00 4864.92 69.84
1331 40.8931 4860.00 4865.54 69.71
1332 40.9193 4990.00 4866.36 70.64
1333 40.9456 4972.00 4867.45 70.51
1334 40.9718 4895.00 4868.92 69.96
1335 40.9981 4978.00 4870.96 70.55
1336 41.0244 4903.00 4873.87 70.02
1337 41.0506 4871.00 4878.19 69.79
1338 41.0769 4929.00 4885.08 70.21
1339 41.1031 5034.00 4897.90 70.95
1340 41.1294 5093.00 4927.55 71.37
1341 41.1557 5102.00 4999.24 71.43
1342 41.1819 5114.00 5147.79 71.51
1343 41.2082 5475.00 5392.46 73.99
1344 41.2344 5859.00 5575.54 76.54
1345 41.2607 5429.00 5385.51 73.68
1346 41.2870 5197.00 5197.24 72.09
1347 41.3132 5299.00 5215.76 72.79
1348 41.3395 5434.00 5261.69 73.72
1349 41.3657 5354.00 5135.62 73.17
1350 41.3920 4925.00 4989.00 70.18
1351 41.4183 4954.00 4930.01 70.38
1352 41.4445 4991.00 4901.42 70.65
1353 41.4708 4818.00 4886.14 69.41
1354 41.4970 4892.00 4877.63 69.94
1355 41.5233 4960.00 4873.14 70.43
1356 41.5496 4870.00 4870.31 69.79
1357 41.5758 4957.00 4868.36 70.41
1358 41.6021 4849.00 4866.99 69.63
1359 41.6283 4892.00 4866.01 69.94
1360 41.6546 4840.00 4865.32 69.57
1361 41.6809 4886.00 4864.87 69.90
1362 41.7071 4888.00 4864.61 69.91
1363 41.7334 4849.00 4864.53 69.63
1364 41.7596 4794.00 4864.62 69.24
1365 41.7859 4910.00 4864.88 70.07
1366 41.8122 4911.00 4865.32 70.08
1367 41.8384 4924.00 4865.98 70.17
1368 41.8647 4889.00 4866.89 69.92
1369 41.8909 4831.00 4868.12 69.51
1370 41.9172 4849.00 4869.76 69.63
1371 41.9435 4834.00 4871.94 69.53
1372 41.9697 5051.00 4874.87 71.07
1373 41.9960 4862.00 4878.87 69.73
1374 42.0222 4929.00 4884.49 70.21
1375 42.0485 4871.00 4892.68 69.79
1376 42.0748 4994.00 4905.27 70.67
1377 42.1010 4931.00 4926.84 70.22
1378 42.1273 5024.00 4972.34 70.88
1379 42.1535 5018.00 5083.93 70.84
1380 42.1798 5391.00 5338.72 73.42
1381 42.2061 5953.00 5807.60 77.16
1382 42.2323 6407.00 6335.52 80.04
1383 42.2586 6587.00 6188.05 81.16
1384 42.2848 5582.00 5611.65 74.71
1385 42.3111 5425.00 5475.57 73.65
1386 42.3374 5478.00 5639.33 74.01
1387 42.3636 5853.00 5596.65 76.50
1388 42.3899 5361.00 5233.33 73.22
1389 42.4161 5134.00 5012.28 71.65
1390 42.4424 4921.00 4937.60 70.15
1391 42.4687 4869.00 4910.47 69.78
1392 42.4949 4999.00 4895.14 70.70
1393 42.5212 4871.00 4883.92 69.79
1394 42.5474 4672.00 4876.49 68.35
1395 42.5737 4804.00 4871.76 69.31
1396 42.6000 4920.00 4868.22 70.14
1397 42.6262 4803.00 4865.53 69.30
1398 42.6525 4739.00 4863.43 68.84
1399 42.6787 4843.00 4861.76 69.59
1400 42.7050 4866.00 4860.41 69.76
1401 42.7313 4988.00 4859.30 70.63
1402 42.7575 4945.00 4858.38 70.32
1403 42.7838 4841.00 4857.62 69.58
1404 42.8100 4902.00 4856.99 70.01
1405 42.8363 4990.00 4856.48 70.64
1406 42.8626 4876.00 4856.06 69.83
1407 42.8888 4753.00 4855.74 68.94
1408 42.9151 5008.00 4855.51 70.77
1409 42.9413 4862.00 4855.37 69.73
1410 42.9676 4901.00 4855.33 70.01
1411 42.9939 4865.00 4855.40 69.75
1412 43.0201 4929.00 4855.61 70.21
1413 43.0464 4919.00 4855.98 70.14
1414 43.0726 4963.00 4856.57 70.45
1415 43.0989 4832.00 4857.45 69.51
1416 43.1252 4839.00 4858.77 69.56
1417 43.1514 4761.00 4860.74 69.00
1418 43.1777 4878.00 4862.54 69.84
1419 43.2039 4864.00 4867.58 69.74
1420 43.2302 4866.00 4877.03 69.76
1421 43.2565 5061.00 4898.99 71.14
1422 43.2827 4930.00 4952.62 70.21
1423 43.3090 5085.00 5066.70 71.31
1424 43.3352 5199.00 5240.02 72.10
1425 43.3615 5295.00 5321.03 72.77
1426 43.3878 4982.00 5152.94 70.58
1427 43.4140 5037.00 5035.55 70.97
1428 43.4403 4948.00 5054.47 70.34
1429 43.4665 5171.00 5101.28 71.91
1430 43.4928 5036.00 5030.29 70.96
1431 43.5191 4964.00 4928.27 70.46
1432 43.5453 4880.00 4883.05 69.86
1433 43.5716 4868.00 4867.85 69.77
1434 43.5978 4866.00 4861.12 69.76
1435 43.6241 4860.00 4857.14 69.71
1436 43.6504 4868.00 4854.51 69.77
1437 43.6766 4824.00 4852.65 69.46
1438 43.7029 4858.00 4851.28 69.70
1439 43.7291 4942.00 4850.22 70.30
1440 43.7554 4922.00 4849.37 70.16
1441 43.7817 4810.00 4848.68 69.35
1442 43.8079 4873.00 4848.11 69.81
1443 43.8342 5013.00 4847.62 70.80
1444 43.8604 4910.00 4847.19 70.07
1445 43.8867 4929.00 4846.82 70.21
1446 43.9130 4931.00 4846.48 70.22
1447 43.9392 4905.00 4846.18 70.04
1448 43.9655 4908.00 4845.91 70.06
1449 43.9917 4811.00 4845.65 69.36
1450 44.0180 4890.00 4845.42 69.93
1451 44.0443 4888.00 4845.20 69.91
1452 44.0705 4803.00 4844.99 69.30
1453 44.0968 4772.00 4844.80 69.08
1454 44.1230 4957.00 4844.61 70.41
1455 44.1493 4883.00 4844.43 69.88
1456 44.1756 4959.00 4844.26 70.42
1457 44.2018 4918.00 4844.14 70.13
1458 44.2281 4770.00 4843.98 69.07
1459 44.2543 4774.00 4843.83 69.09
1460 44.2806 4790.00 4843.68 69.21
1461 44.3069 4844.00 4843.18 69.60
1462 44.3331 4829.00 4843.06 69.49
1463 44.3594 4934.00 4842.95 70.24
1464 44.3856 4945.00 4842.84 70.32
1465 44.4119 4880.00 4842.53 69.86
1466 44.4382 4794.00 4842.44 69.24
1467 44.4644 4965.00 4842.34 70.46
1468 44.4907 4775.00 4842.62 69.10
1469 44.5169 4808.00 4842.54 69.34
1470 44.5432 4940.00 4842.47 70.29
1471 44.5695 4858.00 4842.41 69.70
1472 44.5957 4903.00 4842.91 70.02
1473 44.6220 4867.00 4842.89 69.76
1474 44.6482 4847.00 4842.88 69.62
1475 44.6745 4906.00 4842.88 70.04
1476 44.7008 4889.00 4842.90 69.92
1477 44.7270 4814.00 4842.93 69.38
1478 44.7533 4828.00 4842.99 69.48
1479 44.7795 4795.00 4843.06 69.25
1480 44.8058 4825.00 4843.30 69.46
1481 44.8321 4806.00 4843.45 69.33
1482 44.8583 4771.00 4843.65 69.07
1483 44.8846 4872.00 4843.91 69.80
1484 44.9108 4964.00 4844.57 70.46
1485 44.9371 5006.00 4845.07 70.75
1486 44.9634 4855.00 4845.78 69.68
1487 44.9896 4995.00 4846.88 70.68
1488 45.0159 4789.00 4848.97 69.20
1489 45.0421 4790.00 4853.63 69.21
1490 45.0684 4841.00 4864.28 69.58
1491 45.0947 4907.00 4879.36 70.05
1492 45.1209 4982.00 4888.35 70.58
1493 45.1472 4981.00 4877.79 70.58
1494 45.1734 5037.00 4871.81 70.97
1495 45.1997 4803.00 4878.53 69.30
1496 45.2260 4937.00 4889.21 70.26
1497 45.2522 4949.00 4889.21 70.35
1498 45.2785 4946.00 4887.70 70.33
1499 45.3047 4974.00 4903.12 70.53
1500 45.3310 5038.00 4951.68 70.98
1501 45.3573 5162.00 5066.55 71.85
1502 45.3835 5352.00 5274.67 73.16
1503 45.4098 5533.00 5474.94 74.38
1504 45.4360 5604.00 5359.75 74.86
1505 45.4623 5196.00 5128.75 72.08
1506 45.4886 5129.00 5080.39 71.62
1507 45.5148 5093.00 5155.03 71.37
1508 45.5411 5316.00 5178.49 72.91
1509 45.5673 5055.00 5045.43 71.10
1510 45.5936 5059.00 4943.23 71.13
1511 45.6199 5030.00 4912.33 70.92
1512 45.6461 4928.00 4922.37 70.20
1513 45.6724 5118.00 4972.59 71.54
1514 45.6986 5184.00 5069.13 72.00
1515 45.7249 5256.00 5154.13 72.50
1516 45.7512 5261.00 5089.44 72.53
1517 45.7774 5167.00 4990.59 71.88
1518 45.8037 4988.00 4978.74 70.63
1519 45.8299 5007.00 5022.75 70.76
1520 45.8562 5216.00 5045.45 72.22
1521 45.8825 5233.00 5017.37 72.34
1522 45.9087 5116.00 5059.78 71.53
1523 45.9350 5233.00 5249.28 72.34
1524 45.9612 5701.00 5589.64 75.50
1525 45.9875 5978.00 5829.35 77.32
1526 46.0138 5756.00 5544.86 75.87
1527 46.0400 5325.00 5234.62 72.97
1528 46.0663 5307.00 5207.98 72.85
1529 46.0925 5369.00 5331.36 73.27
1530 46.1188 5274.00 5324.97 72.62
1531 46.1451 5293.00 5104.46 72.75
1532 46.1713 5092.00 4957.06 71.36
1533 46.1976 4909.00 4902.26 70.06
1534 46.2238 4904.00 4881.66 70.03
1535 46.2501 4851.00 4870.98 69.65
1536 46.2764 4855.00 4864.74 69.68
1537 46.3026 4881.00 4860.40 69.86
1538 46.3289 4794.00 4857.43 69.24
1539 46.3551 4926.00 4855.39 70.19
1540 46.3814 4864.00 4853.49 69.74
1541 46.4077 4846.00 4853.80 69.61
1542 46.4339 4729.00 4853.45 68.77
1543 46.4602 4978.00 4853.47 70.55
1544 46.4864 4883.00 4853.86 69.88
1545 46.5127 4945.00 4854.38 70.32
1546 46.5390 4846.00 4855.60 69.61
1547 46.5652 4826.00 4857.33 69.47
1548 46.5915 4730.00 4859.71 68.78
1549 46.6177 4938.00 4862.95 70.27
1550 46.6440 4854.00 4867.39 69.67
1551 46.6703 4792.00 4873.63 69.22
1552 46.6965 4795.00 4882.45 69.25
1553 46.7228 5039.00 4896.53 70.99
1554 46.7490 4947.00 4921.55 70.33
1555 46.7753 5047.00 4975.33 71.04
1556 46.8016 5009.00 5098.51 70.77
1557 46.8278 5313.00 5335.66 72.89
1558 46.8541 5700.00 5641.60 75.50
1559 46.8803 5737.00 5801.10 75.74
1560 46.9066 5816.00 5960.80 76.26
1561 46.9329 5733.00 6090.69 75.72
1562 46.9591 5564.00 5795.90 74.59
1563 46.9854 5615.00 5554.15 74.93
1564 47.0116 5355.00 5453.69 73.18
1565 47.0379 5343.00 5483.51 73.10
1566 47.0642 5227.00 5426.25 72.30
1567 47.0904 5027.00 5191.56 70.90
1568 47.1167 5069.00 5070.48 71.20
1569 47.1429 5013.00 5107.26 70.80
1570 47.1692 5300.00 5306.15 72.80
1571 47.1955 5723.00 5642.80 75.65
1572 47.2217 5791.00 5812.85 76.10
1573 47.2480 5582.00 5482.28 74.71
1574 47.2742 5304.00 5205.16 72.83
1575 47.3005 5320.00 5197.26 72.94
1576 47.3268 5324.00 5321.64 72.97
1577 47.3530 5311.00 5314.18 72.88
1578 47.3793 5056.00 5100.44 71.11
1579 47.4055 4933.00 4955.84 70.24
1580 47.4318 4910.00 4900.42 70.07
1581 47.4581 4981.00 4878.85 70.58
1582 47.4843 4780.00 4867.35 69.14
1583 47.5106 4812.00 4859.96 69.37
1584 47.5368 4817.00 4854.84 69.40
1585 47.5631 4802.00 4851.10 69.30
1586 47.5894 4789.00 4848.25 69.20
1587 47.6156 4876.00 4846.02 69.83
1588 47.6419 4813.00 4844.23 69.38
1589 47.6681 4824.00 4842.77 69.46
1590 47.6944 4742.00 4841.56 68.86
1591 47.7207 4830.00 4840.55 69.50
1592 47.7469 4893.00 4839.71 69.95
1593 47.7732 4743.00 4839.03 68.87
1594 47.7994 4875.00 4838.49 69.82
1595 47.8257 4770.00 4838.12 69.07
1596 47.8520 4859.00 4837.54 69.71
1597 47.8782 4737.00 4838.10 68.83
1598 47.9045 4890.00 4839.38 69.93
1599 47.9307 4715.00 4844.65 68.67
1600 47.9570 4919.00 4851.99 70.14
1601 47.9833 4873.00 4852.78 69.81
1602 48.0095 4861.00 4844.51 69.72
1603 48.0358 4801.00 4839.21 69.29
1604 48.0620 4867.00 4839.78 69.76
1605 48.0883 4749.00 4842.39 68.91
1606 48.1146 4947.00 4841.25 70.33
1607 48.1408 4894.00 4836.46 69.96
1608 48.1671 4909.00 4833.55 70.06
1609 48.1933 4746.00 4832.38 68.89
1610 48.2196 4890.00 4831.06 69.93
1611 48.2459 4881.00 4830.74 69.86
1612 48.2721 4850.00 4830.50 69.64
1613 48.2984 4849.00 4830.31 69.63
1614 48.3246 4855.00 4829.75 69.68
1615 48.3509 4674.00 4829.63 68.37
1616 48.3772 4761.00 4829.52 69.00
1617 48.4034 4835.00 4829.42 69.53
1618 48.4297 4944.00 4829.32 70.31
1619 48.4559 4818.00 4829.23 69.41
1620 48.4822 4835.00 4829.15 69.53
1621 48.5085 4781.00 4829.06 69.14
1622 48.5347 4806.00 4828.98 69.33
1623 48.5610 4836.00 4828.90 69.54
1624 48.5872 4763.00 4828.82 69.01
1625 48.6135 4790.00 4828.74 69.21
1626 48.6398 4762.00 4828.70 69.01
1627 48.6660 4815.00 4828.62 69.39
1628 48.6923 4831.00 4828.55 69.51
1629 48.7185 4899.00 4828.48 69.99
1630 48.7448 4721.00 4828.41 68.71
1631 48.7711 4820.00 4828.56 69.43
1632 48.7973 4756.00 4828.51 68.96
1633 48.8236 4713.00 4828.45 68.65
1634 48.8498 4612.00 4828.40 67.91
1635 48.8761 4945.00 4828.35 70.32
1636 48.9024 4794.00 4828.31 69.24
1637 48.9286 4795.00 4828.26 69.25
1638 48.9549 4813.00 4828.22 69.38
1639 48.9811 4772.00 4828.17 69.08
1640 49.0074 4695.00 4828.14 68.52
1641 49.0337 4863.00 4828.11 69.74
1642 49.0599 4771.00 4828.09 69.07
1643 49.0862 4715.00 4828.07 68.67
1644 49.1124 4858.00 4828.07 69.70
1645 49.1387 4732.00 4828.08 68.79
1646 49.1650 4905.00 4828.10 70.04
1647 49.1912 4820.00 4828.13 69.43
1648 49.2175 4823.00 4828.19 69.45
1649 49.2437 4789.00 4828.27 69.20
1650 49.2700 4778.00 4828.39 69.12
1651 49.2963 4957.00 4828.54 70.41
1652 49.3225 4776.00 4828.76 69.11
1653 49.3488 4932.00 4829.06 70.23
1654 49.3750 4747.00 4829.47 68.90
1655 49.4013 4833.00 4830.06 69.52
1656 49.4276 4824.00 4830.90 69.46
1657 49.4538 4830.00 4832.19 69.50
1658 49.4801 4781.00 4834.26 69.14
1659 49.5063 4789.00 4838.09 69.20
1660 49.5326 4820.00 4846.74 69.43
1661 49.5589 4884.00 4868.68 69.89
1662 49.5851 4830.00 4914.97 69.50
1663 49.6114 4952.00 4972.80 70.37
1664 49.6376 4922.00 4971.39 70.16
1665 49.6639 4936.00 4908.59 70.26
1666 49.6902 4839.00 4876.54 69.56
1667 49.7164 4777.00 4883.33 69.12
1668 49.7427 4939.00 4905.82 70.28
1669 49.7689 4872.00 4901.63 69.80
1670 49.7952 4871.00 4866.75 69.79
1671 49.8215 4799.00 4844.33 69.27
1672 49.8477 4727.00 4835.63 68.75
1673 49.8740 4692.00 4832.16 68.50
1674 49.9002 4871.00 4830.32 69.79
1675 49.9265 4874.00 4829.14 69.81
1676 49.9528 4748.00 4828.32 68.91
1677 49.9790 4912.00 4827.79 70.09
1678 50.0053 4711.00 4827.34 68.64
1679 50.0315 4781.00 4826.99 69.14
1680 50.0578 4786.00 4826.71 69.18
1681 50.0841 4761.00 4826.48 69.00
1682 50.1103 4668.00 4826.32 68.32
1683 50.1366 4832.00 4826.18 69.51
1684 50.1628 4770.00 4826.06 69.07
1685 50.1891 4818.00 4825.97 69.41
1686 50.2154 4733.00 4826.06 68.80
1687 50.2416 4893.00 4826.10 69.95
1688 50.2679 4722.00 4826.29 68.72
1689 50.2941 4707.00 4826.78 68.61
1690 50.3204 4882.00 4827.52 69.87
1691 50.3467 4819.00 4828.44 69.42
1692 50.3729 4858.00 4828.21 69.70
1693 50.3992 4727.00 4828.74 68.75
1694 50.4254 4788.00 4831.17 69.20
1695 50.4517 4784.00 4837.04 69.17
1696 50.4780 4854.00 4845.78 69.67
1697 50.5042 4789.00 4849.19 69.20
1698 50.5305 4722.00 4840.82 68.72
1699 50.5567 4879.00 4834.04 69.85
1700 50.5830 4812.00 4833.39 69.37
1701 50.6093 4824.00 4836.53 69.46
1702 50.6355 4909.00 4838.36 70.06
1703 50.6618 4797.00 4834.44 69.26
1704 50.6880 4824.00 4830.40 69.46
1705 50.7143 4901.00 4828.81 70.01
1706 50.7406 4757.00 4828.55 68.97
1707 50.7668 4673.00 4828.75 68.36
1708 50.7931 4850.00 4829.41 69.64
1709 50.8193 4845.00 4830.52 69.61
1710 50.8456 4940.00 4832.48 70.29
1711 50.8719 4880.00 4836.53 69.86
1712 50.8981 4849.00 4846.18 69.63
1713 50.9244 4876.00 4866.24 69.83
1714 50.9506 5081.00 4891.64 71.28
1715 50.9769 5064.00 4893.26 71.16
1716 51.0032 5019.00 4869.72 70.84
1717 51.0294 4917.00 4859.10 70.12
1718 51.0557 4776.00 4866.39 69.11
1719 51.0819 4826.00 4886.76 69.47
1720 51.1082 4937.00 4909.76 70.26
1721 51.1345 4894.00 4950.27 69.96
1722 51.1607 5132.00 5059.53 71.64
1723 51.1870 5211.00 5218.42 72.19
1724 51.2132 5191.00 5243.87 72.05
1725 51.2395 4986.00 5074.50 70.61
1726 51.2658 5013.00 4967.27 70.80
1727 51.2920 4963.00 4968.13 70.45
1728 51.3183 5088.00 5029.61 71.33
1729 51.3445 5038.00 5054.38 70.98
1730 51.3708 4948.00 4969.96 70.34
1731 51.3971 4853.00 4894.10 69.66
1732 51.4233 4879.00 4861.37 69.85
1733 51.4496 4916.00 4849.14 70.11
1734 51.4758 4812.00 4843.71 69.37
1735 51.5021 4807.00 4840.50 69.33
1736 51.5284 4723.00 4838.59 68.72
1737 51.5546 4797.00 4837.52 69.26
1738 51.5809 4778.00 4837.01 69.12
1739 51.6071 4920.00 4836.94 70.14
1740 51.6334 4815.00 4837.26 69.39
1741 51.6597 4805.00 4837.92 69.32
1742 51.6859 4763.00 4838.97 69.01
1743 51.7122 4809.00 4840.43 69.35
1744 51.7384 4895.00 4842.40 69.96
1745 51.7647 4757.00 4845.00 68.97
1746 51.7910 4826.00 4848.44 69.47
1747 51.8172 4788.00 4853.03 69.20
1748 51.8435 4774.00 4859.29 69.09
1749 51.8697 4902.00 4868.03 70.01
1750 51.8960 4799.00 4880.74 69.27
1751 51.9223 4854.00 4900.29 69.67
1752 51.9485 4947.00 4933.59 70.33
1753 51.9748 5013.00 5002.52 70.80
1754 52.0010 5161.00 5172.65 71.84
1755 52.0273 5456.00 5564.91 73.86
1756 52.0536 5965.00 6155.36 77.23
1757 52.0798 6311.00 6373.76 79.44
1758 52.1061 5811.00 5812.77 76.23
1759 52.1323 5430.00 5366.08 73.69
1760 52.1586 5168.00 5309.26 71.89
1761 52.1849 5341.00 5511.92 73.08
1762 52.2111 5576.00 5688.96 74.67
1763 52.2374 5494.00 5477.38 74.12
1764 52.2636 5198.00 5214.71 72.10
1765 52.2899 5170.00 5177.16 71.90
1766 52.3162 5195.00 5312.03 72.08
1767 52.3424 5573.00 5408.99 74.65
1768 52.3687 5268.00 5238.80 72.58
1769 52.3949 4954.00 5053.16 70.38
1770 52.4212 5059.00 5000.47 71.13
1771 52.4475 4980.00 5048.25 70.57
1772 52.4737 5051.00 5116.72 71.07
1773 52.5000 5004.00 5068.02 70.74
1774 52.5262 4919.00 4954.20 70.14
1775 52.5525 4765.00 4890.20 69.03
1776 52.5788 4850.00 4864.78 69.64
1777 52.6050 4695.00 4853.75 68.52
1778 52.6313 4736.00 4847.68 68.82
1779 52.6575 4946.00 4844.07 70.33
1780 52.6838 4848.00 4842.16 69.63
1781 52.7101 4816.00 4841.81 69.40
1782 52.7363 4847.00 4843.58 69.62
1783 52.7626 4798.00 4849.93 69.27
1784 52.7888 4781.00 4868.45 69.14
1785 52.8151 4901.00 4911.05 70.01
1786 52.8414 5023.00 4968.78 70.87
1787 52.8676 4899.00 4974.98 69.99
1788 52.8939 4776.00 4913.87 69.11
1789 52.9201 4772.00 4874.59 69.08
1790 52.9464 4851.00 4872.38 69.65
1791 52.9727 4609.00 4893.74 67.89
1792 52.9989 4979.00 4909.26 70.56
1793 53.0252 4867.00 4885.29 69.76
1794 53.0514 4795.00 4855.72 69.25
1795 53.0777 4778.00 4839.78 69.12
1796 53.1040 4706.00 4833.17 68.60
1797 53.1302 4835.00 4829.49 69.53
1798 53.1565 4727.00 4829.38 68.75
1799 53.1827 4779.00 4830.87 69.13
1800 53.2090 4991.00 4834.75 70.65
1801 53.2353 4806.00 4844.77 69.33
1802 53.2615 4803.00 4857.84 69.30
1803 53.2878 4811.00 4857.35 69.36
1804 53.3140 4839.00 4841.36 69.56
1805 53.3403 4808.00 4831.79 69.34
1806 53.3666 4932.00 4831.39 70.23
1807 53.3928 4805.00 4836.21 69.32
1808 53.4191 4844.00 4839.58 69.60
1809 53.4453 4844.00 4832.81 69.60
1810 53.4716 4770.00 4825.18 69.07
1811 53.4979 4806.00 4821.49 69.33
1812 53.5241 4709.00 4819.76 68.62
1813 53.5504 4812.00 4819.18 69.37
1814 53.5766 4717.00 4818.71 68.68
1815 53.6029 4764.00 4818.37 69.02
1816 53.6292 4888.00 4818.11 69.91
1817 53.6554 4703.00 4817.90 68.58
1818 53.6817 4731.00 4817.73 68.78
1819 53.7079 4755.00 4817.67 68.96
1820 53.7342 4780.00 4817.55 69.14
1821 53.7605 4770.00 4817.44 69.07
1822 53.7867 4788.00 4817.34 69.20
1823 53.8130 4688.00 4817.26 68.47
1824 53.8392 4639.00 4817.18 68.11
1825 53.8655 4840.00 4817.11 69.57
1826 53.8918 4743.00 4817.05 68.87
1827 53.9180 4819.00 4816.86 69.42
1828 53.9443 4848.00 4816.83 69.63
1829 53.9705 4726.00 4816.80 68.75
1830 53.9968 4811.00 4816.77 69.36
1831 54.0231 4831.00 4816.76 69.51
1832 54.0493 4667.00 4816.69 68.32
1833 54.0756 4725.00 4816.70 68.74
1834 54.1018 5054.00 4816.72 71.09
1835 54.1281 4747.00 4816.77 68.90
1836 54.1544 4767.00 4816.83 69.04
1837 54.1806 4672.00 4816.92 68.35
1838 54.2069 4744.00 4817.04 68.88
1839 54.2331 4848.00 4817.20 69.63
1840 54.2594 4824.00 4817.43 69.46
1841 54.2857 4868.00 4817.72 69.77
1842 54.3119 4644.00 4818.13 68.15
1843 54.3382 4728.00 4818.64 68.76
1844 54.3644 4746.00 4819.42 68.89
1845 54.3907 4829.00 4820.55 69.49
1846 54.4170 4757.00 4822.25 68.97
1847 54.4432 4797.00 4824.98 69.26
1848 54.4695 4765.00 4829.97 69.03
1849 54.4957 4846.00 4841.32 69.61
1850 54.5220 4871.00 4869.60 69.79
1851 54.5483 4807.00 4925.92 69.33
1852 54.5745 5028.00 4983.81 70.91
1853 54.6008 4973.00 4961.28 70.52
1854 54.6270 4777.00 4894.78 69.12
1855 54.6533 4714.00 4862.97 68.66
1856 54.6796 4882.00 4866.86 69.87
1857 54.7058 4926.00 4892.20 70.19
1858 54.7321 4816.00 4905.17 69.40
1859 54.7583 4890.00 4874.78 69.93
1860 54.7846 4862.00 4843.75 69.73
1861 54.8109 4934.00 4829.28 70.24
1862 54.8371 4953.00 4823.82 70.38
1863 54.8634 4804.00 4821.57 69.31
1864 54.8896 4722.00 4820.14 68.72
1865 54.9159 4803.00 4818.55 69.30
1866 54.9422 4698.00 4817.35 68.54
1867 54.9684 4777.00 4816.63 69.12
1868 54.9947 4558.00 4816.29 67.51
1869 55.0209 4826.00 4816.13 69.47
1870 55.0472 4744.00 4815.77 68.88
1871 55.0735 4700.00 4815.23 68.56
1872 55.0997 4661.00 4814.82 68.27
1873 55.1260 4891.00 4814.56 69.94
1874 55.1522 4750.00 4814.37 68.92
1875 55.1785 4852.00 4814.23 69.66
1876 55.2048 4897.00 4814.12 69.98
1877 55.2310 4762.00 4814.07 69.01
1878 55.2573 4775.00 4814.12 69.10
1879 55.2835 4718.00 4814.30 68.69
1880 55.3098 4951.00 4814.58 70.36
1881 55.3361 4747.00 4815.01 68.90
1882 55.3623 4809.00 4816.16 69.35
1883 55.3886 4662.00 4817.74 68.28
1884 55.4148 4762.00 4817.58 69.01
1885 55.4411 4827.00 4815.75 69.48
1886 55.4674 4769.00 4814.62 69.06
1887 55.4936 4772.00 4814.38 69.08
1888 55.5199 4739.00 4814.87 68.84
1889 55.5461 4830.00 4815.41 69.50
1890 55.5724 4826.00 4814.85 69.47
1891 55.5987 4820.00 4813.93 69.43
1892 55.6249 4815.00 4813.49 69.39
1893 55.6512 4858.00 4813.27 69.70
1894 55.6774 4709.00 4813.45 68.62
1895 55.7037 4765.00 4813.87 69.03
1896 55.7300 4845.00 4814.79 69.61
1897 55.7562 4809.00 4817.08 69.35
1898 55.7825 4803.00 4822.78 69.30
1899 55.8087 4813.00 4833.14 69.38
1900 55.8350 4787.00 4841.34 69.19
1901 55.8613 4933.00 4834.28 70.24
1902 55.8875 4883.00 4823.52 69.88
1903 55.9138 4683.00 4819.36 68.43
1904 55.9400 4771.00 4820.54 69.07
1905 55.9663 4853.00 4825.02 69.66
1906 55.9926 4746.00 4826.85 68.89
1907 56.0188 4832.00 4821.39 69.51
1908 56.0451 4792.00 4816.17 69.22
1909 56.0713 4785.00 4813.81 69.17
1910 56.0976 4782.00 4812.81 69.15
1911 56.1239 4829.00 4812.31 69.49
1912 56.1501 4677.00 4812.00 68.39
1913 56.1764 4793.00 4811.78 69.23
1914 56.2026 4829.00 4811.63 69.49
1915 56.2289 4741.00 4811.88 68.85
1916 56.2552 4781.00 4811.82 69.14
1917 56.2814 4771.00 4811.79 69.07
1918 56.3077 4823.00 4811.78 69.45
1919 56.3339 4837.00 4811.79 69.55
1920 56.3602 4624.00 4811.83 68.00
1921 56.3865 4869.00 4811.89 69.78
1922 56.4127 4868.00 4811.99 69.77
1923 56.4390 4826.00 4812.11 69.47
1924 56.4652 4897.00 4812.28 69.98
1925 56.4915 4776.00 4812.51 69.11
1926 56.5178 4844.00 4812.81 69.60
1927 56.5440 4819.00 4813.27 69.42
1928 56.5703 4813.00 4813.80 69.38
1929 56.5965 4757.00 4814.53 68.97
1930 56.6228 4787.00 4815.54 69.19
1931 56.6491 4929.00 4817.01 70.21
1932 56.6753 4900.00 4819.26 70.00
1933 56.7016 4805.00 4823.12 69.32
1934 56.7278 4839.00 4831.01 69.56
1935 56.7541 4810.00 4850.04 69.35
1936 56.7804 4848.00 4891.32 69.63
1937 56.8066 4980.00 4945.87 70.57
1938 56.8329 5066.00 4950.40 71.18
1939 56.8591 5021.00 4895.93 70.86
1940 56.8854 4861.00 4860.10 69.72
1941 56.9117 4853.00 4854.17 69.66
1942 56.9379 4790.00 4871.07 69.21
1943 56.9642 4878.00 4896.00 69.84
1944 56.9904 4838.00 4893.92 69.56
1945 57.0167 4799.00 4871.50 69.27
1946 57.0430 4765.00 4868.58 69.03
1947 57.0692 4917.00 4900.75 70.12
1948 57.0955 4845.00 4981.97 69.61
1949 57.1217 5083.00 5079.40 71.30
1950 57.1480 5096.00 5063.87 71.39
1951 57.1743 4998.00 4956.48 70.70
1952 57.2005 4801.00 4893.18 69.29
1953 57.2268 4957.00 4884.92 70.41
1954 57.2530 4882.00 4916.64 69.87
1955 57.2793 4992.00 4956.86 70.65
1956 57.3056 4899.00 4936.99 69.99
1957 57.3318 4939.00 4880.27 70.28
1958 57.3581 4927.00 4846.19 70.19
1959 57.3843 4895.00 4832.18 69.96
1960 57.4106 4904.00 4826.59 70.03
1961 57.4369 4675.00 4825.23 68.37
1962 57.4631 4730.00 4824.45 68.78
1963 57.4894 4761.00 4825.04 69.00
1964 57.5156 4794.00 4827.54 69.24
1965 57.5419 4814.00 4834.20 69.38
1966 57.5682 4719.00 4850.02 68.69
1967 57.5944 4933.00 4877.39 70.24
1968 57.6207 4954.00 4895.22 70.38
1969 57.6469 4933.00 4879.46 70.24
1970 57.6732 4730.00 4863.77 68.78
1971 57.6995 4826.00 4869.91 69.47
1972 57.7257 4824.00 4908.51 69.46
1973 57.7520 5047.00 4997.40 71.04
1974 57.7782 5209.00 5111.64 72.17
1975 57.8045 5107.00 5119.61 71.46
1976 57.8308 4979.00 5003.55 70.56
1977 57.8570 4926.00 4922.98 70.19
1978 57.8833 5009.00 4906.19 70.77
1979 57.9095 4967.00 4939.51 70.48
1980 57.9358 4951.00 5009.07 70.36
1981 57.9621 5011.00 5068.62 70.79
1982 57.9883 5230.00 5111.20 72.32
1983 58.0146 5134.00 5133.86 71.65
1984 58.0408 4962.00 5039.59 70.44
1985 58.0671 4902.00 4937.82 70.01
1986 58.0934 4945.00 4896.30 70.32
1987 58.1196 4827.00 4903.27 69.48
1988 58.1459 4844.00 4943.21 69.60
1989 58.1721 4946.00 4971.02 70.33
1990 58.1984 4896.00 4930.92 69.97
1991 58.2247 4777.00 4881.73 69.12
1992 58.2509 4683.00 4858.20 68.43
1993 58.2772 4911.00 4851.70 70.08
1994 58.3034 4719.00 4852.91 68.69
1995 58.3297 4744.00 4859.32 68.88
1996 58.3560 4853.00 4871.45 69.66
1997 58.3822 4973.00 4893.12 70.52
1998 58.4085 4918.00 4936.57 70.13
1999 58.4347 5077.00 5039.36 71.25
2000 58.4610 5279.00 5281.99 72.66
2001 58.4873 5667.00 5692.58 75.28
2002 58.5135 6118.00 5940.42 78.22
2003 58.5398 5634.00 5616.17 75.06
2004 58.5660 5225.00 5239.53 72.28
2005 58.5923 5025.00 5089.26 70.89
2006 58.6186 4954.00 5124.18 70.38
2007 58.6448 5265.00 5288.17 72.56
2008 58.6711 5523.00 5403.98 74.32
2009 58.6973 5246.00 5240.51 72.43
2010 58.7236 5017.00 5030.23 70.83
2011 58.7499 4922.00 4920.82 70.16
2012 58.7761 4819.00 4875.44 69.42
2013 58.8024 4745.00 4854.66 68.88
2014 58.8286 4851.00 4843.10 69.65
2015 58.8549 4811.00 4836.57 69.36
2016 58.8812 4804.00 4834.35 69.31
2017 58.9074 4690.00 4835.85 68.48
2018 58.9337 4872.00 4836.71 69.80
2019 58.9599 4839.00 4830.25 69.56
2020 58.9862 4754.00 4823.25 68.95
2021 59.0125 4751.00 4819.86 68.93
2022 59.0387 4868.00 4819.53 69.77
2023 59.0650 4933.00 4821.44 70.24
2024 59.0912 4764.00 4823.84 69.02
2025 59.1175 4863.00 4823.09 69.74
2026 59.1438 4857.00 4823.57 69.69
2027 59.1700 4832.00 4830.81 69.51
2028 59.1963 4780.00 4852.24 69.14
2029 59.2225 4854.00 4892.88 69.67
2030 59.2488 4818.00 4925.74 69.41
2031 59.2751 4970.00 4899.16 70.50
2032 59.3013 4800.00 4856.04 69.28
2033 59.3276 4735.00 4835.66 68.81
2034 59.3538 4804.00 4835.36 69.31
2035 59.3801 4775.00 4850.08 69.10
2036 59.4064 4926.00 4866.63 70.19
2037 59.4326 4886.00 4856.54 69.90
2038 59.4589 4754.00 4833.20 68.95
2039 59.4851 4716.00 4820.35 68.67
2040 59.5114 4808.00 4816.82 69.34
2041 59.5377 4742.00 4815.97 68.86
2042 59.5639 4823.00 4812.38 69.45
2043 59.5902 4795.00 4808.52 69.25
2044 59.6164 4759.00 4806.47 68.99
2045 59.6427 4753.00 4804.90 68.94
2046 59.6690 4797.00 4805.46 69.26
2047 59.6952 4812.00 4806.18 69.37
2048 59.7215 4805.00 4805.19 69.32
2049 59.7477 4789.00 4803.40 69.20
2050 59.7740 4657.00 4802.31 68.24
2051 59.8003 4752.00 4801.31 68.93
2052 59.8265 4825.00 4801.14 69.46
2053 59.8528 4864.00 4801.22 69.74
2054 59.8790 4638.00 4801.77 68.10
2055 59.9053 4774.00 4803.08 69.09
2056 59.9316 4836.00 4804.66 69.54
2057 59.9578 4908.00 4804.40 70.06
2058 59.9841 4877.00 4802.84 69.84
2059 60.0103 4730.00 4802.08 68.78
2060 60.0366 4706.00 4802.38 68.60
2061 60.0629 4904.00 4803.72 70.03
2062 60.0891 4874.00 4806.53 69.81
2063 60.1154 4939.00 4811.69 70.28
2064 60.1416 4783.00 4822.22 69.16
2065 60.1679 4812.00 4838.22 69.37
2066 60.1942 4866.00 4842.34 69.76
2067 60.2204 4784.00 4826.33 69.17
2068 60.2467 4798.00 4813.09 69.27
2069 60.2729 4822.00 4808.44 69.44
2070 60.2992 4878.00 4810.32 69.84
2071 60.3255 4796.00 4816.94 69.25
2072 60.3517 4838.00 4821.18 69.56
2073 60.3780 4907.00 4814.25 70.05
2074 60.4042 4891.00 4805.93 69.94
2075 60.4305 4741.00 4801.85 68.85
2076 60.4568 4813.00 4799.93 69.38
2077 60.4830 4862.00 4799.32 69.73
2078 60.5093 4786.00 4798.75 69.18
2079 60.5355 4718.00 4798.31 68.69
2080 60.5618 4842.00 4798.03 69.58
2081 60.5881 4786.00 4797.81 69.18
2082 60.6143 4881.00 4797.64 69.86
2083 60.6406 4778.00 4797.50 69.12
2084 60.6668 4847.00 4797.38 69.62
2085 60.6931 4903.00 4797.30 70.02
2086 60.7194 4978.00 4797.24 70.55
2087 60.7456 4759.00 4797.22 68.99
2088 60.7719 4792.00 4797.26 69.22
2089 60.7981 4848.00 4797.38 69.63
2090 60.8244 4876.00 4797.49 69.83
2091 60.8507 4678.00 4797.42 68.40
2092 60.8769 4858.00 4797.32 69.70
2093 60.9032 4829.00 4797.32 69.49
2094 60.9294 4872.00 4797.60 69.80
2095 60.9557 4773.00 4797.79 69.09
2096 60.9820 4695.00 4798.05 68.52
2097 61.0082 4882.00 4798.29 69.87
2098 61.0345 4861.00 4798.54 69.72
2099 61.0607 4781.00 4798.90 69.14
2100 61.0870 4793.00 4799.40 69.23
2101 61.1133 4867.00 4800.20 69.76
2102 61.1395 4783.00 4801.10 69.16
2103 61.1658 4762.00 4802.29 69.01
2104 61.1920 4732.00 4803.95 68.79
2105 61.2183 4872.00 4806.18 69.80
2106 61.2446 4881.00 4809.37 69.86
2107 61.2708 4753.00 4814.18 68.94
2108 61.2971 4901.00 4822.03 70.01
2109 61.3233 4743.00 4836.47 68.87
2110 61.3496 4994.00 4866.81 70.67
2111 61.3759 4845.00 4932.06 69.61
2112 61.4021 5138.00 5051.07 71.68
2113 61.4284 5231.00 5176.35 72.33
2114 61.4546 5215.00 5134.98 72.21
2115 61.4809 4986.00 4991.17 70.61
2116 61.5072 4916.00 4907.45 70.11
2117 61.5334 4944.00 4889.51 70.31
2118 61.5597 4987.00 4918.73 70.62
2119 61.5859 4832.00 4977.78 69.51
2120 61.6122 4919.00 4995.44 70.14
2121 61.6385 4938.00 4926.18 70.27
2122 61.6647 4756.00 4862.47 68.96
2123 61.6910 4816.00 4831.02 69.40
2124 61.7172 4762.00 4817.62 69.01
2125 61.7435 4860.00 4811.23 69.71
2126 61.7698 4784.00 4807.63 69.17
2127 61.7960 4922.00 4805.52 70.16
2128 61.8223 4860.00 4804.41 69.71
2129 61.8485 4814.00 4804.10 69.38
2130 61.8748 4759.00 4804.58 68.99
2131 61.9011 4803.00 4806.01 69.30
2132 61.9273 4867.00 4808.88 69.76
2133 61.9536 4769.00 4814.41 69.06
2134 61.9798 4802.00 4826.44 69.30
2135 62.0061 4744.00 4855.02 68.88
2136 62.0324 4950.00 4913.78 70.36
2137 62.0586 5010.00 4986.20 70.78
2138 62.0849 4862.00 4987.69 69.73
2139 62.1111 4850.00 4931.76 69.64
2140 62.1374 4859.00 4898.63 69.71
2141 62.1637 4802.00 4875.83 69.30
2142 62.1899 4849.00 4869.47 69.63
2143 62.2162 4954.00 4890.62 70.38
2144 62.2424 4755.00 4907.82 68.96
2145 62.2687 5019.00 4882.19 70.84
2146 62.2950 5004.00 4853.72 70.74
2147 62.3212 4828.00 4836.03 69.48
2148 62.3475 4893.00 4818.90 69.95
2149 62.3737 4793.00 4807.60 69.23
2150 62.4000 4801.00 4801.97 69.29
2151 62.4263 4894.00 4798.62 69.96
2152 62.4525 4869.00 4795.97 69.78
2153 62.4788 4739.00 4794.11 68.84
2154 62.5050 4926.00 4792.85 70.19
2155 62.5313 4768.00 4791.92 69.05
2156 62.5576 4793.00 4791.20 69.23
2157 62.5838 4708.00 4790.61 68.61
2158 62.6101 4832.00 4789.76 69.51
2159 62.6363 4797.00 4789.33 69.26
2160 62.6626 4900.00 4788.96 70.00
2161 62.6889 4853.00 4788.63 69.66
2162 62.7151 4872.00 4788.32 69.80
2163 62.7414 4766.00 4788.04 69.04
2164 62.7676 4910.00 4787.60 70.07
2165 62.7939 4892.00 4787.36 69.94
2166 62.8202 4875.00 4787.43 69.82
2167 62.8464 4740.00 4787.23 68.85
2168 62.8727 4751.00 4787.04 68.93
2169 62.8989 4705.00 4786.86 68.59
2170 62.9252 4913.00 4786.68 70.09
2171 62.9515 4844.00 4786.52 69.60
2172 62.9777 4791.00 4786.36 69.22
2173 63.0040 4913.00 4786.36 70.09
2174 63.0302 4890.00 4786.22 69.93
2175 63.0565 4826.00 4786.08 69.47
2176 63.0828 4688.00 4785.95 68.47
2177 63.1090 4899.00 4785.82 69.99
2178 63.1353 4702.00 4785.71 68.57
2179 63.1615 4829.00 4785.59 69.49
2180 63.1878 4673.00 4785.48 68.36
2181 63.2141 4777.00 4785.38 69.12
2182 63.2403 4862.00 4785.11 69.73
2183 63.2666 4728.00 4785.03 68.76
2184 63.2928 4952.00 4784.97 70.37
2185 63.3191 4685.00 4784.87 68.45
2186 63.3454 4815.00 4784.82 69.39
2187 63.3716 4901.00 4784.78 70.01
2188 63.3979 4765.00 4784.76 69.03
2189 63.4241 4782.00 4784.67 69.15
2190 63.4504 4779.00 4784.68 69.13
2191 63.4767 4809.00 4784.71 69.35
2192 63.5029 4826.00 4784.78 69.47
2193 63.5292 4813.00 4784.89 69.38
2194 63.5554 4788.00 4785.04 69.20
2195 63.5817 4920.00 4785.24 70.14
2196 63.6080 4799.00 4785.52 69.27
2197 63.6342 4837.00 4785.89 69.55
2198 63.6605 4855.00 4786.38 69.68
2199 63.6867 4815.00 4787.18 69.39
2200 63.7130 4826.00 4788.08 69.47
2201 63.7393 4694.00 4789.30 68.51
2202 63.7655 4745.00 4791.01 68.88
2203 63.7918 4849.00 4793.48 69.63
2204 63.8180 4770.00 4797.19 69.07
2205 63.8443 4868.00 4803.13 69.77
2206 63.8706 4753.00 4814.11 68.94
2207 63.8968 4922.00 4837.69 70.16
2208 63.9231 4947.00 4891.57 70.33
2209 63.9493 4946.00 4990.10 70.33
2210 63.9756 5022.00 5075.48 70.87
2211 64.0019 4951.00 5021.19 70.36
2212 64.0281 4854.00 4916.75 69.67
2213 64.0544 4788.00 4859.64 69.20
2214 64.0806 4775.00 4845.81 69.10
2215 64.1069 4889.00 4865.01 69.92
2216 64.1332 4813.00 4910.37 69.38
2217 64.1594 4898.00 4935.55 69.99
2218 64.1857 4832.00 4891.21 69.51
2219 64.2119 4778.00 4839.92 69.12
2220 64.2382 4897.00 4812.28 69.98
2221 64.2645 4932.00 4800.05 70.23
2222 64.2907 4811.00 4794.29 69.36
2223 64.3170 4896.00 4791.13 69.97
2224 64.3432 4806.00 4789.41 69.33
2225 64.3695 4760.00 4789.02 68.99
2226 64.3958 4758.00 4790.57 68.98
2227 64.4220 4745.00 4794.44 68.88
2228 64.4483 4841.00 4797.37 69.58
2229 64.4745 4781.00 4793.92 69.14
2230 64.5008 4789.00 4789.00 69.20
2231 64.5271 4860.00 4786.46 69.71
2232 64.5533 4866.00 4785.98 69.76
2233 64.5796 4878.00 4787.23 69.84
2234 64.6058 4773.00 4789.78 69.09
2235 64.6321 4868.00 4791.58 69.77
2236 64.6584 4874.00 4790.62 69.81
2237 64.6846 4779.00 4790.07 69.13
2238 64.7109 4800.00 4791.70 69.28
2239 64.7371 4840.00 4796.33 69.57
2240 64.7634 4831.00 4807.16 69.51
2241 64.7897 4860.00 4831.76 69.71
2242 64.8159 4864.00 4877.80 69.74
2243 64.8422 4971.00 4922.75 70.51
2244 64.8684 4937.00 4903.84 70.26
2245 64.8947 4859.00 4855.61 69.71
2246 64.9210 4889.00 4829.65 69.92
2247 64.9472 4804.00 4827.77 69.31
2248 64.9735 4883.00 4849.63 69.88
2249 64.9997 4914.00 4903.77 70.10
2250 65.0260 5010.00 4980.22 70.78
2251 65.0523 5084.00 5008.32 71.30
2252 65.0785 4994.00 4943.23 70.67
2253 65.1048 4732.00 4868.86 68.79
2254 65.1310 4874.00 4830.78 69.81
2255 65.1573 4784.00 4820.26 69.17
2256 65.1836 4747.00 4829.18 68.90
2257 65.2098 4919.00 4854.21 70.14
2258 65.2361 4884.00 4869.52 69.89
2259 65.2623 4837.00 4844.49 69.55
2260 65.2886 4810.00 4813.77 69.35
2261 65.3149 4861.00 4796.69 69.72
2262 65.3411 4781.00 4788.77 69.14
2263 65.3674 4909.00 4785.04 70.06
2264 65.3936 4859.00 4782.94 69.71
2265 65.4199 4645.00 4781.69 68.15
2266 65.4462 4858.00 4780.98 69.70
2267 65.4724 4820.00 4780.61 69.43
2268 65.4987 4840.00 4780.57 69.57
2269 65.5249 4810.00 4780.86 69.35
2270 65.5512 4784.00 4781.56 69.17
2271 65.5775 4784.00 4782.79 69.17
2272 65.6037 4850.00 4784.85 69.64
2273 65.6300 4779.00 4788.56 69.13
2274 65.6562 4723.00 4795.95 68.72
2275 65.6825 4863.00 4812.02 69.74
2276 65.7088 4893.00 4844.62 69.95
2277 65.7350 4902.00 4888.01 70.01
2278 65.7613 4946.00 4894.83 70.33
2279 65.7875 4858.00 4858.82 69.70
2280 65.8138 4807.00 4830.32 69.33
2281 65.8401 4886.00 4818.17 69.90
2282 65.8663 4842.00 4821.22 69.58
2283 65.8926 4911.00 4839.67 70.08
2284 65.9188 4914.00 4870.61 70.10
2285 65.9451 4868.00 4897.25 69.77
2286 65.9714 4820.00 4935.12 69.43
2287 65.9976 5004.00 5033.62 70.74
2288 66.0239 5257.00 5163.19 72.51
2289 66.0501 5024.00 5148.37 70.88
2290 66.0764 5082.00 5003.60 71.29
2291 66.1027 5023.00 4901.64 70.87
2292 66.1289 4851.00 4862.07 69.65
2293 66.1552 4761.00 4866.92 69.00
2294 66.1814 4917.00 4911.10 70.12
2295 66.2077 4982.00 4973.76 70.58
2296 66.2340 4841.00 4967.95 69.58
2297 66.2602 4981.00 4893.99 70.58
2298 66.2865 4885.00 4839.25 69.89
2299 66.3127 4890.00 4814.41 69.93
2300 66.3390 4914.00 4808.13 70.10
2301 66.3653 4811.00 4815.20 69.36
2302 66.3915 4768.00 4832.79 69.05
2303 66.4178 4871.00 4841.31 69.79
2304 66.4440 4726.00 4822.87 68.75
2305 66.4703 4778.00 4803.49 69.12
2306 66.4966 4863.00 4794.69 69.74
2307 66.5228 4825.00 4794.66 69.46
2308 66.5491 4741.00 4803.13 68.85
2309 66.5753 4841.00 4822.82 69.58
2310 66.6016 4899.00 4850.67 69.99
2311 66.6279 5046.00 4873.83 71.04
2312 66.6541 4901.00 4871.37 70.01
2313 66.6804 4781.00 4839.03 69.14
2314 66.7066 4858.00 4815.39 69.70
2315 66.7329 4752.00 4809.62 68.93
2316 66.7592 4768.00 4821.32 69.05
2317 66.7854 4931.00 4858.49 70.22
2318 66.8117 4857.00 4930.21 69.69
2319 66.8379 4908.00 4999.34 70.06
2320 66.8642 4915.00 4970.45 70.11
2321 66.8905 4870.00 4886.86 69.79
2322 66.9167 4849.00 4833.07 69.63
2323 66.9430 4947.00 4812.11 70.33
2324 66.9692 4877.00 4813.15 69.84
2325 66.9955 5042.00 4833.44 71.01
2326 67.0218 4943.00 4863.08 70.31
2327 67.0480 4726.00 4860.24 68.75
2328 67.0743 4690.00 4823.81 68.48
2329 67.1005 4919.00 4795.86 70.14
2330 67.1268 4728.00 4781.83 68.76
2331 67.1531 4821.00 4775.33 69.43
2332 67.1793 4827.00 4772.11 69.48
2333 67.2056 4829.00 4770.58 69.49
2334 67.2318 4788.00 4770.71 69.20
2335 67.2581 4754.00 4772.91 68.95
2336 67.2844 4822.00 4778.00 69.44
2337 67.3106 4756.00 4780.30 68.96
2338 67.3369 4812.00 4774.81 69.37
2339 67.3631 4893.00 4768.82 69.95
2340 67.3894 4882.00 4765.61 69.87
2341 67.4157 4834.00 4764.53 69.53
2342 67.4419 4817.00 4764.93 69.40
2343 67.4682 4667.00 4767.06 68.32
2344 67.4945 4841.00 4768.69 69.58
2345 67.5207 4765.00 4766.44 69.03
2346 67.5470 4798.00 4763.10 69.27
2347 67.5732 4948.00 4761.00 70.34
2348 67.5995 4738.00 4759.90 68.83
2349 67.6257 4735.00 4759.28 68.81
2350 67.6520 4905.00 4758.81 70.04
2351 67.6783 4795.00 4758.53 69.25
2352 67.7045 4860.00 4758.31 69.71
2353 67.7308 4700.00 4758.16 68.56
2354 67.7570 4711.00 4758.10 68.64
2355 67.7833 4792.00 4758.14 69.22
2356 67.8096 4823.00 4758.32 69.45
2357 67.8358 4780.00 4758.82 69.14
2358 67.8621 4726.00 4759.65 68.75
2359 67.8883 4757.00 4761.31 68.97
2360 67.9146 4755.00 4765.32 68.96
2361 67.9408 4861.00 4774.08 69.72
2362 67.9671 4927.00 4788.48 70.19
2363 67.9934 4855.00 4797.08 69.68
2364 68.0197 4960.00 4786.33 70.43
2365 68.0459 4810.00 4772.92 69.35
2366 68.0722 4863.00 4765.95 69.74
2367 68.0984 4805.00 4764.94 69.32
2368 68.1247 4811.00 4769.09 69.36
2369 68.1509 4824.00 4778.57 69.46
2370 68.1772 4837.00 4786.85 69.55
2371 68.2035 4846.00 4780.66 69.61
2372 68.2297 4803.00 4768.86 69.30
2373 68.2560 4783.00 4761.53 69.16
2374 68.2822 4762.00 4758.20 69.01
2375 68.3085 4878.00 4757.37 69.84
2376 68.3348 4762.00 4758.18 69.01
2377 68.3610 4809.00 4759.40 69.35
2378 68.3873 4937.00 4758.38 70.26
2379 68.4135 4749.00 4755.90 68.91
2380 68.4398 4740.00 4754.21 68.85
2381 68.4661 4908.00 4753.42 70.06
2382 68.4923 4740.00 4753.23 68.85
2383 68.5186 4746.00 4753.62 68.89
2384 68.5449 4697.00 4754.73 68.53
2385 68.5711 4760.00 4756.03 68.99
2386 68.5974 4887.00 4755.83 69.91
2387 68.6236 4998.00 4754.89 70.70
2388 68.6499 4716.00 4755.06 68.67
2389 68.6761 4754.00 4756.79 68.95
2390 68.7024 4762.00 4759.53 69.01
2391 68.7287 4730.00 4761.07 68.78
2392 68.7549 4868.00 4762.54 69.77
2393 68.7812 4800.00 4767.66 69.28
2394 68.8074 4702.00 4779.84 68.57
2395 68.8337 4857.00 4801.59 69.69
2396 68.8600 4916.00 4816.69 70.11
2397 68.8862 4850.00 4801.81 69.64
2398 68.9125 4656.00 4780.31 68.23
2399 68.9387 4812.00 4767.44 69.37
2400 68.9650 4849.00 4763.06 69.63
2401 68.9913 4780.00 4765.02 69.14
2402 69.0175 4908.00 4773.44 70.06
2403 69.0438 4824.00 4785.09 69.46
2404 69.0701 4927.00 4786.15 70.19
2405 69.0963 4786.00 4776.76 69.18
2406 69.1226 5050.00 4765.80 71.06
2407 69.1488 4843.00 4757.64 69.59
2408 69.1751 4859.00 4753.33 69.71
2409 69.2013 4705.00 4751.65 68.59
2410 69.2276 4816.00 4751.13 69.40
2411 69.2539 4797.00 4751.74 69.26
2412 69.2801 4793.00 4753.09 69.23
2413 69.3064 4876.00 4752.99 69.83
2414 69.3326 4848.00 4751.11 69.63
2415 69.3589 4795.00 4749.74 69.25
2416 69.3852 4665.00 4749.28 68.30
2417 69.4114 4678.00 4749.53 68.40
2418 69.4377 4768.00 4750.42 69.05
2419 69.4639 4784.00 4752.41 69.17
2420 69.4902 4785.00 4756.83 69.17
2421 69.5165 4712.00 4766.58 68.64
2422 69.5427 4932.00 4784.21 70.23
2423 69.5690 5005.00 4801.33 70.75
2424 69.5953 4854.00 4793.96 69.67
2425 69.6215 4806.00 4774.77 69.33
2426 69.6478 4853.00 4762.80 69.66
2427 69.6740 4717.00 4758.40 68.68
2428 69.7003 4813.00 4759.29 69.38
2429 69.7265 4705.00 4765.12 68.59
2430 69.7528 4797.00 4774.87 69.26
2431 69.7791 4919.00 4779.12 70.14
2432 69.8053 4743.00 4771.92 68.87
2433 69.8316 4820.00 4765.55 69.43
2434 69.8578 4912.00 4764.35 70.09
2435 69.8841 4843.00 4767.74 69.59
2436 69.9104 4702.00 4776.34 68.57
2437 69.9366 4810.00 4795.11 69.35
2438 69.9629 4946.00 4836.30 70.33
2439 69.9891 4966.00 4914.70 70.47
2440 70.0154 5051.00 5004.32 71.07
2441 70.0417 4957.00 4993.81 70.41
2442 70.0679 4892.00 4904.06 69.94
2443 70.0942 4880.00 4841.26 69.86
2444 70.1205 4927.00 4817.89 70.19
2445 70.1467 4899.00 4824.71 69.99
2446 70.1730 4965.00 4864.55 70.46
2447 70.1992 4965.00 4947.99 70.46
2448 70.2255 5012.00 5046.01 70.80
2449 70.2517 5064.00 5059.71 71.16
2450 70.2780 5003.00 4964.77 70.73
2451 70.3043 4779.00 4869.06 69.13
2452 70.3305 4927.00 4817.82 70.19
2453 70.3568 4776.00 4798.67 69.11
2454 70.3830 4729.00 4800.31 68.77
2455 70.4093 4719.00 4821.14 68.69
2456 70.4356 4879.00 4853.99 69.85
2457 70.4618 4891.00 4858.23 69.94
2458 70.4881 4824.00 4825.37 69.46
2459 70.5143 4754.00 4801.44 68.95
2460 70.5406 4837.00 4800.68 69.55
2461 70.5669 4750.00 4826.21 68.92
2462 70.5931 4757.00 4876.68 68.97
2463 70.6194 4727.00 4909.68 68.75
2464 70.6457 4786.00 4870.85 69.18
2465 70.6719 4829.00 4818.44 69.49
2466 70.6982 4750.00 4788.68 68.92
2467 70.7244 4651.00 4777.57 68.20
2468 70.7507 4778.00 4780.49 69.12
2469 70.7769 4672.00 4797.64 68.35
2470 70.8032 4808.00 4824.77 69.34
2471 70.8295 4735.00 4831.81 68.81
2472 70.8557 4859.00 4807.97 69.71
2473 70.8820 4727.00 4787.69 68.75
2474 70.9082 4735.00 4781.27 68.81
2475 70.9345 4762.00 4788.67 69.01
2476 70.9608 4679.00 4815.81 68.40
2477 70.9870 4989.00 4878.09 70.63
2478 71.0133 4851.00 4982.56 69.65
2479 71.0395 4982.00 5054.21 70.58
2480 71.0658 4969.00 4983.13 70.49
2481 71.0921 5016.00 4878.98 70.82
2482 71.1183 4801.00 4818.86 69.29
2483 71.1446 4798.00 4796.46 69.27
2484 71.1709 4836.00 4800.19 69.54
2485 71.1971 4797.00 4829.37 69.26
2486 71.2234 4818.00 4878.02 69.41
2487 71.2496 4914.00 4892.39 70.10
2488 71.2759 4965.00 4842.09 70.46
2489 71.3021 4891.00 4792.20 69.94
2490 71.3284 4835.00 4764.50 69.53
2491 71.3547 4637.00 4750.96 68.10
2492 71.3809 4783.00 4743.94 69.16
2493 71.4072 4813.00 4739.67 69.38
2494 71.4334 4789.00 4736.77 69.20
2495 71.4597 4664.00 4734.65 68.29
2496 71.4860 4755.00 4733.04 68.96
2497 71.5122 4626.00 4731.64 68.01
2498 71.5385 4723.00 4730.41 68.72
2499 71.5647 4686.00 4729.56 68.45
2500 71.5910 4735.00 4728.86 68.81
2501 71.6173 4801.00 4728.26 69.29
2502 71.6435 4754.00 4727.75 68.95
2503 71.6698 4765.00 4727.31 69.03
2504 71.6960 4678.00 4727.07 68.40
2505 71.7223 4920.00 4726.78 70.14
2506 71.7486 4782.00 4726.44 69.15
2507 71.7748 4759.00 4726.32 68.99
2508 71.8011 4873.00 4726.24 69.81
2509 71.8273 4757.00 4726.23 68.97
2510 71.8536 4842.00 4726.34 69.58
2511 71.8799 4684.00 4726.57 68.44
2512 71.9061 4760.00 4726.83 68.99
2513 71.9324 4728.00 4727.50 68.76
2514 71.9586 4775.00 4728.54 69.10
2515 71.9849 4715.00 4730.14 68.67
2516 72.0112 4636.00 4732.71 68.09
2517 72.0374 4698.00 4737.21 68.54
2518 72.0637 4702.00 4746.20 68.57
2519 72.0899 4841.00 4765.09 69.58
2520 72.1162 4856.00 4799.80 69.68
2521 72.1425 4778.00 4839.55 69.12
2522 72.1687 4822.00 4835.87 69.44
2523 72.1950 4813.00 4797.81 69.38
2524 72.2212 4717.00 4771.80 68.68
2525 72.2475 4821.00 4765.39 69.43
2526 72.2738 4781.00 4777.60 69.14
2527 72.3000 4885.00 4810.27 69.89
2528 72.3263 4790.00 4854.63 69.21
2529 72.3525 4889.00 4871.36 69.92
2530 72.3788 4897.00 4851.61 69.98
2531 72.4051 4797.00 4826.57 69.26
2532 72.4313 4855.00 4798.47 69.68
2533 72.4576 4806.00 4772.73 69.33
2534 72.4838 4822.00 4762.28 69.44
2535 72.5101 4831.00 4766.34 69.51
2536 72.5364 4639.00 4774.78 68.11
2537 72.5626 4864.00 4770.57 69.74
2538 72.5889 4666.00 4762.45 68.31
2539 72.6151 4682.00 4759.20 68.43
2540 72.6414 4830.00 4751.03 69.50
2541 72.6677 4773.00 4740.94 69.09
2542 72.6939 4777.00 4735.82 69.12
2543 72.7202 4812.00 4736.18 69.37
2544 72.7464 4657.00 4741.81 68.24
2545 72.7727 4762.00 4751.81 69.01
2546 72.7990 4767.00 4764.82 69.04
2547 72.8252 4855.00 4787.05 69.68
2548 72.8515 4877.00 4808.21 69.84
2549 72.8777 4756.00 4794.16 68.96
2550 72.9040 4644.00 4764.50 68.15
2551 72.9303 4701.00 4746.22 68.56
2552 72.9565 4659.00 4739.88 68.26
2553 72.9828 4751.00 4740.69 68.93
2554 73.0090 4768.00 4745.20 69.05
2555 73.0353 4787.00 4755.44 69.19
2556 73.0616 4808.00 4765.71 69.34
2557 73.0878 4660.00 4759.15 68.26
2558 73.1141 4776.00 4745.86 69.11
2559 73.1403 4784.00 4739.92 69.17
2560 73.1666 4707.00 4743.67 68.61
2561 73.1929 4768.00 4757.76 69.05
2562 73.2191 4819.00 4777.30 69.42
2563 73.2454 4776.00 4780.19 69.11
2564 73.2716 4833.00 4764.96 69.52
2565 73.2979 4768.00 4755.93 69.05
2566 73.3242 4890.00 4760.68 69.93
2567 73.3504 4826.00 4784.52 69.47
2568 73.3767 4941.00 4838.86 70.29
2569 73.4029 4900.00 4926.70 70.00
2570 73.4292 5128.00 4982.17 71.61
2571 73.4555 5096.00 4923.11 71.39
2572 73.4817 4909.00 4836.71 70.06
2573 73.5080 4853.00 4784.31 69.66
2574 73.5342 4825.00 4762.50 69.46
2575 73.5605 4781.00 4761.21 69.14
2576 73.5868 4832.00 4778.63 69.51
2577 73.6130 4728.00 4813.94 68.76
2578 73.6393 4911.00 4837.84 70.08
2579 73.6655 4869.00 4810.52 69.78
2580 73.6918 4755.00 4770.62 68.96
2581 73.7181 4789.00 4743.85 69.20
2582 73.7443 4715.00 4728.74 68.67
2583 73.7706 4855.00 4720.72 69.68
2584 73.7968 4891.00 4716.22 69.94
2585 73.8231 4586.00 4713.58 67.72
2586 73.8494 4605.00 4712.00 67.86
2587 73.8756 4719.00 4711.38 68.69
2588 73.9019 4726.00 4711.16 68.75
2589 73.9281 4749.00 4710.14 68.91
2590 73.9544 4715.00 4708.61 68.67
2591 73.9807 4682.00 4707.59 68.43
2592 74.0069 4686.00 4707.21 68.45
2593 74.0332 4707.00 4707.46 68.61
2594 74.0594 4644.00 4708.31 68.15
2595 74.0857 4667.00 4709.14 68.32
2596 74.1120 4796.00 4709.08 69.25
2597 74.1382 4739.00 4709.09 68.84
2598 74.1645 4764.00 4710.00 69.02
2599 74.1907 4733.00 4712.00 68.80
2600 74.2170 4855.00 4715.80 69.68
2601 74.2433 4681.00 4722.82 68.42
2602 74.2695 4762.00 4737.06 69.01
2603 74.2958 4811.00 4766.16 69.36
2604 74.3220 5009.00 4817.46 70.77
2605 74.3483 4886.00 4872.56 69.90
2606 74.3746 4845.00 4861.51 69.61
2607 74.4008 4777.00 4802.22 69.12
2608 74.4271 4739.00 4758.66 68.84
2609 74.4533 4868.00 4737.85 69.77
2610 74.4796 4654.00 4732.28 68.22
2611 74.5059 4752.00 4738.64 68.93
2612 74.5321 4822.00 4758.23 69.44
2613 74.5584 4690.00 4785.47 68.48
2614 74.5846 4833.00 4787.86 69.52
2615 74.6109 4814.00 4759.35 69.38
2616 74.6372 4720.00 4734.91 68.70
2617 74.6634 4743.00 4722.89 68.87
2618 74.6897 4745.00 4720.44 68.88
2619 74.7159 4799.00 4726.42 69.27
2620 74.7422 4789.00 4742.27 69.20
2621 74.7685 4737.00 4763.20 68.83
2622 74.7947 4712.00 4764.81 68.64
2623 74.8210 4684.00 4744.57 68.44
2624 74.8472 4598.00 4729.65 67.81
2625 74.8735 4821.00 4727.72 69.43
2626 74.8998 4716.00 4738.29 68.67
2627 74.9260 4830.00 4754.86 69.50
2628 74.9523 4837.00 4758.31 69.55
2629 74.9785 4756.00 4751.51 68.96
2630 75.0048 4767.00 4742.99 69.04
2631 75.0311 4755.00 4727.12 68.96
2632 75.0573 4724.00 4714.29 68.73
2633 75.0836 4620.00 4709.00 67.97
2634 75.1098 4672.00 4710.44 68.35
2635 75.1361 4689.00 4716.03 68.48
2636 75.1624 4754.00 4716.61 68.95
2637 75.1886 4742.00 4707.96 68.86
2638 75.2149 4722.00 4699.61 68.72
2639 75.2411 4789.00 4694.56 69.20
2640 75.2674 4756.00 4691.78 68.96
2641 75.2937 4664.00 4690.12 68.29
2642 75.3199 4738.00 4688.96 68.83
2643 75.3462 4667.00 4688.07 68.32
2644 75.3724 4621.00 4687.34 67.98
2645 75.3987 4615.00 4686.71 67.93
2646 75.4250 4679.00 4686.14 68.40
2647 75.4512 4685.00 4685.64 68.45
2648 75.4775 4813.00 4685.17 69.38
2649 75.5037 4676.00 4684.73 68.38
2650 75.5300 4768.00 4684.31 69.05
2651 75.5563 4701.00 4683.92 68.56
2652 75.5825 4735.00 4683.53 68.81
2653 75.6088 4721.00 4683.17 68.71
2654 75.6350 4722.00 4682.81 68.72
2655 75.6613 4661.00 4682.46 68.27
2656 75.6876 4720.00 4682.12 68.70
2657 75.7138 4613.00 4681.61 67.92
2658 75.7401 4693.00 4681.29 68.51
2659 75.7663 4670.00 4680.98 68.34
2660 75.7926 4695.00 4680.67 68.52
2661 75.8189 4733.00 4680.38 68.80
2662 75.8451 4570.00 4680.09 67.60
2663 75.8714 4756.00 4679.80 68.96
2664 75.8976 4665.00 4679.53 68.30
2665 75.9239 4688.00 4679.18 68.47
2666 75.9502 4687.00 4678.94 68.46
2667 75.9764 4683.00 4678.72 68.43
2668 76.0027 4770.00 4678.54 69.07
2669 76.0289 4675.00 4678.40 68.37
2670 76.0552 4696.00 4678.34 68.53
2671 76.0815 4706.00 4678.41 68.60
2672 76.1077 4587.00 4678.96 67.73
2673 76.1340 4681.00 4679.90 68.42
2674 76.1602 4675.00 4682.18 68.37
2675 76.1865 4626.00 4686.27 68.01
2676 76.2128 4753.00 4690.16 68.94
2677 76.2390 4661.00 4688.36 68.27
2678 76.2653 4713.00 4683.34 68.65
2679 76.2915 4764.00 4679.69 69.02
2680 76.3178 4699.00 4677.94 68.55
2681 76.3441 4545.00 4677.25 67.42
2682 76.3703 4717.00 4677.46 68.68
2683 76.3966 4614.00 4678.78 67.93
2684 76.4228 4836.00 4681.04 69.54
2685 76.4491 4421.00 4681.99 66.49
2686 76.4754 4748.00 4679.97 68.91
2687 76.5016 4733.00 4677.12 68.80
2688 76.5279 4625.00 4675.00 68.01
2689 76.5542 4655.00 4673.76 68.23
2690 76.5804 4685.00 4673.04 68.45
2691 76.6067 4678.00 4672.56 68.40
2692 76.6329 4674.00 4672.24 68.37
2693 76.6592 4662.00 4672.08 68.28
2694 76.6854 4611.00 4672.00 67.90
2695 76.7117 4702.00 4671.69 68.57
2696 76.7380 4598.00 4671.22 67.81
2697 76.7642 4580.00 4670.75 67.68
2698 76.7905 4708.00 4670.38 68.61
2699 76.8167 4669.00 4670.09 68.33
2700 76.8430 4681.00 4669.84 68.42
2701 76.8693 4686.00 4669.62 68.45
2702 76.8955 4703.00 4669.42 68.58
2703 76.9218 4663.00 4669.24 68.29
2704 76.9480 4797.00 4669.09 69.26
2705 76.9743 4633.00 4669.04 68.07
2706 77.0005 4720.00 4668.95 68.70
2707 77.0268 4745.00 4668.90 68.88
2708 77.0531 4717.00 4668.89 68.68
2709 77.0794 4740.00 4668.94 68.85
2710 77.1056 4873.00 4669.06 69.81
2711 77.1319 4769.00 4669.27 69.06
2712 77.1581 4597.00 4669.61 67.80
2713 77.1844 4569.00 4670.11 67.59
2714 77.2106 4658.00 4670.85 68.25
2715 77.2369 4651.00 4671.92 68.20
2716 77.2632 4656.00 4673.48 68.23
2717 77.2894 4680.00 4675.80 68.41
2718 77.3157 4643.00 4679.41 68.14
2719 77.3419 4651.00 4685.50 68.20
2720 77.3682 4693.00 4696.94 68.51
2721 77.3945 4610.00 4719.93 67.90
2722 77.4207 4749.00 4762.94 68.91
2723 77.4470 4618.00 4822.85 67.96
2724 77.4732 4703.00 4845.51 68.58
2725 77.4995 4658.00 4797.10 68.25
2726 77.5257 4663.00 4744.41 68.29
2727 77.5520 4577.00 4714.69 67.65
2728 77.5783 4635.00 4703.55 68.08
2729 77.6046 4645.00 4704.50 68.15
2730 77.6308 4742.00 4716.17 68.86
2731 77.6571 4541.00 4741.21 67.39
2732 77.6833 4678.00 4774.85 68.40
2733 77.7096 4670.00 4784.53 68.34
2734 77.7358 4744.00 4762.49 68.88
2735 77.7621 4782.00 4728.77 69.15
2736 77.7884 4772.00 4702.22 69.08
2737 77.8146 4755.00 4687.65 68.96
2738 77.8409 4641.00 4680.81 68.12
2739 77.8671 4529.00 4677.73 67.30
2740 77.8934 4626.00 4677.48 68.01
2741 77.9197 4633.00 4680.85 68.07
2742 77.9459 4662.00 4687.00 68.28
2743 77.9722 4632.00 4689.34 68.06
2744 77.9984 4789.00 4685.69 69.20
2745 78.0247 4620.00 4685.23 67.97
2746 78.0509 4560.00 4693.59 67.53
2747 78.0772 4608.00 4713.59 67.88
2748 78.1035 4763.00 4738.88 69.01
2749 78.1298 4779.00 4740.00 69.13
2750 78.1560 4730.00 4715.39 68.78
2751 78.1823 4737.00 4693.04 68.83
2752 78.2085 4659.00 4679.65 68.26
2753 78.2348 4682.00 4673.64 68.43
2754 78.2610 4629.00 4672.98 68.04
2755 78.2873 4650.00 4677.54 68.19
2756 78.3136 4684.00 4687.89 68.44
2757 78.3398 4653.00 4698.73 68.21
2758 78.3661 4596.00 4695.03 67.79
2759 78.3923 4580.00 4681.82 67.68
2760 78.4186 4655.00 4671.21 68.23
2761 78.4449 4606.00 4664.91 67.87
2762 78.4711 4724.00 4661.72 68.73
2763 78.4974 4500.00 4660.28 67.08
2764 78.5236 4726.00 4659.91 68.75
2765 78.5499 4708.00 4660.35 68.61
2766 78.5762 4687.00 4661.73 68.46
2767 78.6024 4660.00 4664.57 68.26
2768 78.6287 4645.00 4670.24 68.15
2769 78.6550 4737.00 4681.92 68.83
2770 78.6812 4651.00 4704.81 68.20
2771 78.7075 4647.00 4741.60 68.17
2772 78.7337 4538.00 4771.20 67.36
2773 78.7600 4697.00 4753.60 68.53
2774 78.7862 4737.00 4716.75 68.83
2775 78.8125 4737.00 4691.00 68.83
2776 78.8388 4739.00 4676.97 68.84
2777 78.8650 4693.00 4671.39 68.51
2778 78.8913 4797.00 4672.97 69.26
2779 78.9175 4664.00 4682.22 68.29
2780 78.9438 4676.00 4698.98 68.38
2781 78.9701 4638.00 4710.25 68.10
2782 78.9963 4745.00 4698.00 68.88
2783 79.0226 4641.00 4678.94 68.12
2784 79.0488 4619.00 4665.78 67.96
2785 79.0751 4576.00 4657.97 67.65
2786 79.1014 4518.00 4653.51 67.22
2787 79.1276 4625.00 4650.92 68.01
2788 79.1539 4655.00 4649.32 68.23
2789 79.1802 4575.00 4648.24 67.64
2790 79.2064 4583.00 4647.54 67.70
2791 79.2327 4651.00 4647.06 68.20
2792 79.2589 4614.00 4646.79 67.93
2793 79.2852 4705.00 4646.76 68.59
2794 79.3114 4617.00 4646.94 67.95
2795 79.3377 4594.00 4647.41 67.78
2796 79.3640 4629.00 4648.24 68.04
2797 79.3902 4677.00 4649.68 68.39
2798 79.4165 4810.00 4652.04 69.35
2799 79.4427 4596.00 4656.10 67.79
2800 79.4690 4628.00 4663.73 68.03
2801 79.4953 4633.00 4678.95 68.07
2802 79.5215 4614.00 4707.59 67.93
2803 79.5478 4678.00 4750.53 68.40
2804 79.5740 4695.00 4776.66 68.52
2805 79.6003 4708.00 4748.29 68.61
2806 79.6266 4677.00 4706.40 68.39
2807 79.6528 4685.00 4679.67 68.45
2808 79.6791 4748.00 4666.83 68.91
2809 79.7054 4729.00 4662.98 68.77
2810 79.7316 4701.00 4666.21 68.56
2811 79.7579 4704.00 4677.64 68.59
2812 79.7841 4608.00 4697.16 67.88
2813 79.8104 4732.00 4709.57 68.79
2814 79.8366 4809.00 4695.76 69.35
2815 79.8629 4658.00 4675.79 68.25
2816 79.8892 4779.00 4664.89 69.13
2817 79.9154 4661.00 4662.39 68.27
2818 79.9417 4662.00 4660.99 68.28
2819 79.9679 4638.00 4654.46 68.10
2820 79.9942 4584.00 4647.45 67.71
2821 80.0205 4627.00 4642.92 68.02
2822 80.0467 4645.00 4640.43 68.15
2823 80.0730 4521.00 4639.48 67.24
2824 80.0992 4651.00 4639.40 68.20
2825 80.1255 4515.00 4640.51 67.19
2826 80.1518 4699.00 4642.66 68.55
2827 80.1780 4664.00 4644.14 68.29
2828 80.2043 4697.00 4642.42 68.53
2829 80.2306 4736.00 4640.11 68.82
2830 80.2568 4709.00 4639.35 68.62
2831 80.2831 4642.00 4640.42 68.13
2832 80.3093 4584.00 4644.12 67.71
2833 80.3356 4670.00 4651.98 68.34
2834 80.3618 4759.00 4664.85 68.99
2835 80.3881 4654.00 4676.13 68.22
2836 80.4144 4626.00 4674.38 68.01
2837 80.4406 4801.00 4668.98 69.29
2838 80.4669 4604.00 4664.99 67.85
2839 80.4931 4630.00 4656.10 68.04
2840 80.5194 4583.00 4647.25 67.70
2841 80.5457 4534.00 4642.83 67.33
2842 80.5719 4670.00 4642.97 68.34
2843 80.5982 4560.00 4647.11 67.53
2844 80.6244 4594.00 4652.14 67.78
2845 80.6507 4598.00 4651.43 67.81
2846 80.6770 4660.00 4648.05 68.26
2847 80.7032 4641.00 4645.90 68.12
2848 80.7295 4593.00 4641.84 67.77
2849 80.7557 4743.00 4637.58 68.87
2850 80.7820 4681.00 4635.82 68.42
2851 80.8083 4698.00 4635.80 68.54
2852 80.8345 4699.00 4634.45 68.55
2853 80.8608 4699.00 4631.59 68.55
2854 80.8870 4558.00 4629.41 67.51
2855 80.9133 4762.00 4627.86 69.01
2856 80.9396 4619.00 4627.00 67.96
2857 80.9658 4656.00 4626.48 68.23
2858 80.9921 4603.00 4626.50 67.85
2859 81.0183 4631.00 4626.96 68.05
2860 81.0446 4586.00 4627.93 67.72
2861 81.0709 4593.00 4628.17 67.77
2862 81.0971 4611.00 4627.32 67.90
2863 81.1234 4729.00 4626.63 68.77
2864 81.1496 4723.00 4626.55 68.72
2865 81.1759 4614.00 4626.89 67.93
2866 81.2022 4524.00 4627.92 67.26
2867 81.2284 4559.00 4629.85 67.52
2868 81.2547 4630.00 4632.20 68.04
2869 81.2809 4641.00 4634.53 68.12
2870 81.3072 4653.00 4637.92 68.21
2871 81.3335 4574.00 4644.92 67.63
2872 81.3597 4617.00 4659.31 67.95
2873 81.3860 4598.00 4687.21 67.81
2874 81.4122 4560.00 4733.18 67.53
2875 81.4385 4632.00 4778.03 68.06
2876 81.4648 4640.00 4766.71 68.12
2877 81.4910 4659.00 4717.31 68.26
2878 81.5173 4585.00 4678.61 67.71
2879 81.5435 4756.00 4657.28 68.96
2880 81.5698 4595.00 4648.15 67.79
2881 81.5961 4523.00 4647.36 67.25
2882 81.6223 4524.00 4654.71 67.26
2883 81.6486 4585.00 4671.97 67.71
2884 81.6748 4693.00 4694.95 68.51
2885 81.7011 4591.00 4698.72 67.76
2886 81.7274 4615.00 4675.39 67.93
2887 81.7536 4548.00 4652.15 67.44
2888 81.7799 4623.00 4637.95 67.99
2889 81.8061 4579.00 4630.42 67.67
2890 81.8324 4544.00 4626.49 67.41
2891 81.8587 4556.00 4624.44 67.50
2892 81.8849 4434.00 4623.51 66.59
2893 81.9112 4692.00 4623.33 68.50
2894 81.9374 4502.00 4623.99 67.10
2895 81.9637 4587.00 4625.69 67.73
2896 81.9900 4731.00 4629.04 68.78
2897 82.0162 4607.00 4635.43 67.87
2898 82.0425 4558.00 4647.63 67.51
2899 82.0687 4633.00 4668.94 68.07
2900 82.0950 4721.00 4699.34 68.71
2901 82.1213 4628.00 4731.38 68.03
2902 82.1475 4619.00 4735.40 67.96
2903 82.1738 4627.00 4701.81 68.02
2904 82.2000 4739.00 4669.46 68.84
2905 82.2263 4561.00 4651.76 67.54
2906 82.2526 4585.00 4646.44 67.71
2907 82.2788 4638.00 4651.55 68.10
2908 82.3051 4679.00 4668.05 68.40
2909 82.3313 4642.00 4694.61 68.13
2910 82.3576 4769.00 4715.50 69.06
2911 82.3839 4767.00 4712.51 69.04
2912 82.4101 4710.00 4686.44 68.63
2913 82.4364 4682.00 4658.06 68.43
2914 82.4626 4506.00 4640.11 67.13
2915 82.4889 4574.00 4631.22 67.63
2916 82.5152 4665.00 4628.37 68.30
2917 82.5414 4680.00 4630.30 68.41
2918 82.5677 4690.00 4636.72 68.48
2919 82.5939 4539.00 4644.54 67.37
2920 82.6202 4587.00 4646.74 67.73
2921 82.6465 4539.00 4648.60 67.37
2922 82.6727 4674.00 4657.76 68.37
2923 82.6990 4619.00 4665.46 67.96
2924 82.7252 4620.00 4655.06 67.97
2925 82.7515 4640.00 4637.71 68.12
2926 82.7778 4484.00 4625.79 66.96
2927 82.8040 4575.00 4619.78 67.64
2928 82.8303 4468.00 4617.80 66.84
2929 82.8565 4668.00 4618.46 68.32
2930 82.8828 4705.00 4621.53 68.59
2931 82.9091 4640.00 4627.49 68.12
2932 82.9353 4630.00 4634.49 68.04
2933 82.9616 4575.00 4635.01 67.64
2934 82.9878 4711.00 4628.07 68.64
2935 83.0141 4699.00 4623.17 68.55
2936 83.0404 4666.00 4624.35 68.31
2937 83.0666 4563.00 4631.79 67.55
2938 83.0929 4698.00 4640.71 68.54
2939 83.1191 4660.00 4638.06 68.26
2940 83.1454 4610.00 4626.78 67.90
2941 83.1717 4670.00 4617.39 68.34
2942 83.1979 4600.00 4611.58 67.82
2943 83.2242 4528.00 4608.59 67.29
2944 83.2504 4588.00 4607.71 67.73
2945 83.2767 4580.00 4608.74 67.68
2946 83.3030 4570.00 4612.06 67.60
2947 83.3292 4510.00 4617.47 67.16
2948 83.3555 4651.00 4621.13 68.20
2949 83.3817 4515.00 4618.79 67.19
2950 83.4080 4517.00 4615.89 67.21
2951 83.4343 4640.00 4617.25 68.12
2952 83.4605 4663.00 4625.04 68.29
2953 83.4868 4531.00 4640.87 67.31
2954 83.5130 4596.00 4660.39 67.79
2955 83.5393 4733.00 4662.66 68.80
2956 83.5656 4507.00 4643.54 67.13
2957 83.5918 4582.00 4625.03 67.69
2958 83.6181 4603.00 4613.83 67.85
2959 83.6443 4639.00 4608.44 68.11
2960 83.6706 4672.00 4606.71 68.35
2961 83.6969 4666.00 4607.97 68.31
2962 83.7231 4570.00 4612.79 67.60
2963 83.7494 4573.00 4621.64 67.62
2964 83.7756 4595.00 4630.05 67.79
2965 83.8019 4563.00 4627.56 67.55
2966 83.8282 4619.00 4618.98 67.96
2967 83.8544 4575.00 4614.14 67.64
2968 83.8807 4583.00 4612.83 67.70
2969 83.9069 4644.00 4609.60 68.15
2970 83.9332 4588.00 4604.23 67.73
2971 83.9595 4613.00 4600.14 67.92
2972 83.9857 4546.00 4597.85 67.42
2973 84.0120 4535.00 4596.90 67.34
2974 84.0382 4536.00 4596.98 67.35
2975 84.0645 4580.00 4598.20 67.68
2976 84.0908 4620.00 4601.05 67.97
2977 84.1170 4607.00 4606.34 67.87
2978 84.1433 4629.00 4612.35 68.04
2979 84.1695 4615.00 4614.48 67.93
2980 84.1958 4803.00 4611.97 69.30
2981 84.2221 4682.00 4611.13 68.43
2982 84.2483 4599.00 4616.04 67.82
2983 84.2746 4625.00 4629.51 68.01
2984 84.3008 4493.00 4653.48 67.03
2985 84.3271 4572.00 4679.24 67.62
2986 84.3534 4673.00 4677.67 68.36
2987 84.3796 4589.00 4652.43 67.74
2988 84.4059 4692.00 4631.26 68.50
2989 84.4321 4621.00 4618.66 67.98
2990 84.4584 4543.00 4611.69 67.40
2991 84.4847 4603.00 4610.27 67.85
2992 84.5109 4684.00 4614.30 68.44
2993 84.5372 4652.00 4622.27 68.21
2994 84.5634 4695.00 4631.66 68.52
2995 84.5897 4703.00 4638.60 68.58
2996 84.6160 4541.00 4630.98 67.39
2997 84.6422 4664.00 4615.27 68.29
2998 84.6685 4582.00 4603.38 67.69
2999 84.6947 4487.00 4596.57 66.99
3000 84.7210 4651.00 4593.22 68.20
3001 84.7473 4588.00 4592.06 67.73
3002 84.7735 4612.00 4592.17 67.91
3003 84.7998 4629.00 4591.89 68.04
3004 84.8260 4526.00 4590.03 67.28
3005 84.8523 4647.00 4588.10 68.17
3006 84.8786 4572.00 4587.09 67.62
3007 84.9048 4619.00 4587.10 67.96
3008 84.9311 4531.00 4588.18 67.31
3009 84.9573 4642.00 4589.92 68.13
3010 84.9836 4523.00 4590.32 67.25
3011 85.0099 4654.00 4588.46 68.22
3012 85.0361 4615.00 4586.43 67.93
3013 85.0624 4687.00 4585.32 68.46
3014 85.0886 4596.00 4585.04 67.79
3015 85.1149 4532.00 4585.29 67.32
3016 85.1412 4529.00 4586.08 67.30
3017 85.1674 4555.00 4587.56 67.49
3018 85.1937 4619.00 4589.98 67.96
3019 85.2199 4567.00 4593.47 67.58
3020 85.2462 4496.00 4597.72 67.05
3021 85.2725 4595.00 4603.90 67.79
3022 85.2987 4598.00 4616.09 67.81
3023 85.3250 4610.00 4639.44 67.90
3024 85.3512 4658.00 4676.70 68.25
3025 85.3775 4624.00 4711.51 68.00
3026 85.4038 4621.00 4702.61 67.98
3027 85.4300 4712.00 4663.41 68.64
3028 85.4563 4612.00 4631.75 67.91
3029 85.4825 4618.00 4614.04 67.96
3030 85.5088 4631.00 4606.41 68.05
3031 85.5351 4570.00 4605.77 67.60
3032 85.5613 4644.00 4611.98 68.15
3033 85.5876 4655.00 4627.18 68.23
3034 85.6139 4688.00 4652.83 68.47
3035 85.6401 4596.00 4676.70 67.79
3036 85.6664 4570.00 4669.15 67.60
3037 85.6926 4675.00 4640.65 68.37
3038 85.7189 4573.00 4618.31 67.62
3039 85.7451 4636.00 4607.01 68.09
3040 85.7714 4639.00 4604.88 68.11
3041 85.7977 4790.00 4610.47 69.21
3042 85.8239 4462.00 4621.47 66.80
3043 85.8502 4702.00 4627.55 68.57
3044 85.8764 4526.00 4621.19 67.28
3045 85.9027 4672.00 4612.36 68.35
3046 85.9290 4711.00 4602.95 68.64
3047 85.9552 4659.00 4594.07 68.26
3048 85.9815 4556.00 4588.73 67.50
3049 86.0077 4551.00 4587.14 67.46
3050 86.0340 4607.00 4588.99 67.87
3051 86.0602 4600.00 4593.68 67.82
3052 86.0865 4693.00 4598.50 68.51
3053 86.1128 4560.00 4598.87 67.53
3054 86.1391 4611.00 4592.33 67.90
3055 86.1653 4486.00 4584.83 66.98
3056 86.1916 4617.00 4579.81 67.95
3057 86.2178 4593.00 4576.99 67.77
3058 86.2441 4591.00 4575.60 67.76
3059 86.2703 4639.00 4575.15 68.11
3060 86.2966 4695.00 4575.44 68.52
3061 86.3229 4734.00 4576.11 68.80
3062 86.3491 4731.00 4576.15 68.78
3063 86.3754 4566.00 4575.45 67.57
3064 86.4016 4678.00 4575.04 68.40
3065 86.4279 4687.00 4575.34 68.46
3066 86.4542 4574.00 4576.42 67.63
3067 86.4804 4753.00 4578.49 68.94
3068 86.5067 4517.00 4582.16 67.21
3069 86.5329 4570.00 4588.85 67.60
3070 86.5592 4662.00 4601.04 68.28
3071 86.5854 4612.00 4621.69 67.91
3072 86.6117 4616.00 4648.93 67.94
3073 86.6380 4699.00 4664.07 68.55
3074 86.6643 4714.00 4657.63 68.66
3075 86.6905 4549.00 4645.83 67.45
3076 86.7168 4633.00 4628.32 68.07
3077 86.7430 4544.00 4611.56 67.41
3078 86.7693 4612.00 4603.56 67.91
3079 86.7955 4586.00 4604.99 67.72
3080 86.8218 4632.00 4613.99 68.06
3081 86.8481 4661.00 4623.65 68.27
3082 86.8743 4613.00 4628.53 67.92
3083 86.9006 4536.00 4628.80 67.35
3084 86.9268 4503.00 4620.49 67.10
3085 86.9531 4699.00 4610.87 68.55
3086 86.9794 4601.00 4600.23 67.83
3087 87.0056 4554.00 4589.33 67.48
3088 87.0319 4611.00 4582.43 67.90
3089 87.0581 4618.00 4579.96 67.96
3090 87.0844 4670.00 4580.73 68.34
3091 87.1106 4539.00 4581.32 67.37
3092 87.1369 4661.00 4577.67 68.27
3093 87.1632 4646.00 4572.40 68.16
3094 87.1895 4626.00 4568.33 68.01
3095 87.2157 4490.00 4565.80 67.01
3096 87.2420 4793.00 4564.19 69.23
3097 87.2682 4695.00 4563.09 68.52
3098 87.2945 4552.00 4562.27 67.47
3099 87.3207 4578.00 4561.62 67.66
3100 87.3470 4554.00 4561.07 67.48
3101 87.3733 4650.00 4560.59 68.19
3102 87.3995 4605.00 4560.12 67.86
3103 87.4258 4648.00 4559.75 68.18
3104 87.4520 4585.00 4559.40 67.71
3105 87.4783 4501.00 4559.06 67.09
3106 87.5046 4699.00 4558.76 68.55
3107 87.5308 4567.00 4558.48 67.58
3108 87.5571 4473.00 4558.21 66.88
3109 87.5833 4503.00 4557.95 67.10
3110 87.6096 4546.00 4557.71 67.42
3111 87.6358 4636.00 4557.46 68.09
3112 87.6621 4628.00 4557.21 68.03
3113 87.6884 4523.00 4556.99 67.25
3114 87.7147 4609.00 4556.78 67.89
3115 87.7409 4630.00 4556.57 68.04
3116 87.7672 4530.00 4556.37 67.31
3117 87.7934 4541.00 4556.28 67.39
3118 87.8197 4571.00 4556.11 67.61
3119 87.8459 4488.00 4555.94 66.99
3120 87.8722 4759.00 4555.80 68.99
3121 87.8985 4577.00 4555.69 67.65
3122 87.9247 4520.00 4555.73 67.23
3123 87.9510 4471.00 4555.77 66.87
3124 87.9772 4652.00 4556.12 68.21
3125 88.0035 4506.00 4556.07 67.13
3126 88.0298 4538.00 4555.73 67.36
3127 88.0560 4547.00 4555.35 67.43
3128 88.0823 4488.00 4555.07 66.99
3129 88.1085 4594.00 4554.87 67.78
3130 88.1348 4581.00 4554.74 67.68
3131 88.1610 4580.00 4554.66 67.68
3132 88.1873 4514.00 4554.65 67.19
3133 88.2136 4525.00 4554.64 67.27
3134 88.2399 4532.00 4554.90 67.32
3135 88.2661 4621.00 4555.18 67.98
3136 88.2924 4518.00 4555.55 67.22
3137 88.3186 4599.00 4555.99 67.82
3138 88.3449 4571.00 4556.33 67.61
3139 88.3711 4617.00 4556.67 67.95
3140 88.3974 4558.00 4557.66 67.51
3141 88.4237 4700.00 4559.57 68.56
3142 88.4499 4647.00 4561.29 68.17
3143 88.4762 4597.00 4560.57 67.80
3144 88.5024 4642.00 4558.35 68.13
3145 88.5287 4560.00 4556.60 67.53
3146 88.5550 4539.00 4555.76 67.37
3147 88.5812 4590.00 4555.63 67.75
3148 88.6075 4676.00 4555.98 68.38
3149 88.6337 4537.00 4556.40 67.36
3150 88.6600 4625.00 4557.11 68.01
3151 88.6862 4502.00 4558.66 67.10
3152 88.7125 4485.00 4561.29 66.97
3153 88.7388 4723.00 4563.74 68.72
3154 88.7651 4600.00 4563.61 67.82
3155 88.7913 4702.00 4561.07 68.57
3156 88.8176 4697.00 4558.68 68.53
3157 88.8438 4552.00 4557.39 67.47
3158 88.8701 4530.00 4557.27 67.31
3159 88.8963 4657.00 4557.61 68.24
3160 88.9226 4557.00 4558.46 67.51
3161 88.9489 4525.00 4559.92 67.27
3162 88.9751 4609.00 4562.38 67.89
3163 89.0014 4597.00 4566.45 67.80
3164 89.0276 4606.00 4572.72 67.87
3165 89.0539 4539.00 4581.76 67.37
3166 89.0802 4479.00 4594.90 66.93
3167 89.1064 4581.00 4608.83 67.68
3168 89.1327 4577.00 4610.67 67.65
3169 89.1589 4710.00 4602.16 68.63
3170 89.1852 4614.00 4597.89 67.93
3171 89.2115 4571.00 4604.08 67.61
3172 89.2377 4562.00 4623.19 67.54
3173 89.2640 4642.00 4656.30 68.13
3174 89.2903 4656.00 4692.94 68.23
3175 89.3165 4674.00 4696.61 68.37
3176 89.3428 4734.00 4665.41 68.80
3177 89.3690 4698.00 4637.15 68.54
3178 89.3953 4617.00 4620.34 67.95
3179 89.4215 4562.00 4606.54 67.54
3180 89.4478 4607.00 4596.56 67.87
3181 89.4741 4577.00 4594.46 67.65
3182 89.5003 4457.00 4601.82 66.76
3183 89.5266 4642.00 4619.52 68.13
3184 89.5528 4672.00 4643.78 68.35
3185 89.5791 4705.00 4656.58 68.59
3186 89.6054 4740.00 4641.25 68.85
3187 89.6316 4744.00 4614.59 68.88
3188 89.6579 4571.00 4595.45 67.61
3189 89.6841 4549.00 4586.51 67.45
3190 89.7104 4527.00 4585.89 67.28
3191 89.7367 4512.00 4590.88 67.17
3192 89.7629 4741.00 4594.95 68.85
3193 89.7892 4556.00 4592.81 67.50
3194 89.8154 4568.00 4590.73 67.59
3195 89.8417 4566.00 4591.85 67.57
3196 89.8680 4605.00 4593.64 67.86
3197 89.8942 4665.00 4598.85 68.30
3198 89.9205 4685.00 4607.85 68.45
3199 89.9467 4495.00 4609.17 67.04
3200 89.9730 4616.00 4599.31 67.94
3201 89.9993 4581.00 4590.75 67.68
3202 90.0255 4499.00 4588.14 67.07
3203 90.0518 4583.00 4588.02 67.70
3204 90.0780 4509.00 4588.70 67.15
3205 90.1043 4715.00 4595.18 68.67
3206 90.1306 4522.00 4612.54 67.25
3207 90.1568 4669.00 4643.76 68.33
3208 90.1831 4654.00 4680.81 68.22
3209 90.2093 4608.00 4690.07 67.88
3210 90.2356 4587.00 4659.64 67.73
3211 90.2619 4621.00 4622.13 67.98
3212 90.2881 4543.00 4595.90 67.40
3213 90.3144 4483.00 4580.98 66.96
3214 90.3406 4703.00 4573.68 68.58
3215 90.3669 4586.00 4571.45 67.72
3216 90.3932 4477.00 4573.73 66.91
3217 90.4194 4561.00 4581.36 67.54
3218 90.4457 4575.00 4594.99 67.64
3219 90.4719 4570.00 4609.10 67.60
3220 90.4982 4511.00 4607.65 67.16
3221 90.5245 4557.00 4591.41 67.51
3222 90.5507 4568.00 4576.08 67.59
3223 90.5770 4591.00 4566.35 67.76
3224 90.6032 4568.00 4561.09 67.59
3225 90.6295 4609.00 4558.81 67.89
3226 90.6558 4574.00 4558.69 67.63
3227 90.6820 4554.00 4560.80 67.48
3228 90.7083 4502.00 4565.53 67.10
3229 90.7345 4652.00 4571.96 68.21
3230 90.7608 4706.00 4574.89 68.60
3231 90.7871 4491.00 4570.65 67.01
3232 90.8133 4502.00 4565.35 67.10
3233 90.8396 4521.00 4563.33 67.24
3234 90.8658 4611.00 4565.58 67.90
3235 90.8921 4762.00 4572.48 69.01
3236 90.9184 4650.00 4582.60 68.19
3237 90.9446 4625.00 4588.30 68.01
loop_
_refln_index_h
_refln_index_k
_refln_index_l
_refln_F_squared_calc
_refln_F_squared_meas
_refln_F_squared_sigma
_refln_observed_status
_refln_d_spacing
1 0 0 1191.22 966.66 42.90 o 7.221714
0 0 2 3.89 1.87 9.46 < 6.870961
1 0 1 2573.46 2331.89 57.76 o 6.392710
1 0 2 9910.45 10032.13 233.92 o 4.977885
2 -1 0 5979.34 6387.93 196.77 o 4.169459
1 0 3 413.51 475.44 64.80 o 3.868144
2 0 0 376.19 386.77 117.56 o 3.610857
2 -1 2 2535.36 2482.76 83.18 o 3.564507
1 1 2 5064.25 4959.19 165.99 o 3.564507
2 0 1 310.66 508.35 83.02 o 3.492308
0 0 4 1238.61 1158.56 356.08 o 3.435480
2 0 2 1500.26 1707.39 105.82 o 3.196355
1 0 4 89.48 20.83 54.67 < 3.102331
2 0 3 1907.68 2118.36 127.85 o 2.835736
3 -1 0 7.36 3.82 18.60 < 2.729551
2 1 1 317.63 274.02 39.24 o 2.677249
3 -1 1 382.18 329.71 54.21 o 2.677249
1 1 4 3055.02 2943.02 138.90 o 2.651386
2 -1 4 4137.43 3985.75 189.13 o 2.651386
1 0 5 0.01 0.01 0.64 < 2.568656
3 -1 2 1572.89 1501.72 123.77 o 2.536715
2 1 2 102.09 97.47 7.95 o 2.536715
2 0 4 514.91 636.55 109.24 o 2.488943
3 0 0 1763.16 1556.56 254.26 o 2.407238
3 0 1 8.97 6.41 22.51 < 2.371133
2 1 3 1718.15 1948.78 163.64 o 2.344813
3 -1 3 23.43 26.57 3.15 o 2.344813
0 0 6 271.28 255.29 628.91 < 2.290320
3 0 2 34.45 18.95 27.13 < 2.271844
2 0 5 805.40 948.25 157.27 o 2.186953
1 0 6 49.32 61.01 9.59 o 2.183159
2 1 4 299.52 328.40 33.79 o 2.137124
3 -1 4 1349.87 1480.05 144.55 o 2.137124
3 0 3 7.91 7.77 1.21 o 2.130903
4 -2 0 1128.04 911.20 286.44 o 2.084729
2 -1 6 79.03 92.67 246.13 < 2.007401
1 1 6 0.76 0.89 2.38 < 2.007401
4 -1 0 11.26 20.94 22.06 < 2.002943
2 2 2 823.66 1001.50 222.59 o 1.994925
4 -2 2 476.48 579.37 128.94 o 1.994925
3 1 1 166.20 238.83 91.90 o 1.982001
4 -1 1 166.43 239.17 91.68 o 1.982001
3 0 4 1101.56 1289.59 190.10 o 1.971439
3 -1 5 286.87 244.08 33.16 o 1.936708
2 1 5 360.14 306.42 41.88 o 1.936708
2 0 6 1130.58 964.15 114.91 o 1.934072
3 1 2 438.51 458.46 71.88 o 1.922907
4 -1 2 616.54 644.58 101.95 o 1.922907
1 0 7 23.58 51.79 52.75 < 1.894385
4 -1 3 36.55 24.73 31.12 < 1.835171
3 1 3 132.23 89.47 115.75 < 1.835171
3 0 5 1.59 0.51 8.34 < 1.810847
4 0 0 47.37 37.40 100.21 < 1.805429
4 0 1 68.29 119.42 244.23 < 1.790046
2 2 4 285.06 259.42 106.15 o 1.782253
4 -2 4 610.77 555.83 230.87 o 1.782253
3 -1 6 879.54 809.03 115.03 o 1.754501
2 1 6 633.82 583.01 82.38 o 1.754501
4 0 2 511.43 499.87 146.40 o 1.746154
3 1 4 9.09 6.20 12.29 < 1.730338
4 -1 4 132.08 90.07 147.44 < 1.730338
2 0 7 2.81 2.43 5.67 < 1.724713
0 0 8 240.22 39.98 349.89 < 1.717740
4 0 3 157.48 135.88 195.76 < 1.679669
1 0 8 1.02 1.63 2.94 < 1.671118
3 0 6 0.41 0.01 1.32 < 1.659295
5 -2 0 4.45 2.23 21.88 < 1.656775
3 2 1 12.75 2.27 35.19 < 1.644863
5 -2 1 14.91 2.66 41.32 < 1.644863
4 -1 5 9.23 10.63 15.44 < 1.618698
3 1 5 114.95 132.42 195.83 < 1.618698
3 2 2 96.46 85.56 73.39 o 1.610614
5 -2 2 146.41 129.87 112.22 o 1.610614
4 0 4 55.98 55.48 148.95 < 1.598178
2 1 7 15.33 15.77 10.27 o 1.593742
3 -1 7 215.82 221.92 151.30 o 1.593742
2 -1 8 232.38 213.14 129.48 o 1.588235
1 1 8 231.73 212.54 129.02 o 1.588235
5 -1 0 882.69 917.49 209.03 o 1.575907
4 1 1 3.77 2.64 9.51 < 1.565646
5 -1 1 7.62 5.34 19.21 < 1.565646
3 2 3 39.94 17.18 73.12 < 1.557997
5 -2 3 55.08 23.70 101.73 < 1.557997
2 0 8 6.32 7.17 14.79 < 1.551166
2 2 6 4.63 20.53 96.05 < 1.541697
4 -2 6 1.78 7.88 36.69 < 1.541697
5 -1 2 15.37 8.92 40.73 < 1.536024
4 1 2 15.55 9.03 41.58 < 1.536024
3 0 7 0.26 0.39 6.51 < 1.521369
4 0 5 10.18 11.34 7.23 o 1.508971
4 -1 6 199.72 223.93 143.72 o 1.507723
3 1 6 79.88 89.57 56.46 o 1.507723
1 0 9 132.60 82.23 146.43 < 1.493856
3 2 4 18.37 11.53 18.87 < 1.492306
5 -2 4 15.44 9.69 15.79 < 1.492306
4 1 3 2.06 1.32 4.00 < 1.490183
5 -1 3 0.05 0.03 0.10 < 1.490183
2 1 8 174.33 130.13 160.68 o 1.453816
3 -1 8 1.45 1.08 1.76 o 1.453816
5 0 0 16.84 11.32 81.77 < 1.444343
5 0 1 84.92 96.90 120.81 o 1.436430
5 -1 4 51.06 58.03 67.39 o 1.432395
4 1 4 60.99 69.31 80.59 o 1.432395
5 -2 5 46.14 53.81 79.37 o 1.418906
3 2 5 23.11 26.95 39.26 o 1.418906
4 0 6 3.79 4.55 7.33 o 1.417868
5 0 2 228.58 203.64 169.45 o 1.413452
2 0 9 34.75 24.60 137.62 < 1.406317
4 -1 7 27.38 26.12 78.32 < 1.402007
3 1 7 22.28 21.25 63.28 < 1.402007
3 0 8 112.44 76.90 131.50 o 1.398254
6 -3 0 19.92 10.70 139.29 < 1.389820
5 0 3 22.57 52.29 199.70 < 1.377488
0 0 10 34.50 95.70 123.34 o 1.374192
5 -1 5 0.00 0.00 0.01 < 1.367112
4 1 5 1.88 1.53 10.88 < 1.367112
6 -2 0 1.87 1.22 14.81 < 1.364776
3 3 2 13.58 25.61 67.06 < 1.362231
6 -3 2 46.61 87.92 228.29 < 1.362231
6 -2 1 2.14 4.06 13.98 < 1.358094
4 2 1 3.26 6.18 20.67 < 1.358094
1 0 10 28.64 62.56 224.11 < 1.349969
3 2 6 73.66 78.12 100.08 o 1.342374
5 -2 6 55.63 59.00 75.19 o 1.342374
6 -2 2 44.51 43.55 47.03 o 1.338624
4 2 2 57.04 55.82 60.67 o 1.338624
2 1 9 17.74 4.87 32.25 < 1.332559
3 -1 9 56.05 15.38 104.75 < 1.332559
5 0 4 1.13 0.34 1.96 < 1.331459
4 0 7 0.31 0.13 1.99 < 1.328891
2 2 8 140.97 110.26 158.18 o 1.325693
4 -2 8 144.76 113.23 162.48 o 1.325693
6 -2 3 35.46 28.18 103.91 < 1.307956
4 2 3 15.21 12.09 43.72 < 1.307956
2 -1 10 5.66 5.33 13.13 < 1.305133
1 1 10 57.11 53.73 133.50 < 1.305133
4 -1 8 0.70 0.68 1.55 < 1.303906
3 1 8 19.43 18.77 45.31 < 1.303906
5 -1 6 0.83 0.89 3.55 < 1.298266
4 1 6 4.18 4.48 17.85 < 1.298266
6 -1 0 34.09 31.99 149.05 < 1.297058
5 1 1 2.77 3.54 10.77 < 1.291319
6 -1 1 20.47 26.18 81.18 < 1.291319
3 0 9 0.00 0.01 0.01 o 1.289381
6 -3 4 84.58 113.40 159.96 o 1.288384
3 3 4 110.27 147.86 209.87 o 1.288384
2 0 10 1.73 1.64 6.90 < 1.284328
5 0 5 1.02 1.49 11.09 < 1.278542
6 -1 2 21.61 21.71 53.44 < 1.274547
5 1 2 46.83 47.04 117.55 < 1.274547
6 -2 4 0.11 0.06 0.89 < 1.268358
4 2 4 23.13 12.94 99.65 < 1.268358
3 2 7 9.90 10.39 56.42 < 1.266137
5 -2 7 8.81 9.24 50.01 < 1.266137
6 -1 3 4.45 2.88 57.66 < 1.247991
5 1 3 0.59 0.38 8.47 < 1.247991
4 0 8 0.23 1.52 18.35 < 1.244471
1 0 11 54.64 10.91 131.30 < 1.230983
5 -1 7 1.06 0.24 3.35 < 1.228925
4 1 7 0.00 0.00 0.00 < 1.228925
2 1 10 12.33 5.14 44.25 < 1.227416
3 -1 10 0.02 0.01 0.48 < 1.227416
6 -2 5 18.66 20.97 95.47 < 1.222363
4 2 5 6.12 6.88 30.62 < 1.222363
5 0 6 0.03 0.03 0.95 < 1.221699
3 1 9 4.21 1.58 18.20 < 1.214287
4 -1 9 29.85 11.23 134.20 < 1.214287
6 -1 4 0.86 0.32 3.70 < 1.213454
5 1 4 0.39 0.15 1.70 < 1.213454
6 0 0 74.28 34.10 176.68 < 1.203619
6 0 1 4.26 4.71 28.20 < 1.199029
3 0 10 9.32 4.03 72.79 < 1.193426
3 2 8 3.40 1.48 25.80 < 1.192487
5 -2 8 2.59 1.13 19.59 < 1.192487
3 3 6 3.10 2.61 34.96 < 1.188169
6 -3 6 0.21 0.17 2.26 < 1.188169
7 -3 0 0.20 0.49 5.49 < 1.187243
6 0 2 0.02 0.01 0.37 < 1.185566
7 -3 1 0.11 0.01 0.71 < 1.182836
4 3 1 0.43 0.05 1.90 < 1.182836
2 0 11 37.84 6.14 88.12 < 1.180604
6 -1 5 0.00 0.00 0.01 < 1.172993
5 1 5 3.62 1.13 15.09 < 1.172993
6 -2 6 9.87 3.19 40.15 < 1.172407
4 2 6 17.70 5.72 72.87 < 1.172407
7 -3 2 3.20 3.22 16.73 < 1.169906
4 3 2 8.87 8.92 47.13 < 1.169906
4 0 9 11.71 5.75 65.73 < 1.165851
6 0 3 0.35 0.22 2.44 < 1.164103
5 0 7 0.81 0.79 8.70 < 1.163392
5 -1 8 5.58 5.22 62.44 < 1.161245
4 1 8 2.54 2.38 29.53 < 1.161245
7 -2 0 15.02 7.57 143.43 < 1.156400
7 -2 1 1.37 0.37 8.50 < 1.152327
5 2 1 1.09 0.29 6.78 < 1.152327
7 -3 3 2.14 1.51 16.02 < 1.149267
4 3 3 0.47 0.33 3.57 < 1.149267
4 -2 10 0.65 0.33 4.48 < 1.147351
2 2 10 32.61 16.35 228.88 < 1.147351
0 0 12 13.05 16.20 147.26 < 1.145160
7 -2 2 1.09 1.93 34.91 < 1.140362
5 2 2 0.17 0.30 5.38 < 1.140362
2 1 11 10.02 5.54 41.62 < 1.135944
3 -1 11 10.06 5.57 41.82 < 1.135944
6 0 4 5.08 2.81 20.38 < 1.135922
3 1 10 5.29 2.81 33.86 < 1.133139
4 -1 10 0.00 0.00 0.11 < 1.133139
1 0 12 7.11 6.05 113.44 < 1.131028
6 -1 6 0.61 0.62 10.76 < 1.128636
5 1 6 0.00 0.00 0.39 < 1.128636
3 2 9 10.02 8.36 67.44 < 1.122784
5 -2 9 3.01 2.51 19.74 < 1.122784
7 -3 4 0.66 0.59 4.92 < 1.122126
4 3 4 5.55 4.91 35.66 < 1.122126
7 -2 3 0.00 0.00 0.01 < 1.121222
5 2 3 0.02 0.01 0.12 < 1.121222
6 -2 7 0.77 0.49 5.63 < 1.120587
4 2 7 4.06 2.58 30.42 < 1.120587
3 0 11 0.13 0.14 10.85 < 1.108840
5 0 8 0.11 0.21 5.22 < 1.105483
1 1 12 1.74 3.25 59.08 < 1.104267
2 -1 12 0.25 0.47 13.26 < 1.104267
6 0 5 0.07 0.18 3.24 < 1.102527
7 -1 0 0.78 0.83 31.15 < 1.101301
7 -1 1 0.50 0.31 3.21 < 1.097781
6 1 1 6.31 3.92 41.81 < 1.097781
5 -1 9 0.09 0.08 0.45 < 1.096590
4 1 9 0.30 0.25 1.44 < 1.096590
7 -2 4 8.33 7.08 38.20 < 1.095977
5 2 4 11.51 9.78 53.08 < 1.095977
4 0 10 4.47 4.65 33.74 < 1.093477
2 0 12 3.56 3.11 35.82 < 1.091580
7 -3 5 5.41 3.91 52.78 < 1.089899
4 3 5 0.73 0.53 6.92 < 1.089899
6 1 2 3.45 2.08 17.22 < 1.087421
7 -1 2 12.42 7.50 63.65 < 1.087421
6 -1 7 1.19 1.60 28.18 < 1.082184
5 1 7 1.98 2.66 47.01 < 1.082184
3 3 8 5.02 7.86 95.96 < 1.080455
6 -3 8 4.97 7.78 94.98 < 1.080455
loop_
_restr_angle_atom_site_label_1
_restr_angle_site_symmetry_1
_restr_angle_atom_site_label_2
_restr_angle_site_symmetry_2
_restr_angle_atom_site_label_3
_restr_angle_site_symmetry_3
_restr_angle_target
_restr_angle_target_weight_param
O1 . C3 . O2 . 126 0.5
loop_
_restr_distance_atom_site_label_1
_restr_distance_site_symmetry_1
_restr_distance_atom_site_label_2
_restr_distance_site_symmetry_2
_restr_distance_target
_restr_distance_target_weight_param
O1 . C3 . 1.235 0.001
O2 . C3 . 1.245 0.001
Fe1 . O1 . 2.13 0.003
Fe2 . O2 . 2.004 0.003
