#------------------------------------------------------------------------------
#$Date: 2021-04-06 12:44:55 +0300 (Tue, 06 Apr 2021) $
#$Revision: 263909 $
#$URL: file:///home/coder/svn-repositories/cod/cif/1/56/15/1561510.cif $
#------------------------------------------------------------------------------
#
# This file is available in the Crystallography Open Database (COD),
# http://www.crystallography.net/
#
# All data on this site have been placed in the public domain by the
# contributors.
#
data_1561510
loop_
_publ_author_name
'Khatun, Mansura'
'Stoyko, Stanislav S.'
'Mar, Arthur'
_publ_section_title
;
 Ternary arsenides ATt3As3 (A=K, Rb; Tt=Ge, Sn) with layered structures
;
_journal_name_full               'Journal of Solid State Chemistry'
_journal_page_first              229
_journal_page_last               235
_journal_paper_doi               10.1016/j.jssc.2016.03.035
_journal_volume                  238
_journal_year                    2016
_chemical_formula_structural     'Rb Ge3 As3'
_chemical_formula_sum            'As3 Ge3 Rb'
_chemical_formula_weight         528.00
_chemical_name_common            'rubidium germanium arsenide (1/3/3)'
_chemical_name_systematic        'rubidium germanium arsenide (1/3/3)'
_space_group_crystal_system      orthorhombic
_space_group_IT_number           62
_space_group_name_Hall           '-P 2ac 2n'
_space_group_name_H-M_alt        'P n m a'
_atom_sites_solution_hydrogens   .
_atom_sites_solution_primary     direct
_atom_sites_solution_secondary   difmap
_audit_creation_method           SHELXL-2013
_cell_angle_alpha                90
_cell_angle_beta                 90
_cell_angle_gamma                90
_cell_formula_units_Z            4
_cell_length_a                   10.1657(19)
_cell_length_b                   3.7595(7)
_cell_length_c                   19.028(4)
_cell_measurement_reflns_used    1171
_cell_measurement_temperature    193(2)
_cell_measurement_theta_max      22.22
_cell_measurement_theta_min      2.93
_cell_volume                     727.2(2)
_computing_cell_refinement       'Bruker SAINT 8.34A (Bruker, 2013)'
_computing_data_collection       'Bruker APEX 2 (Bruker, 2008)'
_computing_data_reduction        'Bruker SAINT 8.34A'
_computing_molecular_graphics    'ATOMS 5.1 (Dowty, 1999)'
_computing_publication_material  'Bruker SHELXTL'
_computing_structure_refinement  'SHELXL-2013 (Sheldrick, 2013)'
_computing_structure_solution    'SHELXS-97 (Sheldrick, 2008)'
_diffrn_ambient_temperature      193(2)
_diffrn_measured_fraction_theta_full 1.000
_diffrn_measured_fraction_theta_max 0.998
_diffrn_measurement_device_type  'Bruker PLATFORM/SMART APEX II CCD'
_diffrn_measurement_method       '\w scans'
_diffrn_radiation_type           MoK\a
_diffrn_radiation_wavelength     0.71073
_diffrn_reflns_av_R_equivalents  0.1356
_diffrn_reflns_av_unetI/netI     0.0763
_diffrn_reflns_Laue_measured_fraction_full 1.000
_diffrn_reflns_Laue_measured_fraction_max 0.998
_diffrn_reflns_limit_h_max       15
_diffrn_reflns_limit_h_min       -15
_diffrn_reflns_limit_k_max       5
_diffrn_reflns_limit_k_min       -5
_diffrn_reflns_limit_l_max       29
_diffrn_reflns_limit_l_min       -28
_diffrn_reflns_number            10233
_diffrn_reflns_point_group_measured_fraction_full 1.000
_diffrn_reflns_point_group_measured_fraction_max 0.998
_diffrn_reflns_theta_full        25.242
_diffrn_reflns_theta_max         33.182
_diffrn_reflns_theta_min         2.141
_diffrn_source                   'fine-focus sealed tube'
_exptl_absorpt_coefficient_mu    32.399
_exptl_absorpt_correction_T_max  0.4916
_exptl_absorpt_correction_T_min  0.0686
_exptl_absorpt_correction_type   numerical
_exptl_absorpt_process_details   'Bruker SHELXTL (Sheldrick, 2013)'
_exptl_crystal_colour            black
_exptl_crystal_density_diffrn    4.823
_exptl_crystal_description       needle
_exptl_crystal_F_000             928
_exptl_crystal_size_max          0.114
_exptl_crystal_size_mid          0.044
_exptl_crystal_size_min          0.028
_refine_diff_density_max         2.928
_refine_diff_density_min         -3.565
_refine_diff_density_rms         0.645
_refine_ls_extinction_coef       0.0040(8)
_refine_ls_extinction_expression Fc^*^=kFc[1+0.001xFc^2^\l^3^/sin(2\q)]^-1/4^
_refine_ls_extinction_method     SHELXL
_refine_ls_goodness_of_fit_ref   1.052
_refine_ls_hydrogen_treatment    undef
_refine_ls_matrix_type           full
_refine_ls_number_parameters     44
_refine_ls_number_reflns         1566
_refine_ls_number_restraints     0
_refine_ls_restrained_S_all      1.052
_refine_ls_R_factor_all          0.1155
_refine_ls_R_factor_gt           0.0616
_refine_ls_shift/su_max          0.000
_refine_ls_shift/su_mean         0.000
_refine_ls_structure_factor_coef Fsqd
_refine_ls_weighting_details
'w=1/[\s^2^(Fo^2^)+(0.0955P)^2^+9.1184P] where P=(Fo^2^+2Fc^2^)/3'
_refine_ls_weighting_scheme      calc
_refine_ls_wR_factor_gt          0.1547
_refine_ls_wR_factor_ref         0.1882
_reflns_Friedel_coverage         0.000
_reflns_Friedel_fraction_full    .
_reflns_Friedel_fraction_max     .
_reflns_number_gt                957
_reflns_number_total             1566
_reflns_threshold_expression     'I > 2\s(I)'
_cod_data_source_file            mmc10.cif
_cod_data_source_block           RbGe3As3unsplit
_cod_database_code               1561510
_shelx_space_group_comment
;
The symmetry employed for this shelxl refinement is uniquely defined
by the following loop, which should always be used as a source of
symmetry information in preference to the above space-group names.
They are only intended as comments.
;
_shelx_estimated_absorpt_t_min   0.120
_shelx_estimated_absorpt_t_max   0.464
_shelxl_version_number           2013-4
_shelx_res_file
;
TITL RbGe3As3 Pnma lsf final
CELL 0.71073  10.16570   3.75950  19.02750  90.0000  90.0000  90.0000
ZERR    4.00   0.00190   0.00070   0.00350   0.0000   0.0000   0.0000
LATT  1
SYMM 0.5-X, -Y, 0.5+Z
SYMM -X, 0.5+Y, -Z
SYMM 0.5+X, 0.5-Y, 0.5-Z
SFAC GE AS RB
UNIT 12 12 4
TEMP -80
SIZE 0.028 0.044 0.114

L.S. 4
ACTA

WGHT    0.095500    9.118401
EXTI    0.004043
FVAR       0.05807
RB    3    0.213696    0.250000    0.459713    10.50000    0.04142    0.25896 =
         0.04878    0.00000   -0.00140    0.00000
GE1   1    0.295518    0.250000    0.160655    10.50000    0.01244    0.01172 =
         0.02560    0.00000    0.00079    0.00000
GE2   1    0.425613    0.250000    0.757402    10.50000    0.01670    0.01115 =
         0.02621    0.00000   -0.00419    0.00000
GE3   1    0.526871    0.250000    0.635294    10.50000    0.01999    0.01237 =
         0.03235    0.00000   -0.00155    0.00000
AS1   2    0.059048    0.250000    0.634166    10.50000    0.01297    0.01208 =
         0.02279    0.00000    0.00022    0.00000
AS2   2    0.104222    0.250000    0.083588    10.50000    0.01699    0.01425 =
         0.02603    0.00000   -0.00140    0.00000
AS3   2    0.225005    0.250000    0.282191    10.50000    0.01485    0.01278 =
         0.02464    0.00000   -0.00056    0.00000
HKLF 4

REM  RbGe3As3 Pnma lsf final
REM R1 =  0.0616 for     957 Fo > 4sig(Fo)  and  0.1155 for all    1566 data
REM     44 parameters refined using      0 restraints

END

WGHT      0.0955      9.1191

REM Highest difference peak  2.928,  deepest hole -3.565,  1-sigma level  0.645
Q1    1   0.2222  0.2500  0.3210  10.50000  0.05    2.93
Q2    1   0.4209  0.2500  0.7284  10.50000  0.05    2.59
Q3    1   0.3356  0.2500  0.3444  10.50000  0.05    2.44
Q4    1   0.1883  0.2500  0.2174  10.50000  0.05    2.43
Q5    1   0.4392  0.2500  0.5766  10.50000  0.05    2.38
Q6    1   0.4399  0.2500  0.8027  10.50000  0.05    2.25
Q7    1   0.4577  0.2500  0.6848  10.50000  0.05    2.23
Q8    1   0.1209  0.2500  0.2515  10.50000  0.05    2.20
Q9    1   0.0717  0.2500  0.6766  10.50000  0.05    2.19
Q10   1   0.4598  0.2500  0.7574  10.50000  0.05    2.17
Q11   1   0.3219  0.2500  0.7872  10.50000  0.05    2.17
Q12   1   0.5455  0.2500  0.6865  10.50000  0.05    2.09
Q13   1   0.3859  0.2500  0.1191  10.50000  0.05    2.08
Q14   1   0.5475  0.2500  0.7790  10.50000  0.05    2.07
Q15   1   0.3048  0.2500  0.1939  10.50000  0.05    2.06
Q16   1   0.2817  0.2500  0.2829  10.50000  0.05    2.01
Q17   1   0.5196  0.2500  0.6054  10.50000  0.05    2.00
Q18   1   0.2965  0.2500  0.1350  10.50000  0.05    1.98
Q19   1  -0.0787  0.2500  0.5708  10.50000  0.05    1.94
Q20   1   0.0838  0.2500  0.5617  10.50000  0.05    1.88
;
_shelx_res_checksum              46724
_shelx_hkl_file
;
  -2  -1 -28    6.84    3.11
  -1  -1 -28   -0.22    2.57
   0  -1 -28   -1.35    2.92
  -4   0 -28    1.37    2.86
  -3   0 -28    2.46    2.18
  -2   0 -28   -1.55    1.90
  -1   0 -28    0.44    2.19
   0   0 -28   -0.03    1.98
   1   0 -28   -0.02    1.99
   2   0 -28    0.23    1.99
   3   0 -28    0.61    3.20
   4   0 -28    7.33    3.49
  -3   1 -28    2.35    3.14
  -2   1 -28   -3.41    3.18
  -1   1 -28    2.09    3.09
   0   1 -28    3.58    3.50
   1   1 -28   -3.74    2.92
   2   1 -28   -3.41    2.83
  -1  -2 -27   -1.32    3.25
   0  -2 -27   -2.32    3.08
   1  -2 -27    1.75    3.48
   2  -2 -27    1.99    3.23
  -4  -1 -27    3.87    2.81
  -3  -1 -27    1.74    1.90
  -2  -1 -27    2.84    1.92
  -1  -1 -27    1.57    2.05
   0  -1 -27   13.32    2.04
   1  -1 -27    2.22    2.08
   2  -1 -27    1.85    1.95
   3  -1 -27    1.00    2.14
   4  -1 -27   -4.02    2.76
  -5   0 -27    1.18    3.12
  -4   0 -27    7.13    2.25
  -3   0 -27    2.65    2.14
  -2   0 -27    0.60    1.72
  -1   0 -27    2.89    2.00
   0   0 -27   -0.69    2.03
   1   0 -27   -0.10    1.97
   2   0 -27    1.16    1.99
   3   0 -27   -1.63    1.89
   4   0 -27    5.59    2.37
   5   0 -27    2.85    3.29
   6   0 -27    0.20    3.14
  -5   1 -27    3.36    3.34
  -4   1 -27   -2.51    2.47
  -3   1 -27   -3.02    2.69
  -2   1 -27    1.22    3.34
  -1   1 -27    3.56    2.26
   0   1 -27   18.27    4.47
   1   1 -27    4.14    3.07
   2   1 -27    2.64    2.23
   3   1 -27    2.48    2.36
   4   1 -27    4.21    2.44
   1   2 -27    1.41    3.55
   2   2 -27    1.60    3.95
  -3  -2 -26    5.75    3.39
  -2  -2 -26    1.01    2.06
  -1  -2 -26    1.56    2.33
   0  -2 -26    6.49    2.49
   1  -2 -26    4.14    1.88
   2  -2 -26    2.69    1.85
   3  -2 -26   -2.86    2.92
  -5  -1 -26    3.85    2.05
  -4  -1 -26    1.27    1.95
  -3  -1 -26    1.46    1.90
  -2  -1 -26   -0.05    1.85
  -1  -1 -26    5.07    2.05
   0  -1 -26   -0.56    1.47
   1  -1 -26    3.34    1.60
   2  -1 -26    0.17    1.73
   3  -1 -26    1.60    1.96
   4  -1 -26   -0.65    2.05
   5  -1 -26    2.27    2.19
  -7   0 -26   -2.23    2.91
  -6   0 -26   -1.22    2.00
  -5   0 -26   -0.24    1.86
  -4   0 -26   -1.83    1.74
  -3   0 -26    3.55    2.00
  -2   0 -26    5.60    1.88
  -1   0 -26    3.79    1.53
   0   0 -26   -1.51    1.82
   1   0 -26    5.06    1.89
   2   0 -26    4.85    2.07
   3   0 -26    1.89    1.91
   4   0 -26    1.61    2.07
   5   0 -26    2.04    1.91
   6   0 -26    1.23    1.68
   7   0 -26   -3.64    3.42
  -6   1 -26    0.25    2.30
  -5   1 -26    3.97    3.12
  -4   1 -26    3.76    2.76
  -3   1 -26    1.21    1.82
  -2   1 -26   -2.01    3.00
  -1   1 -26    3.62    2.31
   0   1 -26    0.61    1.92
   1   1 -26    2.98    2.76
   2   1 -26    4.61    2.34
   3   1 -26   -1.90    1.94
   4   1 -26    3.13    2.21
   5   1 -26    3.28    2.34
   1   2 -26   14.83    4.24
   2   2 -26   -0.76    3.28
   3   2 -26    2.28    3.58
   4   2 -26    6.95    3.54
  -4  -2 -25   -1.98    1.79
  -3  -2 -25   -0.42    2.03
  -2  -2 -25    1.37    2.01
  -1  -2 -25    1.52    2.21
   0  -2 -25    2.09    2.13
   1  -2 -25   -0.86    1.62
   2  -2 -25   -1.03    1.65
   3  -2 -25    0.13    1.65
   4  -2 -25    3.37    2.29
   5  -2 -25    3.45    3.48
  -7  -1 -25    4.09    3.64
  -6  -1 -25    0.63    1.70
  -5  -1 -25    0.68    2.01
  -4  -1 -25   -0.39    1.65
  -3  -1 -25   -0.01    1.72
  -2  -1 -25    5.07    1.94
  -1  -1 -25   11.36    1.92
   0  -1 -25    0.12    1.43
   1  -1 -25    8.87    1.81
   2  -1 -25    2.99    1.88
   3  -1 -25    0.78    1.75
   4  -1 -25    3.52    2.06
   5  -1 -25    3.10    1.88
   6  -1 -25   -0.57    2.02
  -7   0 -25    0.29    1.95
  -6   0 -25    0.49    1.93
  -5   0 -25    4.28    1.66
  -4   0 -25   -0.18    1.84
  -3   0 -25   -2.96    1.51
  -2   0 -25   -0.96    1.62
  -1   0 -25    1.50    1.36
   0   0 -25   -0.89    1.63
   1   0 -25   -0.56    1.53
   2   0 -25   -0.24    1.57
   3   0 -25    0.77    1.73
   4   0 -25    2.33    1.75
   5   0 -25    5.90    1.76
   6   0 -25    2.38    1.75
   7   0 -25    0.49    2.25
   8   0 -25    2.68    3.82
  -7   1 -25    1.22    2.19
  -6   1 -25    0.97    1.99
  -5   1 -25    2.84    2.01
  -4   1 -25    0.91    2.30
  -3   1 -25   -0.55    1.80
  -2   1 -25    2.83    1.68
  -1   1 -25   12.48    2.55
   0   1 -25    1.37    2.03
   1   1 -25   10.79    1.85
   2   1 -25    4.10    2.20
   3   1 -25    2.92    2.13
   4   1 -25   -1.53    1.88
   5   1 -25    4.03    2.27
   6   1 -25    0.35    2.22
  -6   2 -25    4.14    3.61
  -5   2 -25    4.41    3.01
   0   2 -25   -0.47    3.12
   1   2 -25    4.54    3.42
   2   2 -25   -1.13    2.99
   3   2 -25    3.14    2.27
   4   2 -25    0.17    2.44
   5   2 -25    0.23    2.61
   6   2 -25   10.62    4.48
   0   3 -25    2.90    5.04
  -2  -3 -24    2.76    3.60
  -1  -3 -24   -4.54    2.22
   0  -3 -24   -2.64    2.36
   1  -3 -24    3.18    2.44
   2  -3 -24    1.62    3.29
   3  -3 -24   -1.11    2.45
  -7  -2 -24   -0.22    4.52
  -6  -2 -24    2.57    1.98
  -5  -2 -24    4.18    2.20
  -4  -2 -24    4.42    2.10
  -3  -2 -24   13.42    2.44
  -2  -2 -24   -1.49    2.04
  -1  -2 -24    3.08    2.11
   0  -2 -24   10.03    2.45
   1  -2 -24    0.96    1.66
   2  -2 -24    0.80    1.66
   3  -2 -24   12.78    2.21
   4  -2 -24    0.89    2.18
   5  -2 -24    1.85    2.29
   6  -2 -24    0.87    3.35
  -8  -1 -24    0.42    3.53
  -7  -1 -24    0.10    2.11
  -6  -1 -24   -0.71    1.60
  -5  -1 -24   -0.81    1.53
  -4  -1 -24   -0.85    1.63
  -3  -1 -24   -1.48    1.67
  -2  -1 -24   -1.38    1.59
  -1  -1 -24    1.76    1.33
   0  -1 -24   -1.33    1.22
   1  -1 -24    1.13    1.43
   2  -1 -24    0.96    1.41
   3  -1 -24    0.61    1.88
   4  -1 -24   -0.32    1.74
   5  -1 -24   -3.52    1.64
   6  -1 -24    2.85    2.03
   7  -1 -24   -0.59    2.05
  -8   0 -24    1.17    2.10
  -7   0 -24    0.91    1.94
  -6   0 -24    2.76    2.04
  -5   0 -24    1.44    1.44
  -4   0 -24   -0.62    1.63
  -3   0 -24   15.63    2.39
  -2   0 -24    1.32    1.27
  -1   0 -24    2.05    1.39
   0   0 -24   17.98    2.00
   1   0 -24    0.76    1.61
   2   0 -24   -0.01    1.60
   3   0 -24   10.65    2.29
   4   0 -24    0.85    1.34
   5   0 -24    0.63    1.56
   6   0 -24    2.82    1.69
   7   0 -24    2.69    1.84
   8   0 -24    1.52    1.91
  -8   1 -24    0.81    2.82
  -7   1 -24    2.72    2.25
  -6   1 -24   -0.92    1.96
  -5   1 -24    0.68    1.86
  -4   1 -24   -0.76    1.43
  -3   1 -24    1.15    1.78
  -2   1 -24    0.51    1.52
  -1   1 -24    2.46    1.82
   0   1 -24    1.18    1.42
   1   1 -24   -2.27    1.43
   2   1 -24    0.18    1.50
   3   1 -24    1.40    1.93
   4   1 -24   -1.36    1.93
   5   1 -24    1.23    1.84
   6   1 -24    1.60    2.12
   7   1 -24    0.17    2.26
  -6   2 -24    2.00    3.15
  -5   2 -24    3.37    2.95
  -4   2 -24    0.09    2.66
   0   2 -24   10.38    2.66
   1   2 -24    2.00    2.17
   2   2 -24   -0.32    1.68
   3   2 -24   13.24    2.79
   4   2 -24    0.23    2.42
   5   2 -24    4.35    2.49
   6   2 -24    5.19    2.81
  -2   3 -24   -0.95    3.38
  -1   3 -24   -1.31    3.16
   0   3 -24   -6.03    4.68
   1   3 -24   11.18    5.91
   2   3 -24    0.08    3.06
   3   3 -24    1.50    4.28
  -4  -3 -23    1.77    3.10
  -3  -3 -23   -0.40    2.41
  -2  -3 -23    2.83    2.48
  -1  -3 -23    2.17    2.39
   0  -3 -23    8.30    2.57
   1  -3 -23   -0.13    2.35
   2  -3 -23    1.55    2.12
   3  -3 -23    0.45    1.92
   4  -3 -23    2.94    2.50
   5  -3 -23    8.56    3.74
  -7  -2 -23    1.99    1.90
  -6  -2 -23   -2.31    1.81
  -5  -2 -23    3.16    1.92
  -4  -2 -23    9.06    2.29
  -3  -2 -23   -0.46    1.86
  -2  -2 -23    2.11    2.09
  -1  -2 -23    2.21    2.03
   0  -2 -23    0.31    1.49
   1  -2 -23    1.63    1.60
   2  -2 -23    2.38    1.73
   3  -2 -23   -1.63    1.53
   4  -2 -23    8.01    2.03
   5  -2 -23    2.85    2.23
   6  -2 -23    1.25    2.23
   7  -2 -23    0.19    2.96
  -8  -1 -23    1.90    2.25
  -7  -1 -23   -0.25    1.86
  -6  -1 -23   -0.60    1.47
  -5  -1 -23    9.76    1.84
  -4  -1 -23    2.37    1.45
  -3  -1 -23    1.24    1.64
  -2  -1 -23    1.08    1.68
  -1  -1 -23    9.55    1.68
   0  -1 -23    9.25    1.74
   1  -1 -23    9.65    1.71
   2  -1 -23   -1.11    1.18
   3  -1 -23   -1.07    1.60
   4  -1 -23    1.26    1.77
   5  -1 -23    4.81    2.07
   6  -1 -23   -2.90    1.73
   7  -1 -23    2.03    2.08
   8  -1 -23    2.07    2.16
  -9   0 -23   -3.16    2.70
  -8   0 -23   -0.54    1.89
  -7   0 -23   -0.20    1.81
  -6   0 -23    0.28    1.75
  -5   0 -23    5.41    1.55
  -4   0 -23   10.20    1.65
  -3   0 -23    1.82    1.59
  -2   0 -23    3.60    1.39
  -1   0 -23    3.69    1.32
   0   0 -23   -0.41    1.11
   1   0 -23    2.46    1.25
   2   0 -23    5.69    1.90
   3   0 -23    2.73    1.33
   4   0 -23    7.41    1.55
   5   0 -23    6.68    1.76
   6   0 -23    0.26    1.44
   7   0 -23    1.67    1.70
   8   0 -23    1.90    1.68
   9   0 -23    2.21    2.33
  -8   1 -23    0.57    2.02
  -7   1 -23   -4.04    1.77
  -6   1 -23   -0.32    1.77
  -5   1 -23    9.08    2.12
  -4   1 -23   -0.40    1.36
  -3   1 -23    2.84    1.43
  -2   1 -23   -1.50    1.29
  -1   1 -23    8.30    1.62
   0   1 -23   13.60    1.85
   1   1 -23   12.17    1.90
   2   1 -23    1.60    1.35
   3   1 -23    1.71    1.41
   4   1 -23    2.60    1.95
   5   1 -23   11.04    2.51
   6   1 -23    0.35    2.02
   7   1 -23    0.03    2.16
   8   1 -23   -1.96    2.01
  -8   2 -23   -4.44    3.70
  -7   2 -23    0.86    2.33
  -6   2 -23    2.88    2.09
  -5   2 -23    2.15    2.08
  -4   2 -23   12.83    3.39
  -3   2 -23    2.00    2.70
  -1   2 -23   -4.00    2.98
   0   2 -23   -0.94    2.08
   1   2 -23    0.31    2.11
   2   2 -23    2.08    1.74
   3   2 -23    3.44    1.71
   4   2 -23    8.94    2.20
   5   2 -23    3.29    2.45
   6   2 -23    0.86    2.54
   7   2 -23    3.55    2.78
  -5   3 -23    3.49    3.59
  -4   3 -23    3.39    3.55
  -3   3 -23    0.15    2.37
  -2   3 -23    8.68    3.79
  -1   3 -23    6.86    2.76
   0   3 -23    8.03    3.29
   1   3 -23    5.63    4.92
   2   3 -23    2.00    3.12
   3   3 -23    7.21    3.44
   4   3 -23    1.16    4.21
  -6  -3 -22    4.92    3.42
  -5  -3 -22    2.17    2.21
  -4  -3 -22    0.16    2.25
  -3  -3 -22    0.44    2.15
  -2  -3 -22    9.12    2.64
  -1  -3 -22   -1.65    2.13
   0  -3 -22    0.75    2.10
   1  -3 -22    1.52    2.24
   2  -3 -22    8.71    2.21
   3  -3 -22   -0.13    1.94
   4  -3 -22    2.36    1.93
   5  -3 -22    0.05    2.27
   6  -3 -22    7.83    3.71
  -8  -2 -22    2.24    2.73
  -7  -2 -22   -1.64    1.66
  -6  -2 -22    0.04    1.90
  -5  -2 -22    3.94    1.89
  -4  -2 -22    2.15    1.65
  -3  -2 -22   14.53    2.55
  -2  -2 -22    7.41    2.19
  -1  -2 -22    1.48    1.80
   0  -2 -22    4.57    1.69
   1  -2 -22   -1.94    1.40
   2  -2 -22    3.01    1.65
   3  -2 -22   14.97    2.20
   4  -2 -22    1.90    1.63
   5  -2 -22    1.18    1.94
   6  -2 -22    4.20    1.91
   7  -2 -22    1.37    2.01
   8  -2 -22   -3.26    2.88
  -9  -1 -22    0.65    2.16
  -8  -1 -22    2.21    2.10
  -7  -1 -22    7.87    2.34
  -6  -1 -22   19.05    2.23
  -5  -1 -22    7.38    1.73
  -4  -1 -22    1.17    1.32
  -3  -1 -22    0.38    1.49
  -2  -1 -22   16.76    2.38
  -1  -1 -22    0.04    1.13
   0  -1 -22    0.11    1.14
   1  -1 -22    2.42    1.29
   2  -1 -22   18.56    2.06
   3  -1 -22   -0.22    1.18
   4  -1 -22    2.12    1.74
   5  -1 -22    3.56    2.00
   6  -1 -22   15.47    2.73
   7  -1 -22    7.44    2.24
   8  -1 -22    1.83    2.08
   9  -1 -22    1.01    2.09
  -9   0 -22   -0.71    1.89
  -8   0 -22    0.77    1.83
  -7   0 -22   -0.07    1.75
  -6   0 -22   -0.06    1.65
  -5   0 -22   -0.53    1.27
  -4   0 -22    0.69    1.28
  -3   0 -22   29.69    2.27
  -2   0 -22    4.36    1.35
  -1   0 -22   -0.29    1.14
   0   0 -22   10.40    1.50
   1   0 -22   -0.90    0.99
   2   0 -22    4.94    1.76
   3   0 -22   22.59    2.27
   4   0 -22    0.93    1.34
   5   0 -22    1.68    1.47
   6   0 -22    1.64    1.51
   7   0 -22   -0.71    1.56
   8   0 -22    0.05    1.69
   9   0 -22    0.51    1.78
  10   0 -22    3.03    2.30
  -9   1 -22    4.19    2.30
  -8   1 -22    3.11    2.15
  -7   1 -22    4.08    2.12
  -6   1 -22   20.00    2.77
  -5   1 -22    5.53    1.85
  -4   1 -22    1.83    1.39
  -3   1 -22    2.80    1.36
  -2   1 -22   24.68    2.19
  -1   1 -22    0.27    1.18
   0   1 -22   -1.59    1.32
   1   1 -22   -0.98    1.25
   2   1 -22   18.59    2.06
   3   1 -22    2.51    1.33
   4   1 -22    2.35    1.48
   5   1 -22    6.16    2.31
   6   1 -22   16.95    2.96
   7   1 -22    4.14    2.33
   8   1 -22   -0.86    2.04
   9   1 -22   -2.04    2.28
  -8   2 -22   -0.45    2.51
  -7   2 -22   -4.26    2.14
  -6   2 -22   -2.58    1.94
  -5   2 -22    2.13    2.06
  -4   2 -22    1.51    1.96
  -3   2 -22   22.69    2.89
  -2   2 -22    6.44    2.13
  -1   2 -22    0.47    1.61
   0   2 -22    7.12    2.42
   1   2 -22   -0.74    1.59
   2   2 -22    4.75    1.89
   3   2 -22   19.42    2.60
   4   2 -22    0.61    1.80
   5   2 -22   -0.52    1.68
   6   2 -22   -1.86    2.10
   7   2 -22    0.10    2.34
   8   2 -22    5.52    3.43
  -6   3 -22    0.95    3.82
  -5   3 -22    0.79    3.60
  -4   3 -22    1.04    2.39
  -3   3 -22   -3.16    2.20
  -2   3 -22    6.39    3.62
  -1   3 -22    0.95    2.47
   0   3 -22    1.31    2.26
   1   3 -22    2.32    2.85
   2   3 -22   11.54    3.39
   3   3 -22    3.45    2.96
   4   3 -22    8.27    3.04
   5   3 -22    0.68    2.99
   1  -4 -21    0.91    3.50
  -7  -3 -21    2.54    3.73
  -6  -3 -21    1.08    2.10
  -5  -3 -21    1.34    2.09
  -4  -3 -21    2.99    2.05
  -3  -3 -21   -0.09    2.12
  -2  -3 -21    1.06    2.21
  -1  -3 -21    1.40    2.16
   0  -3 -21    0.02    2.05
   1  -3 -21    4.10    2.13
   2  -3 -21    2.18    1.73
   3  -3 -21    1.50    1.85
   4  -3 -21    2.60    1.89
   5  -3 -21    3.02    2.17
   6  -3 -21    0.14    1.99
  -8  -2 -21   12.46    3.07
  -7  -2 -21    1.66    1.83
  -6  -2 -21    2.37    1.90
  -5  -2 -21    8.46    2.05
  -4  -2 -21   10.38    2.07
  -3  -2 -21    0.90    1.70
  -2  -2 -21   -0.56    1.62
  -1  -2 -21   -0.58    1.68
   0  -2 -21   -0.49    1.40
   1  -2 -21    2.07    1.44
   2  -2 -21   -0.98    1.37
   3  -2 -21    0.86    1.49
   4  -2 -21   15.66    2.09
   5  -2 -21   10.57    1.89
   6  -2 -21    1.76    1.90
   7  -2 -21    2.01    1.97
   8  -2 -21    6.75    2.27
   9  -2 -21    2.83    3.79
  -9  -1 -21   -1.29    1.97
  -8  -1 -21    2.07    1.88
  -7  -1 -21    2.94    2.02
  -6  -1 -21    4.26    1.58
  -5  -1 -21    2.06    1.46
  -4  -1 -21    4.33    1.38
  -3  -1 -21   -0.01    1.29
  -2  -1 -21    5.83    1.65
  -1  -1 -21   -0.54    1.12
   0  -1 -21    0.59    1.16
   1  -1 -21    0.95    1.17
   2  -1 -21    3.91    1.37
   3  -1 -21    2.97    1.30
   4  -1 -21    3.07    1.68
   5  -1 -21    2.04    1.71
   6  -1 -21    0.12    1.76
   7  -1 -21    0.10    1.67
   8  -1 -21    7.39    2.17
   9  -1 -21   -1.95    2.02
  10  -1 -21    5.39    2.54
 -10   0 -21    6.14    2.23
  -9   0 -21   -0.90    1.78
  -8   0 -21   18.40    2.62
  -7   0 -21   -0.68    1.63
  -6   0 -21    0.74    1.66
  -5   0 -21    8.60    1.59
  -4   0 -21   28.44    2.38
  -3   0 -21    1.59    1.16
  -2   0 -21   -0.51    0.93
  -1   0 -21   -1.09    1.01
   0   0 -21   -0.25    1.02
   1   0 -21    0.72    1.10
   2   0 -21    0.25    1.11
   3   0 -21    2.12    1.24
   4   0 -21   25.14    2.41
   5   0 -21    8.98    1.72
   6   0 -21    0.28    1.41
   7   0 -21   -2.97    1.29
   8   0 -21   14.95    2.11
   9   0 -21    5.99    1.79
  10   0 -21    3.27    1.85
 -10   1 -21    3.19    4.09
  -9   1 -21   -0.50    1.68
  -8   1 -21    5.27    1.71
  -7   1 -21   -0.48    1.49
  -6   1 -21    7.01    1.60
  -5   1 -21    0.38    1.61
  -4   1 -21    4.46    1.46
  -3   1 -21    1.08    1.33
  -2   1 -21    3.45    1.18
  -1   1 -21   -0.04    1.02
   0   1 -21   -0.23    1.03
   1   1 -21   -2.11    1.07
   2   1 -21    6.00    1.41
   3   1 -21    0.97    1.30
   4   1 -21    3.75    1.44
   5   1 -21    2.92    1.90
   6   1 -21    1.36    1.97
   7   1 -21    3.79    2.09
   8   1 -21    3.39    2.11
   9   1 -21    0.07    2.15
  10   1 -21    1.36    3.75
  -9   2 -21    6.62    3.93
  -8   2 -21   14.94    3.01
  -7   2 -21   -2.88    1.99
  -6   2 -21    2.48    2.07
  -5   2 -21    7.03    2.11
  -4   2 -21   14.89    2.50
  -3   2 -21    0.03    1.45
  -2   2 -21    1.10    1.38
  -1   2 -21   -0.21    1.46
   0   2 -21    0.60    1.76
   1   2 -21   -0.57    1.49
   2   2 -21   -0.02    1.60
   3   2 -21   -1.48    1.55
   4   2 -21   16.66    2.43
   5   2 -21    8.15    2.11
   6   2 -21    0.78    1.67
   7   2 -21   -0.68    1.97
   8   2 -21    8.54    2.66
   9   2 -21    7.03    3.68
  -6   3 -21    5.06    3.63
  -5   3 -21   -0.38    2.04
  -4   3 -21    1.13    2.12
  -3   3 -21    2.47    2.22
  -2   3 -21    1.82    1.98
  -1   3 -21    1.27    2.27
   0   3 -21   -0.38    2.19
   1   3 -21    1.74    1.99
   2   3 -21    0.18    2.35
   3   3 -21   -1.65    2.53
   4   3 -21    0.06    2.70
   5   3 -21   -1.98    5.04
   6   3 -21    5.35    3.13
  -1   4 -21    1.10    3.36
   1  -4 -20   -2.78    3.11
   2  -4 -20    0.96    3.19
   3  -4 -20    2.17    3.64
  -7  -3 -20   17.74    2.73
  -6  -3 -20    3.57    2.15
  -5  -3 -20    2.30    2.01
  -4  -3 -20    0.62    1.91
  -3  -3 -20    5.60    2.14
  -2  -3 -20    7.39    2.45
  -1  -3 -20   11.04    2.61
   0  -3 -20   -0.04    1.98
   1  -3 -20    9.01    2.29
   2  -3 -20    1.77    1.80
   3  -3 -20    6.83    2.03
   4  -3 -20    2.94    1.75
   5  -3 -20    2.35    2.10
   6  -3 -20   -0.04    1.99
   7  -3 -20   14.23    2.84
  -9  -2 -20    0.27    2.23
  -8  -2 -20    4.35    2.36
  -7  -2 -20    1.58    1.69
  -6  -2 -20    0.65    1.68
  -5  -2 -20   -0.29    1.68
  -4  -2 -20   -0.40    1.53
  -3  -2 -20    0.60    1.51
  -2  -2 -20    1.54    1.63
  -1  -2 -20   -1.93    1.45
   0  -2 -20    2.83    1.45
   1  -2 -20   -0.68    1.33
   2  -2 -20    0.06    1.31
   3  -2 -20    1.42    1.41
   4  -2 -20    1.16    1.47
   5  -2 -20    0.64    1.41
   6  -2 -20    0.71    1.56
   7  -2 -20    3.78    2.05
   8  -2 -20   -2.41    1.99
   9  -2 -20    2.85    2.09
  10  -2 -20    3.71    3.85
 -10  -1 -20    0.67    2.25
  -9  -1 -20    0.13    1.98
  -8  -1 -20    1.28    1.93
  -7  -1 -20   21.12    2.90
  -6  -1 -20    1.98    1.45
  -5  -1 -20    2.57    1.46
  -4  -1 -20    1.27    1.29
  -3  -1 -20    3.86    1.42
  -2  -1 -20    5.77    1.44
  -1  -1 -20   12.27    1.65
   0  -1 -20   -1.62    1.03
   1  -1 -20   11.56    1.57
   2  -1 -20    8.50    1.57
   3  -1 -20    5.60    1.43
   4  -1 -20    2.42    1.24
   5  -1 -20    1.78    1.62
   6  -1 -20    1.76    1.67
   7  -1 -20   20.56    2.80
   8  -1 -20    0.61    1.86
   9  -1 -20    3.42    1.98
  10  -1 -20    2.60    2.07
 -10   0 -20   -0.84    1.94
  -9   0 -20   -0.79    1.64
  -8   0 -20   -1.20    1.53
  -7   0 -20    6.86    1.98
  -6   0 -20   -0.86    1.52
  -5   0 -20    1.34    1.29
  -4   0 -20   -0.23    1.17
  -3   0 -20    5.56    1.34
  -2   0 -20    0.14    0.91
  -1   0 -20   -0.06    0.99
   0   0 -20    3.22    1.17
   1   0 -20    1.28    1.02
   2   0 -20    2.99    0.96
   3   0 -20    0.65    1.14
   4   0 -20    0.24    1.20
   5   0 -20   -1.32    1.13
   6   0 -20    0.95    1.34
   7   0 -20    5.04    1.58
   8   0 -20   -0.61    1.37
   9   0 -20    0.61    1.61
  10   0 -20   -0.83    1.57
  11   0 -20    2.01    2.17
 -11   1 -20    3.77    3.88
 -10   1 -20    1.99    2.03
  -9   1 -20   -1.51    1.65
  -8   1 -20    0.90    1.65
  -7   1 -20   20.55    2.38
  -6   1 -20    0.35    1.32
  -5   1 -20    5.79    1.51
  -4   1 -20    0.93    1.07
  -3   1 -20    5.71    1.19
  -2   1 -20   12.31    1.31
  -1   1 -20   16.29    1.37
   0   1 -20    0.73    1.05
   1   1 -20   13.92    1.63
   2   1 -20   10.74    1.60
   3   1 -20    3.71    1.39
   4   1 -20    3.88    1.30
   5   1 -20    5.29    1.53
   6   1 -20    6.48    2.09
   7   1 -20   18.63    2.94
   8   1 -20   -0.91    1.82
   9   1 -20   -0.33    2.03
  10   1 -20    0.34    2.40
  -9   2 -20    2.05    2.04
  -8   2 -20    3.20    2.26
  -7   2 -20    6.99    2.28
  -6   2 -20    0.50    2.02
  -5   2 -20   -0.69    1.75
  -4   2 -20   -1.75    1.23
  -3   2 -20   -0.64    1.27
  -2   2 -20   -1.39    1.21
  -1   2 -20    1.48    1.27
   0   2 -20    5.73    1.45
   1   2 -20    2.24    1.43
   2   2 -20   -0.15    1.57
   3   2 -20    0.91    1.61
   4   2 -20   -0.17    1.61
   5   2 -20    1.20    1.58
   6   2 -20    0.15    1.63
   7   2 -20    4.52    1.85
   8   2 -20   -1.27    2.15
   9   2 -20    1.17    2.30
  -7   3 -20   15.61    3.37
  -6   3 -20    4.80    2.33
  -5   3 -20   -1.76    2.05
  -4   3 -20    1.36    2.16
  -3   3 -20    4.18    2.09
  -2   3 -20    2.40    1.71
  -1   3 -20    7.96    2.45
   0   3 -20    3.05    2.19
   1   3 -20    9.18    2.06
   2   3 -20    4.89    2.63
   3   3 -20    4.49    2.59
   4   3 -20    6.08    2.64
   5   3 -20   -1.45    2.45
   6   3 -20    2.34    2.74
   7   3 -20   20.81    3.94
  -2   4 -20    4.24    3.70
  -1   4 -20   -1.68    2.38
   0   4 -20    2.09    2.61
   1   4 -20   -2.48    3.21
   3   4 -20    1.55    3.79
  -4  -4 -19   -0.20    4.06
  -3  -4 -19   -0.93    3.75
  -2  -4 -19    9.07    4.41
  -1  -4 -19   -1.88    3.51
   0  -4 -19   -1.77    3.22
   1  -4 -19   -3.41    2.27
   2  -4 -19   -0.60    2.33
   3  -4 -19   -2.39    2.25
   4  -4 -19    5.05    3.92
  -8  -3 -19    2.71    2.67
  -7  -3 -19    5.47    2.60
  -6  -3 -19    2.83    2.06
  -5  -3 -19   -0.23    1.91
  -4  -3 -19    6.73    1.97
  -3  -3 -19    2.89    1.84
  -2  -3 -19   -0.90    1.95
  -1  -3 -19    1.06    2.13
   0  -3 -19    8.96    2.49
   1  -3 -19    1.15    2.02
   2  -3 -19    0.21    1.62
   3  -3 -19    1.49    1.65
   4  -3 -19    2.10    1.72
   5  -3 -19    0.32    1.81
   6  -3 -19   -0.12    1.83
   7  -3 -19    4.02    2.14
 -10  -2 -19    2.56    2.81
  -9  -2 -19   16.10    3.05
  -8  -2 -19    0.48    2.11
  -7  -2 -19   -0.51    1.59
  -6  -2 -19    0.65    1.68
  -5  -2 -19    7.15    1.86
  -4  -2 -19    2.42    1.52
  -3  -2 -19    5.84    1.79
  -2  -2 -19    1.79    1.54
  -1  -2 -19   -0.61    1.51
   0  -2 -19   -0.53    1.20
   1  -2 -19    0.53    1.28
   2  -2 -19    1.36    1.33
   3  -2 -19    1.97    1.48
   4  -2 -19    0.04    1.28
   5  -2 -19    7.96    1.57
   6  -2 -19    0.44    1.36
   7  -2 -19    2.20    2.00
   8  -2 -19   -0.56    1.71
   9  -2 -19   18.25    3.02
  10  -2 -19    1.08    3.36
 -11  -1 -19    1.42    2.15
 -10  -1 -19   -0.56    1.90
  -9  -1 -19    1.18    1.96
  -8  -1 -19    1.01    1.90
  -7  -1 -19    7.47    1.97
  -6  -1 -19    1.24    1.36
  -5  -1 -19   -0.03    1.28
  -4  -1 -19    4.82    1.44
  -3  -1 -19    4.54    1.38
  -2  -1 -19    0.90    1.15
  -1  -1 -19    2.02    1.00
   0  -1 -19    3.34    1.20
   1  -1 -19   -1.16    1.03
   2  -1 -19    1.86    1.16
   3  -1 -19    4.58    1.24
   4  -1 -19    5.54    1.33
   5  -1 -19    0.95    1.54
   6  -1 -19    2.10    1.60
   7  -1 -19    7.83    2.10
   8  -1 -19    3.53    1.86
   9  -1 -19    0.70    1.92
  10  -1 -19    0.35    1.98
  11  -1 -19   -0.60    2.01
 -11   0 -19    0.07    2.09
 -10   0 -19   -0.73    1.77
  -9   0 -19   23.47    2.97
  -8   0 -19    4.87    1.84
  -7   0 -19   -0.68    1.43
  -6   0 -19   -0.27    1.43
  -5   0 -19   18.31    1.87
  -4   0 -19    0.28    1.06
  -3   0 -19    5.87    1.28
  -2   0 -19    5.59    1.05
  -1   0 -19    1.11    0.82
   0   0 -19    0.07    0.97
   1   0 -19    0.37    0.90
   2   0 -19    5.52    1.01
   3   0 -19   11.36    1.53
   4   0 -19    1.30    1.18
   5   0 -19   13.80    1.81
   6   0 -19    1.02    1.19
   7   0 -19    0.60    1.27
   8   0 -19    2.53    1.43
   9   0 -19   24.50    2.56
  10   0 -19   -0.82    1.54
  11   0 -19   -1.61    1.63
 -11   1 -19    3.06    3.98
 -10   1 -19    3.09    2.25
  -9   1 -19    2.95    1.65
  -8   1 -19    1.02    1.45
  -7   1 -19    4.68    1.64
  -6   1 -19    1.45    1.35
  -5   1 -19    1.72    1.33
  -4   1 -19    4.41    1.15
  -3   1 -19    5.23    1.13
  -2   1 -19   -0.37    0.75
  -1   1 -19    1.04    0.80
   0   1 -19   10.40    1.19
   1   1 -19    1.40    0.97
   2   1 -19    1.03    1.15
   3   1 -19    4.05    1.32
   4   1 -19    4.44    1.36
   5   1 -19    2.88    1.28
   6   1 -19   -0.19    1.63
   7   1 -19    4.23    1.90
   8   1 -19    0.95    1.83
   9   1 -19    3.31    2.10
  10   1 -19    3.45    2.32
  11   1 -19    7.60    4.13
 -10   2 -19    9.76    4.18
  -9   2 -19   16.00    3.08
  -8   2 -19    1.60    2.16
  -7   2 -19    1.92    1.92
  -6   2 -19    3.15    2.18
  -5   2 -19    8.74    1.75
  -4   2 -19    0.09    1.25
  -3   2 -19    6.02    1.45
  -2   2 -19    3.45    1.26
  -1   2 -19   -2.82    1.12
   0   2 -19   -0.71    1.12
   1   2 -19    1.47    1.15
   2   2 -19    4.38    1.62
   3   2 -19    4.78    1.76
   4   2 -19    0.88    1.49
   5   2 -19    9.42    1.94
   6   2 -19    3.19    1.67
   7   2 -19   -0.26    1.55
   8   2 -19   -0.25    1.95
   9   2 -19   23.19    3.23
  10   2 -19   -1.55    2.38
  -8   3 -19    1.85    3.66
  -7   3 -19    2.08    2.51
  -6   3 -19   -1.43    2.00
  -5   3 -19    1.07    1.97
  -4   3 -19    4.47    2.19
  -3   3 -19    2.58    2.08
  -2   3 -19   -1.70    1.47
  -1   3 -19   -2.35    1.77
   0   3 -19    7.25    1.92
   1   3 -19   -3.71    1.50
   2   3 -19   -0.29    1.66
   3   3 -19    4.33    2.39
   4   3 -19    7.84    2.71
   5   3 -19    0.38    2.57
   6   3 -19   -4.36    2.32
   7   3 -19    3.26    3.05
  -4   4 -19    4.29    3.50
  -3   4 -19    1.32    2.41
  -2   4 -19    1.21    2.18
  -1   4 -19   -0.58    2.24
   0   4 -19    1.44    2.29
   1   4 -19   -1.64    2.15
   2   4 -19    0.29    2.43
   3   4 -19    3.12    2.72
   4   4 -19   -1.12    3.35
  -5  -4 -18   -8.11    2.37
  -4  -4 -18    4.05    2.82
  -3  -4 -18    3.29    2.61
  -2  -4 -18   20.00    5.00
  -1  -4 -18    1.59    3.54
   0  -4 -18    1.70    3.48
   1  -4 -18   -2.08    2.11
   2  -4 -18   23.56    3.28
   3  -4 -18    1.50    2.27
   4  -4 -18    7.55    2.53
   5  -4 -18    1.10    2.46
  -9  -3 -18   -0.09    2.64
  -8  -3 -18    4.76    2.61
  -7  -3 -18    6.15    2.49
  -6  -3 -18    0.23    1.80
  -5  -3 -18   -2.32    1.66
  -4  -3 -18    4.37    1.82
  -3  -3 -18   -0.72    1.69
  -2  -3 -18    7.94    1.85
  -1  -3 -18    2.85    2.87
   0  -3 -18    0.05    1.75
   1  -3 -18    4.90    2.09
   2  -3 -18    7.32    1.83
   3  -3 -18    0.34    1.56
   4  -3 -18    2.64    1.64
   5  -3 -18    0.10    1.72
   6  -3 -18   -0.34    1.61
   7  -3 -18    9.10    2.25
   8  -3 -18   -2.35    2.78
 -10  -2 -18    2.44    2.23
  -9  -2 -18   -0.67    2.06
  -8  -2 -18    0.29    2.10
  -7  -2 -18    0.92    1.55
  -6  -2 -18   -1.07    1.56
  -5  -2 -18   -0.84    1.49
  -4  -2 -18    6.79    1.74
  -3  -2 -18    0.17    1.36
  -2  -2 -18   59.66    3.85
  -1  -2 -18    0.08    1.25
   0  -2 -18   17.26    1.96
   1  -2 -18   -0.44    1.21
   2  -2 -18   54.39    3.78
   3  -2 -18    2.02    1.42
   4  -2 -18    3.83    1.38
   5  -2 -18    0.95    1.20
   6  -2 -18    2.02    1.35
   7  -2 -18   -1.78    1.52
   8  -2 -18   -0.78    1.79
   9  -2 -18    0.33    1.87
  10  -2 -18    1.94    2.13
 -11  -1 -18    3.19    2.11
 -10  -1 -18    4.06    2.22
  -9  -1 -18    0.47    1.90
  -8  -1 -18    0.20    1.80
  -7  -1 -18   33.31    3.37
  -6  -1 -18    1.06    1.28
  -5  -1 -18    1.62    1.35
  -4  -1 -18    5.98    1.47
  -3  -1 -18    2.87    1.27
  -2  -1 -18   13.85    1.52
  -1  -1 -18    7.60    1.23
   0  -1 -18    0.71    1.00
   1  -1 -18   12.57    1.52
   2  -1 -18   12.61    1.67
   3  -1 -18    4.20    1.27
   4  -1 -18    1.88    1.15
   5  -1 -18    1.63    1.14
   6  -1 -18   -3.23    1.29
   7  -1 -18   29.23    2.61
   8  -1 -18   -0.69    1.35
   9  -1 -18    0.84    1.50
  10  -1 -18    0.16    1.49
  11  -1 -18    4.32    1.97
 -12   0 -18   -5.60    3.42
 -11   0 -18   -1.79    1.59
 -10   0 -18    2.59    1.58
  -9   0 -18    1.51    1.46
  -8   0 -18    1.42    1.41
  -7   0 -18    1.78    1.33
  -6   0 -18    4.98    1.41
  -5   0 -18    0.05    0.92
  -4   0 -18   10.45    1.47
  -3   0 -18    6.64    1.31
  -2   0 -18   87.63    3.74
  -1   0 -18    2.36    0.85
   0   0 -18   21.90    1.53
   1   0 -18   -0.28    0.83
   2   0 -18   90.21    4.32
   3   0 -18    5.11    1.04
   4   0 -18    9.98    1.53
   5   0 -18   -0.95    1.09
   6   0 -18    3.87    1.32
   7   0 -18    0.70    1.27
   8   0 -18    2.15    1.39
   9   0 -18   -0.11    1.39
  10   0 -18    2.67    1.56
  11   0 -18    0.01    1.64
  12   0 -18    0.77    3.16
 -11   1 -18    0.48    2.21
 -10   1 -18   -0.60    1.89
  -9   1 -18    0.37    1.47
  -8   1 -18    0.39    1.42
  -7   1 -18   19.30    2.32
  -6   1 -18    2.28    1.40
  -5   1 -18    1.20    1.28
  -4   1 -18    6.31    1.25
  -3   1 -18    3.90    0.95
  -2   1 -18   12.93    0.96
  -1   1 -18    7.92    0.82
   0   1 -18    0.87    0.74
   1   1 -18   10.64    1.13
   2   1 -18   13.41    1.46
   3   1 -18    7.32    1.17
   4   1 -18    3.98    1.28
   5   1 -18    3.77    1.30
   6   1 -18   -0.32    1.18
   7   1 -18   25.26    3.14
   8   1 -18    0.36    1.71
   9   1 -18    2.75    2.01
  10   1 -18    0.86    1.94
  11   1 -18    0.56    2.12
 -10   2 -18   -2.10    2.28
  -9   2 -18    0.34    2.15
  -8   2 -18   -0.56    2.08
  -7   2 -18   -1.42    1.86
  -6   2 -18    5.00    2.06
  -5   2 -18   -1.24    1.26
  -4   2 -18    9.39    1.56
  -3   2 -18    0.23    1.10
  -2   2 -18   64.43    2.88
  -1   2 -18   -0.88    0.91
   0   2 -18   14.11    1.63
   1   2 -18   -0.15    1.09
   2   2 -18   65.78    4.01
   3   2 -18    1.35    1.46
   4   2 -18    4.99    1.64
   5   2 -18    0.34    1.45
   6   2 -18    2.25    1.57
   7   2 -18   -1.01    1.43
   8   2 -18    3.60    1.69
   9   2 -18    0.16    1.90
  10   2 -18    1.40    2.27
  -8   3 -18    0.83    2.53
  -7   3 -18    9.14    2.15
  -6   3 -18    0.56    2.09
  -5   3 -18   -0.37    1.84
  -4   3 -18    3.56    1.98
  -3   3 -18    0.16    1.46
  -2   3 -18    7.66    1.75
  -1   3 -18    6.73    1.92
   0   3 -18   -2.14    1.41
   1   3 -18    2.27    1.60
   2   3 -18    4.71    1.74
   3   3 -18    0.28    2.00
   4   3 -18    6.44    2.34
   5   3 -18   -3.16    1.95
   6   3 -18    1.99    2.33
   7   3 -18    9.93    3.05
   8   3 -18    0.16    2.50
   9   3 -18   -0.25    3.04
  -5   4 -18    2.04    3.26
  -4   4 -18   -0.05    2.44
  -3   4 -18   -0.33    2.27
  -2   4 -18   22.46    3.34
  -1   4 -18   -2.34    2.04
   0   4 -18    2.55    2.25
   1   4 -18    0.53    2.24
   2   4 -18   20.07    2.58
   3   4 -18    2.35    2.25
   4   4 -18    2.16    2.33
   5   4 -18    5.48    3.34
  -6  -4 -17   -2.03    2.51
  -5  -4 -17    0.94    2.60
  -4  -4 -17    2.42    2.43
  -3  -4 -17   -0.77    2.43
  -2  -4 -17   -2.95    2.19
  -1  -4 -17    6.75    3.61
   0  -4 -17   -6.76    2.66
   1  -4 -17    2.68    2.11
   2  -4 -17    0.22    2.22
   3  -4 -17   -1.07    2.15
   4  -4 -17    0.34    2.30
   5  -4 -17   -0.31    2.17
   6  -4 -17    3.12    2.33
  -9  -3 -17    1.04    2.43
  -8  -3 -17    8.68    2.73
  -7  -3 -17    0.81    2.24
  -6  -3 -17    0.27    1.73
  -5  -3 -17   -1.30    1.64
  -4  -3 -17   16.73    2.21
  -3  -3 -17    1.89    1.64
  -2  -3 -17   -0.03    1.48
  -1  -3 -17    1.09    1.50
   0  -3 -17   61.83    4.93
   1  -3 -17   -2.52    1.50
   2  -3 -17    0.98    1.57
   3  -3 -17   -0.43    1.42
   4  -3 -17   12.62    1.98
   5  -3 -17    2.21    1.57
   6  -3 -17    3.95    1.93
   7  -3 -17   -0.03    1.63
   8  -3 -17    7.41    2.16
   9  -3 -17    0.80    3.13
 -11  -2 -17    2.39    2.73
 -10  -2 -17    1.60    2.25
  -9  -2 -17   -0.64    2.02
  -8  -2 -17    1.23    2.00
  -7  -2 -17    1.15    1.61
  -6  -2 -17    6.88    1.85
  -5  -2 -17    9.95    1.86
  -4  -2 -17    3.30    1.55
  -3  -2 -17    0.54    1.30
  -2  -2 -17   -1.43    1.21
  -1  -2 -17    7.29    1.52
   0  -2 -17    2.59    1.31
   1  -2 -17    6.37    1.54
   2  -2 -17    0.66    1.25
   3  -2 -17   -0.13    1.17
   4  -2 -17    3.68    1.27
   5  -2 -17    7.68    1.48
   6  -2 -17    8.47    1.59
   7  -2 -17   -0.74    1.13
   8  -2 -17   -0.12    1.68
   9  -2 -17   -0.27    1.85
  10  -2 -17    3.29    2.08
 -12  -1 -17    4.04    2.96
 -11  -1 -17    4.37    2.09
 -10  -1 -17    2.54    1.99
  -9  -1 -17   -1.67    1.72
  -8  -1 -17   12.81    2.36
  -7  -1 -17    0.02    1.75
  -6  -1 -17    3.41    1.38
  -5  -1 -17    2.52    1.37
  -4  -1 -17   41.28    2.91
  -3  -1 -17   -0.25    1.13
  -2  -1 -17    1.57    0.96
  -1  -1 -17   -0.27    0.88
   0  -1 -17  167.28    6.43
   1  -1 -17   -0.70    0.96
   2  -1 -17   -0.29    0.98
   3  -1 -17    1.22    1.06
   4  -1 -17   33.96    2.56
   5  -1 -17    4.41    1.23
   6  -1 -17    5.99    1.42
   7  -1 -17    1.19    1.24
   8  -1 -17   19.52    2.16
   9  -1 -17    2.85    1.44
  10  -1 -17   -0.76    1.79
  11  -1 -17    0.92    2.03
  12  -1 -17    6.23    2.36
 -12   0 -17    2.77    1.89
 -11   0 -17    2.82    1.78
 -10   0 -17    5.51    1.66
  -9   0 -17    0.59    1.35
  -8   0 -17    4.16    1.51
  -7   0 -17   -1.62    1.17
  -6   0 -17   21.16    2.11
  -5   0 -17   16.68    1.60
  -4   0 -17   -0.22    0.83
  -3   0 -17    1.42    0.88
  -2   0 -17    1.17    0.81
  -1   0 -17   11.62    1.23
   0   0 -17    1.09    0.70
   1   0 -17   14.05    1.30
   2   0 -17    0.22    0.79
   3   0 -17    0.79    0.82
   4   0 -17    1.06    1.06
   5   0 -17   20.60    1.96
   6   0 -17   23.51    2.17
   7   0 -17    0.31    1.12
   8   0 -17    3.13    1.44
   9   0 -17   -1.30    1.38
  10   0 -17    7.61    1.85
  11   0 -17    4.81    1.84
  12   0 -17    5.60    2.34
 -12   1 -17    5.33    4.15
 -11   1 -17    2.94    2.35
 -10   1 -17   -2.87    1.75
  -9   1 -17    1.03    1.55
  -8   1 -17   13.74    2.00
  -7   1 -17   -0.52    1.24
  -6   1 -17    4.39    1.41
  -5   1 -17    3.69    1.25
  -4   1 -17   40.12    2.09
  -3   1 -17    1.20    0.74
  -2   1 -17    0.28    0.63
  -1   1 -17   -0.44    0.59
   0   1 -17  173.98    4.92
   1   1 -17   -0.21    0.78
   2   1 -17    0.81    0.91
   3   1 -17    1.07    0.94
   4   1 -17   39.94    2.40
   5   1 -17    6.12    1.32
   6   1 -17    7.08    1.43
   7   1 -17   -2.30    1.30
   8   1 -17   19.69    2.63
   9   1 -17    2.13    1.78
  10   1 -17    3.64    1.96
  11   1 -17    1.49    2.17
  12   1 -17    6.38    4.11
 -11   2 -17   -0.95    3.72
 -10   2 -17    1.57    2.34
  -9   2 -17   -0.28    2.14
  -8   2 -17    3.16    2.20
  -7   2 -17    1.79    1.99
  -6   2 -17    9.07    1.69
  -5   2 -17    8.12    1.64
  -4   2 -17    4.18    1.33
  -3   2 -17    1.28    1.03
  -2   2 -17    0.35    0.91
  -1   2 -17    9.81    1.18
   0   2 -17    0.25    0.99
   1   2 -17    7.98    1.34
   2   2 -17   -1.19    1.22
   3   2 -17   -0.36    1.32
   4   2 -17    0.00    1.31
   5   2 -17   10.93    1.96
   6   2 -17   13.64    2.11
   7   2 -17    1.57    1.52
   8   2 -17    2.61    1.73
   9   2 -17   -0.53    1.93
  10   2 -17    4.65    2.31
  11   2 -17   -0.15    2.45
  -9   3 -17    0.48    2.49
  -8   3 -17    7.22    2.19
  -7   3 -17   -0.61    1.71
  -6   3 -17    3.06    1.97
  -5   3 -17    2.39    1.83
  -4   3 -17   14.43    2.55
  -3   3 -17   -1.43    1.36
  -2   3 -17   -0.04    1.31
  -1   3 -17   -0.20    1.30
   0   3 -17   72.00    5.13
   1   3 -17   -2.49    1.25
   2   3 -17    1.39    1.44
   3   3 -17    1.06    1.79
   4   3 -17   16.56    2.66
   5   3 -17    1.96    2.07
   6   3 -17    3.06    2.18
   7   3 -17    3.08    2.28
   8   3 -17    8.22    2.13
   9   3 -17    0.88    2.06
  -6   4 -17   -2.71    3.12
  -5   4 -17    4.29    2.57
  -4   4 -17    4.27    2.40
  -3   4 -17   -2.29    1.59
  -2   4 -17    2.24    2.10
  -1   4 -17    4.19    2.08
   0   4 -17   -2.38    1.85
   1   4 -17    2.64    2.23
   2   4 -17    2.10    1.76
   3   4 -17   -0.42    1.69
   4   4 -17    3.71    2.42
   5   4 -17    3.64    2.52
  -7  -4 -16    1.20    3.46
  -6  -4 -16    3.32    2.60
  -5  -4 -16    3.64    2.58
  -4  -4 -16    0.83    2.57
  -3  -4 -16   11.79    2.98
  -2  -4 -16   18.82    3.26
  -1  -4 -16    0.11    2.13
   0  -4 -16    0.13    2.86
   1  -4 -16    3.22    3.09
   2  -4 -16   20.48    3.08
   3  -4 -16    7.51    2.35
   4  -4 -16   -0.43    2.03
   5  -4 -16    0.80    2.12
   6  -4 -16    1.70    2.06
   7  -4 -16   -1.95    3.15
 -10  -3 -16    1.64    3.03
  -9  -3 -16    0.24    2.07
  -8  -3 -16    0.72    2.27
  -7  -3 -16   -1.86    2.02
  -6  -3 -16    3.49    1.84
  -5  -3 -16    4.40    1.66
  -4  -3 -16   -0.38    1.57
  -3  -3 -16    3.66    1.61
  -2  -3 -16    1.63    1.52
  -1  -3 -16    0.47    1.38
   0  -3 -16    0.24    1.31
   1  -3 -16    1.09    1.77
   2  -3 -16    0.64    1.38
   3  -3 -16    3.67    1.54
   4  -3 -16   -0.56    1.29
   5  -3 -16    4.22    1.71
   6  -3 -16    3.05    1.76
   7  -3 -16    1.11    1.80
   8  -3 -16    7.62    2.22
   9  -3 -16    2.29    2.95
 -11  -2 -16    5.77    2.48
 -10  -2 -16    4.65    2.32
  -9  -2 -16    0.91    2.02
  -8  -2 -16    0.02    1.86
  -7  -2 -16    7.77    2.37
  -6  -2 -16   -0.36    1.37
  -5  -2 -16    1.86    1.42
  -4  -2 -16    2.11    1.36
  -3  -2 -16   23.63    2.29
  -2  -2 -16   67.02    3.73
  -1  -2 -16    4.61    1.37
   0  -2 -16    4.64    1.16
   1  -2 -16    1.15    1.22
   2  -2 -16   67.02    3.66
   3  -2 -16   23.78    2.16
   4  -2 -16    3.79    1.20
   5  -2 -16    1.03    1.13
   6  -2 -16    2.17    1.23
   7  -2 -16    4.63    1.33
   8  -2 -16    4.62    1.88
   9  -2 -16    3.44    1.97
  10  -2 -16    9.58    2.40
  11  -2 -16    0.64    2.46
 -12  -1 -16    2.36    1.78
 -11  -1 -16    2.10    1.72
 -10  -1 -16    0.90    1.62
  -9  -1 -16    3.44    1.56
  -8  -1 -16   12.70    1.98
  -7  -1 -16    6.60    2.12
  -6  -1 -16    0.26    1.23
  -5  -1 -16    0.41    1.20
  -4  -1 -16   -0.65    1.07
  -3  -1 -16   17.32    1.82
  -2  -1 -16    0.92    0.88
  -1  -1 -16    0.28    0.87
   0  -1 -16   -0.75    0.82
   1  -1 -16    2.58    1.11
   2  -1 -16    2.55    1.03
   3  -1 -16   11.96    1.52
   4  -1 -16    0.32    0.99
   5  -1 -16    2.57    0.97
   6  -1 -16    1.63    1.19
   7  -1 -16    3.65    1.39
   8  -1 -16   12.54    1.84
   9  -1 -16   -0.15    1.30
  10  -1 -16    0.83    1.65
  11  -1 -16    0.63    1.90
  12  -1 -16    3.70    2.05
 -13   0 -16    5.33    4.97
 -12   0 -16    4.39    1.95
 -11   0 -16    1.21    1.62
 -10   0 -16   16.51    2.19
  -9   0 -16   10.10    1.78
  -8   0 -16    2.59    1.34
  -7   0 -16    9.22    1.63
  -6   0 -16   -0.71    1.10
  -5   0 -16    2.38    1.00
  -4   0 -16    7.62    1.10
  -3   0 -16   24.84    1.71
  -2   0 -16  102.71    3.72
  -1   0 -16   12.52    1.01
   0   0 -16   12.80    1.07
   1   0 -16   12.36    1.22
   2   0 -16  102.73    4.17
   3   0 -16   21.65    1.63
   4   0 -16    4.59    1.18
   5   0 -16    3.19    1.12
   6   0 -16    1.20    1.08
   7   0 -16   12.42    1.66
   8   0 -16    3.72    1.35
   9   0 -16    7.45    1.70
  10   0 -16   17.24    2.18
  11   0 -16    5.58    1.82
  12   0 -16    6.88    2.36
  13   0 -16    2.79    3.14
 -12   1 -16    3.57    2.42
 -11   1 -16    0.61    1.91
 -10   1 -16    0.30    1.93
  -9   1 -16    1.36    1.51
  -8   1 -16   11.02    1.89
  -7   1 -16    7.37    1.61
  -6   1 -16    2.62    1.27
  -5   1 -16    1.10    0.89
  -4   1 -16   -0.70    0.82
  -3   1 -16   10.85    1.01
  -2   1 -16    2.24    0.64
  -1   1 -16    0.61    0.60
   0   1 -16    0.81    0.59
   1   1 -16    0.08    0.68
   2   1 -16    0.38    0.89
   3   1 -16   16.20    1.46
   4   1 -16   -1.41    0.80
   5   1 -16   -0.02    0.91
   6   1 -16    3.37    1.19
   7   1 -16    4.28    1.76
   8   1 -16   15.72    2.38
   9   1 -16    0.38    1.70
  10   1 -16   -1.34    1.78
  11   1 -16   -0.77    1.89
  12   1 -16   -0.63    2.30
 -11   2 -16    5.94    2.58
 -10   2 -16   11.12    2.78
  -9   2 -16    6.44    2.42
  -8   2 -16    3.40    2.12
  -7   2 -16    4.27    1.41
  -6   2 -16   -0.94    1.20
  -5   2 -16    1.83    1.21
  -4   2 -16    1.80    1.19
  -3   2 -16   25.01    1.84
  -2   2 -16   62.33    2.79
  -1   2 -16    2.01    0.83
   0   2 -16    6.05    0.98
   1   2 -16    2.47    1.03
   2   2 -16   62.52    3.25
   3   2 -16   24.74    2.31
   4   2 -16    2.01    1.32
   5   2 -16    1.28    1.30
   6   2 -16   -0.59    1.28
   7   2 -16    9.04    1.90
   8   2 -16    5.36    1.69
   9   2 -16    6.53    1.94
  10   2 -16   10.04    2.62
  11   2 -16    3.54    2.36
  -9   3 -16   -0.10    1.79
  -8   3 -16    5.38    1.89
  -7   3 -16   -0.11    1.69
  -6   3 -16    0.10    1.80
  -5   3 -16    0.62    1.66
  -4   3 -16   -0.13    1.55
  -3   3 -16    3.48    1.42
  -2   3 -16   -1.19    1.16
  -1   3 -16    0.78    1.35
   0   3 -16   -0.09    1.26
   1   3 -16   -0.01    1.29
   2   3 -16   -0.16    1.30
   3   3 -16   -0.87    1.32
   4   3 -16    1.46    1.76
   5   3 -16    2.17    1.99
   6   3 -16   -0.13    2.03
   7   3 -16    5.66    1.85
   8   3 -16    4.45    1.89
   9   3 -16   -3.11    1.83
  10   3 -16    0.69    2.57
  -6   4 -16   -0.44    2.23
  -5   4 -16    0.24    2.29
  -4   4 -16    2.83    2.32
  -3   4 -16    8.39    2.07
  -2   4 -16   20.80    3.01
  -1   4 -16    0.39    2.02
   0   4 -16    1.47    2.02
   1   4 -16   -2.44    1.91
   2   4 -16   23.44    2.58
   3   4 -16   12.08    2.25
   4   4 -16   -3.86    1.96
   5   4 -16    2.19    2.34
   6   4 -16   -2.06    2.22
  -7  -4 -15    0.39    2.38
  -6  -4 -15   -0.65    2.29
  -5  -4 -15    3.07    2.55
  -4  -4 -15    1.37    2.34
  -3  -4 -15    1.84    2.30
  -2  -4 -15    0.43    2.14
  -1  -4 -15   -0.63    1.97
   0  -4 -15    1.12    2.89
   1  -4 -15   -2.30    2.52
   2  -4 -15    2.21    2.06
   3  -4 -15   -1.85    1.83
   4  -4 -15    1.55    1.96
   5  -4 -15    1.97    2.14
   6  -4 -15   -1.06    1.85
   7  -4 -15   -4.05    1.91
 -10  -3 -15    5.92    4.74
  -9  -3 -15    3.50    2.33
  -8  -3 -15   -0.45    2.02
  -7  -3 -15    2.21    2.07
  -6  -3 -15   12.85    2.02
  -5  -3 -15    3.09    1.58
  -4  -3 -15    0.30    1.47
  -3  -3 -15    3.47    1.60
  -2  -3 -15    2.66    1.45
  -1  -3 -15    6.03    1.53
   0  -3 -15   45.39    3.05
   1  -3 -15    7.52    2.00
   2  -3 -15    6.05    1.51
   3  -3 -15    4.38    1.48
   4  -3 -15   -1.00    1.35
   5  -3 -15    0.52    1.64
   6  -3 -15   10.25    1.98
   7  -3 -15   -1.62    1.46
   8  -3 -15    1.10    1.51
   9  -3 -15    8.41    2.05
  10  -3 -15   -2.72    2.88
 -11  -2 -15   -0.17    2.10
 -10  -2 -15    5.93    2.31
  -9  -2 -15    3.45    2.02
  -8  -2 -15    7.62    2.19
  -7  -2 -15    1.31    1.86
  -6  -2 -15    5.12    1.55
  -5  -2 -15   11.33    1.80
  -4  -2 -15    0.27    1.22
  -3  -2 -15    1.68    1.27
  -2  -2 -15    0.72    1.15
  -1  -2 -15    3.16    1.23
   0  -2 -15    0.39    0.89
   1  -2 -15    4.80    1.11
   2  -2 -15   -0.57    1.05
   3  -2 -15    2.16    1.13
   4  -2 -15    1.21    1.10
   5  -2 -15   13.48    1.67
   6  -2 -15    5.28    1.27
   7  -2 -15    1.45    1.12
   8  -2 -15    2.64    1.16
   9  -2 -15    5.65    1.90
  10  -2 -15    6.42    2.07
  11  -2 -15    0.77    2.38
 -13  -1 -15    5.64    2.71
 -12  -1 -15   -1.38    1.53
 -11  -1 -15    4.77    1.84
 -10  -1 -15    2.61    1.69
  -9  -1 -15   18.71    2.26
  -8  -1 -15   -0.87    1.36
  -7  -1 -15    0.20    1.26
  -6  -1 -15   22.66    1.81
  -5  -1 -15    1.27    1.04
  -4  -1 -15    0.66    1.11
  -3  -1 -15    6.81    1.39
  -2  -1 -15    2.60    0.92
  -1  -1 -15    5.91    1.11
   0  -1 -15   70.85    3.08
   1  -1 -15    4.83    1.15
   2  -1 -15    4.84    1.10
   3  -1 -15    9.70    1.27
   4  -1 -15    0.00    0.90
   5  -1 -15    3.73    1.02
   6  -1 -15   23.66    1.75
   7  -1 -15    0.72    1.08
   8  -1 -15    0.04    1.17
   9  -1 -15   18.57    2.06
  10  -1 -15    2.04    1.69
  11  -1 -15    2.79    1.91
  12  -1 -15    0.71    1.90
  13  -1 -15   10.07    3.79
 -13   0 -15   -5.54    3.42
 -12   0 -15   -0.70    1.63
 -11   0 -15   -1.21    1.59
 -10   0 -15    5.23    1.60
  -9   0 -15    9.00    1.74
  -8   0 -15    3.83    1.42
  -7   0 -15    3.87    1.31
  -6   0 -15    9.97    1.56
  -5   0 -15   28.11    1.89
  -4   0 -15    0.59    0.78
  -3   0 -15    3.99    0.89
  -2   0 -15   -0.34    0.61
  -1   0 -15    7.48    0.80
   0   0 -15    1.13    0.55
   1   0 -15    5.44    0.95
   2   0 -15    0.07    0.72
   3   0 -15    2.56    0.83
   4   0 -15   -0.72    0.88
   5   0 -15   28.24    2.25
   6   0 -15    9.77    1.50
   7   0 -15    5.21    1.35
   8   0 -15    5.09    1.40
   9   0 -15   13.98    1.90
  10   0 -15    5.36    1.58
  11   0 -15   -0.92    1.49
  12   0 -15   -2.69    1.80
  13   0 -15    1.43    2.77
 -12   1 -15   -2.67    2.08
 -11   1 -15    3.79    2.19
 -10   1 -15    0.39    1.90
  -9   1 -15   11.79    2.05
  -8   1 -15   -0.84    1.25
  -7   1 -15   -2.17    1.13
  -6   1 -15   23.22    2.22
  -5   1 -15    3.11    0.95
  -4   1 -15    1.91    0.86
  -3   1 -15   12.72    1.01
  -2   1 -15    3.14    0.64
  -1   1 -15    4.71    0.69
   0   1 -15   68.25    2.16
   1   1 -15    4.06    0.77
   2   1 -15    2.98    0.92
   3   1 -15    9.79    1.23
   4   1 -15    2.39    0.94
   5   1 -15    2.94    0.99
   6   1 -15   23.32    2.01
   7   1 -15    0.45    1.06
   8   1 -15    2.02    1.21
   9   1 -15   18.22    2.54
  10   1 -15    4.89    1.96
  11   1 -15    9.98    2.45
  12   1 -15   -1.04    2.05
 -11   2 -15    3.71    2.35
 -10   2 -15    3.87    2.10
  -9   2 -15   12.48    2.80
  -8   2 -15    3.23    1.44
  -7   2 -15    0.16    1.26
  -6   2 -15    6.43    1.51
  -5   2 -15   15.54    1.81
  -4   2 -15    1.77    0.96
  -3   2 -15    1.73    0.93
  -2   2 -15    0.36    0.70
  -1   2 -15    5.31    0.91
   0   2 -15    0.79    0.76
   1   2 -15    5.20    1.08
   2   2 -15   -0.57    0.88
   3   2 -15    0.59    1.11
   4   2 -15   -1.27    1.14
   5   2 -15   10.26    1.71
   6   2 -15    6.23    1.57
   7   2 -15   -0.46    1.34
   8   2 -15    2.27    1.52
   9   2 -15    4.73    1.71
  10   2 -15    4.96    2.16
  11   2 -15   -1.73    1.95
  12   2 -15   -2.38    3.46
 -10   3 -15   -0.07    2.00
  -9   3 -15    8.91    2.20
  -8   3 -15   -1.04    1.65
  -7   3 -15    0.35    1.65
  -6   3 -15   11.73    2.32
  -5   3 -15    2.04    1.82
  -4   3 -15    1.05    1.23
  -3   3 -15    0.33    1.17
  -2   3 -15    2.57    1.37
  -1   3 -15    4.20    1.47
   0   3 -15   50.93    3.23
   1   3 -15    4.02    1.45
   2   3 -15    6.60    1.61
   3   3 -15    3.36    1.47
   4   3 -15   -0.45    1.53
   5   3 -15    0.17    1.63
   6   3 -15   12.76    1.96
   7   3 -15   -0.43    1.49
   8   3 -15   -0.38    1.68
   9   3 -15    8.09    2.24
  10   3 -15    3.10    2.25
  -7   4 -15   -0.34    2.19
  -6   4 -15   -0.20    2.22
  -5   4 -15    2.87    2.17
  -4   4 -15    0.91    1.56
  -3   4 -15    0.38    1.57
  -2   4 -15   -0.93    1.52
  -1   4 -15    4.60    2.11
   0   4 -15   -0.10    1.82
   1   4 -15   -0.02    1.77
   2   4 -15    0.04    1.53
   3   4 -15   -0.05    1.48
   4   4 -15    3.31    2.07
   5   4 -15    4.61    2.29
   6   4 -15    1.52    2.16
   7   4 -15   -1.27    2.19
  -2  -5 -14    1.48    4.09
  -1  -5 -14    1.78    3.63
  -7  -4 -14    3.60    2.41
  -6  -4 -14   -0.13    2.31
  -5  -4 -14    0.64    2.28
  -4  -4 -14    1.83    2.28
  -3  -4 -14    3.01    2.20
  -2  -4 -14   -2.76    1.89
  -1  -4 -14    4.36    2.12
   0  -4 -14   12.81    2.46
   1  -4 -14    1.78    2.74
   2  -4 -14   -3.90    2.03
   3  -4 -14    1.75    1.98
   4  -4 -14    0.66    2.02
   5  -4 -14    3.93    1.95
   6  -4 -14   -1.33    1.83
   7  -4 -14    1.04    1.80
   8  -4 -14    0.42    2.08
 -10  -3 -14   -1.30    3.81
  -9  -3 -14   -0.79    1.99
  -8  -3 -14    3.24    2.15
  -7  -3 -14    6.86    2.20
  -6  -3 -14   13.55    1.97
  -5  -3 -14   12.24    1.91
  -4  -3 -14   13.42    1.93
  -3  -3 -14    3.47    1.43
  -2  -3 -14   22.70    2.24
  -1  -3 -14    4.84    1.49
   0  -3 -14   -0.21    1.24
   1  -3 -14    1.85    1.30
   2  -3 -14   20.71    2.26
   3  -3 -14    1.96    1.33
   4  -3 -14   10.14    2.00
   5  -3 -14   12.80    2.09
   6  -3 -14   14.52    2.29
   7  -3 -14    4.83    1.65
   8  -3 -14    1.68    1.62
   9  -3 -14   -0.31    1.54
  10  -3 -14    1.25    2.76
 -12  -2 -14   -0.98    4.33
 -11  -2 -14   12.03    2.93
 -10  -2 -14    0.77    1.96
  -9  -2 -14    0.46    1.82
  -8  -2 -14    3.26    1.90
  -7  -2 -14    0.64    1.68
  -6  -2 -14   -0.57    1.27
  -5  -2 -14    3.87    1.35
  -4  -2 -14    7.80    1.51
  -3  -2 -14    0.47    1.16
  -2  -2 -14   -0.06    1.13
  -1  -2 -14    7.26    1.32
   0  -2 -14   32.32    2.11
   1  -2 -14    5.43    1.11
   2  -2 -14   -0.61    0.95
   3  -2 -14    3.15    1.12
   4  -2 -14    9.86    1.37
   5  -2 -14    5.17    1.21
   6  -2 -14    0.60    1.00
   7  -2 -14    1.99    1.10
   8  -2 -14    0.75    1.06
   9  -2 -14    2.16    1.58
  10  -2 -14    1.43    1.74
  11  -2 -14   19.76    4.01
  12  -2 -14    3.06    2.92
 -13  -1 -14   -1.80    1.77
 -12  -1 -14    1.77    1.73
 -11  -1 -14    3.77    1.77
 -10  -1 -14   -0.35    1.47
  -9  -1 -14    2.13    1.45
  -8  -1 -14    2.45    1.38
  -7  -1 -14    7.70    1.67
  -6  -1 -14   13.05    1.44
  -5  -1 -14   23.19    1.84
  -4  -1 -14   37.08    2.18
  -3  -1 -14    1.26    1.12
  -2  -1 -14   37.15    2.20
  -1  -1 -14    6.13    1.05
   0  -1 -14   -0.07    0.76
   1  -1 -14    9.66    1.26
   2  -1 -14   35.12    2.39
   3  -1 -14    6.44    1.14
   4  -1 -14   39.14    2.22
   5  -1 -14   27.86    1.82
   6  -1 -14   13.83    1.36
   7  -1 -14    9.54    1.53
   8  -1 -14    0.31    1.14
   9  -1 -14    3.82    1.28
  10  -1 -14    2.43    1.58
  11  -1 -14    3.55    1.80
  12  -1 -14   -0.12    1.78
  13  -1 -14   -0.90    1.92
 -13   0 -14    0.32    2.18
 -12   0 -14    0.97    1.68
 -11   0 -14   33.01    3.03
 -10   0 -14    1.74    1.44
  -9   0 -14    0.75    1.25
  -8   0 -14    4.04    1.39
  -7   0 -14    0.26    1.11
  -6   0 -14    2.09    1.11
  -5   0 -14    5.77    0.97
  -4   0 -14    4.13    0.95
  -3   0 -14    6.67    0.82
  -2   0 -14    4.74    0.76
  -1   0 -14   15.50    1.07
   0   0 -14   28.70    1.35
   1   0 -14   13.36    1.25
   2   0 -14    2.47    0.78
   3   0 -14    7.89    0.98
   4   0 -14    6.34    1.16
   5   0 -14    3.91    1.13
   6   0 -14    1.00    0.95
   7   0 -14    1.41    1.05
   8   0 -14    1.54    1.16
   9   0 -14    0.27    1.20
  10   0 -14    1.80    1.38
  11   0 -14   43.74    3.23
  12   0 -14    0.96    1.96
  13   0 -14    2.25    2.23
 -13   1 -14    1.68    2.22
 -12   1 -14    4.22    2.16
 -11   1 -14    7.05    2.17
 -10   1 -14    2.64    1.97
  -9   1 -14    1.90    1.48
  -8   1 -14    0.14    1.24
  -7   1 -14    4.77    1.53
  -6   1 -14   13.72    1.40
  -5   1 -14   25.95    1.79
  -4   1 -14   38.67    2.16
  -3   1 -14    4.42    0.70
  -2   1 -14   36.20    1.48
  -1   1 -14    9.79    0.78
   0   1 -14    0.12    0.51
   1   1 -14   10.26    0.88
   2   1 -14   34.85    2.09
   3   1 -14    3.58    1.23
   4   1 -14   35.95    2.22
   5   1 -14   28.33    1.90
   6   1 -14   16.70    1.45
   7   1 -14    8.73    1.32
   8   1 -14   -0.29    1.08
   9   1 -14    2.59    1.79
  10   1 -14   -0.08    1.68
  11   1 -14    1.34    2.02
  12   1 -14   -3.03    2.00
 -12   2 -14   -1.56    2.26
 -11   2 -14   19.57    3.26
 -10   2 -14    0.23    2.08
  -9   2 -14    0.29    1.36
  -8   2 -14    2.44    1.35
  -7   2 -14    0.79    1.28
  -6   2 -14    0.76    1.13
  -5   2 -14    2.33    1.24
  -4   2 -14    8.06    1.20
  -3   2 -14    2.17    0.92
  -2   2 -14    0.39    0.68
  -1   2 -14    4.90    0.85
   0   2 -14   34.99    1.92
   1   2 -14    4.93    1.04
   2   2 -14   -0.53    0.84
   3   2 -14    0.27    1.04
   4   2 -14    8.69    1.50
   5   2 -14    3.86    1.32
   6   2 -14   -0.08    1.22
   7   2 -14    0.28    1.39
   8   2 -14    4.64    1.68
   9   2 -14    0.45    1.48
  10   2 -14    2.35    1.89
  11   2 -14   25.51    3.27
  12   2 -14    3.93    2.33
 -10   3 -14   -0.61    1.91
  -9   3 -14    0.57    1.79
  -8   3 -14    0.38    1.69
  -7   3 -14    2.25    1.52
  -6   3 -14    9.60    2.25
  -5   3 -14   14.86    2.51
  -4   3 -14   12.07    1.64
  -3   3 -14    2.68    1.29
  -2   3 -14   22.24    2.25
  -1   3 -14    2.48    1.10
   0   3 -14   -1.44    1.05
   1   3 -14    3.59    1.35
   2   3 -14   26.37    2.34
   3   3 -14    5.73    1.49
   4   3 -14   19.15    2.57
   5   3 -14   15.62    2.38
   6   3 -14   15.81    2.06
   7   3 -14    3.68    1.64
   8   3 -14    2.27    1.72
   9   3 -14    0.77    1.76
  10   3 -14   -1.45    1.88
  11   3 -14    0.75    4.25
  -7   4 -14   -0.56    2.17
  -6   4 -14    0.07    2.17
  -5   4 -14    1.76    2.10
  -4   4 -14    5.74    1.64
  -3   4 -14   -0.66    1.48
  -2   4 -14    2.45    1.47
  -1   4 -14    1.60    1.77
   0   4 -14   16.13    2.53
   1   4 -14    1.76    1.44
   2   4 -14   -1.43    1.49
   3   4 -14    0.44    1.58
   4   4 -14    1.22    1.69
   5   4 -14    0.26    2.05
   6   4 -14    1.42    2.03
   7   4 -14    0.36    2.29
  -3  -5 -13    4.87    4.34
  -2  -5 -13    0.66    2.53
  -1  -5 -13    0.54    2.35
   0  -5 -13    1.70    2.38
   1  -5 -13    2.39    3.77
  -8  -4 -13    7.44    3.85
  -7  -4 -13    5.78    2.42
  -6  -4 -13    0.23    2.22
  -5  -4 -13    2.29    2.27
  -4  -4 -13   37.35    4.09
  -3  -4 -13   -0.81    2.08
  -2  -4 -13    9.59    2.42
  -1  -4 -13   -0.93    1.86
   0  -4 -13    1.68    1.82
   1  -4 -13    1.52    1.74
   2  -4 -13   14.46    3.34
   3  -4 -13    0.65    1.90
   4  -4 -13   38.59    3.76
   5  -4 -13    2.32    1.92
   6  -4 -13    1.82    1.91
   7  -4 -13    1.89    2.04
   8  -4 -13    4.71    2.17
 -10  -3 -13   -0.71    3.34
  -9  -3 -13    6.99    2.29
  -8  -3 -13   -0.14    1.87
  -7  -3 -13    3.99    2.01
  -6  -3 -13    2.42    1.41
  -5  -3 -13    0.15    1.33
  -4  -3 -13    1.45    1.40
  -3  -3 -13    9.22    1.72
  -2  -3 -13   19.56    2.08
  -1  -3 -13    7.11    1.53
   0  -3 -13   13.93    1.67
   1  -3 -13    8.01    1.46
   2  -3 -13   17.20    1.65
   3  -3 -13    7.73    1.48
   4  -3 -13    1.35    1.32
   5  -3 -13   -1.12    1.20
   6  -3 -13    3.77    1.51
   7  -3 -13   -1.62    1.20
   8  -3 -13    3.49    1.57
   9  -3 -13    5.62    1.98
  10  -3 -13   -0.22    1.61
 -12  -2 -13   -0.98    2.62
 -11  -2 -13    0.69    1.73
 -10  -2 -13    4.32    1.75
  -9  -2 -13    2.21    1.54
  -8  -2 -13    5.81    1.60
  -7  -2 -13   10.00    2.17
  -6  -2 -13    1.75    1.28
  -5  -2 -13   12.74    1.66
  -4  -2 -13  106.26    5.29
  -3  -2 -13    0.00    1.10
  -2  -2 -13   21.97    2.01
  -1  -2 -13   -0.35    0.96
   0  -2 -13    0.83    0.87
   1  -2 -13   -0.56    0.80
   2  -2 -13   27.69    1.70
   3  -2 -13    0.30    0.97
   4  -2 -13  108.96    5.27
   5  -2 -13   11.42    1.49
   6  -2 -13    0.59    0.93
   7  -2 -13    8.89    1.36
   8  -2 -13    6.31    1.27
   9  -2 -13    1.45    1.51
  10  -2 -13    9.20    2.10
  11  -2 -13    2.77    2.12
  12  -2 -13   -1.98    2.34
 -13  -1 -13    2.23    2.44
 -12  -1 -13    2.65    1.74
 -11  -1 -13    5.67    1.77
 -10  -1 -13    1.60    1.46
  -9  -1 -13   15.88    2.06
  -8  -1 -13    3.82    1.43
  -7  -1 -13   -0.30    1.19
  -6  -1 -13    5.63    1.13
  -5  -1 -13   -0.12    0.89
  -4  -1 -13    0.06    0.76
  -3  -1 -13    8.67    1.04
  -2  -1 -13   41.79    1.94
  -1  -1 -13   38.08    2.12
   0  -1 -13   20.92    1.48
   1  -1 -13   41.20    2.11
   2  -1 -13   40.69    2.45
   3  -1 -13    6.94    1.15
   4  -1 -13   -1.16    0.66
   5  -1 -13    1.17    0.79
   6  -1 -13    4.70    0.96
   7  -1 -13    3.03    0.86
   8  -1 -13    2.77    1.19
   9  -1 -13   14.53    1.86
  10  -1 -13   -0.61    1.34
  11  -1 -13    7.20    1.96
  12  -1 -13    0.82    1.87
  13  -1 -13   -0.45    1.91
 -13   0 -13    1.54    2.23
 -12   0 -13    2.73    1.74
 -11   0 -13   -1.17    1.40
 -10   0 -13   10.38    1.77
  -9   0 -13   -0.26    1.21
  -8   0 -13   13.82    1.82
  -7   0 -13    5.48    1.35
  -6   0 -13    1.80    1.05
  -5   0 -13    9.63    1.13
  -4   0 -13  161.67    5.36
  -3   0 -13    0.97    0.56
  -2   0 -13   30.66    1.44
  -1   0 -13    0.11    0.52
   0   0 -13    0.30    0.49
   1   0 -13   -0.18    0.62
   2   0 -13   32.36    1.83
   3   0 -13   -1.28    0.71
   4   0 -13  164.27    7.07
   5   0 -13   11.56    1.38
   6   0 -13    0.81    0.92
   7   0 -13    8.05    1.35
   8   0 -13   16.40    1.80
   9   0 -13    2.62    1.22
  10   0 -13    9.33    1.67
  11   0 -13    1.41    1.47
  12   0 -13   -1.20    1.81
  13   0 -13    0.35    2.06
  14   0 -13   -2.14    3.08
 -13   1 -13   -1.33    2.19
 -12   1 -13    5.59    2.33
 -11   1 -13    4.79    2.17
 -10   1 -13    0.26    1.59
  -9   1 -13   15.83    2.62
  -8   1 -13    2.27    1.31
  -7   1 -13    0.96    0.87
  -6   1 -13    5.81    1.10
  -5   1 -13    0.28    0.76
  -4   1 -13    0.54    0.74
  -3   1 -13    8.13    0.74
  -2   1 -13   41.38    1.50
  -1   1 -13   37.52    1.46
   0   1 -13   19.67    1.01
   1   1 -13   39.77    1.53
   2   1 -13   35.41    2.64
   3   1 -13   11.42    1.43
   4   1 -13   -1.07    0.69
   5   1 -13    0.91    0.83
   6   1 -13    4.58    1.23
   7   1 -13    0.21    0.96
   8   1 -13    1.24    1.12
   9   1 -13   21.64    2.75
  10   1 -13    0.80    1.74
  11   1 -13   12.27    2.45
  12   1 -13    5.24    2.30
  13   1 -13   -2.01    2.80
 -12   2 -13    1.87    2.54
 -11   2 -13    0.93    2.33
 -10   2 -13    4.69    1.70
  -9   2 -13    0.55    1.43
  -8   2 -13    8.62    1.70
  -7   2 -13    9.20    1.69
  -6   2 -13   -1.17    1.09
  -5   2 -13   10.53    1.66
  -4   2 -13  111.67    4.71
  -3   2 -13    1.42    0.73
  -2   2 -13   25.53    1.39
  -1   2 -13    0.84    0.69
   0   2 -13    0.19    0.68
   1   2 -13   -1.63    0.74
   2   2 -13   26.06    1.79
   3   2 -13    0.86    0.85
   4   2 -13  120.28    5.58
   5   2 -13   14.90    1.73
   6   2 -13   -0.15    1.15
   7   2 -13   13.50    1.87
   8   2 -13    8.79    1.88
   9   2 -13   -0.86    1.40
  10   2 -13    7.16    1.87
  11   2 -13    0.92    1.95
  12   2 -13   -0.09    2.10
 -11   3 -13    0.12    2.97
 -10   3 -13    0.98    1.92
  -9   3 -13    2.99    1.90
  -8   3 -13    1.28    1.59
  -7   3 -13    2.04    1.55
  -6   3 -13    3.95    1.86
  -5   3 -13    1.41    1.54
  -4   3 -13    0.33    1.13
  -3   3 -13   11.52    1.63
  -2   3 -13   16.77    1.90
  -1   3 -13    7.15    1.23
   0   3 -13   15.33    1.74
   1   3 -13    6.45    1.35
   2   3 -13   15.67    1.91
   3   3 -13    8.42    1.61
   4   3 -13   -0.54    1.27
   5   3 -13   -0.86    1.13
   6   3 -13    3.89    1.50
   7   3 -13    1.38    1.41
   8   3 -13    2.37    1.64
   9   3 -13    4.98    2.00
  10   3 -13   -0.21    1.78
  11   3 -13    2.04    2.57
  -8   4 -13    2.71    2.45
  -7   4 -13    5.65    2.39
  -6   4 -13   -0.74    1.89
  -5   4 -13    8.84    2.55
  -4   4 -13   38.96    3.24
  -3   4 -13   -0.82    1.31
  -2   4 -13    8.41    1.87
  -1   4 -13   -0.61    1.62
   0   4 -13    0.99    1.64
   1   4 -13   -0.70    1.32
   2   4 -13    7.23    1.85
   3   4 -13    0.02    1.51
   4   4 -13   39.07    3.31
   5   4 -13    7.85    2.31
   6   4 -13   -2.01    1.89
   7   4 -13    7.09    2.47
   8   4 -13    7.88    2.77
  -3   5 -13    4.21    3.07
  -2   5 -13    3.59    3.13
  -1   5 -13    2.48    3.09
   0   5 -13    9.33    3.41
  -4  -5 -12    3.48    4.03
  -3  -5 -12    2.12    2.49
  -2  -5 -12    3.23    2.47
  -1  -5 -12   -2.22    2.19
   0  -5 -12    0.47    2.07
   1  -5 -12   -1.27    2.84
   2  -5 -12   -1.94    2.82
  -8  -4 -12   -1.32    2.85
  -7  -4 -12    2.01    2.37
  -6  -4 -12   -1.98    2.01
  -5  -4 -12   -1.90    2.02
  -4  -4 -12    9.55    2.60
  -3  -4 -12   -0.70    1.81
  -2  -4 -12   -3.63    1.60
  -1  -4 -12   -0.77    1.63
   0  -4 -12    1.77    1.75
   1  -4 -12   -1.10    1.54
   2  -4 -12    3.50    2.37
   3  -4 -12   -0.38    1.71
   4  -4 -12   11.49    2.18
   5  -4 -12   -0.29    1.73
   6  -4 -12    0.21    1.77
   7  -4 -12   -0.66    1.88
   8  -4 -12    0.29    2.00
   9  -4 -12    0.50    2.23
 -11  -3 -12    0.29    3.93
 -10  -3 -12    4.12    3.67
  -9  -3 -12    4.35    2.12
  -8  -3 -12   -0.01    1.66
  -7  -3 -12    2.12    1.80
  -6  -3 -12   67.16    5.11
  -5  -3 -12   14.43    2.01
  -4  -3 -12   -0.80    1.20
  -3  -3 -12    1.44    1.30
  -2  -3 -12   10.03    1.60
  -1  -3 -12   -2.50    1.05
   0  -3 -12    1.29    1.14
   1  -3 -12   -0.66    1.04
   2  -3 -12    9.54    1.33
   3  -3 -12    0.23    1.15
   4  -3 -12    0.32    1.34
   5  -3 -12   18.71    2.36
   6  -3 -12   56.42    4.58
   7  -3 -12   -0.55    1.29
   8  -3 -12    1.52    1.30
   9  -3 -12    4.82    1.76
  10  -3 -12    1.33    1.56
  11  -3 -12   -0.93    2.76
 -13  -2 -12    5.26    4.27
 -12  -2 -12    0.19    2.78
 -11  -2 -12   -1.20    1.66
 -10  -2 -12   15.84    2.27
  -9  -2 -12    2.10    1.49
  -8  -2 -12   -2.26    1.11
  -7  -2 -12    0.72    1.18
  -6  -2 -12    2.10    0.97
  -5  -2 -12    0.69    0.92
  -4  -2 -12   39.37    2.79
  -3  -2 -12   -0.32    1.04
  -2  -2 -12    0.43    0.98
  -1  -2 -12    0.71    0.91
   0  -2 -12   -1.14    0.75
   1  -2 -12    1.33    0.81
   2  -2 -12    0.44    0.74
   3  -2 -12    0.16    0.82
   4  -2 -12   41.77    2.70
   5  -2 -12    2.20    1.08
   6  -2 -12    3.39    1.07
   7  -2 -12   -0.82    0.86
   8  -2 -12    1.63    0.99
   9  -2 -12    2.21    1.14
  10  -2 -12   16.32    2.63
  11  -2 -12    1.37    2.22
  12  -2 -12   -3.36    2.34
 -13  -1 -12   -1.86    2.19
 -12  -1 -12   14.54    2.20
 -11  -1 -12   -1.52    1.35
 -10  -1 -12   -0.13    1.36
  -9  -1 -12   15.75    2.02
  -8  -1 -12    3.49    1.41
  -7  -1 -12    0.33    1.16
  -6  -1 -12  158.73    6.42
  -5  -1 -12   36.17    2.22
  -4  -1 -12   -0.06    0.73
  -3  -1 -12    0.58    0.72
  -2  -1 -12   28.91    1.67
  -1  -1 -12    0.64    0.46
   0  -1 -12    0.13    0.65
   1  -1 -12    0.99    0.78
   2  -1 -12   29.46    2.02
   3  -1 -12    1.99    0.82
   4  -1 -12    0.64    0.70
   5  -1 -12   40.03    2.11
   6  -1 -12  175.27    6.36
   7  -1 -12    1.28    0.80
   8  -1 -12    5.41    1.32
   9  -1 -12   16.30    1.93
  10  -1 -12   -0.15    1.33
  11  -1 -12    0.66    1.41
  12  -1 -12   15.18    2.62
  13  -1 -12    0.37    1.79
  14  -1 -12   -4.13    3.14
 -14   0 -12    2.61    3.28
 -13   0 -12    3.97    2.33
 -12   0 -12    3.01    1.59
 -11   0 -12    0.46    1.37
 -10   0 -12   16.80    2.09
  -9   0 -12    3.05    1.29
  -8   0 -12   -1.39    0.96
  -7   0 -12    1.93    1.14
  -6   0 -12    2.23    1.10
  -5   0 -12    6.04    0.75
  -4   0 -12   74.04    2.77
  -3   0 -12    0.30    0.51
  -2   0 -12    1.11    0.49
  -1   0 -12    2.28    0.54
   0   0 -12    0.81    0.47
   1   0 -12    2.71    0.70
   2   0 -12    0.37    0.63
   3   0 -12   -0.93    0.72
   4   0 -12   73.11    3.65
   5   0 -12    2.29    0.93
   6   0 -12    4.14    1.06
   7   0 -12    3.99    1.12
   8   0 -12    0.54    1.03
   9   0 -12    4.75    1.27
  10   0 -12   20.10    2.12
  11   0 -12    1.47    1.27
  12   0 -12    4.27    1.78
  13   0 -12    1.68    1.79
  14   0 -12    2.14    2.55
 -13   1 -12    2.24    2.24
 -12   1 -12   13.74    2.68
 -11   1 -12    1.14    1.79
 -10   1 -12    0.76    1.67
  -9   1 -12   18.44    2.64
  -8   1 -12    2.10    0.97
  -7   1 -12    2.69    0.95
  -6   1 -12  165.49    6.51
  -5   1 -12   36.70    2.15
  -4   1 -12    0.21    0.62
  -3   1 -12    1.88    0.51
  -2   1 -12   30.53    1.23
  -1   1 -12    1.27    0.50
   0   1 -12    0.41    0.45
   1   1 -12    0.95    0.49
   2   1 -12   29.48    2.18
   3   1 -12    0.78    0.88
   4   1 -12    0.44    0.93
   5   1 -12   37.93    2.58
   6   1 -12  176.11    7.78
   7   1 -12    0.27    1.09
   8   1 -12    5.01    1.23
   9   1 -12   18.49    2.52
  10   1 -12   -0.30    1.43
  11   1 -12    0.63    1.79
  12   1 -12   18.25    2.89
  13   1 -12    4.34    3.16
 -12   2 -12   -2.97    2.24
 -11   2 -12   -0.81    2.13
 -10   2 -12   19.84    2.39
  -9   2 -12    0.53    1.40
  -8   2 -12   -1.60    1.14
  -7   2 -12    1.28    1.18
  -6   2 -12    3.01    1.30
  -5   2 -12    1.29    0.87
  -4   2 -12   41.08    2.35
  -3   2 -12    0.43    0.66
  -2   2 -12    0.95    0.62
  -1   2 -12    0.06    0.64
   0   2 -12    2.05    0.71
   1   2 -12    1.30    0.78
   2   2 -12    1.16    0.81
   3   2 -12    0.93    0.78
   4   2 -12   46.58    2.88
   5   2 -12    0.87    1.04
   6   2 -12    4.66    1.35
   7   2 -12    0.90    1.22
   8   2 -12    1.17    1.36
   9   2 -12    3.99    1.44
  10   2 -12   22.45    2.39
  11   2 -12    1.45    1.98
  12   2 -12    3.30    2.09
  13   2 -12    5.80    3.63
 -11   3 -12    1.24    2.02
 -10   3 -12    0.94    1.85
  -9   3 -12    8.06    2.09
  -8   3 -12   -0.85    1.52
  -7   3 -12    1.65    1.51
  -6   3 -12   67.90    5.18
  -5   3 -12   13.00    1.76
  -4   3 -12    0.37    1.04
  -3   3 -12    1.31    1.10
  -2   3 -12   12.46    1.58
  -1   3 -12    0.16    0.93
   0   3 -12   -0.30    1.00
   1   3 -12   -0.35    1.04
   2   3 -12   10.14    1.58
   3   3 -12   -0.01    1.20
   4   3 -12    0.37    1.21
   5   3 -12   20.27    2.01
   6   3 -12   67.08    4.01
   7   3 -12   -0.29    1.36
   8   3 -12   -2.75    1.32
   9   3 -12   11.05    2.07
  10   3 -12   -0.48    1.83
  11   3 -12    4.33    2.24
  -8   4 -12    1.95    2.21
  -7   4 -12    0.57    2.18
  -6   4 -12    1.70    2.06
  -5   4 -12    0.11    1.44
  -4   4 -12    9.26    1.94
  -3   4 -12    1.25    1.42
  -2   4 -12    1.78    1.33
  -1   4 -12    3.32    1.63
   0   4 -12    2.71    1.81
   1   4 -12   -0.59    1.29
   2   4 -12   -0.01    1.43
   3   4 -12    1.95    1.55
   4   4 -12   17.95    2.26
   5   4 -12   -1.27    1.75
   6   4 -12   -0.90    1.86
   7   4 -12    0.36    2.10
   8   4 -12   -2.06    2.07
   9   4 -12    1.42    3.76
  -4   5 -12    0.43    2.94
  -3   5 -12    4.88    3.18
  -2   5 -12    2.36    2.25
  -1   5 -12    4.19    2.24
   0   5 -12   -1.95    2.06
   1   5 -12    3.07    2.42
   2   5 -12    0.14    2.33
   3   5 -12   -1.78    2.57
   4   5 -12    0.77    3.47
  -4  -5 -11    0.01    2.52
  -3  -5 -11   -2.00    2.36
  -2  -5 -11    2.52    2.35
  -1  -5 -11    7.80    2.54
   0  -5 -11   -4.02    2.12
   1  -5 -11   -1.36    2.32
   2  -5 -11    3.17    2.95
   3  -5 -11    0.40    2.92
  -8  -4 -11    2.90    3.33
  -7  -4 -11    7.47    3.89
  -6  -4 -11    5.86    2.19
  -5  -4 -11    7.04    2.34
  -4  -4 -11   20.25    2.93
  -3  -4 -11    3.02    1.90
  -2  -4 -11    1.48    1.80
  -1  -4 -11    6.42    1.95
   0  -4 -11    0.55    1.58
   1  -4 -11    5.63    1.79
   2  -4 -11    2.26    1.57
   3  -4 -11    5.98    2.64
   4  -4 -11   26.82    3.04
   5  -4 -11    7.17    2.09
   6  -4 -11    2.84    2.01
   7  -4 -11   13.47    2.57
   8  -4 -11    0.27    1.97
   9  -4 -11   -1.14    2.00
 -11  -3 -11    0.71    3.55
 -10  -3 -11    9.17    4.00
  -9  -3 -11    1.90    2.81
  -8  -3 -11    0.80    1.67
  -7  -3 -11    7.90    2.08
  -6  -3 -11    1.78    1.85
  -5  -3 -11    0.77    1.28
  -4  -3 -11    0.85    1.17
  -3  -3 -11    0.16    1.18
  -2  -3 -11    1.82    1.18
  -1  -3 -11   16.00    1.74
   0  -3 -11    0.75    1.08
   1  -3 -11   19.08    1.86
   2  -3 -11    0.60    0.90
   3  -3 -11    0.09    1.05
   4  -3 -11   -0.46    1.17
   5  -3 -11    3.42    1.40
   6  -3 -11    5.58    1.53
   7  -3 -11    6.87    1.68
   8  -3 -11   -0.34    1.36
   9  -3 -11    2.01    1.49
  10  -3 -11    3.59    1.78
  11  -3 -11    0.21    2.98
 -13  -2 -11    4.38    3.11
 -12  -2 -11   -1.99    2.57
 -11  -2 -11   -0.09    2.36
 -10  -2 -11    9.64    1.84
  -9  -2 -11    0.83    1.32
  -8  -2 -11    3.97    1.37
  -7  -2 -11   47.32    3.13
  -6  -2 -11   15.09    1.47
  -5  -2 -11   17.61    1.54
  -4  -2 -11   66.27    3.08
  -3  -2 -11   14.07    1.30
  -2  -2 -11    1.71    0.97
  -1  -2 -11   25.65    1.90
   0  -2 -11    0.44    0.77
   1  -2 -11   21.69    1.55
   2  -2 -11    2.21    0.80
   3  -2 -11   16.03    1.24
   4  -2 -11   72.47    3.54
   5  -2 -11   17.07    1.68
   6  -2 -11   16.51    1.62
   7  -2 -11   50.12    3.01
   8  -2 -11    1.87    1.00
   9  -2 -11    2.10    1.01
  10  -2 -11    6.00    2.58
  11  -2 -11    0.63    2.24
  12  -2 -11    0.13    2.26
 -14  -1 -11    4.55    2.78
 -13  -1 -11    9.32    2.64
 -12  -1 -11    4.74    1.68
 -11  -1 -11   -0.32    1.31
 -10  -1 -11    7.92    1.76
  -9  -1 -11    9.57    1.70
  -8  -1 -11    0.94    1.25
  -7  -1 -11   18.06    1.99
  -6  -1 -11   10.73    1.66
  -5  -1 -11    6.69    1.05
  -4  -1 -11    2.25    0.77
  -3  -1 -11    2.35    0.72
  -2  -1 -11    1.29    0.59
  -1  -1 -11   65.44    2.40
   0  -1 -11   -0.44    0.58
   1  -1 -11   64.99    3.13
   2  -1 -11    1.97    0.76
   3  -1 -11    2.38    0.77
   4  -1 -11    1.55    0.65
   5  -1 -11    4.76    0.86
   6  -1 -11   10.64    1.08
   7  -1 -11   16.42    1.44
   8  -1 -11   -0.18    0.92
   9  -1 -11    5.13    1.27
  10  -1 -11    6.01    1.62
  11  -1 -11   -0.74    1.35
  12  -1 -11    5.42    1.89
  13  -1 -11    8.36    2.14
  14  -1 -11    3.91    3.18
 -14   0 -11   -1.89    2.18
 -13   0 -11    6.49    2.49
 -12   0 -11    0.97    1.80
 -11   0 -11    2.47    1.46
 -10   0 -11   15.85    2.08
  -9   0 -11    4.13    1.31
  -8   0 -11    4.67    1.28
  -7   0 -11   96.95    4.72
  -6   0 -11   31.08    1.77
  -5   0 -11   14.97    1.19
  -4   0 -11  109.25    3.69
  -3   0 -11   31.51    1.48
  -2   0 -11    3.36    0.55
  -1   0 -11   37.26    1.38
   0   0 -11    0.14    0.41
   1   0 -11   38.49    1.86
   2   0 -11    3.12    0.65
   3   0 -11   31.32    2.08
   4   0 -11  108.45    4.84
   5   0 -11   14.44    1.41
   6   0 -11   32.80    2.18
   7   0 -11   90.56    4.48
   8   0 -11    5.07    1.17
   9   0 -11    3.00    1.13
  10   0 -11   20.16    2.02
  11   0 -11    3.30    1.58
  12   0 -11    0.02    1.55
  13   0 -11    0.96    1.83
  14   0 -11    2.12    2.01
 -14   1 -11    1.36    3.43
 -13   1 -11    9.68    2.69
 -12   1 -11    3.34    2.15
 -11   1 -11   -0.62    1.73
 -10   1 -11    5.82    2.01
  -9   1 -11    5.36    1.32
  -8   1 -11   -0.37    0.80
  -7   1 -11   17.19    1.58
  -6   1 -11    8.40    1.15
  -5   1 -11    6.72    1.01
  -4   1 -11    0.32    0.64
  -3   1 -11    2.87    0.53
  -2   1 -11    0.96    0.44
  -1   1 -11   63.42    1.92
   0   1 -11   -0.33    0.39
   1   1 -11   66.65    2.84
   2   1 -11   -0.52    0.71
   3   1 -11    3.04    0.91
   4   1 -11    2.08    0.95
   5   1 -11    2.22    1.10
   6   1 -11    8.13    1.44
   7   1 -11   19.92    1.59
   8   1 -11   -1.11    0.91
   9   1 -11    7.04    1.31
  10   1 -11    7.48    1.41
  11   1 -11   -0.26    1.60
  12   1 -11    3.35    2.10
  13   1 -11    4.59    3.41
 -13   2 -11    6.33    4.35
 -12   2 -11   -1.63    2.18
 -11   2 -11    1.15    1.55
 -10   2 -11    2.92    1.72
  -9   2 -11    1.42    1.32
  -8   2 -11    0.73    1.20
  -7   2 -11   44.61    3.32
  -6   2 -11   16.09    1.89
  -5   2 -11   16.72    1.50
  -4   2 -11   71.47    3.17
  -3   2 -11   12.69    1.07
  -2   2 -11    2.33    0.61
  -1   2 -11   24.50    1.39
   0   2 -11   -0.02    0.59
   1   2 -11   23.33    1.55
   2   2 -11    2.60    0.80
   3   2 -11   12.78    1.27
   4   2 -11   73.21    3.68
   5   2 -11   21.83    1.97
   6   2 -11   13.68    1.76
   7   2 -11   55.68    3.55
   8   2 -11    2.65    1.42
   9   2 -11    2.16    1.45
  10   2 -11    8.47    1.84
  11   2 -11    2.77    1.90
  12   2 -11   -0.06    2.03
  13   2 -11    9.84    4.02
 -12   3 -11    7.78    4.15
 -11   3 -11   -1.04    1.77
 -10   3 -11    1.71    1.80
  -9   3 -11    3.29    1.79
  -8   3 -11   -2.11    1.38
  -7   3 -11    6.01    1.70
  -6   3 -11    6.00    1.95
  -5   3 -11    3.01    1.13
  -4   3 -11    1.95    1.10
  -3   3 -11   -0.25    0.97
  -2   3 -11    0.56    0.94
  -1   3 -11   18.14    1.55
   0   3 -11   -0.38    0.95
   1   3 -11   13.77    1.63
   2   3 -11   -0.10    1.01
   3   3 -11    1.04    1.13
   4   3 -11    0.43    0.96
   5   3 -11    0.46    1.10
   6   3 -11    4.09    1.39
   7   3 -11    9.33    1.70
   8   3 -11    1.11    1.44
   9   3 -11    1.28    1.78
  10   3 -11    3.46    1.88
  11   3 -11    1.27    2.25
  -9   4 -11   -3.27    2.35
  -8   4 -11   -1.85    2.17
  -7   4 -11   17.06    3.06
  -6   4 -11    1.67    2.10
  -5   4 -11    8.89    1.82
  -4   4 -11   20.43    2.36
  -3   4 -11   -0.42    1.32
  -2   4 -11    1.48    1.44
  -1   4 -11    5.61    1.86
   0   4 -11   -1.06    1.39
   1   4 -11    9.63    1.64
   2   4 -11    4.66    1.57
   3   4 -11    0.36    1.44
   4   4 -11   27.98    2.73
   5   4 -11    6.13    2.14
   6   4 -11    3.75    2.04
   7   4 -11   13.53    2.62
   8   4 -11   -2.79    1.97
   9   4 -11   -1.11    3.59
  -5   5 -11    0.27    2.89
  -4   5 -11   -0.85    2.32
  -3   5 -11   -2.45    2.10
  -2   5 -11    0.22    2.04
  -1   5 -11    5.12    2.51
   0   5 -11    1.41    2.15
   1   5 -11    3.53    2.44
   2   5 -11    0.64    2.43
   3   5 -11   -0.30    1.88
   4   5 -11    1.08    2.72
  -4  -5 -10    3.97    2.69
  -3  -5 -10    0.45    2.37
  -2  -5 -10    3.85    2.37
  -1  -5 -10    0.44    2.04
   0  -5 -10   -0.78    2.00
   1  -5 -10    2.57    2.16
   2  -5 -10    1.37    2.14
   3  -5 -10   -0.21    2.82
   4  -5 -10   -0.71    2.83
  -9  -4 -10    1.18    3.31
  -8  -4 -10    8.56    3.88
  -7  -4 -10    1.20    2.90
  -6  -4 -10    0.06    1.89
  -5  -4 -10    0.37    2.00
  -4  -4 -10    1.89    1.83
  -3  -4 -10    1.32    1.77
  -2  -4 -10    4.94    1.94
  -1  -4 -10   20.46    2.67
   0  -4 -10   15.57    2.37
   1  -4 -10   15.51    2.30
   2  -4 -10    6.36    1.92
   3  -4 -10    1.83    1.66
   4  -4 -10   -3.14    1.60
   5  -4 -10    3.97    1.88
   6  -4 -10   -0.19    1.69
   7  -4 -10    0.79    1.73
   8  -4 -10    6.32    2.42
   9  -4 -10    1.56    2.15
 -12  -3 -10   -4.03    3.56
 -11  -3 -10    3.25    2.58
 -10  -3 -10   -2.36    1.93
  -9  -3 -10   24.39    3.44
  -8  -3 -10   23.08    2.90
  -7  -3 -10    4.92    1.93
  -6  -3 -10   -0.33    1.61
  -5  -3 -10    0.68    1.43
  -4  -3 -10    4.81    1.31
  -3  -3 -10    0.10    1.09
  -2  -3 -10   12.72    1.60
  -1  -3 -10   -0.44    0.98
   0  -3 -10    0.35    1.02
   1  -3 -10    1.04    1.05
   2  -3 -10   13.92    1.36
   3  -3 -10   -0.01    1.01
   4  -3 -10    5.15    1.50
   5  -3 -10    0.04    1.18
   6  -3 -10    0.30    1.26
   7  -3 -10    3.74    1.50
   8  -3 -10   22.10    2.70
   9  -3 -10   21.72    2.78
  10  -3 -10    0.37    1.59
  11  -3 -10    2.93    1.87
 -13  -2 -10   -1.57    2.64
 -12  -2 -10   -2.11    2.52
 -11  -2 -10   12.42    3.08
 -10  -2 -10    1.17    1.43
  -9  -2 -10    3.03    1.43
  -8  -2 -10   23.88    2.33
  -7  -2 -10    4.87    1.33
  -6  -2 -10    1.07    0.88
  -5  -2 -10    5.27    1.05
  -4  -2 -10    8.51    1.08
  -3  -2 -10    4.45    0.86
  -2  -2 -10   10.51    1.03
  -1  -2 -10   70.80    3.38
   0  -2 -10   61.44    2.63
   1  -2 -10   67.76    2.90
   2  -2 -10   14.55    1.15
   3  -2 -10    4.22    0.79
   4  -2 -10    7.17    1.14
   5  -2 -10    4.61    1.03
   6  -2 -10   -0.76    0.78
   7  -2 -10    8.27    1.20
   8  -2 -10   28.20    2.11
   9  -2 -10    0.31    0.98
  10  -2 -10   -0.57    1.10
  11  -2 -10   14.41    3.38
  12  -2 -10    0.70    2.19
  13  -2 -10    1.70    2.73
 -14  -1 -10    1.80    2.22
 -13  -1 -10   -1.87    2.05
 -12  -1 -10   -1.10    1.40
 -11  -1 -10   -0.45    1.30
 -10  -1 -10    1.64    1.39
  -9  -1 -10   52.24    3.62
  -8  -1 -10   36.12    2.93
  -7  -1 -10    4.73    1.33
  -6  -1 -10   -0.48    0.97
  -5  -1 -10    2.87    0.86
  -4  -1 -10    0.73    0.71
  -3  -1 -10   -0.34    0.61
  -2  -1 -10   17.45    1.19
  -1  -1 -10    1.45    0.44
   0  -1 -10    0.87    0.57
   1  -1 -10    1.19    0.53
   2  -1 -10   16.75    1.39
   3  -1 -10    0.65    0.66
   4  -1 -10    0.12    0.59
   5  -1 -10    3.68    0.76
   6  -1 -10    0.21    0.59
   7  -1 -10    6.77    0.96
   8  -1 -10   36.05    2.09
   9  -1 -10   49.56    3.20
  10  -1 -10    4.43    1.52
  11  -1 -10    2.10    1.53
  12  -1 -10    0.05    1.54
  13  -1 -10    1.76    1.80
  14  -1 -10    0.01    1.97
 -14   0 -10    2.80    2.39
 -13   0 -10    2.84    2.15
 -12   0 -10    3.41    2.12
 -11   0 -10   28.27    2.76
 -10   0 -10   -0.28    1.07
  -9   0 -10    3.39    1.20
  -8   0 -10   39.73    2.86
  -7   0 -10    6.53    0.97
  -6   0 -10    0.22    0.58
  -5   0 -10   10.41    0.94
  -4   0 -10   19.65    1.13
  -3   0 -10   10.17    0.77
  -2   0 -10    6.34    0.62
  -1   0 -10  129.11    3.58
   0   0 -10  125.00    3.76
   1   0 -10  130.69    4.75
   2   0 -10    5.52    0.72
   3   0 -10   10.08    1.08
   4   0 -10   17.81    1.51
   5   0 -10    9.23    1.15
   6   0 -10   -0.01    0.71
   7   0 -10    9.69    1.26
   8   0 -10   40.91    2.71
   9   0 -10   -0.14    0.95
  10   0 -10    0.44    1.01
  11   0 -10   42.92    3.56
  12   0 -10   -0.72    1.34
  13   0 -10    1.63    1.83
  14   0 -10    5.40    2.13
 -14   1 -10    1.77    3.29
 -13   1 -10   -0.30    2.01
 -12   1 -10   -1.50    1.47
 -11   1 -10    0.43    1.62
 -10   1 -10    2.39    1.21
  -9   1 -10   50.03    3.17
  -8   1 -10   36.54    2.74
  -7   1 -10    7.02    1.10
  -6   1 -10    1.34    0.78
  -5   1 -10    2.74    0.81
  -4   1 -10    1.31    0.71
  -3   1 -10    1.50    0.48
  -2   1 -10   16.49    0.83
  -1   1 -10    1.72    0.41
   0   1 -10    0.70    0.37
   1   1 -10    1.08    0.61
   2   1 -10   18.28    1.32
   3   1 -10    0.26    0.71
   4   1 -10    3.08    0.93
   5   1 -10    2.10    1.04
   6   1 -10    0.07    0.92
   7   1 -10    8.44    1.08
   8   1 -10   35.19    2.50
   9   1 -10   52.83    3.07
  10   1 -10    1.40    1.08
  11   1 -10    0.16    1.55
  12   1 -10    0.51    1.69
  13   1 -10    4.48    2.99
 -13   2 -10    2.76    2.55
 -12   2 -10    1.34    1.66
 -11   2 -10   21.05    2.47
 -10   2 -10   -0.45    1.20
  -9   2 -10    1.16    1.32
  -8   2 -10   23.64    2.40
  -7   2 -10    2.63    1.26
  -6   2 -10   -0.16    0.95
  -5   2 -10    5.80    1.00
  -4   2 -10    5.58    0.95
  -3   2 -10    3.94    0.69
  -2   2 -10   11.79    0.83
  -1   2 -10   71.65    2.68
   0   2 -10   60.74    2.40
   1   2 -10   68.05    2.97
   2   2 -10   12.27    1.16
   3   2 -10    4.32    0.87
   4   2 -10    7.31    1.23
   5   2 -10    5.27    1.13
   6   2 -10    1.02    0.99
   7   2 -10    6.11    1.39
   8   2 -10   29.91    2.60
   9   2 -10    1.70    1.36
  10   2 -10    0.60    1.34
  11   2 -10   19.63    2.82
  12   2 -10    1.00    1.84
  13   2 -10    1.39    2.15
 -12   3 -10    0.78    2.38
 -11   3 -10    0.70    1.77
 -10   3 -10   -2.91    1.47
  -9   3 -10   14.99    2.39
  -8   3 -10   22.58    2.61
  -7   3 -10    5.32    1.66
  -6   3 -10    0.63    1.39
  -5   3 -10    1.15    1.06
  -4   3 -10    2.75    1.14
  -3   3 -10    0.78    0.96
  -2   3 -10   11.29    1.54
  -1   3 -10   -0.75    0.80
   0   3 -10   -0.19    0.83
   1   3 -10   -0.06    0.93
   2   3 -10   13.00    1.65
   3   3 -10   -0.09    1.02
   4   3 -10    4.49    1.08
   5   3 -10   -0.42    0.99
   6   3 -10    1.20    1.15
   7   3 -10    6.76    1.54
   8   3 -10   32.22    2.70
   9   3 -10   20.97    2.47
  10   3 -10   -0.50    1.61
  11   3 -10    0.02    2.09
  12   3 -10    4.55    4.12
  -9   4 -10    0.56    2.50
  -8   4 -10    9.11    2.75
  -7   4 -10    3.18    2.27
  -6   4 -10   -0.48    1.79
  -5   4 -10    1.54    1.49
  -4   4 -10    2.06    1.46
  -3   4 -10    1.22    1.36
  -2   4 -10    7.20    1.68
  -1   4 -10   16.30    2.43
   0   4 -10   18.00    2.02
   1   4 -10   19.55    2.11
   2   4 -10    5.01    1.48
   3   4 -10    2.01    1.41
   4   4 -10    0.02    1.33
   5   4 -10    2.27    1.77
   6   4 -10    0.33    1.75
   7   4 -10    1.17    1.98
   8   4 -10   13.31    2.65
   9   4 -10    1.28    2.20
  -5   5 -10    2.64    3.17
  -4   5 -10   -0.89    1.79
  -3   5 -10    2.47    2.26
  -2   5 -10    2.12    2.20
  -1   5 -10   -2.46    2.10
   0   5 -10    2.78    2.43
   1   5 -10   -1.10    1.93
   2   5 -10    2.43    2.44
   3   5 -10   -1.70    1.80
   4   5 -10    0.41    1.98
   5   5 -10   -3.20    3.48
  -5  -5  -9   -0.34    3.04
  -4  -5  -9    3.34    3.31
  -3  -5  -9    8.38    2.45
  -2  -5  -9   19.15    3.11
  -1  -5  -9   10.22    2.74
   0  -5  -9   32.43    3.61
   1  -5  -9    6.77    2.40
   2  -5  -9   13.57    2.80
   3  -5  -9    5.65    3.25
   4  -5  -9    2.18    3.16
  -9  -4  -9    0.25    3.06
  -8  -4  -9    1.26    3.20
  -7  -4  -9    3.19    2.94
  -6  -4  -9    6.23    2.29
  -5  -4  -9    0.88    1.99
  -4  -4  -9    3.53    1.84
  -3  -4  -9    0.19    1.56
  -2  -4  -9   17.07    2.43
  -1  -4  -9    3.03    1.68
   0  -4  -9    0.78    1.52
   1  -4  -9    1.25    1.52
   2  -4  -9   13.37    2.27
   3  -4  -9    0.76    1.63
   4  -4  -9    3.88    2.57
   5  -4  -9    7.47    1.93
   6  -4  -9    4.45    1.90
   7  -4  -9    0.33    1.89
   8  -4  -9    0.46    1.95
   9  -4  -9    0.99    1.92
  10  -4  -9   11.85    4.24
 -12  -3  -9   -2.59    2.28
 -11  -3  -9    1.02    2.42
 -10  -3  -9   -1.24    2.00
  -9  -3  -9   -0.47    1.72
  -8  -3  -9    2.31    1.43
  -7  -3  -9   -0.52    1.15
  -6  -3  -9   22.59    2.15
  -5  -3  -9    1.69    1.19
  -4  -3  -9   -0.17    1.32
  -3  -3  -9   26.85    2.73
  -2  -3  -9   58.60    4.28
  -1  -3  -9   30.57    2.24
   0  -3  -9  131.68    7.27
   1  -3  -9   28.41    2.19
   2  -3  -9   61.23    3.20
   3  -3  -9   25.63    2.05
   4  -3  -9   -0.74    0.88
   5  -3  -9    4.20    1.54
   6  -3  -9   17.44    2.33
   7  -3  -9    1.30    1.36
   8  -3  -9    3.98    1.61
   9  -3  -9   -0.25    1.45
  10  -3  -9    1.84    1.52
  11  -3  -9    2.38    1.66
 -13  -2  -9    3.70    2.97
 -12  -2  -9    1.37    2.47
 -11  -2  -9    5.20    2.38
 -10  -2  -9   13.55    1.94
  -9  -2  -9    0.22    1.25
  -8  -2  -9    1.48    1.19
  -7  -2  -9    1.93    1.16
  -6  -2  -9    6.95    1.29
  -5  -2  -9    7.46    1.03
  -4  -2  -9   12.72    1.17
  -3  -2  -9    0.48    0.69
  -2  -2  -9   30.70    1.75
  -1  -2  -9    0.44    0.54
   0  -2  -9    0.18    0.46
   1  -2  -9   -0.05    0.62
   2  -2  -9   36.07    1.80
   3  -2  -9    2.94    0.73
   4  -2  -9   13.96    1.12
   5  -2  -9    9.21    1.23
   6  -2  -9    6.37    1.08
   7  -2  -9    0.09    0.81
   8  -2  -9    1.22    0.89
   9  -2  -9    0.92    0.98
  10  -2  -9   11.10    1.83
  11  -2  -9    3.32    2.33
  12  -2  -9    4.27    2.64
  13  -2  -9    6.10    3.06
 -14  -1  -9    1.36    2.21
 -13  -1  -9    0.10    2.15
 -12  -1  -9   -1.43    1.91
 -11  -1  -9    1.75    1.34
 -10  -1  -9    1.94    1.28
  -9  -1  -9    1.64    1.28
  -8  -1  -9    2.21    1.15
  -7  -1  -9   -0.21    0.97
  -6  -1  -9   42.55    2.69
  -5  -1  -9    2.62    0.78
  -4  -1  -9    5.65    0.87
  -3  -1  -9   35.76    1.80
  -2  -1  -9  150.81    5.60
  -1  -1  -9   37.49    1.58
   0  -1  -9  218.68    7.55
   1  -1  -9   39.28    1.70
   2  -1  -9  166.08    6.47
   3  -1  -9   35.78    1.95
   4  -1  -9    5.38    0.77
   5  -1  -9    3.59    0.68
   6  -1  -9   39.98    2.09
   7  -1  -9    1.62    0.62
   8  -1  -9    3.36    0.85
   9  -1  -9    0.44    1.04
  10  -1  -9    3.54    1.33
  11  -1  -9    0.46    1.33
  12  -1  -9    0.66    1.47
  13  -1  -9    7.90    2.13
  14  -1  -9    0.41    1.87
 -14   0  -9   -2.54    1.80
 -13   0  -9    3.20    1.96
 -12   0  -9    3.26    1.96
 -11   0  -9    2.62    1.32
 -10   0  -9   12.37    1.72
  -9   0  -9    0.91    1.06
  -8   0  -9    3.28    0.84
  -7   0  -9    0.88    0.63
  -6   0  -9    3.62    0.77
  -5   0  -9   22.62    1.43
  -4   0  -9   27.92    1.37
  -3   0  -9    8.03    0.71
  -2   0  -9   33.93    1.34
  -1   0  -9    0.24    0.37
   0   0  -9    1.12    0.40
   1   0  -9    0.38    0.55
   2   0  -9   34.94    1.64
   3   0  -9    7.68    0.94
   4   0  -9   29.98    1.87
   5   0  -9   24.35    1.71
   6   0  -9    5.10    0.94
   7   0  -9   -0.75    0.73
   8   0  -9    4.45    1.01
   9   0  -9    1.95    0.99
  10   0  -9   11.95    1.67
  11   0  -9    2.50    1.44
  12   0  -9    8.05    2.03
  13   0  -9   11.00    2.36
  14   0  -9   -0.18    1.72
 -14   1  -9   -0.64    2.04
 -13   1  -9    8.46    2.48
 -12   1  -9   -0.87    1.77
 -11   1  -9    4.06    1.39
 -10   1  -9    3.22    1.15
  -9   1  -9    0.31    1.05
  -8   1  -9    3.63    1.06
  -7   1  -9    0.55    0.79
  -6   1  -9   36.87    2.22
  -5   1  -9    4.11    0.82
  -4   1  -9    4.72    0.80
  -3   1  -9   37.12    1.43
  -2   1  -9  154.66    3.99
  -1   1  -9   37.43    1.21
   0   1  -9  215.89    5.41
   1   1  -9   36.28    1.82
   2   1  -9  156.97    5.82
   3   1  -9   35.23    2.12
   4   1  -9    3.42    0.95
   5   1  -9    4.93    1.04
   6   1  -9   40.91    2.82
   7   1  -9    0.54    0.88
   8   1  -9    5.09    0.90
   9   1  -9    0.00    0.83
  10   1  -9    2.99    1.01
  11   1  -9    3.16    1.16
  12   1  -9    3.02    1.79
  13   1  -9    7.29    3.00
  14   1  -9   -0.81    2.72
 -13   2  -9    5.10    2.62
 -12   2  -9    2.32    1.69
 -11   2  -9    1.51    1.55
 -10   2  -9    8.45    1.82
  -9   2  -9   -0.04    1.10
  -8   2  -9    1.00    1.16
  -7   2  -9    1.59    1.13
  -6   2  -9    7.66    1.05
  -5   2  -9    6.59    0.98
  -4   2  -9    9.58    1.10
  -3   2  -9    1.86    0.72
  -2   2  -9   29.14    1.56
  -1   2  -9    1.24    0.54
   0   2  -9    1.11    0.57
   1   2  -9    0.09    0.59
   2   2  -9   30.96    1.81
   3   2  -9    3.59    0.76
   4   2  -9   13.83    1.40
   5   2  -9    9.74    1.26
   6   2  -9    9.67    1.37
   7   2  -9    2.12    1.16
   8   2  -9    1.36    1.22
   9   2  -9    1.00    1.33
  10   2  -9   11.24    1.91
  11   2  -9    2.17    1.82
  12   2  -9    3.00    1.86
  13   2  -9    3.98    2.37
 -12   3  -9   -0.26    1.99
 -11   3  -9    0.09    1.78
 -10   3  -9    1.54    1.66
  -9   3  -9    1.67    1.58
  -8   3  -9    4.67    1.51
  -7   3  -9    0.03    1.51
  -6   3  -9   21.06    2.08
  -5   3  -9    1.48    1.06
  -4   3  -9    1.91    1.05
  -3   3  -9   28.90    2.28
  -2   3  -9   59.63    2.88
  -1   3  -9   30.18    1.95
   0   3  -9  138.93    5.53
   1   3  -9   25.10    2.12
   2   3  -9   60.77    3.45
   3   3  -9   26.47    2.27
   4   3  -9    0.72    0.89
   5   3  -9    3.15    1.16
   6   3  -9   23.33    2.10
   7   3  -9    0.29    1.14
   8   3  -9    3.13    1.48
   9   3  -9    1.03    1.54
  10   3  -9   -0.68    1.57
  11   3  -9    3.39    2.18
  12   3  -9   -2.21    2.27
  -9   4  -9   -0.78    2.48
  -8   4  -9    3.19    2.46
  -7   4  -9    1.89    2.28
  -6   4  -9    3.71    1.61
  -5   4  -9    0.91    1.43
  -4   4  -9    1.65    1.41
  -3   4  -9    0.57    1.31
  -2   4  -9    9.67    1.74
  -1   4  -9   -0.92    1.37
   0   4  -9    0.36    1.16
   1   4  -9    2.22    1.29
   2   4  -9    9.92    1.68
   3   4  -9   -0.62    1.24
   4   4  -9    2.24    1.50
   5   4  -9    2.67    1.55
   6   4  -9    2.70    1.89
   7   4  -9   -1.13    1.61
   8   4  -9   -0.06    1.89
   9   4  -9   -2.87    1.99
  -5   5  -9   -1.01    2.30
  -4   5  -9   -2.15    1.72
  -3   5  -9    6.90    2.42
  -2   5  -9   20.87    3.20
  -1   5  -9    7.92    2.42
   0   5  -9   34.74    4.04
   1   5  -9    7.63    2.45
   2   5  -9   15.30    2.51
   3   5  -9    7.87    2.13
   4   5  -9    0.65    1.86
   5   5  -9    1.29    2.24
  -5  -5  -8   -0.82    3.11
  -4  -5  -8   -1.14    2.73
  -3  -5  -8   -1.59    1.97
  -2  -5  -8    0.26    2.13
  -1  -5  -8    3.06    2.14
   0  -5  -8    1.69    1.99
   1  -5  -8    4.29    2.22
   2  -5  -8    0.66    2.15
   3  -5  -8    2.21    2.25
   4  -5  -8   -2.50    2.95
   5  -5  -8   -0.63    3.29
  -9  -4  -8    3.26    3.65
  -8  -4  -8    5.57    3.21
  -7  -4  -8   -0.96    2.49
  -6  -4  -8    1.72    2.48
  -5  -4  -8    7.01    2.15
  -4  -4  -8    2.78    1.87
  -3  -4  -8   11.27    2.24
  -2  -4  -8   18.61    2.68
  -1  -4  -8   15.93    2.34
   0  -4  -8   24.00    2.67
   1  -4  -8   21.13    2.59
   2  -4  -8   29.19    2.94
   3  -4  -8   18.45    2.47
   4  -4  -8    1.54    1.67
   5  -4  -8    8.11    2.16
   6  -4  -8   -0.39    1.60
   7  -4  -8   -0.08    1.77
   8  -4  -8    8.71    2.35
   9  -4  -8    1.11    1.97
  10  -4  -8    5.79    2.32
 -12  -3  -8    1.25    2.58
 -11  -3  -8    7.52    2.79
 -10  -3  -8    4.14    2.19
  -9  -3  -8   -2.47    1.68
  -8  -3  -8   13.85    2.35
  -7  -3  -8    1.63    1.23
  -6  -3  -8   18.89    2.02
  -5  -3  -8   -0.39    0.99
  -4  -3  -8    0.38    0.98
  -3  -3  -8    1.91    1.04
  -2  -3  -8    4.15    1.42
  -1  -3  -8   18.21    1.66
   0  -3  -8    3.98    1.10
   1  -3  -8   14.94    1.61
   2  -3  -8    1.54    0.99
   3  -3  -8    2.19    1.01
   4  -3  -8   -1.30    0.86
   5  -3  -8    2.08    1.02
   6  -3  -8   14.23    2.13
   7  -3  -8   -0.28    1.28
   8  -3  -8    8.90    1.97
   9  -3  -8   -1.69    1.33
  10  -3  -8    2.08    1.76
  11  -3  -8    6.91    2.06
  12  -3  -8   -1.20    1.79
 -13  -2  -8   12.27    3.32
 -12  -2  -8    2.93    2.44
 -11  -2  -8    1.51    2.07
 -10  -2  -8   11.08    2.49
  -9  -2  -8    7.13    1.50
  -8  -2  -8   21.12    2.07
  -7  -2  -8    2.38    1.18
  -6  -2  -8    3.82    1.12
  -5  -2  -8   19.30    1.46
  -4  -2  -8    6.72    0.95
  -3  -2  -8   37.35    2.05
  -2  -2  -8   78.95    3.15
  -1  -2  -8   36.92    1.74
   0  -2  -8   58.05    2.39
   1  -2  -8   31.86    1.50
   2  -2  -8   81.00    2.79
   3  -2  -8   40.41    1.93
   4  -2  -8    6.40    0.85
   5  -2  -8   16.96    1.54
   6  -2  -8    3.27    0.95
   7  -2  -8    4.52    1.03
   8  -2  -8   18.50    1.69
   9  -2  -8    7.77    1.35
  10  -2  -8   12.11    1.93
  11  -2  -8    3.18    2.26
  12  -2  -8    0.90    2.13
  13  -2  -8    9.26    3.33
 -14  -1  -8    1.00    2.04
 -13  -1  -8   10.75    2.85
 -12  -1  -8    1.38    1.98
 -11  -1  -8   15.45    2.00
 -10  -1  -8    4.98    1.44
  -9  -1  -8   10.36    1.67
  -8  -1  -8   43.45    2.98
  -7  -1  -8    1.01    1.00
  -6  -1  -8   27.93    2.19
  -5  -1  -8    0.59    0.64
  -4  -1  -8    1.55    0.64
  -3  -1  -8   12.44    0.97
  -2  -1  -8    2.34    0.57
  -1  -1  -8   37.97    1.56
   0  -1  -8    3.35    0.59
   1  -1  -8   41.22    1.73
   2  -1  -8    1.98    0.64
   3  -1  -8   12.42    1.05
   4  -1  -8    3.12    0.63
   5  -1  -8   -0.22    0.50
   6  -1  -8   28.43    1.65
   7  -1  -8    2.01    0.70
   8  -1  -8   40.29    2.24
   9  -1  -8    8.35    1.20
  10  -1  -8    2.72    1.38
  11  -1  -8   11.14    2.07
  12  -1  -8    1.44    1.56
  13  -1  -8   12.72    2.39
  14  -1  -8    3.25    1.99
 -15   0  -8   -1.70    3.82
 -14   0  -8    0.78    2.17
 -13   0  -8   15.10    2.90
 -12   0  -8   -0.34    1.54
 -11   0  -8    5.27    1.84
 -10   0  -8   22.18    2.20
  -9   0  -8    7.04    1.03
  -8   0  -8   24.58    1.71
  -7   0  -8    2.41    0.74
  -6   0  -8    6.69    0.81
  -5   0  -8   17.56    1.24
  -4   0  -8    6.00    0.65
  -3   0  -8   35.33    1.50
  -2   0  -8  143.98    4.20
  -1   0  -8   25.35    1.04
   0   0  -8   59.22    1.95
   1   0  -8   24.98    1.39
   2   0  -8  138.43    5.94
   3   0  -8   36.99    1.93
   4   0  -8    6.60    0.82
   5   0  -8   20.24    1.51
   6   0  -8    4.78    0.92
   7   0  -8    2.35    0.87
   8   0  -8   27.10    2.03
   9   0  -8    5.27    1.16
  10   0  -8   26.31    2.21
  11   0  -8    4.90    1.56
  12   0  -8   -0.58    1.33
  13   0  -8   13.15    2.37
  14   0  -8    2.59    1.93
 -14   1  -8    1.82    2.17
 -13   1  -8    4.28    2.06
 -12   1  -8   -0.58    1.59
 -11   1  -8    6.46    1.61
 -10   1  -8    1.55    1.12
  -9   1  -8    6.90    1.33
  -8   1  -8   35.22    2.54
  -7   1  -8    1.04    0.87
  -6   1  -8   27.07    1.82
  -5   1  -8   -0.08    0.59
  -4   1  -8    1.74    0.63
  -3   1  -8   10.70    0.72
  -2   1  -8    2.75    0.39
  -1   1  -8   41.37    1.24
   0   1  -8    1.86    0.39
   1   1  -8   39.37    1.83
   2   1  -8    1.46    0.54
   3   1  -8   10.27    1.10
   4   1  -8    3.78    0.85
   5   1  -8    0.45    0.72
   6   1  -8   27.77    2.25
   7   1  -8    1.79    1.02
   8   1  -8   43.04    2.29
   9   1  -8   10.34    1.36
  10   1  -8    1.75    1.00
  11   1  -8   11.62    1.67
  12   1  -8    1.72    1.96
  13   1  -8   18.48    4.40
  14   1  -8    0.01    2.92
 -14   2  -8    0.63    3.66
 -13   2  -8   10.74    2.31
 -12   2  -8    0.48    1.61
 -11   2  -8    0.05    1.44
 -10   2  -8    8.22    1.79
  -9   2  -8   11.41    1.79
  -8   2  -8   16.45    1.99
  -7   2  -8    1.82    1.08
  -6   2  -8    3.74    0.87
  -5   2  -8   17.88    1.41
  -4   2  -8    6.45    0.93
  -3   2  -8   38.49    2.10
  -2   2  -8   80.47    3.25
  -1   2  -8   32.79    1.55
   0   2  -8   52.60    2.16
   1   2  -8   36.33    1.81
   2   2  -8   77.23    3.26
   3   2  -8   37.80    2.07
   4   2  -8    6.77    1.04
   5   2  -8   18.58    1.74
   6   2  -8    3.98    1.09
   7   2  -8    2.27    1.08
   8   2  -8   20.19    2.16
   9   2  -8    9.71    1.74
  10   2  -8   13.27    2.06
  11   2  -8    3.93    1.98
  12   2  -8    2.13    1.95
  13   2  -8   18.78    3.07
 -12   3  -8    1.09    1.75
 -11   3  -8    5.08    2.01
 -10   3  -8    2.21    1.74
  -9   3  -8    1.44    1.48
  -8   3  -8   13.75    2.55
  -7   3  -8   -1.45    1.38
  -6   3  -8   18.53    1.98
  -5   3  -8    1.01    1.00
  -4   3  -8   -0.41    0.98
  -3   3  -8    1.95    1.04
  -2   3  -8    0.16    0.77
  -1   3  -8   18.72    1.46
   0   3  -8    0.80    0.81
   1   3  -8   10.75    1.48
   2   3  -8   -1.31    0.87
   3   3  -8    4.08    1.15
   4   3  -8   -0.01    0.79
   5   3  -8    0.62    0.96
   6   3  -8   20.83    1.97
   7   3  -8    0.27    1.17
   8   3  -8   15.98    1.95
   9   3  -8    2.90    1.49
  10   3  -8    4.43    1.78
  11   3  -8   11.50    2.65
  12   3  -8    0.77    2.30
 -10   4  -8   -0.02    3.89
  -9   4  -8    5.45    2.73
  -8   4  -8    3.09    2.38
  -7   4  -8   -0.37    2.10
  -6   4  -8    1.72    1.52
  -5   4  -8    5.85    1.60
  -4   4  -8    1.64    1.38
  -3   4  -8   14.32    2.01
  -2   4  -8   27.11    2.57
  -1   4  -8   19.38    2.60
   0   4  -8   23.14    2.13
   1   4  -8   18.91    2.10
   2   4  -8   28.05    2.49
   3   4  -8   21.08    2.20
   4   4  -8    1.27    1.40
   5   4  -8    8.59    1.72
   6   4  -8    2.35    1.82
   7   4  -8   -1.49    1.74
   8   4  -8    5.13    2.06
   9   4  -8    5.09    2.29
  -6   5  -8    8.63    2.84
  -5   5  -8    1.40    1.88
  -4   5  -8   -1.57    1.75
  -3   5  -8    1.57    2.05
  -2   5  -8    0.59    2.09
  -1   5  -8    2.07    2.08
   0   5  -8    0.04    2.15
   1   5  -8    1.66    2.13
   2   5  -8   -0.26    1.71
   3   5  -8    1.08    1.91
   4   5  -8   -2.34    1.73
   5   5  -8   -0.10    2.25
  -5  -5  -7    0.43    2.90
  -4  -5  -7    1.88    2.83
  -3  -5  -7   19.48    2.99
  -2  -5  -7   -0.26    2.02
  -1  -5  -7    1.23    2.06
   0  -5  -7    9.28    2.38
   1  -5  -7    6.90    2.15
   2  -5  -7    2.56    2.06
   3  -5  -7   17.47    3.10
   4  -5  -7    3.74    2.40
   5  -5  -7   -2.25    2.70
 -10  -4  -7    4.71    3.47
  -9  -4  -7   -0.08    3.22
  -8  -4  -7    6.54    3.49
  -7  -4  -7   -1.30    2.47
  -6  -4  -7   -3.43    1.92
  -5  -4  -7    8.66    2.21
  -4  -4  -7    0.09    1.60
  -3  -4  -7    2.67    1.66
  -2  -4  -7    9.02    1.81
  -1  -4  -7   -1.39    1.42
   0  -4  -7   -0.26    1.43
   1  -4  -7    0.58    1.50
   2  -4  -7   12.25    2.12
   3  -4  -7    2.52    1.71
   4  -4  -7   -0.31    1.44
   5  -4  -7   11.77    2.14
   6  -4  -7    2.43    1.84
   7  -4  -7    0.66    1.83
   8  -4  -7    7.31    2.27
   9  -4  -7   -0.76    1.85
  10  -4  -7   -1.66    1.97
 -12  -3  -7   -0.20    2.42
 -11  -3  -7   12.08    2.99
 -10  -3  -7    1.59    1.84
  -9  -3  -7    9.26    2.14
  -8  -3  -7   18.41    2.71
  -7  -3  -7    7.48    1.54
  -6  -3  -7    0.83    1.13
  -5  -3  -7    0.53    1.10
  -4  -3  -7    5.18    1.23
  -3  -3  -7   81.21    4.17
  -2  -3  -7    1.75    0.96
  -1  -3  -7    7.89    1.18
   0  -3  -7   35.67    2.33
   1  -3  -7    5.85    1.14
   2  -3  -7    4.05    1.08
   3  -3  -7   92.45    4.06
   4  -3  -7    2.76    1.05
   5  -3  -7    2.94    1.04
   6  -3  -7   -1.15    1.20
   7  -3  -7    7.97    1.82
   8  -3  -7   14.07    2.20
   9  -3  -7    4.53    1.54
  10  -3  -7   -0.26    1.61
  11  -3  -7   12.76    2.36
  12  -3  -7    1.50    1.82
 -14  -2  -7    2.26    4.45
 -13  -2  -7    6.55    2.74
 -12  -2  -7    2.05    2.35
 -11  -2  -7    3.22    2.08
 -10  -2  -7    2.58    1.84
  -9  -2  -7    3.24    1.28
  -8  -2  -7   25.60    2.22
  -7  -2  -7    3.59    1.15
  -6  -2  -7   -0.22    0.92
  -5  -2  -7   33.41    1.87
  -4  -2  -7    0.71    0.65
  -3  -2  -7    8.94    0.98
  -2  -2  -7   25.37    1.52
  -1  -2  -7    2.36    0.63
   0  -2  -7   -0.86    0.45
   1  -2  -7    3.11    0.53
   2  -2  -7   27.81    1.53
   3  -2  -7    9.97    0.94
   4  -2  -7   -0.23    0.59
   5  -2  -7   33.08    1.76
   6  -2  -7    0.37    0.66
   7  -2  -7    4.00    0.96
   8  -2  -7   22.59    1.96
   9  -2  -7    2.63    1.09
  10  -2  -7    0.62    1.23
  11  -2  -7    2.15    1.40
  12  -2  -7   -0.87    2.31
  13  -2  -7    6.47    3.11
 -14  -1  -7    9.86    2.69
 -13  -1  -7   -1.44    1.89
 -12  -1  -7    1.32    1.86
 -11  -1  -7   27.29    2.58
 -10  -1  -7    0.07    1.04
  -9  -1  -7    9.59    1.62
  -8  -1  -7   39.86    2.84
  -7  -1  -7   17.02    1.66
  -6  -1  -7    0.78    0.90
  -5  -1  -7    2.35    0.87
  -4  -1  -7   21.27    1.36
  -3  -1  -7  177.13    6.43
  -2  -1  -7   -0.62    0.46
  -1  -1  -7   23.15    1.12
   0  -1  -7  123.60    4.44
   1  -1  -7   23.81    1.22
   2  -1  -7    0.11    0.51
   3  -1  -7  185.38    7.35
   4  -1  -7   18.98    1.25
   5  -1  -7    4.34    0.73
   6  -1  -7    5.03    0.76
   7  -1  -7   16.06    1.28
   8  -1  -7   43.02    2.22
   9  -1  -7   10.48    1.28
  10  -1  -7   -0.45    1.21
  11  -1  -7   21.47    2.67
  12  -1  -7    4.42    1.70
  13  -1  -7   -0.01    1.60
  14  -1  -7    9.98    2.46
 -14   0  -7    2.37    2.05
 -13   0  -7    5.64    2.30
 -12   0  -7    1.62    1.55
 -11   0  -7    5.66    1.84
 -10   0  -7    4.76    1.03
  -9   0  -7    7.97    1.11
  -8   0  -7   22.05    1.58
  -7   0  -7    4.63    0.79
  -6   0  -7    4.96    0.74
  -5   0  -7   50.78    2.25
  -4   0  -7    4.35    0.60
  -3   0  -7   15.31    0.89
  -2   0  -7   24.58    1.13
  -1   0  -7    4.04    0.45
   0   0  -7    0.55    0.38
   1   0  -7    4.77    0.61
   2   0  -7   24.83    1.46
   3   0  -7   13.01    1.11
   4   0  -7    4.99    0.74
   5   0  -7   47.27    2.46
   6   0  -7    5.23    0.84
   7   0  -7    5.25    0.93
   8   0  -7   22.42    1.84
   9   0  -7    7.66    1.29
  10   0  -7    7.18    1.41
  11   0  -7    3.88    1.56
  12   0  -7   -0.31    1.47
  13   0  -7    9.40    2.18
  14   0  -7    0.78    1.73
  15   0  -7    4.76    3.10
 -14   1  -7    8.07    2.51
 -13   1  -7    0.59    1.91
 -12   1  -7    0.28    1.31
 -11   1  -7   20.36    2.24
 -10   1  -7    0.38    1.06
  -9   1  -7    9.25    1.56
  -8   1  -7   38.68    2.91
  -7   1  -7   10.68    1.49
  -6   1  -7    1.91    0.87
  -5   1  -7    5.49    0.84
  -4   1  -7   19.61    1.33
  -3   1  -7  180.07    5.81
  -2   1  -7    0.15    0.33
  -1   1  -7   22.19    0.85
   0   1  -7  124.65    3.43
   1   1  -7   23.69    1.29
   2   1  -7    0.25    0.49
   3   1  -7  182.97    7.68
   4   1  -7   21.64    1.59
   5   1  -7    5.35    1.00
   6   1  -7    6.50    1.11
   7   1  -7   16.10    1.37
   8   1  -7   41.52    2.28
   9   1  -7   11.38    1.43
  10   1  -7   -0.61    0.85
  11   1  -7   26.19    2.28
  12   1  -7    2.85    1.57
  13   1  -7    4.57    2.96
  14   1  -7   18.68    4.53
 -14   2  -7   -0.13    2.72
 -13   2  -7    4.11    1.91
 -12   2  -7   -2.35    1.32
 -11   2  -7    5.85    1.66
 -10   2  -7    2.33    1.45
  -9   2  -7    1.92    1.23
  -8   2  -7   25.64    2.35
  -7   2  -7    3.24    1.17
  -6   2  -7   -1.10    0.61
  -5   2  -7   29.47    1.87
  -4   2  -7   -0.56    0.54
  -3   2  -7   12.05    1.08
  -2   2  -7   25.72    1.53
  -1   2  -7    3.11    0.54
   0   2  -7   -0.44    0.44
   1   2  -7    3.61    0.65
   2   2  -7   26.58    1.57
   3   2  -7   10.91    1.03
   4   2  -7    0.76    0.70
   5   2  -7   38.66    2.37
   6   2  -7   -0.69    0.79
   7   2  -7    3.74    1.11
   8   2  -7   25.33    2.31
   9   2  -7    2.20    1.40
  10   2  -7    2.35    1.48
  11   2  -7    3.13    2.02
  12   2  -7    0.27    1.80
  13   2  -7    8.65    2.53
 -12   3  -7    0.22    2.08
 -11   3  -7   16.22    2.33
 -10   3  -7   -0.16    1.45
  -9   3  -7    4.39    1.97
  -8   3  -7   14.08    2.55
  -7   3  -7    2.13    1.68
  -6   3  -7    2.52    1.06
  -5   3  -7    1.53    1.02
  -4   3  -7    2.87    1.10
  -3   3  -7   81.86    4.37
  -2   3  -7    3.41    0.85
  -1   3  -7    8.22    1.07
   0   3  -7   35.16    2.15
   1   3  -7    6.36    1.20
   2   3  -7    2.48    1.01
   3   3  -7   84.38    3.68
   4   3  -7    4.06    0.96
   5   3  -7    3.24    1.07
   6   3  -7    1.39    1.13
   7   3  -7    5.30    1.38
   8   3  -7   21.13    2.16
   9   3  -7    4.07    1.56
  10   3  -7    2.20    2.00
  11   3  -7   14.71    2.84
  12   3  -7    1.30    2.33
 -10   4  -7    1.86    2.53
  -9   4  -7   -0.87    2.11
  -8   4  -7    7.39    2.71
  -7   4  -7    4.66    2.26
  -6   4  -7    1.43    1.34
  -5   4  -7    6.92    1.70
  -4   4  -7   -0.58    1.22
  -3   4  -7    3.15    1.41
  -2   4  -7   15.40    1.97
  -1   4  -7   -0.34    1.31
   0   4  -7    0.31    1.17
   1   4  -7    1.26    1.23
   2   4  -7   12.88    1.74
   3   4  -7    4.48    1.50
   4   4  -7    0.56    1.28
   5   4  -7   16.35    2.12
   6   4  -7   -0.61    1.59
   7   4  -7    3.84    1.96
   8   4  -7   12.90    2.54
   9   4  -7    2.43    2.09
  -6   5  -7   -1.66    2.20
  -5   5  -7   -1.97    1.84
  -4   5  -7   -1.25    1.78
  -3   5  -7   20.07    3.21
  -2   5  -7    0.91    2.09
  -1   5  -7    3.03    2.29
   0   5  -7    7.41    2.54
   1   5  -7    1.29    2.08
   2   5  -7    0.32    1.71
   3   5  -7   22.99    2.74
   4   5  -7    1.29    1.83
   5   5  -7    1.75    2.15
   6   5  -7    0.44    2.33
  -6  -5  -6   -0.03    3.02
  -5  -5  -6   -2.66    2.79
  -4  -5  -6    7.74    3.70
  -3  -5  -6    3.84    3.11
  -2  -5  -6   -0.55    1.83
  -1  -5  -6   -0.17    1.79
   0  -5  -6    1.15    2.03
   1  -5  -6    0.27    1.80
   2  -5  -6   -1.83    2.04
   3  -5  -6   -1.02    2.07
   4  -5  -6   15.97    2.92
   5  -5  -6   -3.96    2.55
   6  -5  -6   -3.28    2.96
 -10  -4  -6    3.31    2.42
  -9  -4  -6    6.57    2.60
  -8  -4  -6    2.69    2.15
  -7  -4  -6   -0.52    1.77
  -6  -4  -6   17.29    2.81
  -5  -4  -6   10.31    2.20
  -4  -4  -6   11.65    2.15
  -3  -4  -6    1.39    1.46
  -2  -4  -6    5.27    1.64
  -1  -4  -6   13.74    2.13
   0  -4  -6    2.24    1.46
   1  -4  -6   16.02    2.28
   2  -4  -6    4.98    1.80
   3  -4  -6    0.49    1.57
   4  -4  -6   12.83    2.24
   5  -4  -6    8.93    1.99
   6  -4  -6   20.02    3.79
   7  -4  -6    3.30    1.92
   8  -4  -6    1.94    2.01
   9  -4  -6    2.61    2.18
  10  -4  -6   -2.16    2.13
 -12  -3  -6    4.42    2.74
 -11  -3  -6    5.90    2.39
 -10  -3  -6    6.14    2.28
  -9  -3  -6    0.24    1.69
  -8  -3  -6   17.43    2.54
  -7  -3  -6   16.31    1.90
  -6  -3  -6    1.97    1.25
  -5  -3  -6    1.74    1.18
  -4  -3  -6   46.04    2.99
  -3  -3  -6    1.63    0.96
  -2  -3  -6    2.29    1.00
  -1  -3  -6    1.02    0.83
   0  -3  -6    0.50    0.75
   1  -3  -6   -0.33    0.67
   2  -3  -6    2.28    0.79
   3  -3  -6    5.74    1.10
   4  -3  -6   47.85    2.80
   5  -3  -6   -0.64    0.91
   6  -3  -6   -0.03    1.01
   7  -3  -6   15.58    2.17
   8  -3  -6   20.06    2.46
   9  -3  -6    1.75    1.54
  10  -3  -6   10.53    2.09
  11  -3  -6    3.06    1.90
  12  -3  -6    3.81    2.06
 -14  -2  -6   -2.14    3.79
 -13  -2  -6   12.21    3.24
 -12  -2  -6    8.51    2.75
 -11  -2  -6    6.48    2.27
 -10  -2  -6   -0.25    1.64
  -9  -2  -6   13.16    1.64
  -8  -2  -6    2.03    1.11
  -7  -2  -6    5.29    1.20
  -6  -2  -6   43.63    2.80
  -5  -2  -6   23.19    1.94
  -4  -2  -6   41.56    2.57
  -3  -2  -6    3.88    0.72
  -2  -2  -6   12.11    0.96
  -1  -2  -6   59.43    2.47
   0  -2  -6    9.12    0.78
   1  -2  -6   61.35    2.19
   2  -2  -6   11.34    0.95
   3  -2  -6    4.79    0.76
   4  -2  -6   39.62    1.99
   5  -2  -6   28.05    1.55
   6  -2  -6   46.53    2.15
   7  -2  -6    5.50    1.04
   8  -2  -6    5.09    1.09
   9  -2  -6   12.98    1.89
  10  -2  -6   -0.13    1.11
  11  -2  -6    6.12    1.64
  12  -2  -6    8.35    2.96
  13  -2  -6   14.28    3.65
 -14  -1  -6   -2.15    1.94
 -13  -1  -6    8.13    2.57
 -12  -1  -6    8.33    2.47
 -11  -1  -6    9.54    2.58
 -10  -1  -6   20.82    2.15
  -9  -1  -6    2.06    1.13
  -8  -1  -6   42.10    2.79
  -7  -1  -6   58.57    2.62
  -6  -1  -6    3.27    0.63
  -5  -1  -6    1.57    0.76
  -4  -1  -6   87.08    3.32
  -3  -1  -6   27.23    1.47
  -2  -1  -6    6.80    0.67
  -1  -1  -6   -0.46    0.33
   0  -1  -6    0.46    0.44
   1  -1  -6   -0.35    0.40
   2  -1  -6    5.72    0.77
   3  -1  -6   26.40    1.57
   4  -1  -6   80.72    3.27
   5  -1  -6    1.70    0.55
   6  -1  -6    1.91    0.62
   7  -1  -6   55.79    2.54
   8  -1  -6   37.67    2.16
   9  -1  -6    1.98    0.84
  10  -1  -6   19.84    1.78
  11  -1  -6   19.20    2.32
  12  -1  -6   10.57    2.12
  13  -1  -6    3.15    1.91
  14  -1  -6   -0.97    1.75
 -14   0  -6   -1.09    1.84
 -13   0  -6   23.26    3.49
 -12   0  -6   13.31    2.43
 -11   0  -6    3.84    1.72
 -10   0  -6   -0.54    0.88
  -9   0  -6   26.82    1.96
  -8   0  -6    8.69    1.08
  -7   0  -6    8.47    0.95
  -6   0  -6   58.90    2.64
  -5   0  -6   42.26    1.96
  -4   0  -6   60.03    2.45
  -3   0  -6   22.33    1.10
  -2   0  -6   17.25    0.92
  -1   0  -6  158.59    4.26
   0   0  -6   13.27    0.63
   1   0  -6  157.16    5.05
   2   0  -6   17.80    1.21
   3   0  -6   24.52    1.46
   4   0  -6   57.15    2.70
   5   0  -6   39.67    2.10
   6   0  -6   59.40    2.90
   7   0  -6    6.47    1.00
   8   0  -6    6.83    1.09
   9   0  -6   32.99    2.34
  10   0  -6   -0.55    0.94
  11   0  -6    4.67    1.58
  12   0  -6   12.73    2.23
  13   0  -6   36.64    3.68
  14   0  -6    0.41    1.71
  15   0  -6   -0.52    1.88
 -14   1  -6   -1.81    2.61
 -13   1  -6    4.77    1.66
 -12   1  -6   10.61    1.81
 -11   1  -6   16.18    2.05
 -10   1  -6   21.45    2.15
  -9   1  -6    0.84    0.95
  -8   1  -6   38.35    2.82
  -7   1  -6   56.27    3.28
  -6   1  -6    1.79    0.79
  -5   1  -6    1.00    0.71
  -4   1  -6   84.85    3.38
  -3   1  -6   28.78    1.29
  -2   1  -6    6.70    0.54
  -1   1  -6   -0.75    0.28
   0   1  -6   -0.02    0.29
   1   1  -6   -0.43    0.39
   2   1  -6    5.35    0.69
   3   1  -6   27.60    1.71
   4   1  -6   86.74    3.96
   5   1  -6    3.20    0.83
   6   1  -6    0.95    0.87
   7   1  -6   57.43    3.31
   8   1  -6   39.11    2.26
   9   1  -6    1.76    0.82
  10   1  -6   22.12    1.95
  11   1  -6   17.49    1.92
  12   1  -6   12.86    2.11
  13   1  -6    6.75    3.05
  14   1  -6   -0.11    2.69
 -14   2  -6   -0.96    2.57
 -13   2  -6   15.27    2.21
 -12   2  -6   11.68    2.06
 -11   2  -6    6.08    1.64
 -10   2  -6    0.47    1.11
  -9   2  -6   11.58    1.70
  -8   2  -6    4.51    1.23
  -7   2  -6    4.78    1.23
  -6   2  -6   46.02    2.37
  -5   2  -6   25.63    1.64
  -4   2  -6   41.21    2.17
  -3   2  -6    5.66    0.81
  -2   2  -6   11.45    0.96
  -1   2  -6   59.50    2.57
   0   2  -6    6.54    0.65
   1   2  -6   60.37    2.52
   2   2  -6   10.43    0.95
   3   2  -6    4.14    0.75
   4   2  -6   40.70    2.18
   5   2  -6   23.62    1.88
   6   2  -6   50.71    2.99
   7   2  -6    7.25    1.32
   8   2  -6    5.50    1.31
   9   2  -6   19.56    2.12
  10   2  -6    2.34    1.52
  11   2  -6    6.93    2.06
  12   2  -6    9.98    2.19
  13   2  -6   18.83    3.34
 -12   3  -6    5.28    2.48
 -11   3  -6    4.21    2.05
 -10   3  -6   12.87    2.48
  -9   3  -6   -0.67    1.62
  -8   3  -6   15.82    2.60
  -7   3  -6   17.74    1.87
  -6   3  -6   -0.20    0.99
  -5   3  -6    0.61    0.94
  -4   3  -6   44.96    3.09
  -3   3  -6    4.98    1.19
  -2   3  -6    2.91    0.83
  -1   3  -6    0.61    0.71
   0   3  -6    0.35    0.72
   1   3  -6   -0.03    0.85
   2   3  -6    3.34    1.05
   3   3  -6    5.42    0.97
   4   3  -6   47.38    2.54
   5   3  -6    0.54    0.90
   6   3  -6    1.83    1.02
   7   3  -6   17.06    1.80
   8   3  -6   14.80    1.94
   9   3  -6   -0.22    1.31
  10   3  -6   13.90    2.63
  11   3  -6    8.77    2.45
  12   3  -6    1.60    2.41
 -10   4  -6    2.62    2.51
  -9   4  -6    1.97    2.33
  -8   4  -6    4.33    2.38
  -7   4  -6    4.10    1.60
  -6   4  -6   16.37    2.17
  -5   4  -6    4.54    1.56
  -4   4  -6   10.62    1.80
  -3   4  -6    0.72    1.23
  -2   4  -6    3.72    1.34
  -1   4  -6   10.75    2.06
   0   4  -6    1.28    1.19
   1   4  -6   11.94    1.74
   2   4  -6    6.92    1.50
   3   4  -6    0.52    1.22
   4   4  -6   14.16    1.92
   5   4  -6    6.82    1.66
   6   4  -6   16.02    2.50
   7   4  -6    2.82    1.86
   8   4  -6    2.13    1.86
   9   4  -6    8.58    2.56
  10   4  -6   -2.03    2.97
  -7   5  -6    4.26    4.66
  -6   5  -6    3.98    2.10
  -5   5  -6   -0.89    1.78
  -4   5  -6   10.52    2.26
  -3   5  -6    2.33    2.30
  -2   5  -6    1.57    2.02
  -1   5  -6   -2.17    1.87
   0   5  -6    1.06    2.04
   1   5  -6    0.73    2.09
   2   5  -6   -0.29    1.63
   3   5  -6    2.24    1.87
   4   5  -6   13.69    2.38
   5   5  -6    0.07    1.82
   6   5  -6   -3.54    2.02
  -6  -5  -5    1.70    3.18
  -5  -5  -5    5.16    2.97
  -4  -5  -5    6.86    3.47
  -3  -5  -5    2.65    2.51
  -2  -5  -5    3.07    2.05
  -1  -5  -5    1.96    2.01
   0  -5  -5    0.92    1.88
   1  -5  -5    1.68    1.94
   2  -5  -5    3.96    2.18
   3  -5  -5    2.12    2.21
   4  -5  -5    2.96    2.16
   5  -5  -5    1.18    2.35
   6  -5  -5   -1.53    2.84
 -11  -4  -5    4.34    3.80
 -10  -4  -5   -2.00    2.30
  -9  -4  -5   11.19    2.87
  -8  -4  -5    2.30    2.27
  -7  -4  -5    2.48    1.92
  -6  -4  -5   35.67    3.75
  -5  -4  -5   -1.30    1.48
  -4  -4  -5   10.44    1.70
  -3  -4  -5    4.14    1.35
  -2  -4  -5   61.99    3.58
  -1  -4  -5    7.04    1.77
   0  -4  -5    0.10    1.44
   1  -4  -5    8.92    1.93
   2  -4  -5   55.88    4.24
   3  -4  -5    3.34    1.66
   4  -4  -5   14.94    2.22
   5  -4  -5   -0.49    1.52
   6  -4  -5   34.01    3.40
   7  -4  -5    6.09    2.13
   8  -4  -5    2.44    1.97
   9  -4  -5   16.02    2.78
  10  -4  -5    3.64    2.19
 -13  -3  -5    7.50    4.46
 -12  -3  -5   -1.41    2.29
 -11  -3  -5    5.97    2.34
 -10  -3  -5    7.98    2.17
  -9  -3  -5    1.72    1.65
  -8  -3  -5    4.90    1.86
  -7  -3  -5   11.14    2.08
  -6  -3  -5   -2.14    1.05
  -5  -3  -5   -0.32    1.02
  -4  -3  -5    5.56    1.21
  -3  -3  -5    1.73    0.97
  -2  -3  -5   23.22    1.88
  -1  -3  -5   11.41    1.30
   0  -3  -5   10.32    1.26
   1  -3  -5   10.04    1.23
   2  -3  -5   22.66    1.54
   3  -3  -5    0.99    0.90
   4  -3  -5    6.22    1.20
   5  -3  -5    0.95    0.98
   6  -3  -5    1.58    1.09
   7  -3  -5   12.30    1.57
   8  -3  -5    7.88    1.84
   9  -3  -5    1.51    1.50
  10  -3  -5    5.35    1.88
  11  -3  -5    4.74    1.95
  12  -3  -5    2.07    1.90
  13  -3  -5    3.96    2.86
 -14  -2  -5    3.71    2.60
 -13  -2  -5    3.25    2.43
 -12  -2  -5    0.56    2.13
 -11  -2  -5    1.64    1.80
 -10  -2  -5    2.15    1.62
  -9  -2  -5   35.88    3.61
  -8  -2  -5   20.75    1.89
  -7  -2  -5   11.01    1.43
  -6  -2  -5  103.01    5.07
  -5  -2  -5    2.59    0.95
  -4  -2  -5   25.92    1.95
  -3  -2  -5   15.72    1.33
  -2  -2  -5  154.76    6.74
  -1  -2  -5   28.62    1.53
   0  -2  -5   -0.38    0.46
   1  -2  -5   27.62    1.27
   2  -2  -5  164.69    5.72
   3  -2  -5   13.79    1.05
   4  -2  -5   27.51    1.55
   5  -2  -5    2.36    0.65
   6  -2  -5  108.85    4.17
   7  -2  -5   10.01    1.02
   8  -2  -5   20.14    1.78
   9  -2  -5   38.90    3.29
  10  -2  -5    0.79    1.14
  11  -2  -5   -1.42    1.19
  12  -2  -5    1.99    1.60
  13  -2  -5   -2.85    2.19
 -14  -1  -5    4.11    2.69
 -13  -1  -5    4.97    2.37
 -12  -1  -5    5.60    2.16
 -11  -1  -5   13.28    2.56
 -10  -1  -5    6.52    1.30
  -9  -1  -5    5.20    1.28
  -8  -1  -5   13.29    1.24
  -7  -1  -5   24.02    1.58
  -6  -1  -5    0.61    0.49
  -5  -1  -5    1.81    0.49
  -4  -1  -5   25.84    1.45
  -3  -1  -5    4.93    0.64
  -2  -1  -5   18.73    1.08
  -1  -1  -5   29.30    1.37
   0  -1  -5   67.41    2.47
   1  -1  -5   30.58    1.35
   2  -1  -5   18.63    1.00
   3  -1  -5    2.51    0.58
   4  -1  -5   25.14    1.40
   5  -1  -5    0.01    0.45
   6  -1  -5   -0.20    0.50
   7  -1  -5   22.71    1.51
   8  -1  -5   10.89    1.11
   9  -1  -5    5.85    1.00
  10  -1  -5    7.07    1.17
  11  -1  -5   14.69    2.19
  12  -1  -5    2.34    1.60
  13  -1  -5    2.32    1.74
  14  -1  -5    4.25    2.10
 -14   0  -5    0.66    2.32
 -13   0  -5   -1.52    1.43
 -12   0  -5    1.46    1.61
 -11   0  -5   -0.81    0.96
 -10   0  -5    4.24    1.20
  -9   0  -5   55.31    2.85
  -8   0  -5   45.07    2.43
  -7   0  -5   17.75    1.37
  -6   0  -5  209.60    7.53
  -5   0  -5    6.15    0.76
  -4   0  -5   18.63    1.16
  -3   0  -5   26.10    1.31
  -2   0  -5  320.62    9.78
  -1   0  -5   48.33    1.46
   0   0  -5   -0.07    0.32
   1   0  -5   48.72    1.72
   2   0  -5  313.60   12.69
   3   0  -5   25.58    1.39
   4   0  -5   21.86    1.36
   5   0  -5    6.27    0.81
   6   0  -5  204.32    8.56
   7   0  -5   19.85    1.55
   8   0  -5   43.85    2.47
   9   0  -5   57.87    3.17
  10   0  -5    5.26    1.46
  11   0  -5    2.99    1.35
  12   0  -5    1.89    1.55
  13   0  -5    1.77    1.66
  14   0  -5   -1.45    1.68
  15   0  -5    4.77    2.44
 -14   1  -5   -0.33    2.81
 -13   1  -5    3.84    1.56
 -12   1  -5    5.34    1.47
 -11   1  -5   15.35    1.95
 -10   1  -5    7.29    1.44
  -9   1  -5    5.04    1.16
  -8   1  -5   14.89    1.64
  -7   1  -5   23.42    2.01
  -6   1  -5   -0.39    0.68
  -5   1  -5    1.80    0.73
  -4   1  -5   26.10    1.78
  -3   1  -5    3.09    0.51
  -2   1  -5   19.35    1.11
  -1   1  -5   32.58    1.14
   0   1  -5   64.38    2.30
   1   1  -5   32.97    1.71
   2   1  -5   17.91    1.12
   3   1  -5    3.78    0.67
   4   1  -5   25.19    1.70
   5   1  -5    0.09    0.62
   6   1  -5   -0.28    0.70
   7   1  -5   22.16    1.57
   8   1  -5   10.89    1.21
   9   1  -5    5.40    1.10
  10   1  -5    9.19    1.30
  11   1  -5   15.53    1.81
  12   1  -5    3.66    1.57
  13   1  -5    2.41    1.77
  14   1  -5    3.83    3.18
 -14   2  -5   -1.64    1.94
 -13   2  -5   -3.06    1.73
 -12   2  -5    3.13    1.58
 -11   2  -5   -0.22    1.29
 -10   2  -5   -0.85    1.16
  -9   2  -5   45.46    3.19
  -8   2  -5   19.80    2.06
  -7   2  -5   10.32    1.09
  -6   2  -5  113.80    4.45
  -5   2  -5    1.95    0.68
  -4   2  -5   25.29    1.63
  -3   2  -5   12.57    1.12
  -2   2  -5  159.77    6.01
  -1   2  -5   28.03    1.54
   0   2  -5    0.17    0.36
   1   2  -5   28.27    1.49
   2   2  -5  157.12    5.98
   3   2  -5   15.72    1.18
   4   2  -5   30.97    1.78
   5   2  -5    1.72    0.80
   6   2  -5  109.86    5.12
   7   2  -5    9.38    1.36
   8   2  -5   22.18    2.10
   9   2  -5   41.21    3.16
  10   2  -5    1.63    1.50
  11   2  -5   -1.94    1.43
  12   2  -5    1.75    1.81
  13   2  -5   -0.18    2.53
 -12   3  -5    0.74    2.27
 -11   3  -5    8.11    2.46
 -10   3  -5    5.39    2.18
  -9   3  -5    0.29    1.68
  -8   3  -5    3.82    1.84
  -7   3  -5    8.67    1.52
  -6   3  -5   -0.71    0.96
  -5   3  -5   -0.49    0.92
  -4   3  -5    5.39    1.23
  -3   3  -5    0.06    0.91
  -2   3  -5   22.17    1.59
  -1   3  -5    9.58    1.07
   0   3  -5   10.07    1.29
   1   3  -5   11.05    1.34
   2   3  -5   21.25    1.85
   3   3  -5   -0.28    0.74
   4   3  -5    4.11    0.98
   5   3  -5    1.19    0.87
   6   3  -5    1.25    0.96
   7   3  -5   10.77    1.55
   8   3  -5    4.15    1.36
   9   3  -5    4.11    1.53
  10   3  -5    1.91    1.93
  11   3  -5    5.38    2.17
  12   3  -5    0.64    2.06
  13   3  -5    3.82    4.03
 -10   4  -5    3.22    2.38
  -9   4  -5   10.58    3.01
  -8   4  -5    3.11    2.32
  -7   4  -5    1.68    1.46
  -6   4  -5   35.82    2.99
  -5   4  -5    2.52    1.35
  -4   4  -5   14.20    1.96
  -3   4  -5    2.95    1.35
  -2   4  -5   48.45    3.58
  -1   4  -5    7.15    1.46
   0   4  -5   -0.14    1.11
   1   4  -5   10.36    1.59
   2   4  -5   52.39    3.61
   3   4  -5    4.65    1.43
   4   4  -5   15.92    1.92
   5   4  -5   -1.40    1.23
   6   4  -5   36.27    3.61
   7   4  -5    4.21    1.87
   8   4  -5    0.54    1.72
   9   4  -5   15.03    4.15
  10   4  -5   -0.56    2.80
  -7   5  -5    3.40    2.58
  -6   5  -5   -0.40    1.93
  -5   5  -5    3.08    1.94
  -4   5  -5    1.83    1.82
  -3   5  -5    0.30    2.06
  -2   5  -5    7.36    2.31
  -1   5  -5    1.10    2.15
   0   5  -5    1.13    2.05
   1   5  -5    2.78    1.83
   2   5  -5    8.20    1.89
   3   5  -5    0.97    1.85
   4   5  -5    3.48    1.92
   5   5  -5   -0.85    1.91
   6   5  -5   -0.87    2.07
   7   5  -5    3.74    3.35
  -6  -5  -4   -2.24    2.96
  -5  -5  -4    2.58    2.84
  -4  -5  -4   42.21    6.20
  -3  -5  -4    1.19    2.77
  -2  -5  -4    5.37    2.27
  -1  -5  -4    4.32    2.01
   0  -5  -4   -0.32    1.71
   1  -5  -4    1.15    1.94
   2  -5  -4    8.56    2.49
   3  -5  -4    7.16    2.33
   4  -5  -4   40.47    4.15
   5  -5  -4    2.31    2.30
   6  -5  -4    4.66    3.27
 -11  -4  -4    3.67    3.93
 -10  -4  -4    0.10    2.38
  -9  -4  -4    1.80    2.14
  -8  -4  -4   -0.72    1.96
  -7  -4  -4    6.73    2.17
  -6  -4  -4    5.00    1.98
  -5  -4  -4    2.73    1.74
  -4  -4  -4    3.15    1.34
  -3  -4  -4    1.47    1.17
  -2  -4  -4   14.61    1.73
  -1  -4  -4    1.30    1.10
   0  -4  -4   14.61    1.78
   1  -4  -4    1.97    1.18
   2  -4  -4   11.64    1.98
   3  -4  -4    3.04    1.65
   4  -4  -4    0.57    1.52
   5  -4  -4    1.52    1.76
   6  -4  -4    5.35    1.95
   7  -4  -4   11.18    2.51
   8  -4  -4   -0.83    1.70
   9  -4  -4    5.95    2.22
  10  -4  -4   -0.97    2.02
  11  -4  -4    1.87    3.67
 -13  -3  -4   -1.90    3.66
 -12  -3  -4   -1.25    2.16
 -11  -3  -4    1.37    1.97
 -10  -3  -4    6.93    2.24
  -9  -3  -4   29.16    3.37
  -8  -3  -4    6.83    1.87
  -7  -3  -4    9.44    1.92
  -6  -3  -4    2.72    1.20
  -5  -3  -4    7.73    1.37
  -4  -3  -4  156.69    6.94
  -3  -3  -4   16.92    1.66
  -2  -3  -4   41.70    2.59
  -1  -3  -4   10.06    1.24
   0  -3  -4    1.29    0.83
   1  -3  -4   12.66    1.32
   2  -3  -4   39.41    2.44
   3  -3  -4   14.10    1.50
   4  -3  -4  157.84    6.62
   5  -3  -4    4.78    1.13
   6  -3  -4    1.99    1.06
   7  -3  -4    7.84    1.39
   8  -3  -4   10.13    2.02
   9  -3  -4   24.23    2.88
  10  -3  -4    6.17    1.91
  11  -3  -4    0.92    1.63
  12  -3  -4    1.72    1.89
  13  -3  -4    3.08    2.60
 -14  -2  -4    1.04    2.86
 -13  -2  -4    6.32    2.62
 -12  -2  -4    8.76    2.54
 -11  -2  -4   -0.04    1.73
 -10  -2  -4    0.97    1.55
  -9  -2  -4    2.07    1.42
  -8  -2  -4    1.32    0.94
  -7  -2  -4   26.23    2.09
  -6  -2  -4   12.38    1.14
  -5  -2  -4    0.29    0.58
  -4  -2  -4    1.47    0.56
  -3  -2  -4   18.85    1.51
  -2  -2  -4   39.03    2.19
  -1  -2  -4    1.03    0.57
   0  -2  -4   33.65    1.61
   1  -2  -4    1.54    0.44
   2  -2  -4   44.27    1.86
   3  -2  -4   20.76    1.23
   4  -2  -4    1.43    0.61
   5  -2  -4    1.33    0.62
   6  -2  -4   14.09    1.16
   7  -2  -4   25.38    1.60
   8  -2  -4    1.63    0.77
   9  -2  -4    4.28    1.34
  10  -2  -4    1.99    1.22
  11  -2  -4   -0.10    1.13
  12  -2  -4    8.18    1.85
  13  -2  -4    4.50    3.02
 -14  -1  -4   -2.76    2.15
 -13  -1  -4   -0.14    1.69
 -12  -1  -4    1.94    1.71
 -11  -1  -4    2.15    1.78
 -10  -1  -4   18.84    2.00
  -9  -1  -4   34.23    2.11
  -8  -1  -4   32.69    1.97
  -7  -1  -4    3.82    0.70
  -6  -1  -4   -0.49    0.47
  -5  -1  -4    3.02    0.57
  -4  -1  -4  348.30   12.34
  -3  -1  -4   19.83    1.16
  -2  -1  -4   68.74    2.64
  -1  -1  -4   18.56    1.02
   0  -1  -4   -0.12    0.30
   1  -1  -4   20.28    1.03
   2  -1  -4   71.52    2.57
   3  -1  -4   19.08    1.02
   4  -1  -4  352.96   12.23
   5  -1  -4    1.77    0.54
   6  -1  -4    0.11    0.52
   7  -1  -4    3.56    0.73
   8  -1  -4   28.31    2.06
   9  -1  -4   40.32    2.49
  10  -1  -4   21.84    1.86
  11  -1  -4   -0.21    1.17
  12  -1  -4    0.76    1.40
  13  -1  -4   -1.52    1.43
  14  -1  -4    2.20    1.80
 -15   0  -4   -0.09    2.78
 -14   0  -4    8.36    3.12
 -13   0  -4   11.99    2.56
 -12   0  -4   10.30    1.76
 -11   0  -4    0.41    1.02
 -10   0  -4   -0.51    0.88
  -9   0  -4    6.63    1.27
  -8   0  -4   -0.36    0.60
  -7   0  -4   33.69    1.98
  -6   0  -4   22.31    1.50
  -5   0  -4   -0.22    0.45
  -4   0  -4    1.04    0.42
  -3   0  -4   53.76    2.20
  -2   0  -4   97.91    3.20
  -1   0  -4    0.24    0.28
   0   0  -4   37.42    1.10
   1   0  -4    0.53    0.34
   2   0  -4   99.39    4.08
   3   0  -4   49.88    2.36
   4   0  -4    0.19    0.45
   5   0  -4    0.37    0.46
   6   0  -4   25.93    1.67
   7   0  -4   39.33    2.28
   8   0  -4    1.61    0.74
   9   0  -4    7.98    1.21
  10   0  -4    0.18    1.07
  11   0  -4   -0.82    1.11
  12   0  -4   14.44    2.34
  13   0  -4   16.89    2.60
  14   0  -4    8.83    2.33
  15   0  -4    0.16    2.07
 -14   1  -4   -0.55    1.70
 -13   1  -4    0.38    1.52
 -12   1  -4   -1.05    1.02
 -11   1  -4    0.84    1.12
 -10   1  -4   20.00    2.08
  -9   1  -4   36.33    2.77
  -8   1  -4   28.48    2.35
  -7   1  -4    4.01    0.94
  -6   1  -4    0.20    0.66
  -5   1  -4    2.66    0.76
  -4   1  -4  364.65   14.49
  -3   1  -4   19.83    1.13
  -2   1  -4   68.69    2.70
  -1   1  -4   20.11    0.84
   0   1  -4   -0.36    0.31
   1   1  -4   21.79    1.09
   2   1  -4   69.45    2.74
   3   1  -4   21.31    1.36
   4   1  -4  351.63   14.57
   5   1  -4    2.25    0.69
   6   1  -4    0.24    0.50
   7   1  -4    3.15    0.73
   8   1  -4   30.37    1.92
   9   1  -4   39.60    2.59
  10   1  -4   19.55    1.81
  11   1  -4   -0.04    0.99
  12   1  -4    1.65    1.35
  13   1  -4    1.56    1.54
  14   1  -4   -2.09    2.65
 -14   2  -4    1.97    2.21
 -13   2  -4    5.51    2.30
 -12   2  -4    7.82    1.84
 -11   2  -4    0.39    1.29
 -10   2  -4   -1.59    1.07
  -9   2  -4    1.26    1.15
  -8   2  -4    1.14    1.03
  -7   2  -4   25.23    1.70
  -6   2  -4   15.79    1.26
  -5   2  -4    1.79    0.66
  -4   2  -4    2.04    0.64
  -3   2  -4   17.54    1.51
  -2   2  -4   43.36    1.98
  -1   2  -4    1.71    0.56
   0   2  -4   36.63    1.81
   1   2  -4    1.90    0.52
   2   2  -4   43.42    1.97
   3   2  -4   21.26    1.36
   4   2  -4    1.48    0.63
   5   2  -4    1.10    0.72
   6   2  -4   12.76    1.44
   7   2  -4   22.01    1.96
   8   2  -4    0.56    0.92
   9   2  -4    4.02    1.35
  10   2  -4   -1.01    1.28
  11   2  -4   -0.08    1.38
  12   2  -4   10.97    2.37
  13   2  -4    0.61    2.63
 -13   3  -4   -0.35    4.52
 -12   3  -4   -2.44    1.97
 -11   3  -4   -0.28    1.82
 -10   3  -4    6.42    2.21
  -9   3  -4   19.18    2.97
  -8   3  -4    7.32    2.06
  -7   3  -4    6.88    1.42
  -6   3  -4    1.33    1.03
  -5   3  -4    7.34    1.28
  -4   3  -4  162.21    7.22
  -3   3  -4   18.54    1.43
  -2   3  -4   38.61    2.21
  -1   3  -4   11.76    1.20
   0   3  -4   -0.86    0.75
   1   3  -4   12.54    1.39
   2   3  -4   43.07    2.73
   3   3  -4   17.77    1.42
   4   3  -4  147.18    6.09
   5   3  -4    7.34    1.13
   6   3  -4    0.19    0.93
   7   3  -4    8.20    1.41
   8   3  -4   12.40    1.67
   9   3  -4   26.25    2.58
  10   3  -4    8.11    2.31
  11   3  -4   -2.30    1.67
  12   3  -4    0.51    2.09
  13   3  -4   -3.91    3.22
 -11   4  -4    3.87    4.69
 -10   4  -4    1.94    2.45
  -9   4  -4    4.01    1.99
  -8   4  -4    2.26    2.18
  -7   4  -4   10.28    1.94
  -6   4  -4    4.11    1.62
  -5   4  -4   -1.54    1.20
  -4   4  -4    3.13    1.38
  -3   4  -4    4.44    1.47
  -2   4  -4    7.86    1.66
  -1   4  -4    0.94    1.14
   0   4  -4   16.00    1.85
   1   4  -4    3.01    1.30
   2   4  -4   15.60    1.86
   3   4  -4    2.79    1.33
   4   4  -4    2.83    1.37
   5   4  -4    1.87    1.31
   6   4  -4    4.96    1.80
   7   4  -4    7.07    2.02
   8   4  -4    2.29    1.65
   9   4  -4    3.49    2.92
  10   4  -4    1.89    3.25
  -7   5  -4    0.84    2.44
  -6   5  -4    2.96    2.02
  -5   5  -4   -1.77    1.76
  -4   5  -4   48.04    3.89
  -3   5  -4    4.81    2.28
  -2   5  -4    5.29    2.38
  -1   5  -4    0.21    2.09
   0   5  -4   -2.80    1.94
   1   5  -4    1.89    1.69
   2   5  -4   12.77    2.15
   3   5  -4    4.59    1.92
   4   5  -4   44.42    4.46
   5   5  -4    0.50    2.16
   6   5  -4    0.96    2.10
   7   5  -4    1.36    3.19
  -6  -5  -3    3.58    2.95
  -5  -5  -3    4.00    3.02
  -4  -5  -3   10.22    3.77
  -3  -5  -3   -4.32    2.39
  -2  -5  -3   -0.20    2.68
  -1  -5  -3   -0.51    1.71
   0  -5  -3    2.63    1.84
   1  -5  -3    1.42    1.98
   2  -5  -3    2.11    1.93
   3  -5  -3    1.94    2.09
   4  -5  -3   12.05    2.74
   5  -5  -3   -1.01    2.21
   6  -5  -3    4.33    2.41
 -11  -4  -3    1.33    2.56
 -10  -4  -3   -1.53    2.26
  -9  -4  -3    0.73    2.21
  -8  -4  -3   -0.26    1.93
  -7  -4  -3   28.95    3.61
  -6  -4  -3   42.04    4.02
  -5  -4  -3    7.23    1.97
  -4  -4  -3    4.75    1.45
  -3  -4  -3    9.50    1.68
  -2  -4  -3    2.97    1.18
  -1  -4  -3    1.34    1.18
   0  -4  -3   -0.02    1.10
   1  -4  -3   -0.54    1.14
   2  -4  -3    6.46    1.38
   3  -4  -3   13.33    1.73
   4  -4  -3    7.51    1.86
   5  -4  -3    0.47    1.59
   6  -4  -3   41.79    3.71
   7  -4  -3   32.42    3.33
   8  -4  -3   -1.00    2.40
   9  -4  -3    1.55    2.10
  10  -4  -3   -2.56    1.93
  11  -4  -3    1.92    3.69
 -13  -3  -3    3.81    4.24
 -12  -3  -3    0.91    2.31
 -11  -3  -3   11.37    2.56
 -10  -3  -3    9.07    2.24
  -9  -3  -3    0.68    1.64
  -8  -3  -3   -2.01    1.32
  -7  -3  -3    5.51    1.75
  -6  -3  -3    5.47    1.39
  -5  -3  -3    4.13    1.15
  -4  -3  -3   59.26    3.29
  -3  -3  -3    2.56    0.95
  -2  -3  -3    5.91    1.06
  -1  -3  -3    1.16    0.84
   0  -3  -3   -0.37    0.78
   1  -3  -3    1.81    0.84
   2  -3  -3    5.27    1.25
   3  -3  -3    0.56    0.86
   4  -3  -3   60.15    3.06
   5  -3  -3    0.71    0.95
   6  -3  -3    9.81    1.42
   7  -3  -3    6.86    1.33
   8  -3  -3    0.48    1.09
   9  -3  -3    2.35    1.64
  10  -3  -3   16.55    2.60
  11  -3  -3   10.45    2.36
  12  -3  -3    4.99    2.12
  13  -3  -3    0.22    2.62
 -14  -2  -3   -1.11    2.72
 -13  -2  -3    0.03    2.11
 -12  -2  -3   13.02    2.92
 -11  -2  -3    1.13    1.65
 -10  -2  -3    1.08    1.32
  -9  -2  -3    0.84    1.22
  -8  -2  -3    0.95    1.12
  -7  -2  -3   65.23    2.87
  -6  -2  -3   85.27    3.56
  -5  -2  -3    2.01    0.64
  -4  -2  -3   16.65    1.22
  -3  -2  -3   31.49    2.00
  -2  -2  -3   11.95    1.07
  -1  -2  -3    4.39    0.73
   0  -2  -3   -0.34    0.51
   1  -2  -3    3.22    0.70
   2  -2  -3    9.86    0.79
   3  -2  -3   32.84    1.58
   4  -2  -3   17.08    1.15
   5  -2  -3    2.03    0.64
   6  -2  -3   90.88    3.45
   7  -2  -3   68.83    2.82
   8  -2  -3    1.26    0.85
   9  -2  -3    2.56    1.26
  10  -2  -3    1.39    1.10
  11  -2  -3    4.04    1.44
  12  -2  -3   18.77    2.51
  13  -2  -3   -0.32    2.32
  14  -2  -3    4.54    3.19
 -14  -1  -3    0.60    2.74
 -13  -1  -3   -1.18    1.65
 -12  -1  -3    6.26    2.12
 -11  -1  -3   40.32    4.31
 -10  -1  -3   30.94    2.51
  -9  -1  -3    1.36    0.74
  -8  -1  -3   -0.66    0.57
  -7  -1  -3   13.93    1.16
  -6  -1  -3   25.86    1.54
  -5  -1  -3    1.22    0.48
  -4  -1  -3   89.95    3.52
  -3  -1  -3   16.56    0.86
  -2  -1  -3    1.32    0.45
  -1  -1  -3   19.49    1.00
   0  -1  -3   12.34    0.66
   1  -1  -3   20.67    1.00
   2  -1  -3    1.50    0.40
   3  -1  -3   16.63    0.92
   4  -1  -3   94.55    3.40
   5  -1  -3    0.96    0.47
   6  -1  -3   25.17    1.51
   7  -1  -3   12.91    1.27
   8  -1  -3    0.21    0.64
   9  -1  -3    1.31    0.83
  10  -1  -3   23.09    2.06
  11  -1  -3   36.56    2.74
  12  -1  -3    4.67    1.75
  13  -1  -3    0.29    1.60
  14  -1  -3    6.04    2.70
 -15   0  -3    4.75    2.91
 -14   0  -3   -0.23    2.23
 -13   0  -3    0.44    1.36
 -12   0  -3   29.88    2.76
 -11   0  -3    2.90    1.14
 -10   0  -3    3.03    1.13
  -9   0  -3    1.21    0.94
  -8   0  -3    2.64    0.94
  -7   0  -3   69.47    2.98
  -6   0  -3   92.20    3.71
  -5   0  -3    0.30    0.41
  -4   0  -3   37.70    1.74
  -3   0  -3   32.05    1.46
  -2   0  -3   11.85    0.73
  -1   0  -3    4.81    0.34
   0   0  -3   -0.11    0.21
   1   0  -3    4.48    0.46
   2   0  -3    9.79    0.76
   3   0  -3   30.33    1.52
   4   0  -3   36.56    1.82
   5   0  -3   -0.07    0.43
   6   0  -3   96.68    4.15
   7   0  -3   62.67    3.17
   8   0  -3    5.72    0.95
   9   0  -3    0.03    0.80
  10   0  -3    2.25    1.30
  11   0  -3    3.56    1.33
  12   0  -3   38.47    3.51
  13   0  -3    2.27    1.73
  14   0  -3   -0.60    1.79
  15   0  -3   12.74    2.71
 -14   1  -3    0.45    1.63
 -13   1  -3   -0.39    1.54
 -12   1  -3    5.58    1.47
 -11   1  -3   40.88    3.13
 -10   1  -3   28.16    2.47
  -9   1  -3    1.74    1.00
  -8   1  -3    0.42    0.83
  -7   1  -3   14.97    1.56
  -6   1  -3   25.19    1.91
  -5   1  -3    1.04    0.58
  -4   1  -3   95.33    3.56
  -3   1  -3   17.00    1.01
  -2   1  -3    2.00    0.44
  -1   1  -3   19.61    0.91
   0   1  -3   11.90    0.66
   1   1  -3   18.09    1.00
   2   1  -3    2.64    0.50
   3   1  -3   16.94    1.18
   4   1  -3   94.10    4.18
   5   1  -3    1.58    0.63
   6   1  -3   26.96    1.59
   7   1  -3   15.97    1.29
   8   1  -3    0.21    0.63
   9   1  -3    2.46    0.89
  10   1  -3   30.38    2.33
  11   1  -3   45.65    3.02
  12   1  -3    6.90    1.72
  13   1  -3    2.54    1.58
  14   1  -3    1.66    2.82
 -14   2  -3   -0.28    2.00
 -13   2  -3    0.97    1.85
 -12   2  -3   18.63    2.96
 -11   2  -3   -0.49    1.15
 -10   2  -3    0.50    1.14
  -9   2  -3   -0.33    1.00
  -8   2  -3   -0.08    0.70
  -7   2  -3   69.06    2.99
  -6   2  -3   89.84    3.65
  -5   2  -3    1.21    0.63
  -4   2  -3   15.09    1.20
  -3   2  -3   32.75    2.12
  -2   2  -3    9.92    0.86
  -1   2  -3    4.59    0.64
   0   2  -3   -0.35    0.45
   1   2  -3    3.51    0.54
   2   2  -3   10.62    0.86
   3   2  -3   34.01    1.73
   4   2  -3   18.04    1.30
   5   2  -3    1.56    0.79
   6   2  -3   87.14    4.23
   7   2  -3   63.96    3.47
   8   2  -3    0.30    0.94
   9   2  -3   -1.44    1.07
  10   2  -3    0.37    1.26
  11   2  -3    5.05    1.81
  12   2  -3   26.71    3.19
  13   2  -3   -4.63    2.41
  14   2  -3   -0.32    2.70
 -13   3  -3   -1.06    4.09
 -12   3  -3    1.15    2.27
 -11   3  -3   10.98    2.90
 -10   3  -3   11.93    2.45
  -9   3  -3    0.85    1.57
  -8   3  -3   -0.18    1.09
  -7   3  -3    4.73    1.32
  -6   3  -3    8.10    1.47
  -5   3  -3    3.92    1.15
  -4   3  -3   63.34    3.52
  -3   3  -3    2.89    0.78
  -2   3  -3    3.98    0.86
  -1   3  -3    1.11    0.76
   0   3  -3    0.14    0.80
   1   3  -3    2.32    0.91
   2   3  -3    4.39    0.86
   3   3  -3    2.38    0.77
   4   3  -3   60.80    2.93
   5   3  -3    0.93    0.81
   6   3  -3    6.67    1.33
   7   3  -3    5.70    1.30
   8   3  -3    0.53    1.09
   9   3  -3    2.09    1.55
  10   3  -3   10.42    2.30
  11   3  -3   16.13    2.81
  12   3  -3    2.48    2.35
  13   3  -3   -2.67    2.98
 -11   4  -3    1.97    5.02
 -10   4  -3   -0.49    2.21
  -9   4  -3    1.67    2.28
  -8   4  -3   -0.59    1.44
  -7   4  -3   29.12    2.92
  -6   4  -3   38.36    3.24
  -5   4  -3    1.71    1.33
  -4   4  -3    2.50    1.38
  -3   4  -3   11.73    1.85
  -2   4  -3    4.71    1.35
  -1   4  -3    2.29    1.20
   0   4  -3    0.98    1.15
   1   4  -3    0.61    1.23
   2   4  -3    2.58    1.35
   3   4  -3   12.97    1.80
   4   4  -3    4.35    1.49
   5   4  -3    0.47    1.30
   6   4  -3   40.81    3.75
   7   4  -3   44.28    3.81
   8   4  -3    1.63    1.75
   9   4  -3    2.09    2.48
  10   4  -3   -2.10    2.65
  -7   5  -3   -2.42    2.93
  -6   5  -3    3.78    2.04
  -5   5  -3   -2.27    1.67
  -4   5  -3   17.95    3.13
  -3   5  -3    1.06    2.01
  -2   5  -3   -1.19    2.07
  -1   5  -3    2.31    2.09
   0   5  -3    1.26    2.16
   1   5  -3   -0.77    1.67
   2   5  -3    0.45    1.60
   3   5  -3    1.78    1.84
   4   5  -3   20.13    3.06
   5   5  -3    4.00    2.29
   6   5  -3    2.78    2.16
   7   5  -3    3.65    3.15
  -7  -5  -2    0.19    2.63
  -6  -5  -2   -0.46    2.22
  -5  -5  -2   27.78    3.76
  -4  -5  -2    2.98    2.83
  -3  -5  -2    1.67    2.80
  -2  -5  -2    8.53    3.29
  -1  -5  -2    0.79    1.77
   0  -5  -2    0.75    1.79
   1  -5  -2    0.41    2.05
   2  -5  -2    7.10    2.35
   3  -5  -2    0.63    2.05
   4  -5  -2    4.33    2.34
   5  -5  -2   24.87    3.40
   6  -5  -2    0.96    2.20
   7  -5  -2   -3.87    3.67
 -11  -4  -2    3.06    2.72
 -10  -4  -2    1.45    2.27
  -9  -4  -2    9.99    2.76
  -8  -4  -2    4.98    2.17
  -7  -4  -2    4.11    2.06
  -6  -4  -2    3.14    1.85
  -5  -4  -2   -2.44    1.47
  -4  -4  -2    6.50    1.83
  -3  -4  -2    7.81    1.51
  -2  -4  -2    1.14    1.13
  -1  -4  -2    8.49    1.53
   0  -4  -2   43.24    2.99
   1  -4  -2    8.18    1.54
   2  -4  -2    5.47    1.35
   3  -4  -2    6.58    1.53
   4  -4  -2   10.55    2.03
   5  -4  -2    0.27    1.65
   6  -4  -2    2.62    1.75
   7  -4  -2    4.29    1.77
   8  -4  -2    4.93    2.18
   9  -4  -2   21.24    4.25
  10  -4  -2    0.39    1.96
  11  -4  -2   -3.10    3.36
 -12  -3  -2    2.17    2.04
 -11  -3  -2    3.78    2.00
 -10  -3  -2   13.07    2.47
  -9  -3  -2    7.53    2.00
  -8  -3  -2    0.17    1.40
  -7  -3  -2    2.59    1.57
  -6  -3  -2    3.78    1.40
  -5  -3  -2   97.40    4.12
  -4  -3  -2   18.32    1.74
  -3  -3  -2    0.13    0.81
  -2  -3  -2   20.83    1.75
  -1  -3  -2    2.15    0.86
   0  -3  -2    0.32    0.79
   1  -3  -2    3.40    0.97
   2  -3  -2   18.51    1.99
   3  -3  -2   -0.10    1.03
   4  -3  -2   16.94    1.56
   5  -3  -2   99.28    4.57
   6  -3  -2    0.52    1.07
   7  -3  -2    1.54    1.07
   8  -3  -2    0.83    1.15
   9  -3  -2   10.54    2.06
  10  -3  -2    9.88    2.12
  11  -3  -2    0.77    1.64
  12  -3  -2    0.32    1.73
  13  -3  -2   -0.46    2.53
 -14  -2  -2    4.51    2.62
 -13  -2  -2   11.36    3.36
 -12  -2  -2   -0.25    1.78
 -11  -2  -2   -0.11    1.50
 -10  -2  -2    0.62    1.25
  -9  -2  -2   34.57    3.43
  -8  -2  -2   14.16    1.51
  -7  -2  -2    5.67    1.03
  -6  -2  -2   15.93    1.28
  -5  -2  -2   -0.56    0.53
  -4  -2  -2   21.62    1.44
  -3  -2  -2   23.55    1.62
  -2  -2  -2    1.89    0.62
  -1  -2  -2   25.80    1.64
   0  -2  -2   86.26    3.75
   1  -2  -2   28.77    2.00
   2  -2  -2    4.17    0.71
   3  -2  -2   22.42    1.24
   4  -2  -2   22.95    1.35
   5  -2  -2   -0.01    0.50
   6  -2  -2   16.69    1.22
   7  -2  -2    5.69    0.86
   8  -2  -2   14.50    1.47
   9  -2  -2   38.45    2.56
  10  -2  -2    0.34    1.15
  11  -2  -2   -0.68    1.23
  12  -2  -2    2.81    1.48
  13  -2  -2    3.84    1.72
  14  -2  -2    3.32    2.96
 -14  -1  -2   -1.17    2.18
 -13  -1  -2    3.92    2.46
 -12  -1  -2    3.42    1.86
 -11  -1  -2    3.40    1.19
 -10  -1  -2   18.29    2.01
  -9  -1  -2   23.07    1.69
  -8  -1  -2   17.29    1.65
  -7  -1  -2    0.55    0.51
  -6  -1  -2   -1.09    0.42
  -5  -1  -2  230.41    8.27
  -4  -1  -2   16.76    1.06
  -3  -1  -2    3.30    0.55
  -2  -1  -2   57.43    2.62
  -1  -1  -2    3.84    0.56
   0  -1  -2   -0.12    0.33
   1  -1  -2    5.50    0.49
   2  -1  -2   59.13    2.19
   3  -1  -2    3.71    0.47
   4  -1  -2   15.24    1.11
   5  -1  -2  235.48    9.37
   6  -1  -2   -0.01    0.54
   7  -1  -2   -1.18    0.53
   8  -1  -2   16.45    1.46
   9  -1  -2   21.92    1.86
  10  -1  -2   15.58    1.69
  11  -1  -2    2.91    1.06
  12  -1  -2    3.44    1.64
  13  -1  -2    1.05    1.53
  14  -1  -2    0.26    2.42
 -15   0  -2    6.35    3.10
 -14   0  -2   14.42    4.06
 -13   0  -2    7.67    1.94
 -12   0  -2    0.71    1.14
 -11   0  -2    1.22    1.08
 -10   0  -2    5.07    1.21
  -9   0  -2   45.88    3.19
  -8   0  -2   13.76    1.55
  -7   0  -2    7.63    0.93
  -6   0  -2   22.45    1.44
  -5   0  -2    2.39    0.54
  -4   0  -2   22.06    1.27
  -3   0  -2   52.27    2.16
  -2   0  -2    0.16    0.30
  -1   0  -2   26.15    0.92
   0   0  -2   82.61    2.20
   1   0  -2   25.45    1.05
   2   0  -2   -0.03    0.31
   3   0  -2   52.63    2.31
   4   0  -2   21.31    1.31
   5   0  -2    2.13    0.52
   6   0  -2   21.00    1.49
   7   0  -2    8.81    1.04
   8   0  -2   15.98    1.44
   9   0  -2   49.80    2.93
  10   0  -2    3.39    1.22
  11   0  -2    0.96    1.15
  12   0  -2   -1.95    1.36
  13   0  -2   11.47    2.25
  14   0  -2    9.90    2.25
  15   0  -2    3.34    2.23
 -15   1  -2    1.88    2.04
 -14   1  -2    0.28    1.87
 -13   1  -2    1.69    1.65
 -12   1  -2    4.95    1.96
 -11   1  -2    3.82    1.29
 -10   1  -2   16.14    1.92
  -9   1  -2   25.41    2.21
  -8   1  -2   13.15    1.61
  -7   1  -2    0.69    0.71
  -6   1  -2    0.44    0.65
  -5   1  -2  240.29    9.75
  -4   1  -2   16.32    1.00
  -3   1  -2    3.53    0.52
  -2   1  -2   58.43    2.31
  -1   1  -2    5.41    0.53
   0   1  -2    0.24    0.28
   1   1  -2    5.56    0.53
   2   1  -2   59.04    2.34
   3   1  -2    3.93    0.61
   4   1  -2   16.20    1.22
   5   1  -2  235.48    9.78
   6   1  -2    0.11    0.44
   7   1  -2    0.01    0.52
   8   1  -2   14.79    1.36
   9   1  -2   24.50    1.96
  10   1  -2   15.71    1.72
  11   1  -2    6.25    1.30
  12   1  -2    3.26    1.44
  13   1  -2    1.52    1.56
  14   1  -2    1.41    1.66
 -14   2  -2    9.45    2.63
 -13   2  -2    5.91    2.37
 -12   2  -2    1.62    1.69
 -11   2  -2    0.87    1.25
 -10   2  -2   -0.94    1.03
  -9   2  -2   39.30    2.91
  -8   2  -2   12.84    1.26
  -7   2  -2    3.41    0.82
  -6   2  -2   14.67    1.26
  -5   2  -2   -0.28    0.54
  -4   2  -2   20.25    1.64
  -3   2  -2   21.30    1.64
  -2   2  -2    2.79    0.57
  -1   2  -2   26.23    1.45
   0   2  -2   83.59    3.35
   1   2  -2   24.51    1.36
   2   2  -2    4.00    0.62
   3   2  -2   21.96    1.41
   4   2  -2   23.47    1.50
   5   2  -2    0.38    0.66
   6   2  -2   18.10    1.60
   7   2  -2    5.11    1.05
   8   2  -2   12.90    1.53
   9   2  -2   34.20    3.39
  10   2  -2    0.68    1.40
  11   2  -2    0.33    1.46
  12   2  -2   -1.95    1.43
  13   2  -2   10.49    3.45
  14   2  -2    7.98    3.67
 -13   3  -2   -1.55    4.41
 -12   3  -2    0.13    2.17
 -11   3  -2    0.38    1.91
 -10   3  -2   13.93    2.74
  -9   3  -2    7.95    2.11
  -8   3  -2    2.00    1.13
  -7   3  -2   -0.48    1.02
  -6   3  -2    1.30    1.10
  -5   3  -2   97.29    4.93
  -4   3  -2   12.67    1.60
  -3   3  -2   -1.17    0.65
  -2   3  -2   22.10    1.55
  -1   3  -2    2.86    0.81
   0   3  -2   -0.07    0.78
   1   3  -2    4.24    0.98
   2   3  -2   17.30    1.39
   3   3  -2    0.32    0.68
   4   3  -2   14.96    1.43
   5   3  -2   96.95    4.18
   6   3  -2    1.00    1.04
   7   3  -2    0.24    1.04
   8   3  -2    1.63    1.17
   9   3  -2    9.45    2.16
  10   3  -2   14.11    2.47
  11   3  -2    1.34    2.00
  12   3  -2    3.91    2.21
  13   3  -2    4.51    3.62
 -11   4  -2    3.66    4.96
 -10   4  -2    1.36    2.16
  -9   4  -2    9.85    2.74
  -8   4  -2    5.22    1.83
  -7   4  -2    2.47    1.52
  -6   4  -2    5.87    1.62
  -5   4  -2    1.31    1.28
  -4   4  -2    5.09    1.54
  -3   4  -2    4.05    1.44
  -2   4  -2    3.23    1.35
  -1   4  -2   10.66    1.58
   0   4  -2   42.00    3.01
   1   4  -2   12.06    1.78
   2   4  -2    1.14    1.29
   3   4  -2    8.19    1.54
   4   4  -2    4.61    1.57
   5   4  -2    0.98    1.27
   6   4  -2    4.90    1.84
   7   4  -2    1.14    1.64
   8   4  -2    9.73    3.26
   9   4  -2    9.68    3.37
  10   4  -2    2.61    2.65
  11   4  -2   -9.65    3.64
  -7   5  -2    3.46    2.41
  -6   5  -2    3.51    2.39
  -5   5  -2   29.42    3.79
  -4   5  -2    2.24    2.23
  -3   5  -2    1.69    2.02
  -2   5  -2    3.70    2.21
  -1   5  -2    2.05    2.15
   0   5  -2    2.33    1.97
   1   5  -2   -0.16    1.69
   2   5  -2    3.80    1.98
   3   5  -2    1.96    2.12
   4   5  -2    5.00    2.27
   5   5  -2   29.80    3.72
   6   5  -2    1.30    2.05
   7   5  -2   -1.22    2.87
  -7  -5  -1   -0.26    2.38
  -6  -5  -1   -0.65    2.14
  -5  -5  -1   -0.58    2.20
  -4  -5  -1   -0.38    2.02
  -3  -5  -1    0.04    2.08
  -2  -5  -1   40.37    4.31
  -1  -5  -1   -1.59    1.84
   0  -5  -1    0.36    1.89
   1  -5  -1    3.39    1.99
   2  -5  -1   36.39    3.95
   3  -5  -1   -1.93    1.92
   4  -5  -1   -0.06    2.10
   5  -5  -1    2.15    2.29
   6  -5  -1   -4.28    2.14
   7  -5  -1   -2.61    3.43
 -11  -4  -1    0.11    3.35
 -10  -4  -1    2.27    2.21
  -9  -4  -1    0.82    2.10
  -8  -4  -1   17.06    2.93
  -7  -4  -1    8.47    2.32
  -6  -4  -1    9.41    2.14
  -5  -4  -1    8.02    2.02
  -4  -4  -1   -4.10    1.34
  -3  -4  -1    2.30    1.22
  -2  -4  -1    2.91    1.14
  -1  -4  -1    1.11    1.16
   0  -4  -1    2.47    1.25
   1  -4  -1    2.39    1.20
   2  -4  -1    0.85    1.22
   3  -4  -1    1.35    1.27
   4  -4  -1   -0.83    1.39
   5  -4  -1    2.33    1.63
   6  -4  -1    9.49    2.06
   7  -4  -1    7.48    2.01
   8  -4  -1   11.96    2.54
   9  -4  -1    4.35    2.89
  10  -4  -1    0.73    2.71
 -12  -3  -1    2.57    1.96
 -11  -3  -1    9.86    2.42
 -10  -3  -1   17.01    2.67
  -9  -3  -1   -0.99    1.43
  -8  -3  -1   10.48    2.28
  -7  -3  -1    0.83    1.28
  -6  -3  -1    1.02    0.98
  -5  -3  -1    2.20    1.03
  -4  -3  -1    3.79    1.05
  -3  -3  -1    0.83    0.88
  -2  -3  -1  160.38    7.07
  -1  -3  -1    8.14    1.15
   0  -3  -1   -0.59    0.75
   1  -3  -1    7.71    1.12
   2  -3  -1  159.34    8.40
   3  -3  -1    1.11    1.02
   4  -3  -1    3.50    1.01
   5  -3  -1    2.79    1.07
   6  -3  -1    0.62    1.02
   7  -3  -1    1.58    1.17
   8  -3  -1   15.57    1.75
   9  -3  -1    1.90    1.24
  10  -3  -1   18.99    2.74
  11  -3  -1   10.20    2.25
  12  -3  -1    4.78    2.02
  13  -3  -1    3.50    2.67
 -14  -2  -1    8.00    3.69
 -13  -2  -1   -0.47    2.12
 -12  -2  -1    5.40    1.96
 -11  -2  -1    6.50    2.10
 -10  -2  -1    1.04    1.35
  -9  -2  -1    6.03    1.16
  -8  -2  -1   45.81    2.85
  -7  -2  -1   34.49    2.36
  -6  -2  -1   27.02    1.96
  -5  -2  -1   18.68    1.61
  -4  -2  -1    0.20    0.54
  -3  -2  -1    6.76    0.93
  -2  -2  -1    5.06    0.77
  -1  -2  -1    4.06    0.73
   0  -2  -1    4.38    0.72
   1  -2  -1    4.89    0.86
   2  -2  -1    4.87    0.71
   3  -2  -1    9.14    0.93
   4  -2  -1    1.35    0.54
   5  -2  -1   23.82    1.38
   6  -2  -1   25.59    1.54
   7  -2  -1   40.03    2.48
   8  -2  -1   47.09    2.84
   9  -2  -1    7.45    1.27
  10  -2  -1    1.76    1.22
  11  -2  -1    3.81    1.61
  12  -2  -1    7.05    1.97
  13  -2  -1    1.36    1.57
  14  -2  -1    6.47    3.23
 -14  -1  -1   -0.32    2.47
 -13  -1  -1   15.79    3.79
 -12  -1  -1   15.54    1.89
 -11  -1  -1   25.97    2.59
 -10  -1  -1   43.97    3.23
  -9  -1  -1    1.46    0.91
  -8  -1  -1   29.68    2.18
  -7  -1  -1    3.01    0.80
  -6  -1  -1    0.34    0.58
  -5  -1  -1   10.16    1.03
  -4  -1  -1    7.49    0.73
  -3  -1  -1   26.16    1.31
  -2  -1  -1  404.38   16.01
  -1  -1  -1    0.95    0.42
   0  -1  -1   -0.74    0.35
   1  -1  -1    0.51    0.31
   2  -1  -1  402.61   13.57
   3  -1  -1   25.65    1.34
   4  -1  -1    6.58    0.72
   5  -1  -1    8.59    0.88
   6  -1  -1    0.75    0.58
   7  -1  -1    1.01    0.68
   8  -1  -1   22.77    1.84
   9  -1  -1    0.46    0.72
  10  -1  -1   40.97    2.76
  11  -1  -1   24.06    2.12
  12  -1  -1   13.18    1.69
  13  -1  -1    8.14    2.16
  14  -1  -1    2.41    2.40
 -15   0  -1   13.29    4.17
 -14   0  -1   13.38    2.54
 -13   0  -1    0.92    1.50
 -12   0  -1    9.32    2.06
 -11   0  -1   14.30    1.88
 -10   0  -1   -0.77    0.91
  -9   0  -1    0.52    0.91
  -8   0  -1   67.85    3.72
  -7   0  -1   73.46    3.68
  -6   0  -1   31.10    2.12
  -5   0  -1   58.61    2.52
  -4   0  -1    0.78    0.42
  -3   0  -1   32.03    1.46
  -2   0  -1   12.56    0.75
  -1   0  -1    6.41    0.38
   1   0  -1    5.51    0.36
   2   0  -1   13.20    0.65
   3   0  -1   32.65    1.29
   4   0  -1    0.63    0.35
   5   0  -1   58.04    2.28
   6   0  -1   27.11    1.44
   7   0  -1   76.41    2.92
   8   0  -1   71.54    2.86
   9   0  -1    1.71    0.67
  10   0  -1    0.49    0.70
  11   0  -1   15.80    2.27
  12   0  -1    5.44    1.78
  13   0  -1    4.57    1.73
  14   0  -1   16.98    2.65
  15   0  -1   14.24    2.66
 -15   1  -1    2.02    2.05
 -14   1  -1   -2.19    1.64
 -13   1  -1   13.89    2.80
 -12   1  -1    6.74    2.03
 -11   1  -1   25.39    2.42
 -10   1  -1   39.81    3.00
  -9   1  -1   -0.39    0.83
  -8   1  -1   30.38    2.20
  -7   1  -1    0.80    0.73
  -6   1  -1    1.04    0.51
  -5   1  -1    9.67    0.83
  -4   1  -1    6.04    0.64
  -3   1  -1   25.36    1.28
  -2   1  -1  401.01   14.04
  -1   1  -1   -0.05    0.33
   0   1  -1    0.44    0.27
   1   1  -1    0.02    0.34
   2   1  -1  415.34   14.17
   3   1  -1   23.75    1.42
   4   1  -1    7.97    0.82
   5   1  -1   10.08    1.02
   6   1  -1    1.40    0.52
   7   1  -1    2.52    0.68
   8   1  -1   28.68    2.03
   9   1  -1   -0.80    0.75
  10   1  -1   47.42    2.96
  11   1  -1   21.90    2.68
  12   1  -1   12.02    2.09
  13   1  -1   13.53    2.36
  14   1  -1    2.35    1.67
 -14   2  -1   10.77    2.80
 -13   2  -1    4.30    2.08
 -12   2  -1    4.22    1.94
 -11   2  -1    3.51    1.72
 -10   2  -1   -0.95    1.04
  -9   2  -1    7.96    1.37
  -8   2  -1   48.42    2.61
  -7   2  -1   38.55    2.20
  -6   2  -1   21.51    1.59
  -5   2  -1   20.89    1.76
  -4   2  -1    1.38    0.72
  -3   2  -1    9.35    1.00
  -2   2  -1    3.37    0.59
  -1   2  -1    5.20    0.67
   0   2  -1    0.81    0.50
   1   2  -1    5.46    0.63
   2   2  -1    3.74    0.62
   3   2  -1    8.42    0.86
   4   2  -1    1.22    0.61
   5   2  -1   23.03    1.73
   6   2  -1   24.85    1.92
   7   2  -1   40.79    2.63
   8   2  -1   51.45    3.21
   9   2  -1    7.57    1.70
  10   2  -1   -0.47    1.31
  11   2  -1    5.96    1.96
  12   2  -1    0.61    1.77
  13   2  -1    4.73    2.95
  14   2  -1   13.31    4.41
 -13   3  -1    2.58    5.24
 -12   3  -1    3.17    2.40
 -11   3  -1   18.56    3.13
 -10   3  -1   10.42    2.57
  -9   3  -1    1.26    1.44
  -8   3  -1   14.10    1.80
  -7   3  -1    0.45    1.06
  -6   3  -1    1.30    1.07
  -5   3  -1    1.40    1.07
  -4   3  -1    4.29    1.14
  -3   3  -1    2.98    0.81
  -2   3  -1  166.64    6.30
  -1   3  -1    7.62    1.02
   0   3  -1   -0.47    0.71
   1   3  -1   10.10    1.27
   2   3  -1  164.86    6.22
   3   3  -1    0.93    0.80
   4   3  -1    2.46    0.90
   5   3  -1    3.82    0.94
   6   3  -1    0.30    0.92
   7   3  -1    1.38    1.06
   8   3  -1   12.51    1.77
   9   3  -1    1.38    1.57
  10   3  -1   18.93    2.86
  11   3  -1   23.28    3.12
  12   3  -1    3.31    2.41
  13   3  -1    2.41    3.32
 -10   4  -1    1.68    2.71
  -9   4  -1    1.00    2.15
  -8   4  -1   15.30    2.19
  -7   4  -1   10.19    1.85
  -6   4  -1    7.40    1.68
  -5   4  -1    6.35    1.48
  -4   4  -1    0.15    1.19
  -3   4  -1    2.65    1.27
  -2   4  -1    1.48    1.20
  -1   4  -1    1.96    1.23
   0   4  -1    1.11    1.21
   1   4  -1    1.05    1.35
   2   4  -1   -0.14    1.23
   3   4  -1    2.36    1.32
   4   4  -1   -0.28    1.29
   5   4  -1    4.85    1.76
   6   4  -1    7.13    1.98
   7   4  -1    5.65    2.02
   8   4  -1   11.59    3.55
   9   4  -1    2.91    2.72
  10   4  -1    0.15    2.89
  11   4  -1   -4.00    3.34
  -7   5  -1    1.44    2.42
  -6   5  -1    0.08    2.29
  -5   5  -1    1.88    2.30
  -4   5  -1   -0.29    2.13
  -3   5  -1   -1.32    1.95
  -2   5  -1   45.24    4.45
  -1   5  -1    4.97    2.17
   0   5  -1   -0.15    1.95
   1   5  -1    1.94    1.75
   2   5  -1   50.08    4.41
   3   5  -1    3.53    2.11
   4   5  -1    1.49    2.17
   5   5  -1    2.58    2.18
   6   5  -1   -2.07    2.12
  -7  -5   0    0.58    2.26
  -6  -5   0    1.84    2.35
  -5  -5   0    4.06    2.25
  -4  -5   0   10.16    2.65
  -3  -5   0    2.87    2.14
  -2  -5   0    3.89    2.34
  -1  -5   0    1.84    2.04
   0  -5   0   -2.97    1.49
   1  -5   0    1.03    1.51
   2  -5   0    3.99    2.13
   3  -5   0   -1.97    1.86
   4  -5   0    2.46    2.24
   5  -5   0    0.39    2.35
   6  -5   0   -1.88    2.27
   7  -5   0    0.29    2.55
 -11  -4   0    0.29    3.37
 -10  -4   0   -0.01    2.09
  -9  -4   0   -0.07    2.01
  -8  -4   0   12.79    2.64
  -7  -4   0   -0.86    1.53
  -6  -4   0   24.71    3.22
  -5  -4   0   -0.92    1.48
  -4  -4   0    9.06    2.12
  -3  -4   0    0.33    1.39
  -2  -4   0    5.23    1.30
  -1  -4   0    1.22    1.08
   0  -4   0  298.51   12.69
   1  -4   0   -1.19    1.04
   2  -4   0    5.16    1.42
   3  -4   0    1.88    1.51
   4  -4   0    5.76    1.79
   5  -4   0   -0.55    1.46
   6  -4   0   32.31    3.20
   7  -4   0    0.62    1.77
   8  -4   0   10.76    2.44
   9  -4   0   -0.48    2.00
  10  -4   0    2.36    3.02
 -12  -3   0    2.52    2.64
 -11  -3   0   -0.14    1.59
 -10  -3   0   23.01    3.14
  -9  -3   0    0.81    1.39
  -8  -3   0    2.15    1.56
  -7  -3   0   -0.18    0.98
  -6  -3   0    0.92    0.94
  -5  -3   0    2.00    1.00
  -4  -3   0   26.78    2.12
  -3  -3   0    0.09    0.79
  -2  -3   0   18.47    1.63
  -1  -3   0   -0.01    0.78
   0  -3   0   -1.23    0.77
   1  -3   0    0.49    0.82
   2  -3   0   14.84    1.74
   3  -3   0    0.42    1.01
   4  -3   0   29.25    2.60
   5  -3   0   -1.04    0.85
   6  -3   0    2.46    1.14
   7  -3   0   -1.13    1.01
   8  -3   0    1.94    1.27
   9  -3   0    0.04    1.15
  10  -3   0   26.26    2.43
  11  -3   0   -0.08    1.56
  12  -3   0    0.56    1.84
  13  -3   0    5.25    2.67
 -14  -2   0   -0.62    2.57
 -13  -2   0    1.35    2.21
 -12  -2   0    0.73    2.10
 -11  -2   0    0.60    1.44
 -10  -2   0    5.18    1.32
  -9  -2   0    1.24    0.86
  -8  -2   0   25.66    2.07
  -7  -2   0   -0.98    0.69
  -6  -2   0   78.33    3.76
  -5  -2   0   -0.40    0.61
  -4  -2   0   28.77    1.94
  -3  -2   0   -0.44    0.53
  -2  -2   0    4.92    0.77
  -1  -2   0    0.67    0.51
   0  -2   0  986.37   38.21
   1  -2   0    0.97    0.66
   2  -2   0    5.06    0.94
   3  -2   0    0.79    0.61
   4  -2   0   27.11    1.75
   5  -2   0    0.61    0.51
   6  -2   0   76.03    3.07
   7  -2   0    1.47    0.84
   8  -2   0   24.51    2.47
   9  -2   0   -0.65    1.05
  10  -2   0    6.16    1.55
  11  -2   0    0.74    1.30
  12  -2   0    7.15    1.88
  13  -2   0   -0.64    1.54
  14  -2   0   -0.45    2.80
 -14  -1   0    5.42    2.92
 -13  -1   0   -1.77    1.91
 -12  -1   0    1.67    1.37
 -11  -1   0    0.20    1.13
 -10  -1   0   60.38    3.69
  -9  -1   0    0.13    0.80
  -8  -1   0   -0.41    0.67
  -7  -1   0   -0.05    0.65
  -6  -1   0   21.14    1.65
  -5  -1   0    0.13    0.52
  -4  -1   0   29.30    1.64
  -3  -1   0   -0.61    0.44
  -2  -1   0   55.45    2.35
  -1  -1   0    0.25    0.38
   0  -1   0   -1.30    0.45
   1  -1   0    0.46    0.48
   2  -1   0   52.87    1.97
   3  -1   0   -0.34    0.38
   4  -1   0   26.32    1.49
   5  -1   0   -0.18    0.43
   6  -1   0   19.94    1.49
   7  -1   0   -0.47    0.56
   8  -1   0    0.55    0.68
   9  -1   0    0.37    0.70
  10  -1   0   62.46    3.26
  11  -1   0    0.30    0.91
  12  -1   0    0.98    0.98
  13  -1   0    0.09    1.55
  14  -1   0    6.62    2.90
 -15   0   0   -2.87    2.38
 -14   0   0   13.77    2.41
 -13   0   0    0.54    1.50
 -12   0   0   22.93    2.97
 -11   0   0    2.04    1.12
 -10   0   0   13.78    1.74
  -9   0   0    1.25    0.90
  -8   0   0   48.29    2.70
  -7   0   0   -0.25    0.63
  -6   0   0  110.21    5.05
  -5   0   0   -0.29    0.56
  -4   0   0   56.90    2.90
  -3   0   0   -0.21    0.36
  -2   0   0    0.08    0.27
  -1   0   0    0.08    0.13
   1   0   0   -0.29    0.17
   2   0   0    0.04    0.28
   3   0   0    0.13    0.36
   4   0   0   57.31    2.15
   5   0   0   -0.37    0.32
   6   0   0  111.50    4.08
   7   0   0    0.12    0.43
   8   0   0   41.28    2.06
   9   0   0    0.87    0.66
  10   0   0   15.70    1.57
  11   0   0   -0.50    1.25
  12   0   0   17.39    2.60
  13   0   0   -0.44    1.49
  14   0   0    7.90    2.29
  15   0   0   -0.74    1.85
 -15   1   0   -0.18    1.89
 -14   1   0    2.63    2.06
 -13   1   0   -1.05    1.64
 -12   1   0   -0.17    1.41
 -11   1   0    0.10    1.34
 -10   1   0   55.93    3.42
  -9   1   0    0.37    0.79
  -8   1   0    0.24    0.57
  -7   1   0    0.30    0.47
  -6   1   0   20.40    1.32
  -5   1   0    0.34    0.42
  -4   1   0   27.88    1.41
  -3   1   0    0.04    0.38
  -2   1   0   53.14    2.08
  -1   1   0   -0.13    0.34
   0   1   0   -1.41    0.27
   1   1   0   -0.60    0.33
   2   1   0   52.83    2.11
   3   1   0    0.73    0.44
   4   1   0   27.80    1.65
   5   1   0   -0.40    0.40
   6   1   0   22.75    1.56
   7   1   0   -1.30    0.55
   8   1   0   -0.09    0.62
   9   1   0   -0.24    0.76
  10   1   0   59.94    3.25
  11   1   0   -0.32    1.06
  12   1   0    0.62    1.41
  13   1   0   -0.24    1.44
  14   1   0    2.85    1.69
 -14   2   0    1.97    2.13
 -13   2   0   -0.75    1.91
 -12   2   0    4.92    2.06
 -11   2   0    0.72    1.53
 -10   2   0    5.25    1.31
  -9   2   0    0.18    0.80
  -8   2   0   26.80    1.79
  -7   2   0   -0.36    0.61
  -6   2   0   77.12    3.25
  -5   2   0    0.02    0.71
  -4   2   0   24.04    1.84
  -3   2   0    0.52    0.48
  -2   2   0    5.19    0.67
  -1   2   0    0.27    0.47
   0   2   0  968.34   34.00
   1   2   0   -0.07    0.42
   2   2   0    6.50    0.74
   3   2   0   -0.08    0.51
   4   2   0   25.15    1.58
   5   2   0    0.19    0.69
   6   2   0   73.92    3.74
   7   2   0   -0.57    0.80
   8   2   0   25.03    2.13
   9   2   0   -0.28    1.23
  10   2   0    5.86    1.74
  11   2   0   -1.42    1.43
  12   2   0    9.46    2.16
  13   2   0    2.97    2.76
  14   2   0    9.35    3.61
 -13   3   0   -5.40    5.30
 -12   3   0    1.45    2.50
 -11   3   0   -1.83    1.94
 -10   3   0   19.47    3.25
  -9   3   0    0.85    1.18
  -8   3   0    1.46    1.16
  -7   3   0   -0.62    1.03
  -6   3   0    2.05    1.19
  -5   3   0   -0.65    0.91
  -4   3   0   28.35    2.27
  -3   3   0   -0.55    0.70
  -2   3   0   17.22    1.39
  -1   3   0    0.79    0.70
   0   3   0    1.14    0.84
   1   3   0    0.31    0.83
   2   3   0   14.34    1.28
   3   3   0   -0.22    0.73
   4   3   0   30.91    1.98
   5   3   0   -0.70    0.90
   6   3   0    0.46    0.97
   7   3   0   -0.83    0.97
   8   3   0    2.73    1.65
   9   3   0    1.07    1.70
  10   3   0   31.06    3.50
  11   3   0   -0.37    1.86
  12   3   0    0.60    2.16
  13   3   0    1.74    3.22
 -10   4   0    3.11    3.00
  -9   4   0    0.00    2.42
  -8   4   0    9.09    1.95
  -7   4   0   -0.51    1.41
  -6   4   0   25.59    2.57
  -5   4   0   -0.69    1.21
  -4   4   0    4.54    1.54
  -3   4   0   -0.12    1.13
  -2   4   0    7.01    1.47
  -1   4   0    0.36    1.18
   0   4   0  312.35   22.34
   1   4   0   -1.30    1.17
   2   4   0    2.02    1.31
   3   4   0   -1.90    1.13
   4   4   0    3.45    1.42
   5   4   0    1.03    1.51
   6   4   0   22.92    2.97
   7   4   0    0.65    1.56
   8   4   0    8.96    3.42
   9   4   0   -3.06    2.28
  10   4   0    2.55    2.17
  11   4   0    3.30    3.84
  -7   5   0   -2.48    2.42
  -6   5   0   -0.33    2.17
  -5   5   0   -0.83    2.18
  -4   5   0    6.59    2.55
  -3   5   0    0.78    1.98
  -2   5   0    2.80    2.16
  -1   5   0    2.06    2.19
   0   5   0    1.12    1.65
   1   5   0   -1.99    1.91
   2   5   0    1.69    2.17
   3   5   0   -0.30    1.97
   4   5   0    5.92    2.22
   5   5   0   -1.00    1.97
   6   5   0   -3.07    2.03
  -7  -5   1    3.98    2.60
  -6  -5   1   -2.32    2.13
  -5  -5   1   -0.88    2.07
  -4  -5   1    0.17    2.21
  -3  -5   1    0.06    1.90
  -2  -5   1   44.22    4.34
  -1  -5   1    3.97    2.15
   0  -5   1   -0.66    1.42
   1  -5   1    2.35    1.67
   2  -5   1   40.68    3.43
   3  -5   1    3.19    1.77
   4  -5   1    0.00    1.78
   5  -5   1    1.86    2.39
   6  -5   1    2.48    2.48
   7  -5   1    2.78    2.65
 -11  -4   1   -7.20    2.81
 -10  -4   1    0.04    2.18
  -9  -4   1    2.64    2.14
  -8  -4   1    8.98    2.62
  -7  -4   1   10.47    2.49
  -6  -4   1    5.18    2.00
  -5  -4   1    1.86    1.37
  -4  -4   1   -0.98    1.53
  -3  -4   1   -1.04    1.41
  -2  -4   1    0.96    1.12
  -1  -4   1    0.60    1.08
   0  -4   1    0.46    1.16
   1  -4   1    1.87    1.25
   2  -4   1   -0.26    1.16
   3  -4   1    2.04    1.49
   4  -4   1    1.25    1.46
   5  -4   1    3.15    1.79
   6  -4   1   10.14    2.19
   7  -4   1    9.32    2.28
   8  -4   1   14.83    2.61
   9  -4   1    2.29    1.97
  10  -4   1    0.82    2.91
 -12  -3   1    4.82    2.87
 -11  -3   1   15.18    2.70
 -10  -3   1   15.90    2.79
  -9  -3   1    0.75    1.53
  -8  -3   1   10.78    1.68
  -7  -3   1    1.93    1.09
  -6  -3   1    1.40    1.03
  -5  -3   1    1.20    0.94
  -4  -3   1    2.29    1.25
  -3  -3   1    0.39    0.87
  -2  -3   1  167.73    7.09
  -1  -3   1    9.12    1.19
   0  -3   1    1.61    0.85
   1  -3   1    7.51    1.13
   2  -3   1  163.36    8.45
   3  -3   1    2.23    1.10
   4  -3   1    1.84    1.10
   5  -3   1    3.78    1.10
   6  -3   1    0.03    0.99
   7  -3   1    2.00    1.13
   8  -3   1   15.38    1.77
   9  -3   1    0.78    1.20
  10  -3   1   21.91    2.27
  11  -3   1   17.81    2.85
  12  -3   1    6.58    2.24
  13  -3   1    4.19    2.22
 -14  -2   1    6.96    3.28
 -13  -2   1    3.94    2.91
 -12  -2   1   -0.04    1.95
 -11  -2   1    7.74    1.52
 -10  -2   1   -0.18    0.97
  -9  -2   1    4.99    1.18
  -8  -2   1   50.98    3.18
  -7  -2   1   39.09    2.63
  -6  -2   1   26.51    1.98
  -5  -2   1   22.15    1.75
  -4  -2   1    1.87    0.79
  -3  -2   1   11.45    1.35
  -2  -2   1    5.73    0.78
  -1  -2   1    5.39    0.79
   0  -2   1    1.03    0.57
   1  -2   1    7.16    0.99
   2  -2   1    3.31    0.90
   3  -2   1    8.41    0.91
   4  -2   1    0.57    0.69
   5  -2   1   20.02    1.25
   6  -2   1   26.21    1.90
   7  -2   1   33.37    2.98
   8  -2   1   47.93    3.62
   9  -2   1    3.32    1.34
  10  -2   1   -0.64    1.16
  11  -2   1    7.90    1.88
  12  -2   1    2.83    1.61
  13  -2   1   -1.28    1.54
  14  -2   1    2.71    3.15
 -14  -1   1    0.98    2.31
 -13  -1   1   15.97    2.49
 -12  -1   1    9.08    2.03
 -11  -1   1   25.66    2.93
 -10  -1   1   43.83    3.22
  -9  -1   1   -1.56    0.74
  -8  -1   1   26.88    2.16
  -7  -1   1    1.56    0.74
  -6  -1   1    0.18    0.63
  -5  -1   1   11.51    1.10
  -4  -1   1    7.88    0.86
  -3  -1   1   26.56    1.52
  -2  -1   1  417.26   19.92
  -1  -1   1    0.53    0.40
   0  -1   1   -0.56    0.43
   1  -1   1    0.37    0.49
   2  -1   1  410.04   18.86
   3  -1   1   24.30    1.34
   4  -1   1    5.79    0.68
   5  -1   1    8.79    0.89
   6  -1   1    0.48    0.58
   7  -1   1    2.77    0.76
   8  -1   1   27.03    1.98
   9  -1   1    0.21    0.72
  10  -1   1   38.18    2.75
  11  -1   1   24.95    2.21
  12  -1   1   10.49    1.57
  13  -1   1   13.69    2.39
  14  -1   1    3.48    2.69
 -15   0   1    7.42    2.37
 -14   0   1   13.04    2.63
 -13   0   1    4.98    1.84
 -12   0   1    8.55    1.98
 -11   0   1    7.78    1.91
 -10   0   1   -0.25    0.86
  -9   0   1    2.54    1.02
  -8   0   1   71.94    3.63
  -7   0   1   71.59    3.63
  -6   0   1   31.60    2.15
  -5   0   1   61.23    2.54
  -4   0   1    1.24    0.50
  -3   0   1   36.13    1.52
  -2   0   1   13.47    0.81
  -1   0   1    5.61    0.47
   1   0   1    5.99    0.50
   2   0   1   12.10    0.76
   3   0   1   29.94    1.53
   4   0   1    0.13    0.42
   5   0   1   58.48    2.70
   6   0   1   27.87    1.48
   7   0   1   73.29    2.92
   8   0   1   68.93    2.86
   9   0   1    2.64    0.83
  10   0   1   -0.36    0.72
  11   0   1   11.10    1.44
  12   0   1   11.38    2.10
  13   0   1    3.98    1.85
  14   0   1   10.47    2.38
  15   0   1    8.04    2.47
 -15   1   1   -1.33    2.07
 -14   1   1   -2.25    1.75
 -13   1   1   10.40    2.53
 -12   1   1   10.80    2.21
 -11   1   1   24.92    3.03
 -10   1   1   38.98    2.86
  -9   1   1    0.45    0.84
  -8   1   1   26.14    1.63
  -7   1   1    1.80    0.58
  -6   1   1    0.97    0.48
  -5   1   1   10.78    0.86
  -4   1   1    6.27    0.64
  -3   1   1   23.81    1.22
  -2   1   1  408.36   14.23
  -1   1   1    0.69    0.37
   0   1   1   -0.67    0.26
   1   1   1    0.96    0.36
   2   1   1  402.53   14.14
   3   1   1   24.49    1.40
   4   1   1    6.90    0.76
   5   1   1    7.68    0.90
   6   1   1    0.20    0.58
   7   1   1    3.42    0.79
   8   1   1   28.75    2.07
   9   1   1    0.69    0.79
  10   1   1   44.30    2.88
  11   1   1   31.91    3.03
  12   1   1   13.59    2.14
  13   1   1   13.90    2.53
  14   1   1   -2.22    1.64
  15   1   1    1.25    3.14
 -14   2   1   16.46    3.10
 -13   2   1    0.07    1.88
 -12   2   1    5.89    2.16
 -11   2   1    5.25    2.06
 -10   2   1    2.36    1.62
  -9   2   1    3.74    0.97
  -8   2   1   51.00    2.58
  -7   2   1   36.77    2.58
  -6   2   1   23.36    1.94
  -5   2   1   24.00    1.83
  -4   2   1    0.18    0.65
  -3   2   1    9.29    0.83
  -2   2   1    4.11    0.64
  -1   2   1    5.92    0.69
   0   2   1    4.39    0.54
   1   2   1    3.52    0.58
   2   2   1    4.88    0.68
   3   2   1    7.77    0.86
   4   2   1    0.80    0.58
   5   2   1   21.96    1.70
   6   2   1   27.05    1.96
   7   2   1   39.25    2.57
   8   2   1   47.21    3.92
   9   2   1    1.24    1.37
  10   2   1   -0.25    1.28
  11   2   1    7.57    1.95
  12   2   1    5.12    2.72
  13   2   1    2.51    2.82
  14   2   1    9.62    3.68
 -12   3   1   -0.20    2.40
 -11   3   1   11.93    2.90
 -10   3   1    9.23    2.70
  -9   3   1    0.57    1.24
  -8   3   1   14.27    1.89
  -7   3   1    0.50    1.10
  -6   3   1   -0.78    0.98
  -5   3   1    2.50    1.12
  -4   3   1    1.74    0.83
  -3   3   1    2.30    0.80
  -2   3   1  165.49    6.29
  -1   3   1    7.43    1.01
   0   3   1   -0.01    0.80
   1   3   1    6.16    0.89
   2   3   1  161.66    6.22
   3   3   1    2.11    0.81
   4   3   1    1.23    0.81
   5   3   1    2.22    0.99
   6   3   1    0.55    1.00
   7   3   1    0.36    1.03
   8   3   1   13.01    2.28
   9   3   1    0.28    1.58
  10   3   1   22.61    2.99
  11   3   1   19.69    2.94
  12   3   1    4.95    2.32
  13   3   1    2.01    3.73
 -10   4   1    1.16    2.68
  -9   4   1    0.33    1.88
  -8   4   1   14.60    2.57
  -7   4   1   12.78    2.35
  -6   4   1    8.55    1.70
  -5   4   1    4.48    1.45
  -4   4   1    1.18    1.25
  -3   4   1    1.19    1.26
  -2   4   1    2.18    1.23
  -1   4   1    3.50    1.29
   0   4   1    7.66    1.44
   1   4   1    0.83    1.26
   2   4   1    0.16    1.26
   3   4   1   -0.09    1.16
   4   4   1    2.26    1.49
   5   4   1    0.46    1.58
   6   4   1   10.12    2.13
   7   4   1    8.06    2.10
   8   4   1   21.36    4.19
   9   4   1   -1.62    2.00
  10   4   1    2.68    2.42
  11   4   1    2.05    4.10
  -7   5   1   -2.06    2.20
  -6   5   1    0.48    2.28
  -5   5   1   -1.01    2.16
  -4   5   1   -3.86    1.87
  -3   5   1   -1.30    1.84
  -2   5   1   43.33    4.40
  -1   5   1    3.90    2.31
   0   5   1    1.24    2.15
   1   5   1    2.28    2.16
   2   5   1   44.32    4.37
   3   5   1    1.94    2.10
   4   5   1   -0.50    2.04
   5   5   1    1.70    2.19
   6   5   1   -0.19    2.01
  -7  -5   2    1.28    2.53
  -6  -5   2   -2.84    2.26
  -5  -5   2   36.14    3.97
  -4  -5   2    5.89    2.48
  -3  -5   2    2.71    2.18
  -2  -5   2    5.52    2.28
  -1  -5   2    0.01    2.01
   0  -5   2   -0.08    1.99
   1  -5   2   -1.00    1.53
   2  -5   2    6.85    1.90
   3  -5   2   -2.09    1.64
   4  -5   2    4.40    2.09
   5  -5   2   28.52    3.10
   6  -5   2    2.97    2.49
   7  -5   2   -0.28    3.55
 -10  -4   2   -2.22    2.00
  -9  -4   2   18.30    3.05
  -8  -4   2    2.47    2.02
  -7  -4   2   -0.53    1.67
  -6  -4   2    4.36    1.57
  -5  -4   2   -1.66    1.23
  -4  -4   2    9.69    2.01
  -3  -4   2    7.73    1.85
  -2  -4   2    1.98    1.18
  -1  -4   2   12.43    1.75
   0  -4   2   41.43    2.97
   1  -4   2   10.04    1.65
   2  -4   2    3.98    1.34
   3  -4   2    6.52    1.78
   4  -4   2    8.67    1.90
   5  -4   2   -0.53    1.51
   6  -4   2    6.83    1.97
   7  -4   2    2.12    1.89
   8  -4   2    4.32    2.07
   9  -4   2   13.39    2.57
  10  -4   2    0.27    1.96
 -12  -3   2   -0.62    2.41
 -11  -3   2    0.60    2.29
 -10  -3   2   13.50    2.65
  -9  -3   2    9.82    1.60
  -8  -3   2    1.55    1.16
  -7  -3   2    2.20    1.05
  -6  -3   2    3.16    1.10
  -5  -3   2  103.98    4.98
  -4  -3   2   15.26    2.09
  -3  -3   2   -0.39    0.99
  -2  -3   2   21.74    1.76
  -1  -3   2    1.77    0.95
   0  -3   2    0.06    0.81
   1  -3   2    2.82    1.10
   2  -3   2   19.24    2.02
   3  -3   2   -0.03    0.99
   4  -3   2   19.24    2.10
   5  -3   2   98.22    4.56
   6  -3   2    2.11    1.13
   7  -3   2    2.19    1.14
   8  -3   2    0.66    1.14
   9  -3   2    7.99    1.56
  10  -3   2    8.70    1.76
  11  -3   2    2.90    1.55
  12  -3   2    2.08    1.90
  13  -3   2    1.58    2.31
 -14  -2   2    4.28    3.25
 -13  -2   2    6.61    3.06
 -12  -2   2   -3.49    1.71
 -11  -2   2   -0.09    1.20
 -10  -2   2    1.40    1.10
  -9  -2   2   36.27    2.69
  -8  -2   2   13.10    1.50
  -7  -2   2    6.60    1.14
  -6  -2   2   17.10    1.61
  -5  -2   2    0.34    0.66
  -4  -2   2   25.13    1.84
  -3  -2   2   28.02    2.23
  -2  -2   2    4.29    0.71
  -1  -2   2   29.21    1.71
   0  -2   2   83.93    3.77
   1  -2   2   27.70    1.97
   2  -2   2    3.54    0.92
   3  -2   2   19.18    1.83
   4  -2   2   22.11    1.60
   5  -2   2    1.72    0.76
   6  -2   2   16.79    1.86
   7  -2   2    4.02    1.24
   8  -2   2   12.14    1.80
   9  -2   2   26.90    2.99
  10  -2   2    0.38    1.22
  11  -2   2   -0.22    1.22
  12  -2   2   -0.90    1.30
  13  -2   2    7.97    2.03
  14  -2   2    4.38    2.04
 -14  -1   2    0.53    1.77
 -13  -1   2    2.83    1.68
 -12  -1   2    1.94    1.44
 -11  -1   2    6.43    1.68
 -10  -1   2   20.56    2.06
  -9  -1   2   23.30    2.09
  -8  -1   2   15.40    1.65
  -7  -1   2    0.44    0.69
  -6  -1   2    0.15    0.61
  -5  -1   2  241.83    9.71
  -4  -1   2   17.35    1.29
  -3  -1   2    3.08    0.64
  -2  -1   2   59.88    3.24
  -1  -1   2    6.78    0.80
   0  -1   2    0.03    0.45
   1  -1   2    5.93    0.72
   2  -1   2   61.07    3.09
   3  -1   2    3.22    0.55
   4  -1   2   14.16    1.10
   5  -1   2  230.64    9.38
   6  -1   2    0.35    0.60
   7  -1   2   -0.32    0.61
   8  -1   2   14.46    1.45
   9  -1   2   20.77    1.82
  10  -1   2   14.19    1.61
  11  -1   2    3.32    1.04
  12  -1   2    4.02    1.26
  13  -1   2   -1.02    1.24
  14  -1   2    2.95    2.17
 -15   0   2    5.75    2.43
 -14   0   2    9.10    2.52
 -13   0   2    8.37    2.23
 -12   0   2    2.72    1.55
 -11   0   2   -0.11    1.23
 -10   0   2    0.82    1.10
  -9   0   2   56.17    3.31
  -8   0   2   15.72    1.30
  -7   0   2   11.07    1.01
  -6   0   2   22.09    1.42
  -5   0   2    2.07    0.58
  -4   0   2   21.23    1.28
  -3   0   2   52.18    2.22
  -2   0   2    0.44    0.44
  -1   0   2   23.98    1.27
   1   0   2   24.00    1.38
   2   0   2    0.70    0.31
   3   0   2   53.94    2.31
   4   0   2   19.45    1.24
   5   0   2    1.73    0.51
   6   0   2   19.98    1.45
   7   0   2    7.83    0.79
   8   0   2   17.14    1.23
   9   0   2   47.25    2.80
  10   0   2    2.59    0.88
  11   0   2    1.06    0.88
  12   0   2    3.38    1.57
  13   0   2    4.14    1.87
  14   0   2    5.53    2.13
  15   0   2   12.14    2.57
 -15   1   2   -3.71    1.89
 -14   1   2   -1.35    1.77
 -13   1   2   -1.55    1.70
 -12   1   2    1.46    1.65
 -11   1   2    2.92    1.49
 -10   1   2   16.11    2.31
  -9   1   2   20.69    1.58
  -8   1   2   15.37    1.25
  -7   1   2   -0.03    0.52
  -6   1   2    0.33    0.45
  -5   1   2  232.29    8.33
  -4   1   2   16.15    0.85
  -3   1   2    3.39    0.48
  -2   1   2   61.69    2.32
  -1   1   2    5.53    0.51
   0   1   2    0.49    0.34
   1   1   2    6.22    0.52
   2   1   2   58.42    2.29
   3   1   2    3.38    0.48
   4   1   2   16.52    1.15
   5   1   2  234.39    9.57
   6   1   2    0.21    0.56
   7   1   2    0.15    0.62
   8   1   2   13.83    1.50
   9   1   2   22.76    1.96
  10   1   2   18.24    1.78
  11   1   2    3.95    1.33
  12   1   2    5.95    1.74
  13   1   2    0.58    1.50
  14   1   2    2.75    1.88
  15   1   2   -4.64    2.10
 -14   2   2    5.49    2.67
 -13   2   2    1.23    2.07
 -12   2   2    2.60    2.00
 -11   2   2    1.50    1.58
 -10   2   2   -0.17    1.45
  -9   2   2   40.26    2.84
  -8   2   2   14.98    1.65
  -7   2   2    6.75    1.13
  -6   2   2   14.75    1.51
  -5   2   2    1.34    0.79
  -4   2   2   21.87    1.39
  -3   2   2   22.04    1.35
  -2   2   2    3.70    0.62
  -1   2   2   26.51    1.21
   0   2   2   85.75    3.27
   1   2   2   24.89    1.39
   2   2   2    2.58    0.58
   3   2   2   24.90    1.44
   4   2   2   25.74    1.71
   5   2   2    1.07    0.73
   6   2   2   15.95    1.46
   7   2   2    5.73    1.08
   8   2   2   14.02    2.11
   9   2   2   38.38    3.54
  10   2   2    0.06    1.45
  11   2   2    1.69    1.56
  12   2   2   -0.75    2.14
  13   2   2    2.27    2.54
  14   2   2    5.39    3.35
 -12   3   2    2.35    2.96
 -11   3   2   -0.48    1.93
 -10   3   2   10.18    2.71
  -9   3   2    6.25    1.61
  -8   3   2    2.20    1.31
  -7   3   2   -0.60    1.10
  -6   3   2    2.39    1.18
  -5   3   2   98.95    4.93
  -4   3   2   17.71    1.41
  -3   3   2    1.75    0.74
  -2   3   2   21.68    1.53
  -1   3   2    3.26    0.96
   0   3   2    0.26    0.81
   1   3   2    2.91    0.77
   2   3   2   18.92    1.44
   3   3   2    0.39    0.75
   4   3   2   17.27    1.49
   5   3   2  104.25    4.86
   6   3   2    1.72    1.04
   7   3   2   -0.01    1.09
   8   3   2    0.58    1.46
   9   3   2    9.32    2.05
  10   3   2   12.67    2.45
  11   3   2    2.58    2.00
  12   3   2    0.26    2.13
 -10   4   2    3.15    3.17
  -9   4   2   11.42    2.48
  -8   4   2    3.09    1.91
  -7   4   2    2.28    1.75
  -6   4   2    5.88    1.90
  -5   4   2    0.22    1.63
  -4   4   2    5.18    1.50
  -3   4   2    6.82    1.49
  -2   4   2    2.84    1.28
  -1   4   2   12.09    1.67
   0   4   2   41.69    3.01
   1   4   2   12.75    1.78
   2   4   2    1.94    1.31
   3   4   2    6.29    1.80
   4   4   2    8.41    1.90
   5   4   2   -1.25    1.50
   6   4   2    4.21    1.73
   7   4   2    2.06    2.61
   8   4   2    6.88    3.00
   9   4   2   13.99    2.86
  10   4   2   -0.95    2.38
  11   4   2    1.16    3.80
  -7   5   2    1.14    2.40
  -6   5   2    0.76    2.26
  -5   5   2   33.03    3.90
  -4   5   2    3.49    2.27
  -3   5   2    1.40    2.16
  -2   5   2    5.70    2.42
  -1   5   2    2.10    2.87
   0   5   2    1.25    2.09
   1   5   2    2.69    2.13
   2   5   2    4.46    2.13
   3   5   2   -2.31    2.05
   4   5   2    2.13    2.31
   5   5   2   22.05    3.41
   6   5   2    2.83    2.18
  -7  -5   3    2.69    2.52
  -6  -5   3    0.79    2.12
  -5  -5   3    1.17    2.07
  -4  -5   3   18.48    3.18
  -3  -5   3   -0.46    1.92
  -2  -5   3    1.31    2.07
  -1  -5   3   -0.26    1.87
   0  -5   3   -1.24    1.98
   1  -5   3    0.71    1.60
   2  -5   3   -2.03    1.60
   3  -5   3   -2.57    1.70
   4  -5   3   15.96    2.45
   5  -5   3   -1.99    1.91
   6  -5   3    2.01    2.36
   7  -5   3    1.36    3.88
 -10  -4   3    1.21    2.21
  -9  -4   3   -0.35    1.91
  -8  -4   3   -1.57    1.71
  -7  -4   3   29.35    3.62
  -6  -4   3   37.69    3.25
  -5  -4   3   -1.11    1.24
  -4  -4   3    0.76    1.42
  -3  -4   3   13.57    2.32
  -2  -4   3    5.78    1.68
  -1  -4   3    1.76    1.25
   0  -4   3   -0.46    1.15
   1  -4   3    0.46    1.19
   2  -4   3    1.72    1.26
   3  -4   3   16.11    2.28
   4  -4   3    3.59    1.75
   5  -4   3    0.33    1.55
   6  -4   3   37.53    3.70
   7  -4   3   27.40    3.37
   8  -4   3   -0.10    1.82
   9  -4   3    1.73    1.83
  10  -4   3    1.98    2.00
 -12  -3   3   -1.28    2.29
 -11  -3   3   21.91    4.57
 -10  -3   3    5.13    2.02
  -9  -3   3    1.10    1.13
  -8  -3   3   -0.45    0.98
  -7  -3   3    4.06    1.30
  -6  -3   3    8.41    1.41
  -5  -3   3    1.02    1.03
  -4  -3   3   59.69    4.07
  -3  -3   3    3.26    1.19
  -2  -3   3    5.60    1.07
  -1  -3   3    1.18    0.85
   0  -3   3    0.60    0.83
   1  -3   3    2.39    1.10
   2  -3   3    3.56    1.20
   3  -3   3    1.96    1.04
   4  -3   3   58.16    4.01
   5  -3   3    3.58    1.36
   6  -3   3   10.55    1.43
   7  -3   3    4.10    1.32
   8  -3   3   -0.33    1.21
   9  -3   3    0.64    1.33
  10  -3   3    9.84    1.80
  11  -3   3   15.83    2.18
  12  -3   3    3.35    2.14
  13  -3   3    2.27    2.60
 -14  -2   3   -2.28    2.51
 -13  -2   3    0.22    2.27
 -12  -2   3   21.86    2.88
 -11  -2   3    2.87    1.44
 -10  -2   3    0.29    0.98
  -9  -2   3    0.88    0.98
  -8  -2   3   -0.24    0.86
  -7  -2   3   62.69    3.44
  -6  -2   3   88.79    4.25
  -5  -2   3    2.72    0.85
  -4  -2   3   15.22    1.46
  -3  -2   3   34.40    2.63
  -2  -2   3   10.73    1.35
  -1  -2   3    6.38    0.75
   0  -2   3   -1.61    0.53
   1  -2   3    4.57    0.92
   2  -2   3    9.29    1.19
   3  -2   3   31.68    1.88
   4  -2   3   16.11    1.35
   5  -2   3    2.77    0.98
   6  -2   3   89.14    4.91
   7  -2   3   63.21    4.00
   8  -2   3    1.66    1.13
   9  -2   3    0.59    1.15
  10  -2   3    2.65    1.34
  11  -2   3    2.43    1.47
  12  -2   3   24.50    2.91
  13  -2   3    0.09    1.54
  14  -2   3    1.28    1.71
 -14  -1   3   -0.05    1.60
 -13  -1   3    1.80    1.51
 -12  -1   3    3.59    1.51
 -11  -1   3   42.12    3.88
 -10  -1   3   29.47    3.07
  -9  -1   3    1.21    0.83
  -8  -1   3   -0.50    0.78
  -7  -1   3   16.95    1.54
  -6  -1   3   29.00    1.93
  -5  -1   3    1.97    0.63
  -4  -1   3   98.45    4.17
  -3  -1   3   16.54    1.21
  -2  -1   3    0.92    0.54
  -1  -1   3   20.69    1.46
   0  -1   3   11.11    0.97
   1  -1   3   20.70    1.99
   2  -1   3    2.02    0.64
   3  -1   3   15.46    1.04
   4  -1   3   92.04    3.98
   5  -1   3    1.20    0.57
   6  -1   3   24.51    1.72
   7  -1   3   15.88    1.42
   8  -1   3   -0.23    0.66
   9  -1   3    0.91    0.82
  10  -1   3   25.46    2.11
  11  -1   3   37.39    2.81
  12  -1   3    3.01    1.19
  13  -1   3   -0.28    1.35
  14  -1   3    0.29    2.37
 -15   0   3    4.55    2.27
 -14   0   3    1.87    1.98
 -13   0   3    3.48    1.81
 -12   0   3   25.85    3.31
 -11   0   3    1.47    1.19
 -10   0   3    3.74    1.34
  -9   0   3    0.83    0.67
  -8   0   3    5.25    0.81
  -7   0   3   67.08    2.87
  -6   0   3   94.59    3.70
  -5   0   3    0.89    0.55
  -4   0   3   39.38    2.00
  -3   0   3   34.23    1.79
  -2   0   3    8.69    0.86
  -1   0   3    3.99    0.52
   1   0   3    5.18    0.57
   2   0   3    9.74    0.72
   3   0   3   29.71    1.50
   4   0   3   37.05    1.81
   5   0   3   -0.04    0.43
   6   0   3   93.77    4.13
   7   0   3   71.29    3.21
   8   0   3    3.58    0.87
   9   0   3    1.14    0.78
  10   0   3    1.30    0.83
  11   0   3    0.28    0.87
  12   0   3   28.41    3.10
  13   0   3    1.00    1.56
  14   0   3    0.40    1.68
  15   0   3    7.60    2.34
 -15   1   3    3.94    2.49
 -14   1   3   -1.06    1.71
 -13   1   3   -1.26    1.72
 -12   1   3    3.64    1.59
 -11   1   3   37.84    3.80
 -10   1   3   31.31    3.21
  -9   1   3    3.86    0.98
  -8   1   3    0.93    0.56
  -7   1   3   11.35    1.06
  -6   1   3   26.13    1.51
  -5   1   3    0.11    0.43
  -4   1   3   94.59    3.16
  -3   1   3   14.67    0.95
  -2   1   3    1.54    0.42
  -1   1   3   17.71    0.96
   0   1   3   12.73    0.85
   1   1   3   19.80    0.97
   2   1   3    1.33    0.47
   3   1   3   14.59    1.07
   4   1   3   94.43    4.06
   5   1   3    1.94    0.59
   6   1   3   25.44    1.79
   7   1   3   16.39    1.45
   8   1   3    0.89    0.76
   9   1   3    1.62    0.86
  10   1   3   28.05    2.27
  11   1   3   40.11    3.59
  12   1   3    3.46    1.48
  13   1   3    1.07    1.52
  14   1   3   -2.29    1.64
  15   1   3    2.02    2.71
 -14   2   3   -0.17    2.17
 -13   2   3    0.72    1.82
 -12   2   3   17.80    3.01
 -11   2   3    0.97    1.83
 -10   2   3   -1.12    1.46
  -9   2   3    0.47    0.99
  -8   2   3    0.40    0.93
  -7   2   3   63.61    3.60
  -6   2   3   82.30    4.25
  -5   2   3    2.93    0.65
  -4   2   3   16.55    1.17
  -3   2   3   31.24    1.70
  -2   2   3    9.88    0.88
  -1   2   3    4.83    0.55
   0   2   3    0.21    0.44
   1   2   3    4.97    0.63
   2   2   3   11.50    0.91
   3   2   3   33.38    1.75
   4   2   3   16.37    1.42
   5   2   3    1.77    0.78
   6   2   3   90.22    4.23
   7   2   3   67.11    4.41
   8   2   3   -0.76    1.17
   9   2   3   -0.76    0.80
  10   2   3    0.25    0.98
  11   2   3    1.27    1.58
  12   2   3   18.12    4.22
  13   2   3    1.62    2.14
  14   2   3   -0.64    3.10
 -12   3   3    6.74    3.23
 -11   3   3   12.09    3.50
 -10   3   3    6.21    2.83
  -9   3   3    2.93    1.30
  -8   3   3    1.35    1.18
  -7   3   3    5.70    1.36
  -6   3   3   12.24    1.61
  -5   3   3    1.94    0.99
  -4   3   3   60.57    2.80
  -3   3   3    1.29    0.77
  -2   3   3    5.50    0.95
  -1   3   3    1.37    0.85
   0   3   3    0.24    0.64
   1   3   3    1.99    0.70
   2   3   3    4.87    0.88
   3   3   3    1.33    0.82
   4   3   3   56.73    2.81
   5   3   3    2.39    1.04
   6   3   3   10.67    1.46
   7   3   3    3.86    1.61
   8   3   3   -2.02    1.35
   9   3   3   -0.67    1.57
  10   3   3   10.89    2.41
  11   3   3   20.38    3.09
  12   3   3    4.94    2.27
 -10   4   3    1.08    2.99
  -9   4   3   -0.70    1.89
  -8   4   3    1.59    1.95
  -7   4   3   31.18    3.42
  -6   4   3   37.27    3.75
  -5   4   3    0.43    1.57
  -4   4   3    2.50    1.67
  -3   4   3    8.75    2.11
  -2   4   3    4.16    1.37
  -1   4   3    2.37    1.26
   0   4   3    1.13    1.23
   1   4   3    2.00    1.29
   2   4   3    3.89    1.71
   3   4   3    6.53    1.88
   4   4   3    3.86    1.65
   5   4   3    2.13    1.61
   6   4   3   36.46    3.64
   7   4   3   27.76    4.96
   8   4   3   -0.17    1.74
   9   4   3    2.00    2.09
  10   4   3   -1.15    2.10
  11   4   3   -1.52    3.55
  -7   5   3    1.65    2.49
  -6   5   3    1.70    2.20
  -5   5   3   -0.49    2.18
  -4   5   3   15.16    2.98
  -3   5   3   -0.26    2.22
  -2   5   3    2.93    2.87
  -1   5   3    2.21    2.67
   0   5   3    2.13    2.07
   1   5   3    1.80    1.96
   2   5   3   -2.03    1.97
   3   5   3    0.72    2.12
   4   5   3   19.28    3.24
   5   5   3    0.46    2.17
   6   5   3    0.07    3.07
  -7  -5   4   -0.79    2.31
  -6  -5   4    0.06    2.02
  -5  -5   4    1.50    2.32
  -4  -5   4   45.83    4.76
  -3  -5   4    3.43    2.21
  -2  -5   4    8.20    2.60
  -1  -5   4    2.30    2.14
   0  -5   4    0.59    2.17
   1  -5   4    1.65    2.30
   2  -5   4   10.23    2.17
   3  -5   4    2.19    1.93
   4  -5   4   43.41    3.68
   5  -5   4    2.66    1.99
   6  -5   4   -0.42    2.32
   7  -5   4   -5.25    3.53
 -10  -4   4    3.33    3.45
  -9  -4   4   -2.98    1.62
  -8  -4   4   -1.13    1.57
  -7  -4   4    4.62    1.75
  -6  -4   4    4.62    1.57
  -5  -4   4    0.83    1.40
  -4  -4   4   -0.98    1.34
  -3  -4   4    2.55    1.70
  -2  -4   4   11.66    2.13
  -1  -4   4    2.86    1.20
   0  -4   4   17.47    1.94
   1  -4   4    2.52    1.22
   2  -4   4   13.11    1.82
   3  -4   4    3.97    1.66
   4  -4   4    0.70    1.56
   5  -4   4    1.14    1.70
   6  -4   4    2.01    1.79
   7  -4   4    3.05    1.94
   8  -4   4   -0.88    1.66
   9  -4   4    1.56    2.05
  10  -4   4    0.64    2.08
  11  -4   4    0.97    3.64
 -12  -3   4    1.57    2.45
 -11  -3   4    1.95    2.34
 -10  -3   4   13.44    2.53
  -9  -3   4   23.52    2.43
  -8  -3   4    9.89    1.68
  -7  -3   4    6.01    1.43
  -6  -3   4    0.68    1.03
  -5  -3   4    6.48    1.36
  -4  -3   4  154.33    8.71
  -3  -3   4   16.31    2.11
  -2  -3   4   41.08    2.57
  -1  -3   4   10.49    1.28
   0  -3   4    0.55    0.87
   1  -3   4   13.05    1.69
   2  -3   4   38.71    3.08
   3  -3   4   14.48    1.95
   4  -3   4  155.89    8.32
   5  -3   4    4.62    1.47
   6  -3   4    2.68    1.10
   7  -3   4    4.77    1.37
   8  -3   4   10.01    1.54
   9  -3   4   27.47    2.45
  10  -3   4   12.87    1.88
  11  -3   4    2.10    1.62
  12  -3   4   -0.77    1.50
 -14  -2   4    2.56    3.36
 -13  -2   4    5.50    2.05
 -12  -2   4    8.63    2.00
 -11  -2   4   -0.23    1.36
 -10  -2   4   -0.74    1.09
  -9  -2   4    3.41    1.23
  -8  -2   4    1.08    0.94
  -7  -2   4   25.38    2.03
  -6  -2   4   14.85    1.48
  -5  -2   4    0.77    0.72
  -4  -2   4    1.96    0.75
  -3  -2   4   19.31    1.88
  -2  -2   4   42.10    2.82
  -1  -2   4    1.39    0.59
   0  -2   4   37.69    2.24
   1  -2   4    3.45    0.88
   2  -2   4   44.30    2.70
   3  -2   4   18.54    1.77
   4  -2   4    1.48    0.74
   5  -2   4    0.98    0.93
   6  -2   4   14.78    1.76
   7  -2   4   22.42    2.30
   8  -2   4    2.04    1.14
   9  -2   4    2.52    1.23
  10  -2   4    0.34    1.22
  11  -2   4   -0.47    1.28
  12  -2   4    6.69    1.87
  13  -2   4    4.56    1.66
  14  -2   4    5.01    2.09
 -15  -1   4   -1.62    2.65
 -14  -1   4    1.27    1.83
 -13  -1   4    3.49    1.78
 -12  -1   4    1.92    1.50
 -11  -1   4    2.24    1.35
 -10  -1   4   23.01    2.61
  -9  -1   4   37.10    2.40
  -8  -1   4   31.76    2.35
  -7  -1   4    3.83    0.92
  -6  -1   4    0.03    0.60
  -5  -1   4    3.79    0.74
  -4  -1   4  362.56   14.44
  -3  -1   4   21.19    1.34
  -2  -1   4   71.11    3.79
  -1  -1   4   23.02    1.59
   0  -1   4   -0.13    0.50
   1  -1   4   20.74    2.02
   2  -1   4   70.21    2.95
   3  -1   4   18.53    1.20
   4  -1   4  358.70   13.98
   5  -1   4    3.12    0.69
   6  -1   4   -1.01    0.58
   7  -1   4    2.74    0.84
   8  -1   4   30.25    2.12
   9  -1   4   34.78    2.46
  10  -1   4   15.28    1.66
  11  -1   4   -0.13    0.90
  12  -1   4    0.89    1.04
  13  -1   4   -0.89    1.19
  14  -1   4    1.19    2.29
 -15   0   4   -2.70    1.98
 -14   0   4   10.10    2.39
 -13   0   4   14.53    2.72
 -12   0   4   12.91    2.40
 -11   0   4    0.68    1.21
 -10   0   4    0.18    1.09
  -9   0   4    9.24    1.26
  -8   0   4    0.52    0.61
  -7   0   4   37.90    2.44
  -6   0   4   24.56    1.79
  -5   0   4   -0.08    0.53
  -4   0   4    1.37    0.61
  -3   0   4   56.00    2.65
  -2   0   4   95.55    4.32
  -1   0   4    0.53    0.41
   1   0   4    1.12    0.71
   2   0   4   97.99    5.07
   3   0   4   49.70    2.32
   4   0   4    0.74    0.41
   5   0   4   -0.23    0.44
   6   0   4   21.95    2.07
   7   0   4   38.57    2.93
   8   0   4    1.79    0.98
   9   0   4    8.03    1.18
  10   0   4   -0.69    0.73
  11   0   4    0.78    0.88
  12   0   4   11.08    1.57
  13   0   4   11.56    2.35
  14   0   4    8.60    2.31
  15   0   4    0.29    1.95
 -15   1   4   -2.60    4.09
 -14   1   4    1.42    1.94
 -13   1   4    1.73    1.74
 -12   1   4   -1.31    1.32
 -11   1   4    0.32    1.36
 -10   1   4   21.14    1.92
  -9   1   4   35.60    2.59
  -8   1   4   27.42    1.74
  -7   1   4    4.84    0.94
  -6   1   4   -0.38    0.45
  -5   1   4    2.57    0.69
  -4   1   4  352.73   12.65
  -3   1   4   19.98    1.14
  -2   1   4   70.82    2.70
  -1   1   4   19.91    1.00
   0   1   4    0.29    0.41
   1   1   4   19.68    1.23
   2   1   4   71.57    3.11
   3   1   4   20.23    1.67
   4   1   4  368.19   14.27
   5   1   4    3.06    0.64
   6   1   4    0.44    0.60
   7   1   4    5.80    0.95
   8   1   4   27.76    2.15
   9   1   4   37.91    2.57
  10   1   4   16.94    2.25
  11   1   4    0.98    1.30
  12   1   4    0.79    1.32
  13   1   4    1.97    1.61
  14   1   4   -1.31    1.70
  15   1   4    1.60    2.77
 -14   2   4    4.25    3.04
 -13   2   4    6.98    2.63
 -12   2   4    6.08    2.35
 -11   2   4    0.42    1.72
 -10   2   4    2.35    1.18
  -9   2   4    1.93    1.14
  -8   2   4    0.94    0.95
  -7   2   4   22.58    2.01
  -6   2   4   14.89    1.19
  -5   2   4    1.66    0.61
  -4   2   4    1.47    0.61
  -3   2   4   18.57    1.25
  -2   2   4   45.98    1.95
  -1   2   4    3.25    0.52
   0   2   4   34.52    1.62
   1   2   4    2.94    0.59
   2   2   4   45.57    1.95
   3   2   4   19.77    1.25
   4   2   4    1.73    0.74
   5   2   4   -0.33    0.66
   6   2   4   15.39    1.47
   7   2   4   23.55    2.56
   8   2   4    0.47    0.87
   9   2   4    4.52    1.09
  10   2   4    0.27    0.91
  11   2   4   -1.36    1.49
  12   2   4    6.77    2.90
  13   2   4    4.19    2.52
 -12   3   4    1.19    2.66
 -11   3   4   -0.88    2.25
 -10   3   4    8.39    1.95
  -9   3   4   20.98    2.74
  -8   3   4   11.24    2.00
  -7   3   4    8.63    1.50
  -6   3   4   -0.26    1.02
  -5   3   4    5.05    1.24
  -4   3   4  161.98    6.09
  -3   3   4   20.15    1.45
  -2   3   4   41.93    2.24
  -1   3   4    8.26    1.27
   0   3   4   -1.22    0.64
   1   3   4   10.55    1.10
   2   3   4   39.82    2.20
   3   3   4   17.02    1.43
   4   3   4  157.79    7.04
   5   3   4    7.33    1.30
   6   3   4    0.55    1.11
   7   3   4    6.36    1.77
   8   3   4   12.28    2.19
   9   3   4   25.31    3.19
  10   3   4   11.16    2.45
  11   3   4    0.06    1.74
  12   3   4    1.20    2.08
 -10   4   4    2.80    3.28
  -9   4   4    1.76    2.11
  -8   4   4   -0.97    1.85
  -7   4   4   11.07    2.37
  -6   4   4    1.62    1.87
  -5   4   4    1.18    1.64
  -4   4   4    0.77    1.70
  -3   4   4    4.47    1.67
  -2   4   4   13.64    1.83
  -1   4   4    4.27    1.39
   0   4   4   15.40    1.86
   1   4   4    2.47    1.56
   2   4   4    9.64    1.97
   3   4   4    4.68    1.76
   4   4   4    2.65    1.61
   5   4   4   -0.79    1.45
   6   4   4    2.59    1.75
   7   4   4   11.16    3.40
   8   4   4    1.60    2.07
   9   4   4    2.41    2.11
  10   4   4   -3.41    2.00
  11   4   4   -3.46    3.26
  -7   5   4   -0.58    2.30
  -6   5   4   -0.18    2.20
  -5   5   4   -1.49    2.23
  -4   5   4   41.38    4.46
  -3   5   4    5.04    2.84
  -2   5   4   10.69    3.68
  -1   5   4    1.88    2.72
   0   5   4   -0.64    1.97
   1   5   4    2.45    2.15
   2   5   4   10.02    2.61
   3   5   4    2.61    2.21
   4   5   4   41.41    4.39
   5   5   4    2.59    2.43
   6   5   4   -0.45    3.20
  -7  -5   5    2.55    3.42
  -6  -5   5    1.80    2.29
  -5  -5   5   -1.38    1.80
  -4  -5   5   -0.03    1.91
  -3  -5   5    0.55    2.17
  -2  -5   5    4.91    2.29
  -1  -5   5    6.99    2.47
   0  -5   5    2.03    2.19
   1  -5   5    1.77    2.17
   2  -5   5    2.41    1.94
   3  -5   5    1.25    1.79
   4  -5   5    3.61    2.06
   5  -5   5    2.23    1.95
   6  -5   5   -0.10    2.39
 -10  -4   5    1.21    3.27
  -9  -4   5   12.91    2.89
  -8  -4   5    7.01    1.71
  -7  -4   5    0.04    1.45
  -6  -4   5   35.24    3.14
  -5  -4   5   -0.91    1.25
  -4  -4   5   13.47    2.40
  -3  -4   5    4.19    1.67
  -2  -4   5   53.04    4.58
  -1  -4   5    9.79    2.07
   0  -4   5    0.61    1.25
   1  -4   5   10.03    1.67
   2  -4   5   49.10    3.46
   3  -4   5    4.61    1.77
   4  -4   5    8.46    2.07
   5  -4   5   -0.51    1.57
   6  -4   5   30.93    3.41
   7  -4   5    2.41    1.78
   8  -4   5    4.95    2.19
   9  -4   5   10.42    2.69
  10  -4   5    0.74    2.20
  11  -4   5   -0.08    3.49
 -12  -3   5    0.09    2.53
 -11  -3   5    5.97    2.08
 -10  -3   5    4.47    1.80
  -9  -3   5    5.98    1.57
  -8  -3   5    6.84    1.49
  -7  -3   5   11.17    1.65
  -6  -3   5    1.39    1.04
  -5  -3   5    1.60    1.03
  -4  -3   5    7.44    1.59
  -3  -3   5    0.45    1.06
  -2  -3   5   19.19    2.32
  -1  -3   5    9.15    1.30
   0  -3   5   10.84    1.34
   1  -3   5   13.86    1.72
   2  -3   5   24.82    2.28
   3  -3   5    1.81    1.24
   4  -3   5    6.51    1.58
   5  -3   5    0.58    1.26
   6  -3   5   -0.70    1.02
   7  -3   5    7.85    1.49
   8  -3   5    4.40    1.40
   9  -3   5   -0.50    1.29
  10  -3   5    3.77    1.63
  11  -3   5    7.18    1.83
  12  -3   5   -1.44    1.60
 -13  -2   5    1.23    1.65
 -12  -2   5    4.38    1.65
 -11  -2   5   -1.00    1.34
 -10  -2   5    1.84    1.44
  -9  -2   5   40.77    3.81
  -8  -2   5   20.83    2.00
  -7  -2   5   10.32    1.41
  -6  -2   5  110.82    5.16
  -5  -2   5    2.81    0.88
  -4  -2   5   23.21    1.94
  -3  -2   5   16.81    1.73
  -2  -2   5  164.44    8.49
  -1  -2   5   28.06    1.71
   0  -2   5   -0.49    0.63
   1  -2   5   27.21    2.11
   2  -2   5  167.65    8.11
   3  -2   5   15.68    1.58
   4  -2   5   31.97    2.28
   5  -2   5    0.55    0.94
   6  -2   5  110.22    5.92
   7  -2   5   11.30    1.67
   8  -2   5   20.81    2.33
   9  -2   5   43.87    3.44
  10  -2   5    0.87    1.30
  11  -2   5    0.43    1.45
  12  -2   5    1.73    1.59
  13  -2   5   -1.58    1.44
  14  -2   5    1.76    2.06
 -15  -1   5    0.57    2.54
 -14  -1   5    7.69    2.28
 -13  -1   5    2.20    1.76
 -12  -1   5    4.11    1.78
 -11  -1   5   13.21    2.16
 -10  -1   5    9.30    1.40
  -9  -1   5    4.11    1.25
  -8  -1   5   15.28    1.62
  -7  -1   5   25.21    1.92
  -6  -1   5    0.74    0.69
  -5  -1   5    1.13    0.57
  -4  -1   5   26.87    1.72
  -3  -1   5    2.89    0.61
  -2  -1   5   18.75    1.50
  -1  -1   5   33.27    1.99
   0  -1   5   67.61    3.38
   1  -1   5   27.77    2.59
   2  -1   5   18.78    1.10
   3  -1   5    4.98    0.64
   4  -1   5   25.34    1.55
   5  -1   5    0.85    0.58
   6  -1   5   -0.22    0.62
   7  -1   5   18.77    1.66
   8  -1   5   14.16    1.43
   9  -1   5    8.30    1.26
  10  -1   5    6.57    1.18
  11  -1   5   14.05    1.56
  12  -1   5    4.97    1.33
  13  -1   5    1.27    1.30
  14  -1   5    2.15    2.36
 -15   0   5    8.81    2.82
 -14   0   5    1.54    1.78
 -13   0   5   -1.21    1.66
 -12   0   5    2.98    1.50
 -11   0   5    1.21    1.36
 -10   0   5    6.05    1.17
  -9   0   5   60.12    3.24
  -8   0   5   47.24    2.97
  -7   0   5   16.92    1.57
  -6   0   5  209.15    8.88
  -5   0   5    8.85    1.04
  -4   0   5   18.09    1.47
  -3   0   5   24.56    1.64
  -2   0   5  321.81   13.12
  -1   0   5   45.25    2.33
   0   0   5   -1.35    0.77
   1   0   5   46.84    2.80
   2   0   5  320.93   15.94
   3   0   5   24.23    1.37
   4   0   5   18.34    1.21
   5   0   5    6.85    0.74
   6   0   5  205.22    8.52
   7   0   5   19.68    1.95
   8   0   5   44.19    3.44
   9   0   5   56.34    3.06
  10   0   5    4.53    1.09
  11   0   5    0.03    0.88
  12   0   5    2.39    1.09
  13   0   5    0.85    1.58
  14   0   5   -2.11    1.57
  15   0   5    0.37    1.97
 -15   1   5    4.59    4.86
 -14   1   5    3.36    2.11
 -13   1   5   -3.12    1.67
 -12   1   5    4.42    1.79
 -11   1   5   15.95    2.55
 -10   1   5    6.45    1.30
  -9   1   5    5.06    1.15
  -8   1   5   13.33    1.52
  -7   1   5   24.27    1.94
  -6   1   5   -1.23    0.65
  -5   1   5    2.42    0.71
  -4   1   5   26.04    1.47
  -3   1   5    3.26    0.55
  -2   1   5   17.91    1.02
  -1   1   5   30.64    1.34
   0   1   5   65.02    2.88
   1   1   5   32.05    1.62
   2   1   5   18.28    1.18
   3   1   5    3.68    0.80
   4   1   5   27.77    1.68
   5   1   5    1.80    0.62
   6   1   5   -0.05    0.58
   7   1   5   22.86    1.78
   8   1   5   11.80    1.37
   9   1   5    7.08    1.14
  10   1   5    9.30    1.83
  11   1   5   11.04    1.99
  12   1   5    1.73    1.50
  13   1   5    5.51    1.88
  14   1   5    4.63    2.14
  15   1   5    1.77    2.68
 -13   2   5    4.00    2.73
 -12   2   5   -0.49    2.51
 -11   2   5   -1.79    1.52
 -10   2   5    0.70    1.14
  -9   2   5   36.62    2.93
  -8   2   5   20.92    2.03
  -7   2   5    9.75    1.37
  -6   2   5  110.05    4.41
  -5   2   5    1.94    0.68
  -4   2   5   29.42    1.61
  -3   2   5   14.27    1.07
  -2   2   5  164.96    5.97
  -1   2   5   29.12    1.78
   0   2   5   -0.49    0.47
   1   2   5   28.66    1.48
   2   2   5  164.60    6.91
   3   2   5   13.15    1.01
   4   2   5   28.51    1.90
   5   2   5    1.89    0.79
   6   2   5  117.27    6.43
   7   2   5    8.04    1.65
   8   2   5   18.67    1.82
   9   2   5   38.57    2.75
  10   2   5    0.08    1.06
  11   2   5    2.43    1.66
  12   2   5    1.31    2.08
  13   2   5   -0.61    2.21
 -12   3   5   -0.82    2.64
 -11   3   5    3.96    2.76
 -10   3   5    9.89    2.16
  -9   3   5    5.94    1.78
  -8   3   5    6.44    1.77
  -7   3   5   11.10    2.00
  -6   3   5    0.72    1.24
  -5   3   5   -1.02    1.13
  -4   3   5    5.38    0.97
  -3   3   5    0.66    0.78
  -2   3   5   22.07    1.56
  -1   3   5   10.30    1.30
   0   3   5   12.89    1.17
   1   3   5    7.94    1.03
   2   3   5   24.06    1.64
   3   3   5   -1.12    0.86
   4   3   5    5.85    1.21
   5   3   5    0.61    0.95
   6   3   5   -0.23    1.01
   7   3   5    8.30    2.02
   8   3   5    8.63    2.04
   9   3   5    4.97    2.03
  10   3   5    8.53    2.25
  11   3   5    6.96    2.19
  12   3   5    1.43    2.26
 -10   4   5   -0.84    2.07
  -9   4   5   16.09    2.86
  -8   4   5    6.62    2.22
  -7   4   5    3.25    2.00
  -6   4   5   35.89    3.58
  -5   4   5    1.72    1.70
  -4   4   5   10.14    2.22
  -3   4   5    4.35    1.42
  -2   4   5   58.30    3.51
  -1   4   5   10.80    1.67
   0   4   5    1.07    1.44
   1   4   5   11.38    1.98
   2   4   5   54.92    4.40
   3   4   5    3.30    1.68
   4   4   5   12.81    2.23
   5   4   5   -1.53    1.53
   6   4   5   38.83    5.53
   7   4   5    0.02    1.93
   8   4   5    1.51    2.26
   9   4   5   16.44    3.10
  10   4   5   -0.11    2.22
  -7   5   5    8.29    4.41
  -6   5   5   -2.80    2.24
  -5   5   5   -1.42    2.10
  -4   5   5    5.56    2.95
  -3   5   5   -4.99    2.15
  -2   5   5    4.81    2.88
  -1   5   5    7.43    3.25
   0   5   5    2.83    2.28
   1   5   5    3.00    2.21
   2   5   5    5.35    2.35
   3   5   5   -0.90    2.09
   4   5   5    4.46    2.31
   5   5   5   -0.67    2.14
   6   5   5   -1.39    3.45
  -7  -5   6   -1.58    3.50
  -6  -5   6    0.64    2.22
  -5  -5   6    0.37    1.83
  -4  -5   6   12.42    2.81
  -3  -5   6    2.43    2.20
  -2  -5   6    3.15    2.20
  -1  -5   6   -0.08    2.11
   0  -5   6   -1.10    1.99
   1  -5   6    0.32    2.28
   2  -5   6    0.03    2.12
   3  -5   6   -1.94    1.78
   4  -5   6    9.94    2.37
   5  -5   6    1.17    1.96
   6  -5   6    0.44    2.44
 -10  -4   6    6.76    3.57
  -9  -4   6    3.56    2.46
  -8  -4   6    0.34    1.65
  -7  -4   6    0.94    1.49
  -6  -4   6   14.52    2.12
  -5  -4   6    5.43    1.56
  -4  -4   6    9.92    2.15
  -3  -4   6    0.42    1.46
  -2  -4   6    6.49    1.87
  -1  -4   6   15.16    2.32
   0  -4   6    2.91    1.32
   1  -4   6   13.34    1.87
   2  -4   6    1.37    1.41
   3  -4   6   -0.80    1.40
   4  -4   6   14.11    2.32
   5  -4   6    7.84    2.11
   6  -4   6   20.81    2.79
   7  -4   6    1.76    1.94
   8  -4   6   -0.49    2.02
   9  -4   6    4.64    2.33
  10  -4   6    2.04    2.26
 -12  -3   6    3.26    2.88
 -11  -3   6    7.35    2.21
 -10  -3   6    9.30    2.18
  -9  -3   6   -1.01    1.41
  -8  -3   6   17.39    2.04
  -7  -3   6   15.72    2.01
  -6  -3   6    1.17    1.00
  -5  -3   6    0.76    1.03
  -4  -3   6   43.35    3.76
  -3  -3   6    4.60    1.47
  -2  -3   6    2.03    1.23
  -1  -3   6    1.58    0.86
   0  -3   6    0.09    0.83
   1  -3   6    1.55    1.09
   2  -3   6    2.84    1.29
   3  -3   6    5.02    1.44
   4  -3   6   46.98    3.60
   5  -3   6    0.34    1.30
   6  -3   6    2.93    1.21
   7  -3   6   16.19    1.84
   8  -3   6   20.21    2.02
   9  -3   6   -1.08    1.25
  10  -3   6   10.15    1.89
  11  -3   6    5.46    1.84
  12  -3   6    5.17    2.00
 -14  -2   6   -3.63    2.48
 -13  -2   6    9.99    2.35
 -12  -2   6    9.87    2.19
 -11  -2   6    6.39    1.99
 -10  -2   6    1.08    1.37
  -9  -2   6   11.71    2.11
  -8  -2   6    5.79    1.28
  -7  -2   6    7.01    1.23
  -6  -2   6   46.18    2.83
  -5  -2   6   25.24    1.97
  -4  -2   6   38.19    2.49
  -3  -2   6    4.55    1.04
  -2  -2   6    8.25    1.32
  -1  -2   6   60.71    3.67
   0  -2   6    7.55    1.07
   1  -2   6   61.77    3.44
   2  -2   6   11.96    1.43
   3  -2   6    4.14    1.09
   4  -2   6   42.90    2.69
   5  -2   6   18.60    2.05
   6  -2   6   45.59    3.20
   7  -2   6    3.87    1.43
   8  -2   6    2.99    1.35
   9  -2   6   12.15    1.89
  10  -2   6    2.35    1.46
  11  -2   6    5.04    1.64
  12  -2   6    5.85    1.89
  13  -2   6    9.87    2.25
  14  -2   6    3.52    2.24
 -15  -1   6   -1.77    2.53
 -14  -1   6   -1.23    1.63
 -13  -1   6    3.23    1.79
 -12  -1   6    6.64    1.98
 -11  -1   6   18.44    2.60
 -10  -1   6   17.45    2.01
  -9  -1   6    0.63    0.99
  -8  -1   6   38.87    2.84
  -7  -1   6   57.32    3.16
  -6  -1   6    2.29    0.79
  -5  -1   6    0.71    0.61
  -4  -1   6   89.44    3.90
  -3  -1   6   28.70    1.59
  -2  -1   6    6.30    0.85
  -1  -1   6    0.33    0.51
   0  -1   6   -0.19    0.52
   1  -1   6    0.12    0.89
   2  -1   6    5.45    0.69
   3  -1   6   24.90    1.51
   4  -1   6   86.88    3.73
   5  -1   6    1.56    0.67
   6  -1   6    3.59    0.82
   7  -1   6   56.72    2.92
   8  -1   6   30.55    2.33
   9  -1   6   -0.22    0.84
  10  -1   6   17.36    1.85
  11  -1   6   16.62    1.83
  12  -1   6   10.37    1.87
  13  -1   6    4.61    1.48
  14  -1   6   -0.85    1.48
 -15   0   6    0.14    2.23
 -14   0   6    4.13    2.16
 -13   0   6   26.20    3.49
 -12   0   6   10.72    2.22
 -11   0   6    6.20    1.81
 -10   0   6    2.41    1.02
  -9   0   6   28.89    2.41
  -8   0   6    6.79    1.23
  -7   0   6    7.58    1.20
  -6   0   6   58.32    3.11
  -5   0   6   44.15    2.42
  -4   0   6   56.35    2.96
  -3   0   6   21.66    1.56
  -2   0   6   17.14    1.30
  -1   0   6  161.12    6.73
   0   0   6   10.13    1.30
   1   0   6  163.70    8.14
   2   0   6   19.43    1.47
   3   0   6   21.85    1.61
   4   0   6   59.29    2.68
   5   0   6   39.95    2.06
   6   0   6   60.48    2.84
   7   0   6    6.64    0.94
   8   0   6    6.81    1.40
   9   0   6   33.28    2.93
  10   0   6    1.48    0.97
  11   0   6    3.82    1.15
  12   0   6   13.87    1.62
  13   0   6   23.21    2.99
  14   0   6    0.68    1.82
  15   0   6    1.43    3.46
 -14   1   6    2.71    2.10
 -13   1   6    3.73    2.00
 -12   1   6    7.94    2.32
 -11   1   6   16.23    2.54
 -10   1   6   24.24    2.15
  -9   1   6    1.21    1.02
  -8   1   6   34.94    2.60
  -7   1   6   55.22    3.13
  -6   1   6    2.94    0.90
  -5   1   6    1.46    0.75
  -4   1   6   87.10    3.92
  -3   1   6   25.52    1.41
  -2   1   6    6.06    0.60
  -1   1   6   -0.41    0.48
   0   1   6    0.95    0.42
   1   1   6   -0.18    0.44
   2   1   6    5.75    0.72
   3   1   6   27.31    2.11
   4   1   6   85.29    4.82
   5   1   6    0.86    0.61
   6   1   6    0.38    0.64
   7   1   6   60.26    2.95
   8   1   6   38.71    2.53
   9   1   6    0.82    0.96
  10   1   6   23.81    2.58
  11   1   6   17.77    2.47
  12   1   6   10.73    2.21
  13   1   6    8.67    2.20
  14   1   6   -1.41    1.73
  15   1   6    0.48    2.56
 -13   2   6   17.80    4.11
 -12   2   6    6.06    3.16
 -11   2   6    1.65    2.34
 -10   2   6   -0.52    1.18
  -9   2   6   13.15    1.78
  -8   2   6    6.42    1.27
  -7   2   6    3.71    1.15
  -6   2   6   45.45    2.35
  -5   2   6   25.44    1.61
  -4   2   6   41.48    2.03
  -3   2   6    5.37    0.73
  -2   2   6   10.51    0.88
  -1   2   6   59.78    2.89
   0   2   6    7.68    0.78
   1   2   6   59.82    2.49
   2   2   6   13.40    1.16
   3   2   6    5.02    0.87
   4   2   6   44.35    2.33
   5   2   6   25.80    1.53
   6   2   6   44.28    2.65
   7   2   6    6.08    1.09
   8   2   6    2.79    1.08
   9   2   6   15.03    1.72
  10   2   6   -0.54    1.01
  11   2   6    5.10    1.33
  12   2   6    7.90    3.35
  13   2   6   13.04    3.80
 -12   3   6    3.49    2.98
 -11   3   6   14.27    3.73
 -10   3   6    2.41    1.80
  -9   3   6    0.74    1.53
  -8   3   6   16.27    2.36
  -7   3   6   16.41    2.30
  -6   3   6    0.63    1.28
  -5   3   6   -0.89    0.88
  -4   3   6   45.95    2.87
  -3   3   6    4.27    1.08
  -2   3   6    2.58    1.02
  -1   3   6    0.13    0.67
   0   3   6    0.77    0.76
   1   3   6   -0.04    0.75
   2   3   6    2.00    0.95
   3   3   6    4.65    1.13
   4   3   6   44.57    2.90
   5   3   6    0.60    0.99
   6   3   6    0.58    1.37
   7   3   6   16.25    2.35
   8   3   6   15.09    2.54
   9   3   6    2.03    1.86
  10   3   6    9.38    2.47
  11   3   6    7.78    2.35
  12   3   6    2.73    2.36
 -10   4   6    3.65    2.38
  -9   4   6    5.85    2.49
  -8   4   6    3.59    2.26
  -7   4   6    0.84    2.01
  -6   4   6   16.84    2.76
  -5   4   6    9.08    2.18
  -4   4   6   15.28    2.43
  -3   4   6    0.54    1.18
  -2   4   6    4.54    1.38
  -1   4   6   15.59    2.19
   0   4   6    0.42    1.47
   1   4   6   12.43    2.13
   2   4   6    2.23    1.58
   3   4   6    0.06    1.47
   4   4   6   12.79    2.30
   5   4   6    4.71    1.77
   6   4   6   17.45    3.80
   7   4   6    2.50    1.99
   8   4   6    2.18    2.19
   9   4   6    0.92    2.50
  10   4   6   -0.80    2.33
  -7   5   6    8.60    4.69
  -6   5   6   -0.71    2.31
  -5   5   6    1.60    2.88
  -4   5   6   17.48    3.94
  -3   5   6    0.25    2.44
  -2   5   6    4.12    3.05
  -1   5   6   -1.60    1.98
   0   5   6    2.45    2.21
   1   5   6   -1.73    1.97
   2   5   6   -1.40    2.07
   3   5   6    0.10    2.12
   4   5   6   10.90    2.68
   5   5   6    2.05    3.14
   6   5   6    0.91    3.39
  -6  -5   7    0.80    1.89
  -5  -5   7   -1.29    1.69
  -4  -5   7    1.28    2.15
  -3  -5   7   23.19    3.61
  -2  -5   7    1.59    2.06
  -1  -5   7   -0.47    2.02
   0  -5   7    6.92    2.39
   1  -5   7    2.30    2.48
   2  -5   7    0.61    2.18
   3  -5   7   20.75    2.86
   4  -5   7    0.34    1.93
   5  -5   7    0.24    1.98
   6  -5   7    2.97    2.81
 -10  -4   7    0.16    3.84
  -9  -4   7    0.06    2.16
  -8  -4   7   10.94    2.78
  -7  -4   7   -0.02    1.41
  -6  -4   7    0.08    1.42
  -5  -4   7    8.63    1.81
  -4  -4   7    2.76    1.66
  -3  -4   7   -1.12    1.34
  -2  -4   7   10.40    2.10
  -1  -4   7    0.98    1.58
   0  -4   7    1.21    1.60
   1  -4   7   -0.86    1.26
   2  -4   7    9.88    1.76
   3  -4   7    4.17    1.69
   4  -4   7    1.96    1.67
   5  -4   7   11.36    2.23
   6  -4   7   -0.70    1.83
   7  -4   7    2.19    1.92
   8  -4   7   15.50    2.87
   9  -4   7    0.87    2.18
  10  -4   7    3.97    3.62
 -12  -3   7   -0.34    1.82
 -11  -3   7   10.98    2.52
 -10  -3   7    0.58    1.67
  -9  -3   7    4.15    1.95
  -8  -3   7   14.56    2.58
  -7  -3   7    5.98    1.49
  -6  -3   7    1.34    1.09
  -5  -3   7    1.64    1.05
  -4  -3   7    4.07    1.41
  -3  -3   7   83.23    5.32
  -2  -3   7    4.50    1.34
  -1  -3   7    7.74    1.21
   0  -3   7   35.73    2.49
   1  -3   7    9.26    1.60
   2  -3   7    2.19    1.30
   3  -3   7   82.80    5.10
   4  -3   7    3.04    1.39
   5  -3   7    0.94    1.35
   6  -3   7    3.12    1.18
   7  -3   7    5.06    1.37
   8  -3   7   14.29    1.91
   9  -3   7    3.78    1.52
  10  -3   7   -1.56    1.43
  11  -3   7    8.18    2.00
  12  -3   7   -1.22    1.75
 -14  -2   7   -1.76    2.50
 -13  -2   7    5.62    2.19
 -12  -2   7   -0.06    1.59
 -11  -2   7    1.05    1.64
 -10  -2   7    3.76    1.52
  -9  -2   7    2.96    1.55
  -8  -2   7   24.27    2.86
  -7  -2   7    3.03    1.01
  -6  -2   7   -0.22    0.75
  -5  -2   7   30.96    2.33
  -4  -2   7    0.29    0.72
  -3  -2   7   11.36    1.49
  -2  -2   7   24.78    2.26
  -1  -2   7    2.39    0.89
   0  -2   7    0.48    0.72
   1  -2   7    5.51    1.04
   2  -2   7   27.52    2.22
   3  -2   7   11.02    1.49
   4  -2   7    0.18    0.89
   5  -2   7   31.40    2.56
   6  -2   7    0.02    1.01
   7  -2   7    5.08    1.42
   8  -2   7   27.05    2.60
   9  -2   7    4.50    1.51
  10  -2   7    2.35    1.46
  11  -2   7    3.69    1.58
  12  -2   7    2.50    1.68
  13  -2   7    2.38    1.76
  14  -2   7    0.33    2.38
 -14  -1   7   11.10    2.56
 -13  -1   7   -0.40    1.70
 -12  -1   7    4.42    1.77
 -11  -1   7   23.93    3.05
 -10  -1   7   -0.65    1.04
  -9  -1   7   11.72    1.69
  -8  -1   7   41.44    3.03
  -7  -1   7   14.84    2.13
  -6  -1   7    5.61    1.36
  -5  -1   7    5.96    1.26
  -4  -1   7   20.61    2.11
  -3  -1   7  182.42    7.59
  -2  -1   7    0.25    0.51
  -1  -1   7   22.90    1.75
   2  -1   7    0.23    0.60
   3  -1   7  182.32    8.98
   4  -1   7   20.50    1.72
   5  -1   7    4.72    0.87
   6  -1   7    3.94    0.89
   7  -1   7   17.19    1.52
   8  -1   7   37.89    2.56
   9  -1   7    9.55    1.39
  10  -1   7    0.77    0.97
  11  -1   7   20.03    2.08
  12  -1   7    0.56    1.27
  13  -1   7    1.08    1.31
  14  -1   7   11.03    2.14
 -15   0   7   11.31    5.06
 -14   0   7   -0.74    1.94
 -13   0   7    6.80    2.24
 -12   0   7    2.73    1.72
 -11   0   7    2.06    1.57
 -10   0   7    9.44    1.48
  -9   0   7    8.45    1.40
  -8   0   7   20.19    1.89
  -7   0   7    5.65    1.16
  -6   0   7    3.25    1.03
  -5   0   7   50.52    2.75
  -4   0   7    4.80    0.91
  -3   0   7   13.32    1.21
  -2   0   7   21.49    1.53
  -1   0   7    4.68    0.71
   0   0   7   -0.09    0.84
   1   0   7    3.30    0.90
   2   0   7   24.76    1.77
   3   0   7   12.48    1.24
   4   0   7    4.44    0.66
   5   0   7   49.59    2.43
   6   0   7    4.19    0.75
   7   0   7    4.78    0.86
   8   0   7   17.39    2.04
   9   0   7    5.78    1.48
  10   0   7    9.75    1.39
  11   0   7    6.04    1.29
  12   0   7    1.01    1.12
  13   0   7    8.19    1.57
  14   0   7    0.74    1.70
  15   0   7    8.24    4.16
 -14   1   7   12.40    3.92
 -13   1   7   -0.93    1.72
 -12   1   7    2.14    1.94
 -11   1   7   23.75    2.36
 -10   1   7    1.37    1.13
  -9   1   7   11.00    1.60
  -8   1   7   40.53    2.82
  -7   1   7   15.01    1.59
  -6   1   7    2.91    0.95
  -5   1   7    5.99    1.00
  -4   1   7   20.71    1.54
  -3   1   7  179.23    7.65
  -2   1   7    0.52    0.56
  -1   1   7   24.75    1.45
   0   1   7  124.78    5.22
   1   1   7   23.93    1.47
   2   1   7   -0.04    0.49
   3   1   7  184.18    9.46
   4   1   7   22.13    1.89
   5   1   7    4.29    0.83
   6   1   7    4.44    0.88
   7   1   7   13.91    1.37
   8   1   7   41.21    2.66
   9   1   7   10.44    1.45
  10   1   7   -0.27    1.25
  11   1   7   22.20    2.75
  12   1   7    4.62    1.76
  13   1   7    3.14    1.79
  14   1   7    8.59    2.17
 -13   2   7   13.36    3.86
 -12   2   7   -0.67    2.46
 -11   2   7    1.49    1.64
 -10   2   7    2.06    1.49
  -9   2   7    2.02    1.48
  -8   2   7   26.39    2.64
  -7   2   7    3.65    0.94
  -6   2   7   -0.08    0.71
  -5   2   7   31.44    1.87
  -4   2   7    0.53    0.60
  -3   2   7   11.55    0.96
  -2   2   7   26.76    1.44
  -1   2   7    2.18    0.71
   0   2   7   -0.26    0.52
   1   2   7    3.76    0.67
   2   2   7   23.93    1.74
   3   2   7    9.46    1.11
   4   2   7    0.06    0.65
   5   2   7   28.63    2.70
   6   2   7    0.33    0.73
   7   2   7    2.32    0.89
   8   2   7   22.38    1.98
   9   2   7    5.39    1.23
  10   2   7    2.94    1.27
  11   2   7    4.36    1.69
  12   2   7   -0.92    2.10
  13   2   7    0.62    2.51
 -12   3   7   -1.75    2.61
 -11   3   7    6.55    3.21
 -10   3   7   -1.01    1.60
  -9   3   7    1.91    1.63
  -8   3   7   19.51    2.51
  -7   3   7    6.55    1.69
  -6   3   7    3.94    1.53
  -5   3   7    2.54    1.10
  -4   3   7    5.92    1.21
  -3   3   7   88.36    4.25
  -2   3   7    4.18    1.11
  -1   3   7    6.36    0.98
   0   3   7   37.21    2.02
   1   3   7   10.48    1.27
   2   3   7    3.59    1.01
   3   3   7   89.46    4.30
   4   3   7    5.14    1.14
   5   3   7    0.88    1.06
   6   3   7    0.17    1.33
   7   3   7    5.29    1.86
   8   3   7   18.31    2.70
   9   3   7    5.99    2.23
  10   3   7   -1.15    1.96
  11   3   7    7.83    2.55
  12   3   7   -0.80    2.12
 -10   4   7    1.79    2.48
  -9   4   7    2.34    2.39
  -8   4   7   10.15    2.63
  -7   4   7   -2.37    1.82
  -6   4   7    0.80    1.78
  -5   4   7   10.01    2.28
  -4   4   7   -0.45    1.63
  -3   4   7    3.71    1.46
  -2   4   7    7.14    1.91
  -1   4   7    0.22    1.50
   0   4   7   -1.77    1.25
   1   4   7    1.08    1.53
   2   4   7    8.35    1.98
   3   4   7    4.23    1.73
   4   4   7   -0.16    1.57
   5   4   7    7.39    2.04
   6   4   7    0.61    2.60
   7   4   7    2.90    2.00
   8   4   7   18.00    2.92
   9   4   7    4.28    2.50
  10   4   7    1.54    2.51
  -6   5   7   -0.50    3.32
  -5   5   7    3.18    3.10
  -4   5   7    1.94    3.13
  -3   5   7   16.01    4.02
  -2   5   7   -2.22    2.39
  -1   5   7    2.96    2.10
   0   5   7    8.21    2.42
   1   5   7    3.09    2.23
   2   5   7    1.88    2.08
   3   5   7   24.13    3.39
   4   5   7    0.02    2.28
   5   5   7    6.02    3.68
  -6  -5   8    3.77    2.50
  -5  -5   8    5.08    2.01
  -4  -5   8   -3.02    1.71
  -3  -5   8   -2.51    1.87
  -2  -5   8    0.48    2.16
  -1  -5   8    4.10    2.36
   0  -5   8   -1.77    2.00
   1  -5   8    3.31    2.57
   2  -5   8    0.54    2.33
   3  -5   8    0.19    2.40
   4  -5   8   -2.65    1.90
   5  -5   8   -2.21    1.92
   6  -5   8    6.07    4.11
 -10  -4   8   -0.05    3.00
  -9  -4   8    3.32    2.26
  -8  -4   8    7.43    2.27
  -7  -4   8    1.60    1.55
  -6  -4   8    0.11    1.41
  -5  -4   8    4.21    1.63
  -4  -4   8    1.70    1.63
  -3  -4   8   14.92    2.32
  -2  -4   8   23.80    3.06
  -1  -4   8   20.89    2.84
   0  -4   8   17.23    2.65
   1  -4   8   17.20    2.16
   2  -4   8   21.73    2.36
   3  -4   8   15.79    2.48
   4  -4   8    0.55    1.66
   5  -4   8    5.94    2.08
   6  -4   8    2.05    2.07
   7  -4   8    2.39    2.11
   8  -4   8    3.79    2.39
   9  -4   8    5.13    2.55
  10  -4   8    6.77    4.35
 -12  -3   8   -1.88    1.77
 -11  -3   8   11.89    2.66
 -10  -3   8    1.58    1.84
  -9  -3   8   -1.72    1.67
  -8  -3   8   13.61    2.46
  -7  -3   8    0.52    1.17
  -6  -3   8   22.02    2.19
  -5  -3   8    1.14    1.10
  -4  -3   8    0.81    1.15
  -3  -3   8    3.17    1.29
  -2  -3   8   -0.60    1.02
  -1  -3   8   17.12    2.19
   0  -3   8    1.85    0.99
   1  -3   8   12.70    1.89
   2  -3   8   -0.48    1.20
   3  -3   8    2.00    1.30
   4  -3   8   -0.80    1.36
   5  -3   8    3.38    1.55
   6  -3   8   20.17    1.99
   7  -3   8   -2.10    1.09
   8  -3   8   12.74    1.83
   9  -3   8    1.75    1.46
  10  -3   8    4.25    1.69
  11  -3   8    7.96    2.09
  12  -3   8   -1.44    1.76
 -14  -2   8    5.14    3.02
 -13  -2   8   20.06    3.13
 -12  -2   8   -1.20    1.52
 -11  -2   8    0.10    1.54
 -10  -2   8   14.98    2.44
  -9  -2   8    7.93    1.96
  -8  -2   8   18.14    2.59
  -7  -2   8    3.95    1.46
  -6  -2   8    4.24    1.03
  -5  -2   8   17.84    1.71
  -4  -2   8    8.97    1.16
  -3  -2   8   39.36    2.89
  -2  -2   8   76.88    4.61
  -1  -2   8   32.99    2.69
   0  -2   8   54.81    3.21
   1  -2   8   36.63    2.47
   2  -2   8   77.52    3.56
   3  -2   8   43.77    4.17
   4  -2   8    6.45    1.24
   5  -2   8   18.97    1.98
   6  -2   8    4.84    1.39
   7  -2   8    3.42    1.36
   8  -2   8   19.86    2.33
   9  -2   8    6.55    1.80
  10  -2   8   10.89    2.04
  11  -2   8   -1.17    1.29
  12  -2   8    0.13    1.55
  13  -2   8   12.19    2.37
 -14  -1   8    0.13    1.98
 -13  -1   8   10.76    2.54
 -12  -1   8    1.29    1.66
 -11  -1   8   11.05    2.12
 -10  -1   8    2.10    1.24
  -9  -1   8    7.52    1.57
  -8  -1   8   42.47    3.04
  -7  -1   8    2.08    1.18
  -6  -1   8   31.37    2.85
  -5  -1   8   -0.20    0.94
  -4  -1   8    3.13    1.11
  -3  -1   8    9.51    0.96
  -2  -1   8    1.85    0.58
  -1  -1   8   38.12    2.46
   2  -1   8    3.68    1.25
   3  -1   8    9.23    1.15
   4  -1   8    2.49    0.85
   5  -1   8   -0.01    0.79
   6  -1   8   30.41    2.01
   7  -1   8    1.40    0.88
   8  -1   8   36.89    2.60
   9  -1   8    9.85    1.42
  10  -1   8    2.18    1.11
  11  -1   8   11.01    1.59
  12  -1   8    1.25    1.45
  13  -1   8    7.71    1.90
  14  -1   8    2.04    1.56
 -15   0   8    2.85    4.76
 -14   0   8   -0.15    2.17
 -13   0   8   13.06    2.66
 -12   0   8    0.03    1.48
 -11   0   8    4.49    1.33
 -10   0   8   22.81    2.25
  -9   0   8    6.46    1.37
  -8   0   8   20.55    2.07
  -7   0   8    4.13    1.10
  -6   0   8    5.47    1.18
  -5   0   8   17.78    1.63
  -4   0   8    5.15    0.97
  -3   0   8   34.27    2.10
  -2   0   8  139.97    6.15
  -1   0   8   27.71    1.62
   0   0   8   62.34    3.54
   1   0   8   22.07    2.00
   2   0   8  141.34    7.43
   3   0   8   35.88    2.29
   4   0   8    5.77    0.77
   5   0   8   16.62    1.34
   6   0   8    4.63    0.80
   7   0   8    2.54    0.79
   8   0   8   24.16    2.40
   9   0   8    9.76    1.80
  10   0   8   19.05    2.47
  11   0   8    4.66    1.33
  12   0   8    1.54    1.13
  13   0   8   13.23    1.90
  14   0   8    0.83    1.84
  15   0   8   -2.68    3.19
 -14   1   8    0.11    2.41
 -13   1   8   12.67    3.55
 -12   1   8    1.83    1.94
 -11   1   8    9.27    1.73
 -10   1   8    3.21    1.36
  -9   1   8    9.92    1.60
  -8   1   8   34.15    2.72
  -7   1   8    3.02    1.11
  -6   1   8   24.26    2.10
  -5   1   8   -0.93    0.74
  -4   1   8    3.09    0.78
  -3   1   8   10.29    0.90
  -2   1   8    3.51    0.75
  -1   1   8   41.44    2.08
   0   1   8    2.24    0.80
   1   1   8   41.66    2.51
   2   1   8    3.64    0.66
   3   1   8    9.40    1.26
   4   1   8    1.70    0.86
   5   1   8   -0.38    0.62
   6   1   8   25.68    1.90
   7   1   8    1.92    0.83
   8   1   8   38.80    2.60
   9   1   8   12.67    1.46
  10   1   8    3.33    1.45
  11   1   8    6.97    1.87
  12   1   8   -0.05    1.51
  13   1   8   10.05    2.38
  14   1   8    1.66    2.01
 -13   2   8   11.26    3.96
 -12   2   8   -1.41    2.22
 -11   2   8    0.74    1.58
 -10   2   8   13.15    2.26
  -9   2   8    9.08    1.79
  -8   2   8   17.54    2.31
  -7   2   8    4.62    1.18
  -6   2   8    2.25    1.00
  -5   2   8   22.13    1.76
  -4   2   8    5.75    1.05
  -3   2   8   38.28    2.38
  -2   2   8   78.97    3.72
  -1   2   8   35.03    1.99
   0   2   8   54.56    2.38
   1   2   8   35.14    2.14
   2   2   8   80.93    3.76
   3   2   8   39.84    2.41
   4   2   8    6.71    1.01
   5   2   8   15.95    2.07
   6   2   8    3.65    0.96
   7   2   8    1.90    0.92
   8   2   8   16.03    1.70
   9   2   8    8.15    1.43
  10   2   8   10.97    1.72
  11   2   8   -0.46    1.41
  12   2   8   -0.54    2.08
  13   2   8   17.31    4.40
 -12   3   8   -0.77    3.02
 -11   3   8    6.20    2.26
 -10   3   8    6.03    2.07
  -9   3   8    1.35    1.71
  -8   3   8   13.67    2.27
  -7   3   8    0.54    1.38
  -6   3   8   19.52    2.40
  -5   3   8    0.46    1.00
  -4   3   8    0.27    1.00
  -3   3   8    2.75    1.09
  -2   3   8    0.87    0.82
  -1   3   8   16.21    1.38
   0   3   8    3.17    0.97
   1   3   8   17.23    1.68
   2   3   8    1.30    0.99
   3   3   8    3.26    1.04
   4   3   8    1.36    1.01
   5   3   8    0.04    1.03
   6   3   8   17.74    2.39
   7   3   8    3.63    1.66
   8   3   8   11.09    2.31
   9   3   8    0.11    1.83
  10   3   8    0.81    2.17
  11   3   8    9.75    2.78
  12   3   8   -3.99    2.94
 -10   4   8    0.99    2.47
  -9   4   8    3.95    2.31
  -8   4   8    7.90    2.50
  -7   4   8    1.49    2.10
  -6   4   8    0.38    1.80
  -5   4   8    9.08    2.21
  -4   4   8    3.20    1.81
  -3   4   8   17.59    2.11
  -2   4   8   20.38    2.77
  -1   4   8   17.98    2.62
   0   4   8   22.47    2.70
   1   4   8   19.16    2.56
   2   4   8   28.77    3.07
   3   4   8   17.92    2.51
   4   4   8    4.41    1.78
   5   4   8    6.12    2.90
   6   4   8    0.76    1.83
   7   4   8    2.31    1.94
   8   4   8    4.23    2.29
   9   4   8    4.78    2.71
  10   4   8    7.77    3.03
  -5   5   8    2.72    3.13
  -4   5   8    4.05    3.01
  -3   5   8   -0.48    2.90
  -2   5   8    0.96    2.93
  -1   5   8    0.77    2.02
   0   5   8   -1.45    2.01
   1   5   8    1.28    2.25
   2   5   8   -2.59    2.10
   3   5   8    1.61    2.24
   4   5   8   -2.34    2.16
   5   5   8   -1.07    2.56
  -6  -5   9    6.45    2.72
  -5  -5   9    0.58    1.95
  -4  -5   9    1.85    2.26
  -3  -5   9    6.70    2.62
  -2  -5   9   13.14    2.83
  -1  -5   9    3.91    2.46
   0  -5   9   31.78    4.12
   1  -5   9    8.11    2.85
   2  -5   9    6.23    2.83
   3  -5   9    4.81    2.73
   4  -5   9    0.43    2.12
   5  -5   9    3.64    2.38
 -10  -4   9    1.65    3.22
  -9  -4   9    2.34    2.29
  -8  -4   9    2.86    2.24
  -7  -4   9    2.58    2.19
  -6  -4   9    3.24    1.64
  -5  -4   9    1.78    1.46
  -4  -4   9    2.93    1.84
  -3  -4   9   -1.99    1.38
  -2  -4   9   10.19    2.06
  -1  -4   9   -0.05    1.56
   0  -4   9    3.33    1.78
   1  -4   9   -0.91    1.29
   2  -4   9    6.56    1.69
   3  -4   9   -0.13    1.66
   4  -4   9    2.03    1.81
   5  -4   9    2.54    1.92
   6  -4   9    4.10    2.22
   7  -4   9    1.08    2.19
   8  -4   9   -0.33    2.17
   9  -4   9   -3.75    2.17
 -12  -3   9    4.34    2.81
 -11  -3   9    2.50    2.19
 -10  -3   9   -0.78    1.69
  -9  -3   9    2.39    1.90
  -8  -3   9    4.66    1.82
  -7  -3   9    0.71    1.64
  -6  -3   9   19.99    2.15
  -5  -3   9    3.65    1.22
  -4  -3   9    0.97    1.18
  -3  -3   9   32.26    3.03
  -2  -3   9   56.99    4.23
  -1  -3   9   28.32    2.86
   0  -3   9  136.53    6.18
   1  -3   9   32.44    2.73
   2  -3   9   67.40    4.12
   3  -3   9   27.57    2.76
   4  -3   9   -0.81    1.36
   5  -3   9    6.04    1.75
   6  -3   9   18.65    2.00
   7  -3   9    0.65    1.33
   8  -3   9    3.42    1.49
   9  -3   9    1.35    1.59
  10  -3   9    0.56    1.70
  11  -3   9    2.56    1.78
  12  -3   9   -2.53    2.60
 -13  -2   9    6.56    2.22
 -12  -2   9    0.21    1.75
 -11  -2   9    3.02    1.82
 -10  -2   9   12.73    2.39
  -9  -2   9   -1.27    1.28
  -8  -2   9   -0.08    1.39
  -7  -2   9   -0.16    1.26
  -6  -2   9    6.93    1.23
  -5  -2   9    9.80    1.32
  -4  -2   9   12.32    1.41
  -3  -2   9    1.59    0.90
  -2  -2   9   27.63    2.52
  -1  -2   9    1.09    0.86
   0  -2   9    1.58    0.84
   1  -2   9    2.02    0.91
   2  -2   9   30.42    1.91
   3  -2   9    3.34    1.61
   4  -2   9   16.68    1.78
   5  -2   9    9.32    1.55
   6  -2   9    8.01    1.61
   7  -2   9    1.10    1.42
   8  -2   9    1.09    1.35
   9  -2   9   -1.40    1.35
  10  -2   9    7.49    1.95
  11  -2   9    6.53    1.87
  12  -2   9    2.86    1.74
  13  -2   9    7.32    2.18
 -14  -1   9    2.14    2.06
 -13  -1   9    3.09    2.08
 -12  -1   9    0.31    1.66
 -11  -1   9    1.46    1.26
 -10  -1   9    1.13    1.20
  -9  -1   9   -0.25    1.14
  -8  -1   9    2.49    1.29
  -7  -1   9   -1.53    1.03
  -6  -1   9   47.36    3.66
  -5  -1   9    4.73    1.33
  -4  -1   9    7.52    1.41
  -3  -1   9   35.56    2.76
  -2  -1   9  161.94    6.63
  -1  -1   9   35.66    2.38
   3  -1   9   38.73    2.42
   4  -1   9    5.17    1.00
   5  -1   9    2.98    1.03
   6  -1   9   41.16    2.50
   7  -1   9   -0.87    0.79
   8  -1   9    3.66    1.07
   9  -1   9    0.17    0.98
  10  -1   9    1.80    1.19
  11  -1   9    0.70    1.28
  12  -1   9    0.56    1.42
  13  -1   9    5.36    1.73
  14  -1   9    0.59    1.51
 -14   0   9   -0.40    2.15
 -13   0   9    6.06    2.14
 -12   0   9    8.09    2.24
 -11   0   9    3.27    1.30
 -10   0   9   13.65    1.88
  -9   0   9    0.10    1.04
  -8   0   9    4.34    1.23
  -7   0   9   -0.61    0.84
  -6   0   9    3.40    1.08
  -5   0   9   16.83    1.71
  -4   0   9   28.10    2.02
  -3   0   9    7.53    1.03
  -2   0   9   34.65    2.05
  -1   0   9    0.35    0.56
   0   0   9    0.39    0.86
   1   0   9    0.17    0.81
   2   0   9   34.38    2.43
   3   0   9    8.28    1.11
   4   0   9   27.76    1.73
   5   0   9   19.43    1.50
   6   0   9    5.46    0.88
   7   0   9    0.99    0.73
   8   0   9    4.00    1.39
   9   0   9    1.30    1.28
  10   0   9   13.36    2.14
  11   0   9    0.90    1.13
  12   0   9    2.81    1.33
  13   0   9    6.54    1.56
  14   0   9    1.21    1.90
 -14   1   9    3.92    3.12
 -13   1   9    4.57    3.04
 -12   1   9   -1.67    2.21
 -11   1   9    3.11    1.73
 -10   1   9    1.88    1.31
  -9   1   9   -0.47    1.08
  -8   1   9    3.15    1.25
  -7   1   9   -0.49    1.03
  -6   1   9   41.59    2.80
  -5   1   9    1.96    0.96
  -4   1   9    6.02    0.89
  -3   1   9   35.62    1.87
  -2   1   9  154.34    6.70
  -1   1   9   38.01    2.07
   0   1   9  214.44    8.91
   1   1   9   36.07    2.45
   2   1   9  149.45    6.62
   3   1   9   36.45    2.51
   4   1   9    6.92    1.14
   5   1   9    2.98    1.00
   6   1   9   39.09    2.51
   7   1   9    0.50    0.73
   8   1   9    5.05    1.09
   9   1   9    0.30    1.24
  10   1   9    0.64    1.40
  11   1   9    5.01    1.82
  12   1   9    0.19    1.57
  13   1   9    6.33    2.06
  14   1   9   -0.76    1.83
 -13   2   9    5.83    3.45
 -12   2   9    3.38    3.07
 -11   2   9    1.18    1.76
 -10   2   9   10.91    2.18
  -9   2   9   -0.18    1.30
  -8   2   9   -1.93    1.24
  -7   2   9    1.92    1.18
  -6   2   9    9.37    1.41
  -5   2   9    6.57    1.23
  -4   2   9    9.51    1.35
  -3   2   9    1.66    0.88
  -2   2   9   34.66    2.10
  -1   2   9    1.70    0.76
   0   2   9    1.17    0.61
   1   2   9    1.23    0.78
   2   2   9   30.15    2.03
   3   2   9    1.39    0.79
   4   2   9    9.00    1.21
   5   2   9    5.82    1.37
   6   2   9    7.12    1.20
   7   2   9    1.47    0.92
   8   2   9    1.16    0.99
   9   2   9   -0.10    1.03
  10   2   9    6.51    1.55
  11   2   9    1.76    1.62
  12   2   9    3.11    1.77
  13   2   9    7.86    3.43
 -11   3   9    0.93    2.14
 -10   3   9   -0.57    1.77
  -9   3   9    0.21    1.71
  -8   3   9    3.11    1.76
  -7   3   9   -0.16    1.47
  -6   3   9   20.48    2.64
  -5   3   9    4.95    1.19
  -4   3   9    0.62    1.01
  -3   3   9   27.46    2.17
  -2   3   9   61.67    2.88
  -1   3   9   31.40    1.89
   0   3   9  138.68    6.24
   1   3   9   30.32    2.25
   2   3   9   60.00    3.32
   3   3   9   29.53    2.22
   4   3   9    0.32    1.01
   5   3   9    1.23    1.33
   6   3   9   19.43    2.65
   7   3   9    1.64    1.53
   8   3   9    5.25    2.00
   9   3   9   -0.50    1.81
  10   3   9   -1.44    1.81
  11   3   9    0.30    2.20
 -10   4   9   11.03    3.66
  -9   4   9    3.14    2.33
  -8   4   9    2.16    2.16
  -7   4   9    2.67    2.23
  -6   4   9    3.77    2.13
  -5   4   9   -0.35    1.90
  -4   4   9    0.91    1.88
  -3   4   9    0.57    1.59
  -2   4   9   11.07    2.13
  -1   4   9    0.28    1.55
   0   4   9    1.49    1.66
   1   4   9    1.17    1.57
   2   4   9   10.68    1.97
   3   4   9    1.11    1.56
   4   4   9   -0.70    1.61
   5   4   9   -1.80    2.00
   6   4   9    7.06    2.23
   7   4   9    1.38    2.01
   8   4   9   -1.65    2.03
   9   4   9    5.06    2.51
  10   4   9    5.91    4.01
  -4   5   9    1.13    2.68
  -3   5   9    4.73    3.46
  -2   5   9   12.75    3.84
  -1   5   9    8.62    2.50
   0   5   9   33.03    3.83
   1   5   9    4.12    2.40
   2   5   9   13.89    2.86
   3   5   9    8.69    2.67
   4   5   9   -4.08    2.82
   5   5   9    3.25    4.01
  -5  -5  10    0.16    2.28
  -4  -5  10    2.19    1.91
  -3  -5  10   -3.37    1.89
  -2  -5  10    5.91    2.49
  -1  -5  10   -2.57    2.08
   0  -5  10    0.77    2.42
   1  -5  10   -0.80    2.38
   2  -5  10    5.17    2.93
   3  -5  10    3.23    2.68
   4  -5  10    4.10    2.82
   5  -5  10   -2.89    3.97
  -9  -4  10    2.17    2.38
  -8  -4  10    8.88    2.83
  -7  -4  10    1.15    2.20
  -6  -4  10    1.30    1.57
  -5  -4  10    1.11    1.36
  -4  -4  10    5.30    1.88
  -3  -4  10    0.07    1.52
  -2  -4  10    4.59    1.96
  -1  -4  10   19.33    2.84
   0  -4  10   14.63    2.58
   1  -4  10   15.32    2.74
   2  -4  10    3.92    1.57
   3  -4  10   -0.61    1.74
   4  -4  10    1.13    1.81
   5  -4  10    0.13    1.90
   6  -4  10    0.33    2.15
   7  -4  10   -0.74    2.20
   8  -4  10    6.31    2.76
   9  -4  10   -0.38    2.48
 -12  -3  10    3.67    3.05
 -11  -3  10    0.05    2.12
 -10  -3  10   -0.56    1.91
  -9  -3  10   18.18    3.11
  -8  -3  10   22.22    3.22
  -7  -3  10    6.96    2.16
  -6  -3  10   -0.94    1.06
  -5  -3  10    1.17    1.23
  -4  -3  10    5.04    1.28
  -3  -3  10    0.14    1.27
  -2  -3  10   12.24    1.91
  -1  -3  10    0.79    1.26
   0  -3  10    1.05    0.97
   1  -3  10    1.11    1.29
   2  -3  10   14.16    2.02
   3  -3  10   -0.43    1.38
   4  -3  10    4.00    1.71
   5  -3  10   -0.50    1.46
   6  -3  10    1.29    1.54
   7  -3  10    7.13    1.67
   8  -3  10   25.38    2.57
   9  -3  10   23.87    2.50
  10  -3  10    3.22    1.82
  11  -3  10    1.06    1.88
  12  -3  10    1.44    2.89
 -13  -2  10    2.53    1.95
 -12  -2  10   -0.83    1.74
 -11  -2  10   16.40    2.37
 -10  -2  10    0.29    1.63
  -9  -2  10    1.46    1.54
  -8  -2  10   24.27    3.00
  -7  -2  10    8.69    1.95
  -6  -2  10    1.31    1.42
  -5  -2  10    3.68    1.03
  -4  -2  10    7.15    1.19
  -3  -2  10    4.16    1.16
  -2  -2  10    9.80    1.53
  -1  -2  10   68.06    4.26
   0  -2  10   59.33    3.50
   1  -2  10   75.56    4.09
   2  -2  10   12.38    1.22
   3  -2  10    5.66    1.86
   4  -2  10    8.89    1.45
   5  -2  10    5.02    1.43
   6  -2  10    2.18    1.35
   7  -2  10    5.49    1.65
   8  -2  10   27.88    2.88
   9  -2  10    0.07    1.35
  10  -2  10    0.19    1.57
  11  -2  10   19.78    2.79
  12  -2  10    0.87    1.80
  13  -2  10    2.93    1.98
 -14  -1  10    0.64    2.07
 -13  -1  10   -2.60    1.86
 -12  -1  10   -1.17    1.62
 -11  -1  10    0.86    1.34
 -10  -1  10    0.16    1.31
  -9  -1  10   41.33    3.30
  -8  -1  10   36.17    2.96
  -7  -1  10    4.87    1.32
  -6  -1  10   -0.02    1.12
  -5  -1  10    1.77    1.11
  -4  -1  10    2.65    1.16
  -3  -1  10    2.26    1.04
  -2  -1  10   17.64    1.37
  -1  -1  10    2.65    0.79
   3  -1  10   -0.28    0.84
   4  -1  10    1.04    0.63
   5  -1  10    2.63    1.11
   6  -1  10   -0.16    0.98
   7  -1  10    4.44    1.13
   8  -1  10   34.17    2.50
   9  -1  10   50.37    3.24
  10  -1  10    1.20    1.24
  11  -1  10   -0.93    1.30
  12  -1  10    1.98    1.56
  13  -1  10   -0.54    1.52
  14  -1  10    3.81    2.51
 -14   0  10    8.25    3.27
 -13   0  10   -1.52    1.78
 -12   0  10    2.33    1.95
 -11   0  10   30.71    2.79
 -10   0  10   -0.20    1.22
  -9   0  10   -0.18    1.09
  -8   0  10   39.20    3.56
  -7   0  10    7.54    1.38
  -6   0  10   -0.06    0.88
  -5   0  10    9.78    1.31
  -4   0  10   20.72    1.73
  -3   0  10    6.17    1.04
  -2   0  10    4.72    0.87
  -1   0  10  124.80    5.60
   0   0  10  125.07    6.61
   1   0  10  121.95    6.81
   2   0  10    4.77    0.99
   3   0  10   10.25    1.27
   4   0  10   19.85    1.80
   5   0  10    9.12    1.04
   6   0  10    0.55    0.70
   7   0  10    8.30    1.54
   8   0  10   40.16    3.30
   9   0  10    0.05    1.19
  10   0  10   -2.33    1.28
  11   0  10   28.48    2.58
  12   0  10    1.07    1.29
  13   0  10   -0.37    1.29
  14   0  10    7.48    2.47
 -13   1  10   -0.63    2.32
 -12   1  10    0.05    2.15
 -11   1  10   -0.23    1.61
 -10   1  10    1.42    1.58
  -9   1  10   43.63    3.92
  -8   1  10   32.79    3.29
  -7   1  10    5.14    1.40
  -6   1  10    0.73    1.15
  -5   1  10    1.08    1.03
  -4   1  10    2.65    0.84
  -3   1  10    0.68    0.94
  -2   1  10   18.46    1.61
  -1   1  10    0.54    0.72
   0   1  10   -0.48    0.57
   1   1  10    1.33    0.80
   2   1  10   18.23    1.37
   3   1  10    0.09    0.80
   4   1  10    2.01    0.87
   5   1  10    3.62    1.02
   6   1  10   -0.02    0.71
   7   1  10    5.39    1.10
   8   1  10   37.06    2.49
   9   1  10   42.78    3.74
  10   1  10    2.92    1.38
  11   1  10    0.52    1.50
  12   1  10   -1.47    1.51
  13   1  10   -4.15    1.59
  14   1  10    0.17    2.02
 -13   2  10    0.11    3.07
 -12   2  10   -1.35    2.88
 -11   2  10   23.51    2.96
 -10   2  10    2.31    1.69
  -9   2  10   -0.34    1.53
  -8   2  10   27.71    3.03
  -7   2  10    6.80    1.48
  -6   2  10    0.45    1.11
  -5   2  10    8.99    1.33
  -4   2  10    8.40    1.29
  -3   2  10    2.83    1.00
  -2   2  10   12.35    1.28
  -1   2  10   70.53    3.40
   0   2  10   57.56    2.61
   1   2  10   67.48    3.47
   2   2  10   10.99    1.24
   3   2  10    3.00    0.93
   4   2  10    6.83    1.09
   5   2  10    6.02    1.43
   6   2  10    0.97    0.85
   7   2  10    4.23    1.18
   8   2  10   25.59    2.09
   9   2  10   -0.68    1.03
  10   2  10    0.14    1.24
  11   2  10   16.02    2.48
  12   2  10    2.36    1.81
  13   2  10   -2.49    2.54
 -11   3  10   -1.49    2.14
 -10   3  10   -1.68    1.79
  -9   3  10   27.41    3.20
  -8   3  10   28.42    3.22
  -7   3  10    2.54    1.76
  -6   3  10    1.53    1.51
  -5   3  10    2.30    1.17
  -4   3  10    4.62    1.26
  -3   3  10    1.30    1.04
  -2   3  10   11.60    1.29
  -1   3  10    0.26    1.01
   0   3  10    1.66    1.02
   1   3  10    1.66    1.03
   2   3  10   11.94    1.57
   3   3  10    1.08    1.04
   4   3  10    3.27    1.14
   5   3  10    2.17    1.38
   6   3  10   -1.15    1.34
   7   3  10    3.53    1.76
   8   3  10   25.26    3.12
   9   3  10   20.95    3.02
  10   3  10   -1.35    1.87
  11   3  10    0.24    2.13
  -9   4  10    0.48    2.35
  -8   4  10    6.77    2.65
  -7   4  10    0.50    1.97
  -6   4  10   -0.98    2.03
  -5   4  10   -2.35    2.06
  -4   4  10    1.12    2.33
  -3   4  10   -0.70    1.58
  -2   4  10    9.19    2.00
  -1   4  10   17.74    2.55
   0   4  10   11.34    2.22
   1   4  10   16.86    2.60
   2   4  10    1.44    1.66
   3   4  10    0.93    1.68
   4   4  10    1.00    1.69
   5   4  10    5.17    2.76
   6   4  10   -1.51    1.74
   7   4  10    4.72    2.17
   8   4  10   12.34    2.92
   9   4  10    0.20    2.42
  -4   5  10    4.28    3.24
  -3   5  10   -0.94    2.66
  -2   5  10    3.07    3.30
  -1   5  10   -0.54    2.10
   0   5  10    3.99    2.38
   1   5  10    2.27    2.24
   2   5  10    4.25    2.35
   3   5  10   -1.14    2.13
   4   5  10   -3.41    2.92
  -5  -5  11    1.31    2.95
  -4  -5  11    0.02    2.19
  -3  -5  11    0.23    2.32
  -2  -5  11    1.43    2.19
  -1  -5  11    5.60    2.63
   0  -5  11    0.18    2.21
   1  -5  11    0.59    2.22
   2  -5  11   -1.98    2.19
   3  -5  11   -2.20    2.39
   5  -5  11    1.61    4.09
  -9  -4  11    3.15    3.82
  -8  -4  11    1.40    2.29
  -7  -4  11   14.33    3.23
  -6  -4  11    3.36    2.22
  -5  -4  11    7.88    1.91
  -4  -4  11   17.44    2.38
  -3  -4  11    4.24    1.82
  -2  -4  11    0.79    1.70
  -1  -4  11    3.85    1.96
   0  -4  11   -0.01    1.60
   1  -4  11    3.44    1.99
   2  -4  11    0.87    1.53
   3  -4  11    0.77    1.87
   4  -4  11   29.06    3.46
   5  -4  11   10.65    2.55
   6  -4  11    6.67    2.52
   7  -4  11   17.21    3.26
   8  -4  11    0.18    2.40
   9  -4  11    5.52    3.04
 -11  -3  11   -3.99    2.08
 -10  -3  11    4.90    2.36
  -9  -3  11    0.84    1.96
  -8  -3  11    0.36    1.80
  -7  -3  11    8.12    2.33
  -6  -3  11    5.23    2.02
  -5  -3  11    1.97    1.25
  -4  -3  11    0.45    1.10
  -3  -3  11   -1.70    1.14
  -2  -3  11    0.59    1.21
  -1  -3  11   12.64    2.15
   0  -3  11    0.39    1.01
   1  -3  11   19.33    2.22
   2  -3  11    2.01    1.51
   3  -3  11    0.67    1.44
   4  -3  11    1.62    1.68
   5  -3  11    2.07    1.70
   6  -3  11    6.17    1.97
   7  -3  11    7.94    2.28
   8  -3  11    0.13    1.58
   9  -3  11   -1.12    1.68
  10  -3  11    2.04    1.92
  11  -3  11    2.00    2.05
 -13  -2  11    5.59    2.39
 -12  -2  11   -1.78    1.77
 -11  -2  11   -1.46    1.48
 -10  -2  11   12.17    2.15
  -9  -2  11    2.62    1.68
  -8  -2  11    3.56    1.78
  -7  -2  11   40.27    4.00
  -6  -2  11   23.07    2.88
  -5  -2  11   21.16    1.91
  -4  -2  11   66.65    3.70
  -3  -2  11   10.91    1.37
  -2  -2  11    2.77    1.17
  -1  -2  11   19.14    2.12
   0  -2  11   -0.10    0.92
   1  -2  11   27.10    2.24
   2  -2  11    5.48    1.36
   3  -2  11   13.36    2.58
   4  -2  11   74.89    4.30
   5  -2  11   20.22    2.27
   6  -2  11   15.56    2.16
   7  -2  11   53.80    3.95
   8  -2  11   -0.54    1.49
   9  -2  11   -0.01    1.58
  10  -2  11    9.18    2.13
  11  -2  11    2.93    1.84
  12  -2  11    1.89    1.91
  13  -2  11    0.51    1.95
 -14  -1  11   -2.39    3.60
 -13  -1  11    5.76    2.63
 -12  -1  11    6.23    2.26
 -11  -1  11   -0.64    1.34
 -10  -1  11    3.02    1.41
  -9  -1  11    8.68    1.72
  -8  -1  11   -0.56    1.13
  -7  -1  11   16.50    1.97
  -6  -1  11    8.17    1.70
  -5  -1  11    2.76    1.37
  -4  -1  11    2.13    1.16
  -3  -1  11    1.54    1.09
  -2  -1  11    2.30    0.70
  -1  -1  11   65.84    3.78
   3  -1  11    3.14    0.95
   4  -1  11    0.20    0.69
   5  -1  11    3.76    1.23
   6  -1  11   10.04    1.52
   7  -1  11   13.32    2.01
   8  -1  11   -0.10    1.05
   9  -1  11    7.79    1.40
  10  -1  11    7.58    1.50
  11  -1  11   -0.36    1.38
  12  -1  11    3.26    1.76
  13  -1  11    4.94    1.96
  14  -1  11   -1.81    2.29
 -14   0  11    6.68    3.26
 -13   0  11    5.90    3.10
 -12   0  11   -0.15    2.22
 -11   0  11    2.14    1.53
 -10   0  11   13.31    2.06
  -9   0  11    6.60    1.59
  -8   0  11    4.26    1.32
  -7   0  11   92.62    4.83
  -6   0  11   26.02    2.30
  -5   0  11   16.90    1.66
  -4   0  11  103.23    5.03
  -3   0  11   32.41    2.15
  -2   0  11    3.04    0.80
  -1   0  11   38.84    2.21
   0   0  11    2.07    0.95
   1   0  11   37.76    2.11
   2   0  11    1.94    0.86
   3   0  11   32.28    2.39
   4   0  11  104.78    5.93
   5   0  11   12.54    1.30
   6   0  11   27.66    2.01
   7   0  11   98.58    5.53
   8   0  11    4.15    1.39
   9   0  11    2.88    1.38
  10   0  11   14.12    2.25
  11   0  11    2.20    1.72
  12   0  11    0.11    1.29
  13   0  11    2.35    1.52
  14   0  11    1.17    1.44
 -13   1  11    6.59    3.48
 -12   1  11    8.42    2.26
 -11   1  11   -1.15    1.70
 -10   1  11    3.59    1.73
  -9   1  11    9.15    2.06
  -8   1  11    1.72    1.53
  -7   1  11   17.93    2.49
  -6   1  11   12.41    2.04
  -5   1  11    9.93    1.81
  -4   1  11    1.56    1.13
  -3   1  11    2.38    1.09
  -2   1  11    1.66    0.96
  -1   1  11   63.75    3.24
   0   1  11   -0.02    0.65
   1   1  11   63.05    3.91
   2   1  11    0.52    0.68
   3   1  11    4.19    1.12
   4   1  11    0.46    0.97
   5   1  11    6.33    1.33
   6   1  11    8.97    1.27
   7   1  11   17.44    1.68
   8   1  11    1.02    0.93
   9   1  11    5.80    1.63
  10   1  11    6.56    1.80
  11   1  11   -0.85    1.49
  12   1  11    1.43    1.76
  13   1  11    7.46    2.42
  14   1  11    5.47    3.39
 -12   2  11   -0.50    2.11
 -11   2  11    3.64    2.01
 -10   2  11    7.25    2.20
  -9   2  11    1.33    1.65
  -8   2  11    1.48    1.67
  -7   2  11   49.57    3.41
  -6   2  11   16.48    1.92
  -5   2  11   21.26    2.00
  -4   2  11   75.05    3.79
  -3   2  11   14.72    1.57
  -2   2  11    2.33    0.97
  -1   2  11   22.51    1.73
   0   2  11    0.39    0.82
   1   2  11   22.65    1.87
   2   2  11    2.34    0.89
   3   2  11   15.53    1.49
   4   2  11   62.21    4.48
   5   2  11   18.89    2.29
   6   2  11   14.91    1.65
   7   2  11   48.87    3.05
   8   2  11    1.85    1.12
   9   2  11    1.26    1.20
  10   2  11    7.57    1.68
  11   2  11   -1.45    1.54
  12   2  11   -0.23    1.81
 -11   3  11    0.86    2.35
 -10   3  11    3.11    2.29
  -9   3  11    3.38    2.24
  -8   3  11    1.93    2.00
  -7   3  11   10.09    2.28
  -6   3  11    4.54    1.49
  -5   3  11    2.25    1.31
  -4   3  11    0.83    1.17
  -3   3  11   -1.44    1.05
  -2   3  11    0.59    1.10
  -1   3  11   18.24    1.80
   0   3  11   -0.96    0.99
   1   3  11   20.21    1.84
   2   3  11    1.33    1.11
   3   3  11   -1.69    0.96
   4   3  11    0.50    1.04
   5   3  11   -0.37    1.37
   6   3  11    4.26    1.19
   7   3  11    7.65    2.04
   8   3  11   -1.39    1.55
   9   3  11    0.91    1.94
  10   3  11    6.02    2.44
  11   3  11    1.30    2.28
  -9   4  11   -4.12    2.32
  -8   4  11    1.37    2.30
  -7   4  11   12.11    2.81
  -6   4  11    2.99    2.77
  -5   4  11   11.66    3.39
  -4   4  11   23.82    2.96
  -3   4  11    2.14    1.77
  -2   4  11    0.08    1.64
  -1   4  11    7.30    2.08
   0   4  11    2.45    1.74
   1   4  11    5.50    1.97
   2   4  11    2.78    1.76
   3   4  11    3.95    1.77
   4   4  11   11.71    3.66
   5   4  11    6.25    2.20
   6   4  11    5.49    2.28
   7   4  11   13.11    2.84
   8   4  11   -0.36    2.31
   9   4  11    1.37    2.56
  -3   5  11    1.29    3.05
  -2   5  11   -0.12    3.18
  -1   5  11    7.07    2.57
   0   5  11    0.67    2.26
   1   5  11    2.89    2.42
   2   5  11    0.93    2.32
   3   5  11   -5.07    2.18
  -4  -5  12    1.57    3.06
  -3  -5  12    3.30    3.25
  -2  -5  12    4.44    2.49
  -1  -5  12    3.15    2.46
   0  -5  12   -1.88    2.13
   1  -5  12   -0.07    2.45
   2  -5  12    4.54    2.76
  -9  -4  12    1.67    3.61
  -8  -4  12    1.99    2.32
  -7  -4  12    1.75    2.15
  -6  -4  12    3.58    2.25
  -5  -4  12   -0.70    1.89
  -4  -4  12   14.06    2.11
  -3  -4  12    0.60    1.68
  -2  -4  12    0.99    1.84
  -1  -4  12   -2.75    1.63
   0  -4  12   -0.89    1.65
   1  -4  12    0.01    1.90
   2  -4  12    0.49    1.71
   3  -4  12    2.44    2.13
   4  -4  12   12.16    2.71
   5  -4  12   -3.84    2.16
   6  -4  12    2.18    2.47
   7  -4  12    1.86    2.48
   8  -4  12    0.25    2.53
 -11  -3  12   -0.90    2.34
 -10  -3  12    0.26    2.09
  -9  -3  12    5.09    2.45
  -8  -3  12    1.02    1.83
  -7  -3  12    3.24    1.93
  -6  -3  12   62.93    8.22
  -5  -3  12   16.16    2.73
  -4  -3  12    1.78    1.16
  -3  -3  12    2.39    1.42
  -2  -3  12    6.69    1.69
  -1  -3  12    0.83    1.29
   0  -3  12    1.37    1.33
   1  -3  12   -1.20    1.32
   2  -3  12   15.96    2.13
   3  -3  12    2.41    1.69
   4  -3  12    0.13    1.67
   5  -3  12   13.88    2.45
   6  -3  12   73.10    5.15
   7  -3  12    2.44    2.07
   8  -3  12   -0.39    2.05
   9  -3  12    8.38    2.17
  10  -3  12   -0.45    1.95
  11  -3  12    1.56    2.17
 -13  -2  12    3.52    3.42
 -12  -2  12    0.27    2.17
 -11  -2  12    1.50    1.72
 -10  -2  12   18.62    2.42
  -9  -2  12    3.61    1.78
  -8  -2  12   -0.97    1.46
  -7  -2  12    0.02    1.53
  -6  -2  12    3.36    1.72
  -5  -2  12    3.25    1.47
  -4  -2  12   38.73    2.65
  -3  -2  12    1.39    0.91
  -2  -2  12    1.45    1.02
  -1  -2  12    0.99    1.05
   0  -2  12    0.71    1.01
   1  -2  12    0.98    1.17
   2  -2  12   -0.96    1.18
   3  -2  12    0.16    1.78
   4  -2  12   45.64    3.43
   5  -2  12    0.74    1.38
   6  -2  12    1.92    1.53
   7  -2  12    1.00    1.52
   8  -2  12    0.38    1.63
   9  -2  12    1.36    1.73
  10  -2  12   17.10    2.81
  11  -2  12    0.03    1.82
  12  -2  12   -0.87    1.94
 -13  -1  12   -0.85    2.04
 -12  -1  12   11.20    2.72
 -11  -1  12    3.69    1.62
 -10  -1  12   -0.13    1.36
  -9  -1  12   14.95    2.01
  -8  -1  12    3.52    1.46
  -7  -1  12    1.53    1.18
  -6  -1  12  172.15    9.61
  -5  -1  12   42.08    3.45
  -4  -1  12   -0.17    1.10
  -3  -1  12   -0.40    1.04
  -2  -1  12   29.63    1.97
  -1  -1  12    0.70    0.80
   3  -1  12    1.24    0.82
   4  -1  12   -0.01    0.77
   5  -1  12   39.24    3.04
   6  -1  12  168.42    8.93
   7  -1  12    2.69    1.46
   8  -1  12    5.64    1.38
   9  -1  12   15.45    1.90
  10  -1  12    0.28    1.32
  11  -1  12    1.63    1.67
  12  -1  12   18.83    2.68
  13  -1  12    0.77    1.68
 -13   0  12    0.80    2.58
 -12   0  12    4.95    2.20
 -11   0  12    0.67    1.81
 -10   0  12   19.84    2.35
  -9   0  12    4.19    1.48
  -8   0  12   -0.43    1.15
  -7   0  12    2.16    1.25
  -6   0  12    4.14    1.19
  -5   0  12    2.53    1.13
  -4   0  12   71.69    3.81
  -3   0  12    0.67    0.80
  -2   0  12    0.97    0.71
  -1   0  12    1.00    0.70
   0   0  12   -0.11    0.90
   1   0  12    0.68    0.73
   2   0  12    1.47    0.87
   3   0  12    0.18    0.88
   4   0  12   80.51    4.51
   5   0  12    2.15    0.84
   6   0  12    2.07    0.86
   7   0  12    2.88    1.29
   8   0  12   -0.69    1.19
   9   0  12    0.84    1.46
  10   0  12   21.12    2.72
  11   0  12    3.16    1.87
  12   0  12    2.76    1.46
  13   0  12    2.48    1.57
  14   0  12    1.09    2.01
 -13   1  12    1.26    3.14
 -12   1  12   21.19    3.04
 -11   1  12   -0.13    1.94
 -10   1  12    0.36    1.66
  -9   1  12   13.57    2.32
  -8   1  12    2.63    1.78
  -7   1  12    0.20    1.57
  -6   1  12  166.02    9.53
  -5   1  12   34.01    3.44
  -4   1  12   -0.22    1.13
  -3   1  12    1.19    1.10
  -2   1  12   33.65    2.35
  -1   1  12    0.42    0.84
   0   1  12   -0.81    0.74
   1   1  12    1.08    0.98
   2   1  12   31.27    2.04
   3   1  12    0.91    0.98
   4   1  12    0.78    0.94
   5   1  12   34.27    3.00
   6   1  12  173.93    9.32
   7   1  12    0.65    0.97
   8   1  12    4.39    1.18
   9   1  12   14.39    2.15
  10   1  12   -1.55    1.45
  11   1  12    1.52    1.70
  12   1  12   12.85    2.51
  13   1  12   -0.88    1.93
 -12   2  12    6.70    2.32
 -11   2  12    0.81    1.99
 -10   2  12   16.48    2.90
  -9   2  12    4.32    2.01
  -8   2  12    0.64    1.56
  -7   2  12   -1.41    1.27
  -6   2  12    2.31    1.45
  -5   2  12    3.45    1.35
  -4   2  12   45.07    2.95
  -3   2  12   -0.86    0.93
  -2   2  12   -1.86    0.90
  -1   2  12    2.09    0.95
   0   2  12    2.36    1.15
   1   2  12   -0.14    0.93
   2   2  12    0.80    0.89
   3   2  12    0.26    0.84
   4   2  12   41.28    2.69
   5   2  12   -0.69    1.12
   6   2  12    4.71    1.47
   7   2  12    0.72    1.15
   8   2  12   -0.58    1.05
   9   2  12    2.97    1.24
  10   2  12   12.08    2.27
  11   2  12    0.75    1.73
  12   2  12    1.97    1.91
 -11   3  12    3.34    2.58
 -10   3  12    1.18    2.33
  -9   3  12    8.50    2.67
  -8   3  12   -0.01    1.99
  -7   3  12    0.74    1.95
  -6   3  12   70.35    4.16
  -5   3  12   21.98    2.21
  -4   3  12   -1.15    1.22
  -3   3  12   -0.06    1.39
  -2   3  12   10.82    1.53
  -1   3  12   -0.81    1.04
   0   3  12   -0.35    1.11
   1   3  12    0.42    1.04
   2   3  12    9.64    1.49
   3   3  12    1.25    1.20
   4   3  12   -0.68    1.32
   5   3  12   17.26    2.51
   6   3  12   57.95    4.97
   7   3  12    1.55    1.70
   8   3  12    2.61    1.96
   9   3  12   11.10    2.49
  10   3  12   -1.93    2.08
  11   3  12    2.69    2.41
  -9   4  12   -6.62    4.58
  -8   4  12    1.57    2.46
  -7   4  12   -0.44    2.57
  -6   4  12    3.42    2.84
  -5   4  12    3.59    2.53
  -4   4  12   12.30    2.37
  -3   4  12    0.25    1.75
  -2   4  12    0.40    1.73
  -1   4  12    1.17    1.75
   0   4  12    1.33    1.89
   1   4  12    2.97    1.76
   2   4  12    3.03    1.78
   3   4  12    0.73    1.79
   4   4  12   13.89    3.32
   5   4  12    0.18    1.87
   6   4  12    0.43    1.88
   7   4  12    2.03    2.29
   8   4  12    3.08    2.55
   9   4  12    3.18    4.13
  -2   5  12    2.27    3.20
  -1   5  12   -0.93    2.25
   0   5  12    1.34    2.42
   1   5  12   -1.39    2.30
   2   5  12    2.02    2.37
   3   5  12   -1.05    3.42
  -3  -5  13    4.70    3.38
  -2  -5  13    4.38    3.57
  -1  -5  13    0.38    3.21
   0  -5  13    1.36    3.67
   1  -5  13   -1.08    3.40
  -8  -4  13    4.00    2.37
  -7  -4  13    7.15    2.66
  -6  -4  13   -2.51    1.98
  -5  -4  13    3.66    2.36
  -4  -4  13   35.67    3.34
  -3  -4  13    1.16    1.81
  -2  -4  13    8.89    2.20
  -1  -4  13    0.26    1.66
   0  -4  13   -0.35    1.62
   1  -4  13    0.56    1.96
   2  -4  13    8.40    2.42
   3  -4  13    1.42    2.30
   4  -4  13   43.29    4.27
   5  -4  13    4.36    2.64
   6  -4  13   -1.57    2.43
   7  -4  13    4.03    2.80
   8  -4  13    4.88    3.05
 -11  -3  13    4.64    2.87
 -10  -3  13    0.09    2.09
  -9  -3  13    8.59    2.57
  -8  -3  13    2.10    1.92
  -7  -3  13    0.65    1.89
  -6  -3  13   -2.07    1.62
  -5  -3  13   -1.78    1.49
  -4  -3  13    2.00    1.26
  -3  -3  13    6.62    1.81
  -2  -3  13   16.40    2.33
  -1  -3  13    8.82    1.86
   0  -3  13   10.41    2.02
   1  -3  13    5.47    1.48
   2  -3  13   13.36    2.30
   3  -3  13   14.97    2.28
   4  -3  13   -1.16    1.52
   5  -3  13    2.23    1.88
   6  -3  13    3.01    2.11
   7  -3  13   -2.55    1.99
   8  -3  13    1.83    2.36
   9  -3  13    6.19    2.90
  10  -3  13    2.53    2.14
  11  -3  13    6.63    4.06
 -12  -2  13   -3.57    2.08
 -11  -2  13   -0.91    1.65
 -10  -2  13    6.60    1.99
  -9  -2  13    2.18    1.80
  -8  -2  13    5.81    1.97
  -7  -2  13   11.33    2.21
  -6  -2  13    0.13    1.49
  -5  -2  13   13.53    2.22
  -4  -2  13  110.59    7.08
  -3  -2  13    0.07    0.91
  -2  -2  13   20.83    2.27
  -1  -2  13    1.88    1.12
   0  -2  13    0.08    0.87
   1  -2  13    0.92    1.12
   2  -2  13   32.00    2.77
   3  -2  13    0.84    1.94
   4  -2  13  131.02    6.50
   5  -2  13   12.68    2.17
   6  -2  13   -0.52    1.50
   7  -2  13   12.55    2.23
   8  -2  13    8.71    2.18
   9  -2  13    1.36    1.81
  10  -2  13    7.37    2.36
  11  -2  13   -0.59    1.95
  12  -2  13    0.54    2.19
 -13  -1  13   -1.63    2.58
 -12  -1  13    4.14    1.92
 -11  -1  13    8.59    1.88
 -10  -1  13    0.49    1.50
  -9  -1  13   19.06    2.20
  -8  -1  13    2.17    1.39
  -7  -1  13    0.24    1.21
  -6  -1  13    6.51    1.49
  -5  -1  13    2.58    1.34
  -4  -1  13    0.60    1.20
  -3  -1  13    9.63    1.67
  -2  -1  13   41.20    2.32
  -1  -1  13   37.17    2.30
   3  -1  13    6.08    1.38
   4  -1  13   -0.21    0.82
   5  -1  13    1.90    1.18
   6  -1  13    6.87    1.47
   7  -1  13    0.16    1.28
   8  -1  13   -0.99    1.18
   9  -1  13   11.03    1.77
  10  -1  13    0.62    1.71
  11  -1  13    5.67    2.01
  12  -1  13    3.60    1.86
  13  -1  13   -2.66    1.76
 -13   0  13   -3.34    2.63
 -12   0  13   -1.44    1.83
 -11   0  13   -0.88    1.85
 -10   0  13    7.30    2.23
  -9   0  13    5.33    1.87
  -8   0  13   12.75    2.29
  -7   0  13    6.73    1.47
  -6   0  13    1.07    1.14
  -5   0  13    6.50    1.33
  -4   0  13  158.05    7.27
  -3   0  13    2.14    0.92
  -2   0  13   33.10    2.10
  -1   0  13    1.24    0.68
   0   0  13   -1.63    0.84
   1   0  13    0.09    0.73
   2   0  13   32.58    2.55
   3   0  13    0.73    0.99
   4   0  13  160.25    8.77
   5   0  13    7.15    1.16
   6   0  13   -1.05    0.81
   7   0  13    7.40    1.65
   8   0  13   11.62    1.88
   9   0  13    4.90    1.60
  10   0  13    4.98    1.81
  11   0  13   -0.71    1.62
  12   0  13    1.37    1.51
  13   0  13   -0.67    1.51
  14   0  13    2.84    2.05
 -13   1  13    3.80    3.42
 -12   1  13    2.02    2.30
 -11   1  13    6.61    2.39
 -10   1  13    0.80    1.80
  -9   1  13   18.53    2.90
  -8   1  13   -1.30    1.67
  -7   1  13    0.81    1.51
  -6   1  13    5.23    1.98
  -5   1  13    1.48    1.33
  -4   1  13   -0.38    1.20
  -3   1  13    8.10    1.50
  -2   1  13   41.44    2.83
  -1   1  13   35.15    2.54
   0   1  13   17.75    1.61
   1   1  13   35.45    2.97
   2   1  13   42.47    2.56
   3   1  13    8.31    1.55
   4   1  13    0.82    1.06
   5   1  13    0.64    1.15
   6   1  13    5.95    1.17
   7   1  13    1.15    1.03
   8   1  13    0.12    0.97
   9   1  13   11.02    1.99
  10   1  13   -1.14    1.50
  11   1  13    8.34    2.18
  12   1  13    1.06    1.91
  13   1  13   -3.08    1.90
 -12   2  13    0.91    2.28
 -11   2  13   -0.25    2.22
 -10   2  13    2.22    2.28
  -9   2  13    1.89    2.07
  -8   2  13    7.83    1.98
  -7   2  13   11.69    2.11
  -6   2  13    1.33    1.49
  -5   2  13   14.52    1.99
  -4   2  13  121.76    5.70
  -3   2  13    0.96    1.15
  -2   2  13   24.62    1.98
  -1   2  13   -0.29    1.13
   0   2  13    0.66    1.12
   1   2  13    1.76    0.98
   2   2  13   23.12    1.96
   3   2  13   -0.62    0.89
   4   2  13  119.26    6.91
   5   2  13   13.49    2.06
   6   2  13   -0.33    1.18
   7   2  13    8.22    1.42
   8   2  13    7.88    1.48
   9   2  13    0.68    1.32
  10   2  13    2.01    1.67
  11   2  13   -0.29    1.64
  12   2  13    1.03    1.96
 -11   3  13    0.41    2.70
 -10   3  13    4.01    2.67
  -9   3  13    8.89    2.84
  -8   3  13    5.40    2.40
  -7   3  13    0.98    2.13
  -6   3  13    3.10    1.59
  -5   3  13   -0.82    1.42
  -4   3  13   -0.87    1.61
  -3   3  13    9.46    2.00
  -2   3  13   18.28    1.96
  -1   3  13    9.27    1.52
   0   3  13   10.65    1.65
   1   3  13    6.55    1.48
   2   3  13   15.90    1.81
   3   3  13    7.87    1.55
   4   3  13   -0.20    1.40
   5   3  13   -0.01    1.49
   6   3  13    2.08    1.74
   7   3  13   -0.06    1.61
   8   3  13   -1.38    1.69
   9   3  13    4.97    2.20
  10   3  13   -1.11    2.18
  -8   4  13   -0.53    3.19
  -7   4  13    0.67    3.06
  -6   4  13   -0.26    2.93
  -5   4  13   11.72    3.56
  -4   4  13   45.24    4.08
  -3   4  13   -2.08    1.74
  -2   4  13   11.67    2.45
  -1   4  13   -0.36    1.82
   0   4  13    0.33    1.82
   1   4  13    0.54    1.73
   2   4  13    9.27    2.23
   3   4  13    2.62    1.92
   4   4  13   40.66    5.62
   5   4  13    5.93    2.25
   6   4  13    1.54    2.23
   7   4  13    4.96    2.37
   8   4  13   -2.42    2.36
  -2   5  13    7.54    3.93
  -1   5  13    3.30    2.44
   0   5  13    2.98    2.69
   1   5  13   -0.82    2.44
   2   5  13    1.84    3.48
  -2  -5  14   -0.12    3.52
  -1  -5  14    1.62    3.33
   0  -5  14   -4.62    2.96
  -7  -4  14    3.65    2.55
  -6  -4  14    1.17    2.39
  -5  -4  14    1.00    2.06
  -4  -4  14    2.24    2.07
  -3  -4  14    0.63    1.70
  -2  -4  14   -0.14    1.72
  -1  -4  14    1.65    1.77
   0  -4  14   14.40    2.67
   1  -4  14    0.94    1.89
   2  -4  14    0.31    1.88
   3  -4  14    4.23    2.89
   4  -4  14    4.11    2.51
   5  -4  14    0.04    2.47
   6  -4  14    0.23    2.74
   7  -4  14    0.15    2.77
   8  -4  14   -5.64    4.32
 -11  -3  14    9.69    4.76
 -10  -3  14   -0.52    2.14
  -9  -3  14   -0.66    2.07
  -8  -3  14    0.61    2.01
  -7  -3  14    1.86    2.04
  -6  -3  14   14.54    2.68
  -5  -3  14   10.43    2.48
  -4  -3  14    8.55    2.26
  -3  -3  14    2.27    1.50
  -2  -3  14   24.40    2.87
  -1  -3  14    2.23    1.49
   0  -3  14   -0.84    1.28
   1  -3  14    2.61    1.70
   2  -3  14   26.77    2.94
   3  -3  14    5.15    1.92
   4  -3  14   15.25    2.63
   5  -3  14   19.31    2.81
   6  -3  14   17.42    2.91
   7  -3  14    5.40    2.52
   8  -3  14    1.03    2.50
   9  -3  14   -1.55    2.52
  10  -3  14    4.65    3.07
 -12  -2  14    3.50    2.14
 -11  -2  14   23.63    2.86
 -10  -2  14   -0.37    1.76
  -9  -2  14    1.82    1.57
  -8  -2  14    1.37    1.80
  -7  -2  14   -2.33    1.47
  -6  -2  14    1.22    1.59
  -5  -2  14    8.17    1.95
  -4  -2  14    7.09    1.72
  -3  -2  14    3.11    1.11
  -2  -2  14   -0.99    0.95
  -1  -2  14    3.46    1.28
   0  -2  14   33.03    2.36
   1  -2  14    3.56    1.50
   2  -2  14    2.47    1.49
   3  -2  14    4.98    1.59
   4  -2  14    7.28    1.90
   5  -2  14    4.23    1.82
   6  -2  14    2.06    1.73
   7  -2  14    0.96    1.70
   8  -2  14    2.22    2.00
   9  -2  14   -1.70    1.88
  10  -2  14    2.37    2.17
  11  -2  14   20.14    3.18
  12  -2  14   -0.29    2.38
 -12  -1  14    0.51    2.23
 -11  -1  14    2.12    1.81
 -10  -1  14    0.54    1.54
  -9  -1  14    0.62    1.34
  -8  -1  14    1.59    1.38
  -7  -1  14    6.13    1.53
  -6  -1  14   17.88    1.91
  -5  -1  14   25.10    2.68
  -4  -1  14   35.62    3.27
  -3  -1  14    5.44    1.43
  -2  -1  14   42.39    3.24
  -1  -1  14   10.43    1.23
   3  -1  14    5.27    1.30
   4  -1  14   41.09    2.51
   5  -1  14   24.57    2.50
   6  -1  14   13.93    1.97
   7  -1  14    6.25    1.68
   8  -1  14    0.51    1.59
   9  -1  14    1.41    1.33
  10  -1  14   -2.58    1.62
  11  -1  14    5.61    2.02
  12  -1  14   -0.73    1.87
  13  -1  14    0.36    2.58
 -13   0  14   -3.90    2.81
 -12   0  14    4.77    2.43
 -11   0  14   29.44    3.85
 -10   0  14    1.78    1.96
  -9   0  14    0.97    1.69
  -8   0  14    1.15    1.65
  -7   0  14   -0.75    1.57
  -6   0  14   -0.78    1.43
  -5   0  14    1.42    1.50
  -4   0  14    5.12    1.22
  -3   0  14    7.60    1.21
  -2   0  14    3.38    0.90
  -1   0  14   16.30    1.42
   0   0  14   27.60    2.43
   1   0  14   16.52    1.43
   2   0  14    4.30    0.95
   3   0  14    6.94    1.45
   4   0  14    5.53    1.34
   5   0  14    4.94    1.08
   6   0  14   -1.88    0.83
   7   0  14   -0.70    1.33
   8   0  14    2.53    1.48
   9   0  14   -1.53    1.32
  10   0  14    2.40    1.73
  11   0  14   27.81    3.51
  12   0  14    1.25    1.60
  13   0  14    0.62    1.59
 -12   1  14    3.42    2.58
 -11   1  14    5.15    2.35
 -10   1  14   -0.24    1.97
  -9   1  14    1.52    1.88
  -8   1  14    2.26    2.12
  -7   1  14   12.69    2.42
  -6   1  14   10.38    2.53
  -5   1  14   21.96    2.47
  -4   1  14   33.81    2.82
  -3   1  14    1.75    1.25
  -2   1  14   35.74    2.67
  -1   1  14    5.85    1.37
   0   1  14    0.41    0.93
   1   1  14    5.14    1.42
   2   1  14   40.06    2.55
   3   1  14    2.34    0.94
   4   1  14   36.61    3.18
   5   1  14   22.08    2.43
   6   1  14   10.89    1.52
   7   1  14    7.55    1.43
   8   1  14   -1.58    1.25
   9   1  14   -1.34    1.31
  10   1  14    0.64    1.70
  11   1  14    2.39    1.84
  12   1  14    2.58    2.15
  13   1  14   -1.44    2.06
 -12   2  14    1.95    2.50
 -11   2  14   21.39    3.43
 -10   2  14   -0.55    2.26
  -9   2  14    1.26    2.19
  -8   2  14    0.07    1.82
  -7   2  14   -2.50    1.60
  -6   2  14    0.47    1.63
  -5   2  14    1.02    1.51
  -4   2  14    6.23    1.59
  -3   2  14    3.59    1.28
  -2   2  14    2.05    1.47
  -1   2  14    3.14    1.54
   0   2  14   34.69    3.06
   1   2  14    5.83    1.23
   2   2  14   -0.22    1.03
   3   2  14    1.99    1.02
   4   2  14    8.39    1.80
   5   2  14    3.74    1.57
   6   2  14   -1.30    1.18
   7   2  14   -0.19    1.13
   8   2  14    0.07    1.13
   9   2  14   -0.22    1.24
  10   2  14    2.38    1.75
  11   2  14   17.57    2.79
  12   2  14    0.05    2.15
 -10   3  14    1.93    2.78
  -9   3  14   -1.93    2.35
  -8   3  14    2.88    2.47
  -7   3  14    3.78    2.42
  -6   3  14   17.18    2.31
  -5   3  14   13.91    2.53
  -4   3  14   10.86    2.34
  -3   3  14    1.96    1.79
  -2   3  14   27.08    2.42
  -1   3  14    4.41    1.43
   0   3  14    0.20    1.25
   1   3  14    3.10    1.38
   2   3  14   25.56    2.30
   3   3  14    3.76    1.32
   4   3  14    8.89    2.09
   5   3  14   14.04    2.36
   6   3  14    5.32    2.07
   7   3  14    3.42    1.52
   8   3  14    4.88    2.12
   9   3  14    0.10    2.01
  10   3  14   -0.79    1.98
  -7   4  14   -0.17    3.25
  -6   4  14   -1.62    2.88
  -5   4  14    0.82    2.99
  -4   4  14    7.89    2.36
  -3   4  14    0.44    2.03
  -2   4  14    1.85    1.98
  -1   4  14    0.39    1.90
   0   4  14   12.80    2.52
   1   4  14    1.78    1.99
   2   4  14   -0.85    1.77
   3   4  14    2.72    3.00
   4   4  14    2.91    2.81
   5   4  14    2.76    2.07
   6   4  14   -0.29    2.13
   7   4  14   -0.62    2.37
   8   4  14   -0.84    3.75
  -2   5  14    6.68    4.05
  -1   5  14    6.55    3.61
   0   5  14    0.16    2.43
   1   5  14   -0.50    3.59
  -7  -4  15    2.39    2.27
  -6  -4  15   -0.59    2.41
  -5  -4  15   -0.62    2.09
  -4  -4  15   -2.14    1.89
  -3  -4  15    1.03    2.72
  -2  -4  15    1.75    2.06
  -1  -4  15   -0.99    1.65
   0  -4  15    0.68    1.91
   1  -4  15    1.79    1.95
   2  -4  15    0.92    2.04
   3  -4  15    0.50    1.87
   4  -4  15    0.71    2.51
   5  -4  15   10.79    3.16
   6  -4  15    3.82    3.05
   7  -4  15    0.34    3.10
 -10  -3  15    1.93    2.36
  -9  -3  15   17.13    3.11
  -8  -3  15   -2.10    1.80
  -7  -3  15   -0.54    1.93
  -6  -3  15    8.12    2.67
  -5  -3  15    3.01    1.91
  -4  -3  15    0.16    1.63
  -3  -3  15    0.22    1.52
  -2  -3  15    4.70    1.64
  -1  -3  15    4.47    1.71
   0  -3  15   39.20    3.84
   1  -3  15    5.08    1.77
   2  -3  15    2.90    1.86
   3  -3  15    3.55    1.98
   4  -3  15    1.06    2.00
   5  -3  15    3.24    2.17
   6  -3  15    7.08    2.82
   7  -3  15    1.67    2.55
   8  -3  15   -1.23    2.65
   9  -3  15    4.87    2.90
  10  -3  15    2.65    3.07
 -12  -2  15   -0.41    2.55
 -11  -2  15   -0.92    1.75
 -10  -2  15    1.92    1.91
  -9  -2  15    6.21    1.84
  -8  -2  15    5.90    2.10
  -7  -2  15    1.33    1.60
  -6  -2  15    2.58    1.86
  -5  -2  15   15.53    2.44
  -4  -2  15    1.13    1.41
  -3  -2  15    1.51    1.51
  -2  -2  15    0.81    0.96
  -1  -2  15    2.97    1.32
   0  -2  15    0.33    0.95
   1  -2  15    6.43    1.55
   2  -2  15    0.18    1.44
   3  -2  15    3.81    1.73
   4  -2  15    1.97    1.73
   5  -2  15   10.73    2.28
   6  -2  15    7.27    2.09
   7  -2  15    3.57    1.95
   8  -2  15    2.81    2.13
   9  -2  15   10.51    2.48
  10  -2  15   11.12    2.79
  11  -2  15    3.77    2.33
 -12  -1  15    0.78    2.35
 -11  -1  15    3.91    2.39
 -10  -1  15    6.91    2.46
  -9  -1  15   17.41    2.23
  -8  -1  15    3.17    1.49
  -7  -1  15    1.71    1.34
  -6  -1  15   16.96    2.09
  -5  -1  15    3.07    1.31
  -4  -1  15    1.57    1.38
  -3  -1  15   10.91    1.80
  -2  -1  15    4.37    1.32
  -1  -1  15    5.96    1.06
   3  -1  15    8.44    1.66
   4  -1  15    0.51    1.01
   5  -1  15    5.50    1.57
   6  -1  15   23.96    2.53
   7  -1  15   -0.05    1.45
   8  -1  15   -1.53    1.51
   9  -1  15   16.21    2.62
  10  -1  15    3.36    2.05
  11  -1  15    6.96    2.35
  12  -1  15   -0.90    2.16
 -12   0  15    5.18    2.52
 -11   0  15    0.22    2.16
 -10   0  15   10.37    2.62
  -9   0  15   10.23    2.41
  -8   0  15    2.77    1.85
  -7   0  15    3.57    1.85
  -6   0  15   12.16    2.16
  -5   0  15   24.13    2.84
  -4   0  15    0.92    1.44
  -3   0  15    4.18    1.43
  -2   0  15    0.58    1.21
  -1   0  15    6.36    1.44
   0   0  15   -0.28    0.68
   1   0  15    8.42    1.18
   2   0  15    0.10    0.85
   3   0  15    5.39    1.06
   4   0  15   -0.70    1.09
   5   0  15   24.28    2.45
   6   0  15   11.58    1.49
   7   0  15    0.67    1.45
   8   0  15    1.94    1.46
   9   0  15   13.03    2.16
  10   0  15    2.59    1.83
  11   0  15   -2.77    1.71
  12   0  15    0.34    1.59
  13   0  15   -0.28    1.87
 -12   1  15   -2.08    2.56
 -11   1  15    2.99    2.46
 -10   1  15    4.87    2.32
  -9   1  15   18.06    3.17
  -8   1  15   -0.38    1.99
  -7   1  15   -0.35    1.94
  -6   1  15   18.49    2.34
  -5   1  15    4.64    1.68
  -4   1  15    2.85    1.41
  -3   1  15    9.82    1.70
  -2   1  15    3.00    1.37
  -1   1  15    1.88    1.27
   0   1  15   62.03    4.61
   1   1  15    3.35    1.45
   2   1  15    5.69    1.24
   3   1  15   10.16    1.72
   4   1  15    0.87    1.23
   5   1  15    1.79    1.26
   6   1  15   22.11    2.55
   7   1  15    0.21    1.11
   8   1  15    0.34    1.30
   9   1  15   16.99    2.45
  10   1  15    2.25    1.67
  11   1  15    3.69    2.03
  12   1  15    0.26    2.10
 -12   2  15   -4.35    3.58
 -11   2  15   -3.40    2.54
 -10   2  15    8.58    2.94
  -9   2  15    8.33    2.76
  -8   2  15    4.10    2.05
  -7   2  15   -1.14    1.74
  -6   2  15    4.89    2.01
  -5   2  15   14.88    2.25
  -4   2  15    3.48    1.59
  -3   2  15    0.12    1.65
  -2   2  15   -0.69    1.46
  -1   2  15    1.91    1.50
   0   2  15   -2.60    1.32
   1   2  15    5.89    1.31
   2   2  15   -1.22    1.03
   3   2  15    1.36    1.05
   4   2  15    2.95    1.52
   5   2  15   10.42    2.06
   6   2  15    1.48    1.52
   7   2  15    1.53    1.22
   8   2  15    3.02    1.41
   9   2  15    2.84    1.49
  10   2  15    2.55    1.94
  11   2  15   -0.65    1.91
  12   2  15   -2.39    3.08
 -10   3  15   12.66    3.39
  -9   3  15   18.76    3.68
  -8   3  15    2.63    2.62
  -7   3  15    1.82    2.50
  -6   3  15   18.01    2.88
  -5   3  15    3.71    2.13
  -4   3  15    0.82    1.91
  -3   3  15    3.42    1.89
  -2   3  15    3.36    1.52
  -1   3  15    6.70    1.60
   0   3  15   44.84    3.23
   1   3  15    7.81    1.63
   2   3  15    4.77    1.46
   3   3  15    0.67    1.55
   4   3  15    1.88    1.62
   5   3  15    2.09    1.82
   6   3  15    9.84    2.30
   7   3  15    0.25    1.44
   8   3  15   -2.55    1.74
   9   3  15    8.48    2.51
  10   3  15   -1.26    2.24
  -7   4  15    0.50    3.68
  -6   4  15    1.98    3.25
  -5   4  15    5.49    3.68
  -4   4  15    2.25    2.27
  -3   4  15    2.81    2.28
  -2   4  15    1.38    2.17
  -1   4  15    3.07    2.05
   0   4  15   -1.62    1.93
   1   4  15    4.45    2.09
   2   4  15    0.40    1.97
   3   4  15   -3.71    2.37
   4   4  15    2.43    2.29
   5   4  15    1.54    2.22
   6   4  15    4.96    2.43
   7   4  15   -1.24    2.40
  -6  -4  16   -3.83    2.23
  -5  -4  16    1.89    2.35
  -4  -4  16   -0.10    2.06
  -3  -4  16    2.75    2.31
  -2  -4  16   18.81    3.10
  -1  -4  16    6.16    2.22
   0  -4  16   -0.88    1.88
   1  -4  16   -0.62    1.89
   2  -4  16   15.53    2.99
   3  -4  16    5.11    2.45
   4  -4  16   -3.53    3.41
   5  -4  16    0.31    2.71
   6  -4  16    6.75    3.09
   7  -4  16    1.91    5.04
 -10  -3  16    6.75    4.35
  -9  -3  16   -0.13    2.21
  -8  -3  16    4.37    2.25
  -7  -3  16    3.94    2.26
  -6  -3  16    2.40    2.04
  -5  -3  16    3.60    2.02
  -4  -3  16   -0.70    1.78
  -3  -3  16    0.04    1.74
  -2  -3  16   -0.81    1.40
  -1  -3  16   -3.09    1.36
   0  -3  16    2.45    1.61
   1  -3  16   -2.09    1.44
   2  -3  16   -0.49    2.27
   3  -3  16    2.48    2.15
   4  -3  16   -2.25    2.00
   5  -3  16    1.19    2.24
   6  -3  16    2.24    2.48
   7  -3  16    2.23    2.50
   8  -3  16    1.12    2.56
   9  -3  16    5.09    3.03
 -11  -2  16    4.85    1.99
 -10  -2  16    9.20    2.25
  -9  -2  16    5.19    1.86
  -8  -2  16    5.57    2.05
  -7  -2  16    6.09    2.07
  -6  -2  16    2.28    1.81
  -5  -2  16    2.16    1.65
  -4  -2  16    2.46    1.60
  -3  -2  16   21.49    2.89
  -2  -2  16   60.71    4.61
  -1  -2  16    3.59    1.29
   0  -2  16    0.70    1.26
   1  -2  16    4.37    1.51
   2  -2  16   64.81    4.68
   3  -2  16   31.25    3.04
   4  -2  16    2.52    1.89
   5  -2  16    1.14    1.82
   6  -2  16    0.52    2.02
   7  -2  16    3.35    2.21
   8  -2  16    4.85    2.29
   9  -2  16    1.06    2.24
  10  -2  16    9.99    2.78
  11  -2  16    5.04    2.69
 -12  -1  16   -0.13    2.37
 -11  -1  16    5.46    2.43
 -10  -1  16    0.48    2.03
  -9  -1  16    2.19    2.06
  -8  -1  16   11.02    2.26
  -7  -1  16   10.45    1.74
  -6  -1  16    3.13    1.34
  -5  -1  16    1.94    1.28
  -4  -1  16   -0.04    1.16
  -3  -1  16   13.10    2.05
  -2  -1  16    1.85    1.32
  -1  -1  16    0.98    0.89
   0  -1  16    0.41    1.11
   3  -1  16   17.01    2.08
   4  -1  16    0.12    1.07
   5  -1  16    0.31    1.45
   6  -1  16    4.10    1.71
   7  -1  16    3.40    1.78
   8  -1  16   12.33    2.40
   9  -1  16   -0.88    1.70
  10  -1  16    1.18    2.05
  11  -1  16   -2.03    1.97
  12  -1  16    1.22    2.16
 -12   0  16    5.78    2.90
 -11   0  16    1.69    2.38
 -10   0  16   22.12    3.34
  -9   0  16    8.47    2.36
  -8   0  16    0.97    1.75
  -7   0  16   11.81    2.29
  -6   0  16   -1.62    1.56
  -5   0  16    2.96    1.69
  -4   0  16    4.15    1.60
  -3   0  16   24.85    2.57
  -2   0  16  103.38    6.01
  -1   0  16    9.99    1.74
   0   0  16   12.99    1.50
   1   0  16   13.39    1.45
   2   0  16  103.39    5.93
   3   0  16   26.91    2.00
   4   0  16    4.63    1.57
   5   0  16    5.29    1.41
   6   0  16   -0.13    1.44
   7   0  16    9.82    1.99
   8   0  16    3.97    1.74
   9   0  16    6.47    1.93
  10   0  16   11.85    2.46
  11   0  16    0.82    1.85
  12   0  16    3.14    1.90
  13   0  16   -0.54    3.70
 -12   1  16   -1.30    2.81
 -11   1  16    2.22    2.65
 -10   1  16    0.25    1.86
  -9   1  16    5.07    1.98
  -8   1  16   15.42    2.26
  -7   1  16   10.24    1.97
  -6   1  16    4.93    1.84
  -5   1  16   -1.44    1.36
  -4   1  16   -1.06    1.33
  -3   1  16    9.65    1.77
  -2   1  16    2.49    1.39
  -1   1  16    1.65    1.51
   0   1  16    0.91    1.40
   1   1  16    1.65    1.45
   2   1  16    1.79    1.07
   3   1  16   13.20    1.56
   4   1  16   -0.53    1.15
   5   1  16   -0.38    1.24
   6   1  16    2.55    1.57
   7   1  16    2.43    1.28
   8   1  16   10.82    2.07
   9   1  16   -0.79    1.53
  10   1  16    0.94    1.77
  11   1  16   -0.63    1.88
  12   1  16    0.51    2.12
 -11   2  16    3.23    3.09
 -10   2  16   11.97    3.18
  -9   2  16    1.76    2.74
  -8   2  16    4.45    2.15
  -7   2  16    4.07    2.07
  -6   2  16    1.01    1.86
  -5   2  16   -1.90    1.71
  -4   2  16    5.80    2.15
  -3   2  16   16.11    2.81
  -2   2  16   60.14    4.86
  -1   2  16    0.02    1.51
   0   2  16    3.69    1.72
   1   2  16    1.10    1.19
   2   2  16   55.54    3.67
   3   2  16   16.74    2.47
   4   2  16    3.87    1.67
   5   2  16    4.18    1.69
   6   2  16   -2.04    1.36
   7   2  16    4.30    1.48
   8   2  16    2.60    1.43
   9   2  16    5.52    1.71
  10   2  16    7.64    2.25
  11   2  16    1.92    2.14
 -10   3  16    9.48    5.85
  -9   3  16    1.45    3.04
  -8   3  16   11.65    3.39
  -7   3  16    3.84    3.76
  -6   3  16    4.62    2.58
  -5   3  16   -0.73    2.17
  -4   3  16   -3.46    1.79
  -3   3  16    2.95    2.13
  -2   3  16   -2.33    1.46
  -1   3  16   -1.42    1.37
   0   3  16   -0.98    1.37
   1   3  16   -0.15    1.40
   2   3  16    1.94    1.39
   3   3  16    5.35    1.99
   4   3  16    1.07    1.83
   5   3  16    0.91    1.96
   6   3  16    3.35    2.05
   7   3  16    1.26    1.55
   8   3  16    6.96    2.40
   9   3  16    1.02    2.24
  10   3  16   -3.64    3.68
  -6   4  16   -1.91    3.39
  -5   4  16    5.01    3.78
  -4   4  16    0.73    2.48
  -3   4  16   12.45    2.81
  -2   4  16   21.39    3.25
  -1   4  16   -2.22    2.01
   0   4  16   -1.72    2.14
   1   4  16   -0.91    2.03
   2   4  16   18.28    3.11
   3   4  16    9.19    3.42
   4   4  16   -0.65    2.31
   5   4  16    3.04    2.24
   6   4  16    0.26    2.27
   7   4  16    7.80    4.22
  -6  -4  17    5.88    4.84
  -5  -4  17    1.06    2.36
  -4  -4  17    0.28    2.31
  -3  -4  17    1.05    2.14
  -2  -4  17    2.73    3.14
  -1  -4  17    2.74    2.10
   0  -4  17    0.67    2.06
   1  -4  17    2.22    2.31
   2  -4  17    0.52    1.85
   3  -4  17    0.85    2.20
   4  -4  17   -1.70    3.48
   5  -4  17    0.59    3.76
   6  -4  17   11.08    5.26
  -9  -3  17   -0.98    2.11
  -8  -3  17    9.51    2.82
  -7  -3  17   -1.13    2.09
  -6  -3  17    3.87    2.42
  -5  -3  17    0.30    1.82
  -4  -3  17   13.24    2.54
  -3  -3  17   -0.07    1.81
  -2  -3  17   -3.50    1.98
  -1  -3  17    0.49    1.68
   0  -3  17   53.87    4.79
   1  -3  17   -1.23    1.49
   2  -3  17    2.99    2.51
   3  -3  17    0.58    2.00
   4  -3  17   20.66    3.06
   5  -3  17    1.51    2.33
   6  -3  17    2.92    2.53
   7  -3  17   -1.73    2.61
   8  -3  17    4.47    2.90
   9  -3  17    4.77    3.12
 -11  -2  17    5.45    3.65
 -10  -2  17    1.79    2.00
  -9  -2  17    4.15    1.89
  -8  -2  17    4.03    1.64
  -7  -2  17    0.33    1.75
  -6  -2  17   11.83    2.40
  -5  -2  17   10.25    2.30
  -4  -2  17    1.50    1.65
  -3  -2  17   -0.01    1.49
  -2  -2  17   -0.41    1.40
  -1  -2  17    9.47    1.75
   0  -2  17    0.88    1.35
   1  -2  17   11.45    2.05
   2  -2  17   -1.10    1.48
   3  -2  17    2.16    1.95
   4  -2  17    6.59    2.16
   5  -2  17    7.80    2.36
   6  -2  17    8.34    2.59
   7  -2  17    2.93    2.17
   8  -2  17    9.43    2.62
   9  -2  17   -0.74    2.40
  10  -2  17    4.24    2.66
  11  -2  17    2.55    4.09
 -12  -1  17    5.50    3.81
 -11  -1  17    6.84    2.47
 -10  -1  17   -1.31    2.14
  -9  -1  17    2.88    1.97
  -8  -1  17   13.97    2.64
  -7  -1  17   -1.27    1.66
  -6  -1  17    5.06    1.83
  -5  -1  17    1.95    1.63
  -4  -1  17   38.99    2.92
  -3  -1  17    1.53    1.27
  -2  -1  17    0.53    1.29
  -1  -1  17   -0.60    1.21
   0  -1  17  181.51    9.53
   2  -1  17    0.86    1.82
   3  -1  17    2.57    1.46
   4  -1  17   37.95    3.43
   5  -1  17    5.54    1.73
   6  -1  17    7.41    1.92
   7  -1  17   -0.52    1.66
   8  -1  17   13.75    2.36
   9  -1  17    1.95    1.97
  10  -1  17   -0.16    2.05
  11  -1  17    3.16    2.38
 -12   0  17    4.67    2.75
 -11   0  17    3.06    2.68
 -10   0  17    5.32    2.53
  -9   0  17    1.02    1.94
  -8   0  17    3.14    1.96
  -7   0  17   -0.23    1.69
  -6   0  17   24.44    2.87
  -5   0  17   23.84    2.81
  -4   0  17    3.36    1.65
  -3   0  17    0.76    1.39
  -2   0  17    3.19    1.32
  -1   0  17   16.81    2.02
   0   0  17    0.22    0.97
   1   0  17   17.71    2.04
   2   0  17   -0.81    1.05
   3   0  17    1.82    1.34
   4   0  17   -0.45    1.35
   5   0  17   18.44    2.29
   6   0  17   15.48    2.35
   7   0  17    0.28    1.53
   8   0  17    0.70    1.57
   9   0  17    0.45    1.78
  10   0  17    4.64    2.16
  11   0  17    4.72    2.12
  12   0  17    1.37    1.92
 -12   1  17   -5.62    4.02
 -11   1  17    1.67    2.74
 -10   1  17    1.86    2.04
  -9   1  17   -0.93    1.79
  -8   1  17   18.92    2.56
  -7   1  17    0.21    1.54
  -6   1  17    2.66    1.70
  -5   1  17    6.50    1.78
  -4   1  17   35.60    3.02
  -3   1  17    0.08    1.34
  -2   1  17    2.19    1.60
  -1   1  17   -1.45    1.32
   0   1  17  156.94    9.45
   1   1  17    0.45    1.43
   2   1  17    1.23    1.17
   3   1  17    1.49    1.33
   4   1  17   37.92    3.49
   5   1  17    3.05    1.46
   6   1  17    2.48    1.64
   7   1  17   -1.24    1.10
   8   1  17   10.64    2.23
   9   1  17    0.32    1.62
  10   1  17   -1.88    1.72
  11   1  17    4.72    2.38
  12   1  17    5.35    3.71
 -11   2  17    2.54    3.16
 -10   2  17    3.54    3.10
  -9   2  17    0.48    2.75
  -8   2  17   -0.49    2.12
  -7   2  17   -1.06    2.04
  -6   2  17    7.23    2.36
  -5   2  17    6.09    2.44
  -4   2  17   -0.53    1.89
  -3   2  17    2.20    1.99
  -2   2  17    1.61    1.80
  -1   2  17   10.26    2.15
   0   2  17   -0.73    1.25
   1   2  17    8.63    1.60
   2   2  17    1.45    1.26
   3   2  17   -0.41    1.32
   4   2  17    2.00    1.73
   5   2  17   11.14    2.22
   6   2  17    8.17    1.97
   7   2  17   -0.64    1.22
   8   2  17    1.25    1.45
   9   2  17    2.29    1.89
  10   2  17    2.87    2.00
  11   2  17    0.05    3.36
  -9   3  17   -2.96    3.94
  -8   3  17    9.58    4.59
  -7   3  17    6.85    3.94
  -6   3  17   -0.77    2.38
  -5   3  17    4.77    2.41
  -4   3  17   15.65    2.90
  -3   3  17   -2.71    1.89
  -2   3  17   -2.09    1.49
  -1   3  17   -2.06    1.38
   0   3  17   85.82    7.20
   1   3  17   -0.80    1.44
   2   3  17    1.53    1.49
   3   3  17   -0.47    1.74
   4   3  17   10.70    2.55
   5   3  17    1.49    1.89
   6   3  17    0.28    1.88
   7   3  17    0.39    1.61
   8   3  17    5.90    2.47
   9   3  17   -0.32    2.27
  -5   4  17    1.51    3.79
  -4   4  17    1.29    2.63
  -3   4  17   -0.30    2.38
  -2   4  17    1.65    2.42
  -1   4  17   -3.60    2.02
   0   4  17    2.84    2.19
   1   4  17   -3.64    2.11
   2   4  17   -2.08    2.66
   3   4  17    0.54    2.99
   4   4  17   -0.25    2.27
   5   4  17    3.04    2.42
   6   4  17    3.58    3.99
  -5  -4  18    3.01    3.27
  -4  -4  18    2.83    2.50
  -3  -4  18    1.71    2.23
  -2  -4  18   10.79    3.15
  -1  -4  18    1.02    3.10
   0  -4  18    5.43    2.45
   1  -4  18   -0.41    2.14
   2  -4  18   17.68    3.18
   3  -4  18    1.86    2.19
   4  -4  18    1.47    3.64
   5  -4  18   -0.78    3.88
  -9  -3  18    2.89    4.16
  -8  -3  18    1.32    2.32
  -7  -3  18    7.35    2.48
  -6  -3  18   -0.54    2.16
  -5  -3  18    1.81    2.04
  -4  -3  18    4.73    2.19
  -3  -3  18    0.57    1.84
  -2  -3  18    3.11    2.04
  -1  -3  18    3.26    2.85
   0  -3  18   -0.85    1.51
   1  -3  18    6.85    2.05
   2  -3  18    9.60    2.16
   3  -3  18    0.17    2.68
   4  -3  18    2.95    2.58
   5  -3  18    0.60    2.40
   6  -3  18    0.86    2.56
   7  -3  18   13.52    3.33
   8  -3  18   -0.39    2.73
 -10  -2  18    2.74    2.26
  -9  -2  18    4.46    2.36
  -8  -2  18    1.33    1.66
  -7  -2  18   -0.25    1.58
  -6  -2  18    3.07    1.98
  -5  -2  18   -0.43    1.78
  -4  -2  18    5.33    1.95
  -3  -2  18    4.02    1.73
  -2  -2  18   70.37    4.84
  -1  -2  18    0.98    1.57
   0  -2  18   13.50    2.06
   1  -2  18    0.86    1.25
   2  -2  18   62.90    4.83
   3  -2  18    1.42    2.20
   4  -2  18    6.38    2.36
   5  -2  18    1.37    2.25
   6  -2  18    8.31    2.56
   7  -2  18    0.17    2.36
   8  -2  18    3.41    2.58
   9  -2  18    4.78    2.60
  10  -2  18    1.47    2.63
 -11  -1  18    0.10    2.17
 -10  -1  18   -2.45    2.14
  -9  -1  18   -2.74    1.77
  -8  -1  18   -0.04    1.91
  -7  -1  18   28.04    3.20
  -6  -1  18   -0.57    1.54
  -5  -1  18    3.23    1.73
  -4  -1  18    0.84    1.70
  -3  -1  18    8.66    2.05
  -2  -1  18   13.89    1.74
  -1  -1  18    8.37    1.52
   0  -1  18    1.64    1.13
   1  -1  18    9.59    1.87
   2  -1  18   18.66    2.27
   3  -1  18    6.16    1.77
   4  -1  18    0.42    1.61
   5  -1  18    2.62    1.73
   6  -1  18    1.70    1.80
   7  -1  18   23.44    3.05
   8  -1  18    2.92    2.78
   9  -1  18   -0.39    2.07
  10  -1  18    1.03    1.99
  11  -1  18   -0.57    2.36
 -12   0  18   -2.15    4.13
 -11   0  18    0.74    2.57
 -10   0  18   -0.53    2.29
  -9   0  18   -0.87    2.13
  -8   0  18    3.28    1.91
  -7   0  18   -1.99    1.61
  -6   0  18    4.56    1.99
  -5   0  18    2.86    1.70
  -4   0  18   10.16    1.95
  -3   0  18   11.36    1.97
  -2   0  18   90.10    5.44
  -1   0  18   -1.67    1.02
   0   0  18   24.03    2.59
   1   0  18    1.34    1.26
   2   0  18   89.76    5.40
   3   0  18    6.35    1.79
   4   0  18   12.01    2.10
   5   0  18    3.19    1.65
   6   0  18    5.74    1.88
   7   0  18    0.15    1.68
   8   0  18    2.45    1.79
   9   0  18    1.40    1.82
  10   0  18    5.14    2.34
  11   0  18   -2.27    1.95
  12   0  18   -0.31    3.69
 -11   1  18   -1.91    2.61
 -10   1  18    0.76    2.03
  -9   1  18    4.15    2.03
  -8   1  18    2.25    1.81
  -7   1  18   30.81    2.92
  -6   1  18   -1.37    1.54
  -5   1  18    1.73    1.60
  -4   1  18    9.70    1.73
  -3   1  18    2.57    1.42
  -2   1  18   13.32    2.31
  -1   1  18   11.81    2.10
   0   1  18    3.32    1.55
   1   1  18    8.29    1.84
   2   1  18   16.04    1.84
   3   1  18    6.41    1.75
   4   1  18    4.09    1.62
   5   1  18    0.86    1.51
   6   1  18    0.94    1.58
   7   1  18   19.65    2.24
   8   1  18    1.46    1.78
   9   1  18    1.03    1.75
  10   1  18    0.58    1.99
  11   1  18    0.68    2.21
 -10   2  18    4.27    3.11
  -9   2  18    2.86    2.94
  -8   2  18   -1.29    2.23
  -7   2  18   -0.02    2.18
  -6   2  18    3.24    2.49
  -5   2  18    0.25    2.07
  -4   2  18    3.04    2.29
  -3   2  18   -0.32    1.79
  -2   2  18   49.55    4.79
  -1   2  18    0.83    1.73
   0   2  18   12.66    1.92
   1   2  18    0.62    1.32
   2   2  18   56.32    3.84
   3   2  18   -0.62    1.46
   4   2  18    7.02    2.10
   5   2  18    0.25    1.57
   6   2  18    2.47    1.82
   7   2  18    0.21    1.35
   8   2  18   -0.80    1.42
   9   2  18    0.44    1.95
  10   2  18   -0.59    1.78
  -8   3  18    2.32    4.29
  -7   3  18   14.22    5.22
  -6   3  18   -0.29    2.71
  -5   3  18    0.33    2.57
  -4   3  18    3.43    2.51
  -3   3  18    1.92    2.26
  -2   3  18    0.15    1.87
  -1   3  18    3.57    1.75
   0   3  18    0.82    1.51
   1   3  18    4.10    1.68
   2   3  18    8.95    2.38
   3   3  18   -0.69    1.81
   4   3  18    7.04    2.29
   5   3  18    1.74    1.93
   6   3  18    1.95    2.02
   7   3  18    5.96    1.97
   8   3  18    1.90    1.86
   9   3  18    0.81    3.59
  -4   4  18    4.08    3.01
  -3   4  18   -0.72    2.62
  -2   4  18   23.85    3.65
  -1   4  18    1.09    2.49
   0   4  18    6.08    2.58
   1   4  18   -2.54    2.30
   2   4  18   28.55    5.06
   3   4  18    2.51    3.01
   4   4  18    4.36    2.57
   5   4  18    1.08    3.86
  -4  -4  19   -3.65    3.31
  -3  -4  19    2.35    2.41
  -2  -4  19    0.85    2.42
  -1  -4  19    1.30    3.33
   0  -4  19    0.58    3.25
   1  -4  19   -1.17    2.24
   2  -4  19    1.66    2.22
   3  -4  19    0.51    2.21
   4  -4  19    0.87    3.98
  -8  -3  19   -2.92    3.26
  -7  -3  19    3.00    2.46
  -6  -3  19    0.86    2.32
  -5  -3  19    0.68    2.19
  -4  -3  19    4.32    2.27
  -3  -3  19    1.43    2.00
  -2  -3  19    0.32    1.89
  -1  -3  19   -2.70    2.61
   0  -3  19   11.55    2.27
   1  -3  19   -1.00    1.72
   2  -3  19   -0.51    1.79
   3  -3  19    1.39    2.64
   4  -3  19    3.34    2.46
   5  -3  19   -0.14    2.45
   6  -3  19   -1.24    2.56
   7  -3  19    4.47    2.89
   8  -3  19    4.08    4.86
 -10  -2  19    0.22    3.32
  -9  -2  19   20.36    3.29
  -8  -2  19   -0.12    2.00
  -7  -2  19   -0.56    1.99
  -6  -2  19    1.84    2.03
  -5  -2  19   14.04    2.51
  -4  -2  19    1.38    1.76
  -3  -2  19    6.23    1.98
  -2  -2  19    0.28    1.69
  -1  -2  19   -0.45    1.46
   0  -2  19   -2.89    1.86
   1  -2  19    1.19    1.39
   2  -2  19    3.46    1.84
   3  -2  19   -0.48    3.74
   4  -2  19    1.28    2.24
   5  -2  19   13.90    2.85
   6  -2  19    3.68    2.52
   7  -2  19   -3.71    2.38
   8  -2  19    4.27    2.69
   9  -2  19   14.88    3.37
  10  -2  19    2.02    4.06
 -11  -1  19    0.72    3.30
 -10  -1  19   -1.46    2.24
  -9  -1  19    2.35    2.24
  -8  -1  19    5.90    2.12
  -7  -1  19    6.51    2.10
  -6  -1  19    0.91    1.85
  -5  -1  19   -2.87    1.57
  -4  -1  19    2.28    1.71
  -3  -1  19    3.85    1.93
  -2  -1  19    0.63    1.58
  -1  -1  19    1.03    1.55
   0  -1  19    6.67    1.85
   1  -1  19    3.90    1.61
   2  -1  19    1.38    1.54
   3  -1  19    5.29    1.73
   4  -1  19    2.74    1.87
   5  -1  19    2.52    1.75
   6  -1  19    3.38    1.98
   7  -1  19    4.25    1.92
   8  -1  19   -0.30    2.85
   9  -1  19    2.48    2.54
  10  -1  19    1.41    2.27
  11  -1  19   -4.32    3.52
 -11   0  19   -0.54    2.68
 -10   0  19    4.45    2.58
  -9   0  19   29.91    3.67
  -8   0  19    7.24    2.29
  -7   0  19    1.91    1.78
  -6   0  19   -0.08    1.74
  -5   0  19   18.44    2.56
  -4   0  19    2.11    1.65
  -3   0  19    9.62    1.91
  -2   0  19    3.84    1.58
  -1   0  19    0.74    1.08
   0   0  19   -3.54    1.16
   1   0  19   -1.19    1.19
   2   0  19    4.98    1.24
   3   0  19    5.16    1.71
   4   0  19    2.73    1.70
   5   0  19   15.75    2.38
   6   0  19   -1.88    1.50
   7   0  19    0.94    1.81
   8   0  19    5.68    2.02
   9   0  19   19.30    2.95
  10   0  19   -3.31    2.07
  11   0  19    1.63    2.21
 -11   1  19    6.25    2.97
 -10   1  19    0.70    2.07
  -9   1  19    1.28    1.98
  -8   1  19   -0.05    1.81
  -7   1  19    8.76    2.05
  -6   1  19   -0.71    1.57
  -5   1  19   -0.43    1.53
  -4   1  19    2.06    1.57
  -3   1  19    6.73    1.95
  -2   1  19    1.73    1.64
  -1   1  19   -0.49    1.44
   0   1  19    9.44    1.92
   1   1  19   -1.53    1.44
   2   1  19    0.19    1.23
   3   1  19    1.66    1.63
   4   1  19    3.65    1.74
   5   1  19   -0.72    1.45
   6   1  19   -1.74    1.49
   7   1  19    5.17    2.04
   8   1  19    1.64    1.95
   9   1  19    2.47    2.11
  10   1  19    3.01    2.16
  11   1  19   -5.34    1.97
 -10   2  19    3.18    3.23
  -9   2  19   13.05    3.71
  -8   2  19    2.16    2.32
  -7   2  19   -1.90    2.40
  -6   2  19    0.98    2.35
  -5   2  19    8.00    2.83
  -4   2  19   -0.88    2.14
  -3   2  19    2.08    2.17
  -2   2  19    1.74    1.98
  -1   2  19   -2.32    1.68
   0   2  19    0.20    1.43
   1   2  19   -0.24    1.34
   2   2  19   -0.27    1.69
   3   2  19    6.76    2.03
   4   2  19    1.50    1.64
   5   2  19    7.89    2.19
   6   2  19    2.22    1.82
   7   2  19    1.81    1.49
   8   2  19   -0.97    1.52
   9   2  19    6.32    2.42
  10   2  19   -2.50    2.99
  -7   3  19    3.69    4.76
  -6   3  19    1.94    2.95
  -5   3  19    6.73    3.01
  -4   3  19    7.75    2.79
  -3   3  19    4.27    2.61
  -2   3  19   -0.45    1.85
  -1   3  19    1.25    1.81
   0   3  19    9.69    1.90
   1   3  19   -1.57    1.70
   2   3  19   -0.07    2.08
   3   3  19    0.93    2.01
   4   3  19    3.53    2.32
   5   3  19    1.98    2.09
   6   3  19    2.14    2.26
   7   3  19    4.65    1.92
   8   3  19   -0.62    1.79
  -4   4  19   -0.44    4.68
  -3   4  19    4.11    2.91
  -2   4  19    3.10    2.87
  -1   4  19   -1.84    2.36
   0   4  19    2.07    2.41
   1   4  19   -1.61    3.20
   2   4  19    1.62    3.19
   3   4  19    3.35    3.75
   4   4  19    5.66    4.08
   5   4  19    3.47    4.36
  -2  -4  20    0.69    3.60
  -1  -4  20   -2.55    3.26
   0  -4  20    1.26    3.71
   1  -4  20   -0.26    2.27
   2  -4  20    0.98    2.40
   3  -4  20    3.82    3.50
  -8  -3  20    3.87    4.66
  -7  -3  20   14.92    3.13
  -6  -3  20    0.71    2.41
  -5  -3  20    0.22    2.25
  -4  -3  20    0.92    2.04
  -3  -3  20    3.27    2.22
  -2  -3  20    3.73    2.18
  -1  -3  20    5.77    2.27
   0  -3  20    0.21    2.59
   1  -3  20    6.20    2.23
   2  -3  20    3.75    1.96
   3  -3  20    5.66    2.90
   4  -3  20   -0.20    2.91
   5  -3  20    0.41    2.65
   6  -3  20   -1.06    2.51
   7  -3  20   19.31    3.61
  -9  -2  20   -2.09    2.06
  -8  -2  20    0.78    2.04
  -7  -2  20    6.93    2.36
  -6  -2  20    0.72    2.09
  -5  -2  20   -0.37    2.52
  -4  -2  20   -0.22    1.88
  -3  -2  20    1.10    1.71
  -2  -2  20    0.33    1.75
  -1  -2  20    0.12    1.72
   0  -2  20    1.54    1.73
   1  -2  20    0.06    1.39
   2  -2  20   -3.79    1.71
   3  -2  20   -3.75    4.01
   4  -2  20   -1.98    3.96
   5  -2  20    1.00    2.52
   6  -2  20    0.28    2.41
   7  -2  20    6.01    3.01
   8  -2  20   -0.32    2.88
   9  -2  20    1.05    2.93
 -10  -1  20    0.73    2.19
  -9  -1  20   -0.19    2.18
  -8  -1  20   -1.11    1.97
  -7  -1  20   21.49    3.05
  -6  -1  20    1.37    1.76
  -5  -1  20    5.52    1.97
  -4  -1  20    2.87    1.77
  -3  -1  20    7.77    1.97
  -2  -1  20    8.79    2.08
  -1  -1  20   14.46    2.29
   0  -1  20   -1.40    1.53
   1  -1  20   10.82    2.12
   2  -1  20    9.56    2.08
   3  -1  20    5.81    1.85
   4  -1  20    3.27    1.94
   5  -1  20    4.11    2.04
   6  -1  20    2.60    2.03
   7  -1  20   23.72    4.36
   8  -1  20    3.04    3.06
   9  -1  20    0.24    2.53
  10  -1  20    0.07    2.50
 -11   0  20    4.98    4.32
 -10   0  20    0.68    2.23
  -9   0  20    2.09    2.35
  -8   0  20    1.76    2.02
  -7   0  20   12.23    2.28
  -6   0  20    1.35    1.82
  -5   0  20   -1.18    1.59
  -4   0  20    4.81    1.71
  -3   0  20    5.33    1.71
  -2   0  20    0.31    1.17
  -1   0  20    0.96    1.55
   0   0  20    0.31    1.38
   1   0  20    1.17    1.39
   2   0  20   -0.44    1.37
   3   0  20    3.29    1.64
   4   0  20    1.27    1.64
   5   0  20   -2.07    2.17
   6   0  20    2.67    1.81
   7   0  20    4.67    1.96
   8   0  20   -0.99    1.81
   9   0  20    0.14    2.00
  10   0  20   -4.81    1.93
  11   0  20    1.31    3.82
 -10   1  20   -1.05    2.07
  -9   1  20   -0.55    1.97
  -8   1  20    2.28    2.01
  -7   1  20   24.61    2.64
  -6   1  20    7.00    1.89
  -5   1  20    6.68    1.80
  -4   1  20    4.22    1.99
  -3   1  20    5.61    2.00
  -2   1  20   11.46    2.26
  -1   1  20   16.32    2.35
   0   1  20    0.29    1.51
   1   1  20   10.58    2.08
   2   1  20   16.08    2.40
   3   1  20    2.67    1.73
   4   1  20    2.15    1.75
   5   1  20    3.36    1.82
   6   1  20   -0.80    1.83
   7   1  20   16.76    2.75
   8   1  20    0.08    1.83
   9   1  20    0.36    2.03
  10   1  20    1.74    2.23
 -10   2  20    0.04    4.78
  -9   2  20   -0.57    2.99
  -8   2  20   -0.47    2.57
  -7   2  20    4.31    2.66
  -6   2  20   -1.26    2.32
  -5   2  20    1.90    2.44
  -4   2  20   -1.26    2.05
  -3   2  20    0.65    2.06
  -2   2  20    0.95    1.96
  -1   2  20    1.25    1.90
   0   2  20    1.66    1.47
   1   2  20    1.30    1.51
   2   2  20   -1.01    1.66
   3   2  20    2.07    1.75
   4   2  20    0.96    1.70
   5   2  20   -0.25    1.76
   6   2  20    0.78    1.91
   7   2  20    2.22    1.68
   8   2  20   -1.52    1.82
   9   2  20    0.33    2.19
  -7   3  20   16.99    4.40
  -6   3  20    7.02    3.53
  -5   3  20    8.40    3.20
  -4   3  20    0.90    2.72
  -3   3  20   10.70    2.96
  -2   3  20    3.89    2.12
  -1   3  20    6.49    2.21
   0   3  20    0.75    1.87
   1   3  20    6.71    2.05
   2   3  20    3.05    2.36
   3   3  20    3.48    2.40
   4   3  20    0.68    2.33
   5   3  20    3.16    2.46
   6   3  20    3.91    2.39
   7   3  20   11.30    2.35
   8   3  20    1.21    3.48
  -3   4  20   -2.90    4.46
  -2   4  20   -2.17    2.84
  -1   4  20   -2.39    2.72
   0   4  20   -0.83    2.62
  -6  -3  21    1.89    2.60
  -5  -3  21    4.06    2.49
  -4  -3  21    3.27    2.38
  -3  -3  21    0.65    2.08
  -2  -3  21    1.91    2.14
  -1  -3  21    2.48    2.12
   0  -3  21    1.20    2.86
   1  -3  21   -1.56    2.54
   2  -3  21    2.16    2.00
   3  -3  21    1.51    1.94
   4  -3  21    1.80    3.20
   5  -3  21    0.25    2.51
   6  -3  21    3.29    2.86
   7  -3  21    1.05    5.53
  -8  -2  21    9.08    2.57
  -7  -2  21    2.76    2.21
  -6  -2  21    2.39    2.11
  -5  -2  21    8.16    2.54
  -4  -2  21   16.66    4.10
  -3  -2  21    4.38    2.85
  -2  -2  21    0.30    2.45
  -1  -2  21   -0.55    1.81
   0  -2  21    0.87    1.77
   1  -2  21    2.65    2.40
   2  -2  21   -0.30    2.08
   3  -2  21    0.41    4.50
   4  -2  21   15.58    5.38
   5  -2  21    5.44    4.67
   6  -2  21    1.21    2.62
   7  -2  21    4.47    3.01
   8  -2  21    7.88    3.37
   9  -2  21    7.91    4.76
  -9  -1  21   -3.82    2.18
  -8  -1  21    6.12    2.42
  -7  -1  21   -0.67    1.94
  -6  -1  21    3.40    2.11
  -5  -1  21    3.82    1.84
  -4  -1  21    5.84    1.99
  -3  -1  21   -2.04    1.61
  -2  -1  21    4.35    1.88
  -1  -1  21    1.75    1.64
   0  -1  21   -2.43    1.47
   1  -1  21   -1.88    1.65
   2  -1  21    5.97    1.86
   3  -1  21    4.12    2.66
   4  -1  21    6.02    2.20
   5  -1  21    6.84    2.19
   6  -1  21    4.31    2.19
   7  -1  21    2.51    3.08
   8  -1  21    3.59    3.21
   9  -1  21   -0.34    2.48
  10  -1  21   -0.35    3.65
 -10   0  21    6.30    2.82
  -9   0  21    3.74    2.50
  -8   0  21   20.35    3.17
  -7   0  21   -1.35    1.92
  -6   0  21    1.33    1.96
  -5   0  21   13.54    2.43
  -4   0  21   31.15    3.18
  -3   0  21    2.20    1.69
  -2   0  21    1.19    1.53
  -1   0  21   -1.72    1.35
   0   0  21    1.77    1.46
   1   0  21   -0.95    1.40
   2   0  21   -1.42    1.48
   3   0  21   -3.44    1.40
   4   0  21   28.17    3.20
   5   0  21    6.28    3.05
   6   0  21   -1.08    1.74
   7   0  21   -0.30    1.74
   8   0  21   13.67    2.73
   9   0  21    6.58    2.48
  10   0  21    2.20    2.34
 -10   1  21    6.22    2.42
  -9   1  21   -2.35    1.88
  -8   1  21    1.36    1.97
  -7   1  21    2.85    1.87
  -6   1  21    3.02    2.18
  -5   1  21    0.34    1.89
  -4   1  21    2.67    1.86
  -3   1  21    0.72    1.78
  -2   1  21    5.66    1.77
  -1   1  21    1.95    1.68
   0   1  21   -1.48    1.45
   1   1  21    0.58    1.27
   2   1  21    3.67    1.83
   3   1  21    0.80    1.66
   4   1  21    5.80    1.92
   5   1  21    2.02    1.94
   6   1  21    5.76    2.13
   7   1  21    1.10    1.97
   8   1  21    1.02    1.90
   9   1  21    0.29    2.07
  10   1  21   -2.82    3.47
  -8   2  21   12.76    3.33
  -7   2  21    2.02    2.54
  -6   2  21    3.91    2.59
  -5   2  21    7.34    2.67
  -4   2  21   16.95    3.11
  -3   2  21    3.11    2.26
  -2   2  21    0.34    1.88
  -1   2  21    0.78    1.81
   0   2  21   -0.89    1.46
   1   2  21    1.18    1.46
   2   2  21   -0.03    1.79
   3   2  21    2.08    2.00
   4   2  21   11.11    2.49
   5   2  21    9.88    2.61
   6   2  21    3.76    2.12
   7   2  21   -1.18    1.61
   8   2  21    5.23    2.42
  -7   3  21    5.80    5.10
  -6   3  21    3.76    3.32
  -5   3  21    2.77    3.17
  -4   3  21    2.63    2.88
  -3   3  21    0.24    2.78
  -2   3  21    3.45    2.17
  -1   3  21   -1.82    1.86
   0   3  21   -0.45    1.78
   1   3  21    0.24    2.32
   2   3  21    2.61    2.31
   3   3  21   -0.56    2.27
   4   3  21    1.60    2.51
   5   3  21   -1.39    2.49
   6   3  21   -1.72    2.48
   7   3  21    3.36    3.39
  -1   4  21    3.96    4.63
  -5  -3  22    5.63    3.94
  -4  -3  22    2.88    2.60
  -3  -3  22   -1.55    2.03
  -2  -3  22    8.55    2.66
  -1  -3  22    2.18    2.25
   0  -3  22    2.29    2.30
   1  -3  22    2.43    3.05
   2  -3  22   11.30    3.60
   3  -3  22    5.47    2.32
   4  -3  22    0.18    2.76
   5  -3  22    0.57    3.02
   6  -3  22   -3.53    5.82
  -8  -2  22   -1.10    2.92
  -7  -2  22    0.75    2.25
  -6  -2  22    3.08    2.32
  -5  -2  22    1.99    2.21
  -4  -2  22    1.49    2.16
  -3  -2  22   14.45    3.84
  -2  -2  22    7.10    3.21
  -1  -2  22    2.32    2.96
   0  -2  22    3.91    3.20
   1  -2  22    2.23    2.89
   3  -2  22   15.53    2.82
   4  -2  22   -3.91    4.08
   5  -2  22    2.30    4.25
   6  -2  22   -2.69    4.37
   7  -2  22   -1.16    2.95
   8  -2  22    2.62    3.21
  -9  -1  22   -2.46    2.26
  -8  -1  22   -1.07    2.17
  -7  -1  22    3.38    2.27
  -6  -1  22   26.61    3.22
  -5  -1  22    5.41    2.05
  -4  -1  22    4.04    1.83
  -3  -1  22    0.38    1.70
  -2  -1  22   18.66    2.68
  -1  -1  22   -0.24    1.64
   0  -1  22    2.66    2.51
   1  -1  22    1.20    1.76
   2  -1  22   22.78    2.79
   3  -1  22    3.09    2.58
   4  -1  22    1.26    2.00
   5  -1  22    4.69    2.21
   6  -1  22   17.43    4.01
   7  -1  22    7.36    3.42
   8  -1  22    0.57    3.19
   9  -1  22    0.12    2.71
 -10   0  22   -0.32    4.36
  -9   0  22    0.43    2.56
  -8   0  22    1.07    2.17
  -7   0  22    2.96    2.19
  -6   0  22   -0.73    1.97
  -5   0  22   -3.12    1.63
  -4   0  22    2.94    1.82
  -3   0  22   22.90    2.86
  -2   0  22   10.52    1.99
  -1   0  22    0.61    1.45
   0   0  22   11.44    2.09
   1   0  22   -1.17    1.45
   2   0  22    3.81    1.91
   3   0  22   25.26    3.01
   4   0  22    1.14    1.85
   5   0  22   -0.90    2.52
   6   0  22    2.19    1.99
   7   0  22   -1.98    1.92
   8   0  22   -0.86    2.11
   9   0  22    0.46    2.14
  10   0  22   -0.16    3.95
  -9   1  22   -0.52    2.09
  -8   1  22    3.06    2.02
  -7   1  22    7.05    2.46
  -6   1  22   17.57    2.96
  -5   1  22    9.31    2.37
  -4   1  22    2.05    1.94
  -3   1  22    3.07    1.83
  -2   1  22   21.14    2.80
  -1   1  22   -0.96    1.63
   0   1  22   -4.31    1.46
   1   1  22   -2.14    1.41
   2   1  22   15.53    2.64
   3   1  22    0.12    1.70
   4   1  22    1.86    1.78
   5   1  22    2.24    2.01
   6   1  22   18.97    3.11
   7   1  22    5.04    2.09
   8   1  22    2.23    2.32
   9   1  22   -0.21    2.19
  -8   2  22    0.02    3.50
  -7   2  22   -1.46    2.38
  -6   2  22    0.85    2.44
  -5   2  22   -1.93    2.23
  -4   2  22    2.45    2.35
  -3   2  22   20.74    3.17
  -2   2  22    7.03    2.43
  -1   2  22    0.29    1.96
   0   2  22    2.05    1.68
   1   2  22   -1.05    1.86
   2   2  22    7.89    2.35
   3   2  22   15.08    2.74
   4   2  22    0.00    1.91
   5   2  22   -0.47    1.95
   6   2  22   -0.04    2.25
   7   2  22   -0.25    1.73
   8   2  22    3.21    3.46
  -6   3  22    9.39    4.60
  -5   3  22    1.57    3.08
  -4   3  22    1.38    2.78
  -3   3  22    2.21    2.15
  -2   3  22    7.46    2.42
  -1   3  22    4.50    2.33
   0   3  22   -0.30    1.97
   1   3  22    3.90    2.63
   2   3  22    7.37    2.89
   3   3  22    1.87    2.69
   4   3  22    1.15    2.70
   5   3  22    0.73    2.74
  -4  -3  23   -3.45    3.04
  -3  -3  23    1.57    3.39
  -2  -3  23   -3.49    3.05
  -1  -3  23    1.63    2.38
   0  -3  23    5.21    2.47
   1  -3  23    6.27    3.32
   2  -3  23   -0.49    3.19
   3  -3  23    3.58    3.36
   4  -3  23    0.74    2.99
   5  -3  23    4.69    3.72
  -7  -2  23   -1.58    2.31
  -6  -2  23    0.37    2.31
  -5  -2  23    1.96    2.31
  -4  -2  23    6.73    2.68
  -3  -2  23    1.25    2.24
  -2  -2  23    3.54    2.34
  -1  -2  23    1.26    2.26
   0  -2  23   -0.39    2.90
   4  -2  23   11.36    4.95
   5  -2  23    5.59    4.60
   6  -2  23    2.45    4.31
   7  -2  23   -5.21    4.44
  -8  -1  23   -0.61    2.43
  -7  -1  23    2.67    2.26
  -6  -1  23   -0.23    2.06
  -5  -1  23   13.20    2.52
  -4  -1  23    1.70    1.88
  -3  -1  23    3.60    1.94
  -2  -1  23    0.00    1.73
  -1  -1  23   10.48    3.08
   0  -1  23   14.68    2.46
   1  -1  23   13.03    3.53
   2  -1  23   -0.45    1.72
   3  -1  23    2.85    2.79
   4  -1  23   -0.45    1.97
   5  -1  23   10.24    2.56
   6  -1  23    6.58    3.64
   7  -1  23    2.56    3.30
   8  -1  23   -0.76    3.36
  -9   0  23    0.28    3.78
  -8   0  23   -0.01    2.21
  -7   0  23    6.06    2.37
  -6   0  23   -1.18    1.85
  -5   0  23    1.96    2.68
  -4   0  23   11.35    2.33
  -3   0  23    0.83    1.63
  -2   0  23    5.47    1.82
  -1   0  23    3.43    1.80
   0   0  23    2.34    1.75
   1   0  23    7.06    2.81
   2   0  23    0.86    1.79
   3   0  23    2.31    1.88
   4   0  23    9.20    2.27
   5   0  23    3.97    2.97
   6   0  23   -0.66    2.06
   7   0  23    0.44    2.09
   8   0  23   -1.29    2.20
   9   0  23    1.48    3.46
  -9   1  23   -3.36    3.43
  -8   1  23    0.05    2.37
  -7   1  23   -1.03    2.18
  -6   1  23    3.31    2.24
  -5   1  23   12.63    2.59
  -4   1  23   -0.44    1.81
  -3   1  23    5.07    2.09
  -2   1  23    2.04    1.79
  -1   1  23    8.21    2.11
   0   1  23   12.07    2.34
   1   1  23    8.78    2.32
   2   1  23    0.45    1.81
   3   1  23    3.41    2.05
   4   1  23   -0.83    1.75
   5   1  23    7.04    2.56
   6   1  23   -2.10    2.78
   7   1  23    3.06    2.20
   8   1  23    0.81    2.38
  -7   2  23    1.62    2.85
  -6   2  23    3.72    2.62
  -5   2  23    1.89    2.36
  -4   2  23    7.71    2.57
  -3   2  23    3.33    2.34
  -2   2  23    1.37    2.24
  -1   2  23    4.27    2.18
   0   2  23    0.90    1.70
   1   2  23    0.85    1.98
   2   2  23    1.75    2.08
   3   2  23   -0.98    1.84
   4   2  23    7.41    2.49
   5   2  23    0.77    2.22
   6   2  23    0.25    2.16
   7   2  23   -0.22    1.78
  -4   3  23   -0.29    2.79
  -3   3  23   -0.55    2.14
  -2   3  23   -1.95    2.23
  -1   3  23    2.58    2.26
   0   3  23    2.83    2.67
   1   3  23    4.41    2.73
   2   3  23   -3.69    2.56
   3   3  23    5.54    2.99
   4   3  23    1.07    2.81
  -2  -3  24    6.60    3.69
  -1  -3  24   -3.98    3.21
   0  -3  24    1.11    3.70
   1  -3  24    4.07    3.78
   3  -3  24    0.16    3.14
  -6  -2  24    2.86    2.45
  -5  -2  24    0.03    2.36
  -4  -2  24   -0.26    2.26
  -3  -2  24   19.64    3.12
  -2  -2  24   -2.08    2.24
  -1  -2  24    0.46    2.22
   0  -2  24    8.92    3.94
   5  -2  24    1.47    4.38
   6  -2  24    3.15    4.51
  -8  -1  24   -0.58    3.69
  -7  -1  24   -1.72    2.37
  -6  -1  24    1.73    2.23
  -5  -1  24    0.47    1.96
  -4  -1  24    1.07    1.87
  -3  -1  24   -3.37    2.28
  -2  -1  24    1.35    2.73
  -1  -1  24   -1.78    1.84
   0  -1  24    2.04    1.89
   1  -1  24    5.99    3.10
   2  -1  24    4.15    1.93
   3  -1  24    3.87    2.86
   4  -1  24    1.68    2.09
   5  -1  24   -6.54    2.74
   6  -1  24    3.20    3.45
   7  -1  24    1.15    3.21
   8  -1  24   -4.61    3.62
  -8   0  24   -1.12    2.31
  -7   0  24    3.52    2.31
  -6   0  24    4.99    2.23
  -5   0  24   -1.36    1.86
  -4   0  24    3.04    1.95
  -3   0  24   12.65    2.48
  -2   0  24    1.05    1.67
  -1   0  24    3.33    1.91
   0   0  24   21.67    2.77
   1   0  24    0.37    2.36
   2   0  24    1.72    1.85
   3   0  24   19.04    2.81
   4   0  24   -3.93    2.54
   5   0  24    0.88    2.73
   6   0  24    1.72    2.14
   7   0  24   -3.39    1.95
   8   0  24   -1.41    2.30
  -8   1  24   -2.68    3.21
  -7   1  24    2.86    2.10
  -6   1  24    1.31    2.29
  -5   1  24    0.33    1.95
  -4   1  24   -0.52    1.83
  -3   1  24    1.41    1.90
  -2   1  24    1.75    1.90
  -1   1  24    1.53    1.80
   0   1  24   -1.84    1.66
   1   1  24    3.50    1.99
   2   1  24    1.42    1.96
   3   1  24   -2.00    1.79
   4   1  24   -1.37    1.98
   5   1  24    2.68    2.25
   6   1  24   -1.34    2.82
   7   1  24    2.51    2.25
  -6   2  24    0.35    2.57
  -5   2  24   -1.54    2.33
  -4   2  24   -0.54    2.25
  -3   2  24    7.67    2.70
  -2   2  24   -0.66    2.16
  -1   2  24    5.77    1.92
   0   2  24    9.22    2.55
   1   2  24    4.77    2.22
   2   2  24   -2.62    2.07
   3   2  24    8.57    2.68
   4   2  24   -1.75    1.99
   5   2  24   -0.13    2.12
   6   2  24    0.34    2.49
  -3   3  24    3.77    3.02
  -2   3  24   -4.09    2.71
  -1   3  24    1.27    2.74
   0   3  24   -0.62    2.50
   1   3  24   -0.18    3.88
   2   3  24   -1.85    3.46
   0  -3  25   -3.21    3.75
  -5  -2  25    0.85    2.67
  -4  -2  25    0.14    2.38
  -3  -2  25    0.51    2.39
  -2  -2  25   -2.44    2.35
  -1  -2  25    4.12    3.87
   0  -2  25    1.49    3.94
   5  -2  25    4.71    4.61
   6  -2  25   13.65    5.04
  -7  -1  25    1.03    3.48
  -6  -1  25   -3.45    2.23
  -5  -1  25    2.18    2.34
  -4  -1  25    2.17    2.98
  -3  -1  25    1.47    2.91
  -2  -1  25    5.49    3.08
  -1  -1  25   10.51    2.54
   0  -1  25    0.25    1.98
   1  -1  25   11.86    3.88
   2  -1  25    8.65    3.40
   3  -1  25    1.86    2.89
   4  -1  25   -1.51    2.19
   5  -1  25    6.24    3.77
   6  -1  25   -2.40    3.31
   7  -1  25   -0.81    3.57
  -7   0  25    1.62    2.40
  -6   0  25    1.75    2.27
  -5   0  25    4.95    2.21
  -4   0  25   -1.57    1.91
  -3   0  25   -0.09    1.86
  -2   0  25    2.88    2.00
  -1   0  25   -2.37    1.69
   0   0  25   -0.42    2.55
   1   0  25    4.10    1.99
   2   0  25   -2.38    1.81
   3   0  25    3.27    2.12
   4   0  25    4.75    3.38
   5   0  25    3.86    2.24
   6   0  25    2.87    2.21
   7   0  25    1.40    2.46
   8   0  25    2.67    4.41
  -6   1  25   -1.77    2.11
  -5   1  25    2.85    2.15
  -4   1  25    1.34    2.03
  -3   1  25    1.64    2.01
  -2   1  25    4.06    2.13
  -1   1  25   12.28    2.43
   0   1  25    2.85    2.83
   1   1  25    1.85    2.04
   2   1  25    5.32    2.19
   3   1  25    2.77    2.24
   4   1  25   -0.02    2.05
   5   1  25    1.84    2.22
   6   1  25    3.38    2.26
  -5   2  25    0.36    2.65
  -4   2  25   -1.36    2.33
  -3   2  25   -0.70    2.34
  -2   2  25   -2.17    2.12
  -1   2  25   -1.65    1.67
   0   2  25    0.78    2.14
   1   2  25    3.41    2.16
   2   2  25   -2.09    2.19
   3   2  25   -1.56    1.99
   4   2  25    1.60    2.54
   5   2  25    3.19    4.02
   6   2  25   -1.50    3.77
  -4  -2  26    5.37    3.57
  -3  -2  26    1.44    2.58
  -2  -2  26    4.08    3.86
  -1  -2  26    2.70    3.99
  -6  -1  26    2.04    3.77
  -5  -1  26    0.40    3.13
  -4  -1  26   -3.58    2.96
  -3  -1  26   -1.58    3.04
  -2  -1  26   -1.81    2.21
  -1  -1  26    4.78    2.32
   0  -1  26    0.89    2.93
   1  -1  26    3.43    2.14
   2  -1  26   -1.27    3.05
   3  -1  26   -0.17    3.09
   4  -1  26   -0.02    3.28
   5  -1  26    2.39    3.80
   6  -1  26    7.56    3.83
  -6   0  26    0.24    2.22
  -5   0  26    0.46    2.20
  -4   0  26    0.74    2.05
  -3   0  26    2.07    2.20
  -2   0  26    6.36    2.16
  -1   0  26    3.13    2.01
   0   0  26    2.50    2.95
   1   0  26    5.51    2.41
   2   0  26    4.09    2.24
   3   0  26    6.24    2.39
   4   0  26    0.79    3.06
   5   0  26    1.39    2.17
   6   0  26   -0.96    2.17
   7   0  26    2.10    3.66
  -5   1  26   -2.94    1.89
  -4   1  26    1.92    2.13
  -3   1  26    0.29    1.98
  -2   1  26   -0.61    1.94
  -1   1  26    4.39    2.22
   0   1  26    0.29    2.03
   1   1  26    3.55    2.26
   2   1  26    0.84    2.11
   3   1  26   -1.98    1.96
   4   1  26    0.06    2.09
   5   1  26    1.73    3.33
  -3   2  26    3.40    4.01
  -2   2  26    2.96    2.42
  -1   2  26    0.40    2.30
   0   2  26    3.41    2.30
   1   2  26    2.62    2.35
   2   2  26    0.10    2.47
   3   2  26    6.76    3.58
   4   2  26    3.44    4.02
  -2  -2  27   -2.07    3.69
  -1  -2  27    8.40    3.96
  -4  -1  27    2.27    3.48
  -3  -1  27    3.44    2.55
  -2  -1  27   -0.41    2.18
  -1  -1  27    4.47    2.42
   0  -1  27   13.98    4.15
   1  -1  27    1.77    2.32
   2  -1  27   -1.49    3.31
   3  -1  27    1.06    2.46
   4  -1  27    7.36    3.69
   5  -1  27    0.45    3.58
  -5   0  27    3.72    3.46
  -4   0  27    5.97    2.45
  -3   0  27   -0.93    2.06
  -2   0  27    3.57    2.15
  -1   0  27    3.21    2.27
   0   0  27   -0.38    2.61
   1   0  27    2.83    2.15
   2   0  27    0.99    2.16
   3   0  27    0.15    3.23
   4   0  27    2.05    3.40
   5   0  27    1.35    2.40
  -4   1  27   -0.73    3.31
  -3   1  27    1.16    2.28
  -2   1  27    2.02    2.18
  -1   1  27   -2.75    2.95
   0   1  27    8.04    2.58
   1   1  27    9.20    2.68
   2   1  27    3.95    2.31
   3   1  27    0.83    2.27
   4   1  27   -2.05    2.21
  -2   2  27    2.97    3.88
  -3  -1  28    2.20    3.37
  -2  -1  28   -2.66    2.25
  -1  -1  28    2.43    3.62
   0  -1  28   -0.93    3.32
   1  -1  28    3.97    3.33
   2  -1  28    0.43    3.39
   3  -1  28   -2.62    3.34
  -3   0  28    8.25    3.28
  -2   0  28    0.47    2.19
  -1   0  28    3.30    3.32
   0   0  28    0.82    3.37
   1   0  28    1.88    2.22
   2   0  28    2.12    2.33
   3   0  28   -0.73    3.51
  -3   1  28    0.76    3.43
  -2   1  28   -2.30    3.34
  -1   1  28   -1.90    3.14
   0   1  28    0.96    3.51
   1   1  28    3.24    3.37
   2   1  28   -1.73    3.31
   3   1  28    4.14    3.28
  -2   0  29    3.00    3.63
   1   0  29    3.88    3.63
   2   0  29    3.56    3.53
   0   0   0    0.00    0.00
;
_shelx_hkl_checksum              13484
loop_
_space_group_symop_operation_xyz
'x, y, z'
'-x+1/2, -y, z+1/2'
'-x, y+1/2, -z'
'x+1/2, -y+1/2, -z+1/2'
'-x, -y, -z'
'x-1/2, y, -z-1/2'
'x, -y-1/2, z'
'-x-1/2, y-1/2, z-1/2'
loop_
_atom_site_label
_atom_site_type_symbol
_atom_site_fract_x
_atom_site_fract_y
_atom_site_fract_z
_atom_site_U_iso_or_equiv
_atom_site_adp_type
_atom_site_occupancy
_atom_site_site_symmetry_order
_atom_site_calc_flag
_atom_site_refinement_flags_posn
_atom_site_refinement_flags_adp
_atom_site_refinement_flags_occupancy
_atom_site_disorder_assembly
_atom_site_disorder_group
Rb Rb 0.2137(3) 0.2500 0.45971(17) 0.116(2) Uani 1 2 d S T P . .
Ge1 Ge 0.29552(15) 0.2500 0.16066(9) 0.0166(4) Uani 1 2 d S T P . .
Ge2 Ge 0.42561(16) 0.2500 0.75740(9) 0.0180(4) Uani 1 2 d S T P . .
Ge3 Ge 0.52687(17) 0.2500 0.63529(10) 0.0216(4) Uani 1 2 d S T P . .
As1 As 0.05905(14) 0.2500 0.63417(9) 0.0159(3) Uani 1 2 d S T P . .
As2 As 0.10422(15) 0.2500 0.08359(9) 0.0191(4) Uani 1 2 d S T P . .
As3 As 0.22500(14) 0.2500 0.28219(9) 0.0174(4) Uani 1 2 d S T P . .
loop_
_atom_site_aniso_label
_atom_site_aniso_U_11
_atom_site_aniso_U_22
_atom_site_aniso_U_33
_atom_site_aniso_U_23
_atom_site_aniso_U_13
_atom_site_aniso_U_12
Rb 0.0414(15) 0.259(7) 0.0488(16) 0.000 -0.0014(12) 0.000
Ge1 0.0124(7) 0.0117(7) 0.0256(8) 0.000 0.0008(6) 0.000
Ge2 0.0167(7) 0.0112(7) 0.0262(9) 0.000 -0.0042(6) 0.000
Ge3 0.0200(8) 0.0124(7) 0.0324(9) 0.000 -0.0015(7) 0.000
As1 0.0130(6) 0.0121(7) 0.0228(8) 0.000 0.0002(5) 0.000
As2 0.0170(7) 0.0143(7) 0.0260(8) 0.000 -0.0014(6) 0.000
As3 0.0149(7) 0.0128(7) 0.0246(8) 0.000 -0.0006(5) 0.000
loop_
_atom_type_symbol
_atom_type_description
_atom_type_scat_dispersion_real
_atom_type_scat_dispersion_imag
_atom_type_scat_source
Ge Ge 0.1547 1.8001 'International Tables Vol C Tables 4.2.6.8 and 6.1.1.4'
As As 0.0499 2.0058 'International Tables Vol C Tables 4.2.6.8 and 6.1.1.4'
Rb Rb -0.9393 2.9676 'International Tables Vol C Tables 4.2.6.8 and 6.1.1.4'
loop_
_geom_angle_atom_site_label_1
_geom_angle_atom_site_label_2
_geom_angle_atom_site_label_3
_geom_angle
_geom_angle_site_symmetry_1
_geom_angle_site_symmetry_3
As3 Rb As2 130.40(8) . 2_565
As3 Rb As2 130.40(8) . 2
As2 Rb As2 64.19(6) 2_565 2
As3 Rb As1 156.61(10) . .
As2 Rb As1 67.78(6) 2_565 .
As2 Rb As1 67.78(6) 2 .
As3 Rb Ge3 59.25(6) . 5_666
As2 Rb Ge3 71.54(6) 2_565 5_666
As2 Rb Ge3 102.83(8) 2 5_666
As1 Rb Ge3 138.14(7) . 5_666
As3 Rb Ge3 59.25(6) . 5_656
As2 Rb Ge3 102.83(8) 2_565 5_656
As2 Rb Ge3 71.54(6) 2 5_656
As1 Rb Ge3 138.14(7) . 5_656
Ge3 Rb Ge3 60.90(5) 5_666 5_656
As3 Rb Rb 90.0 . 1_565
As2 Rb Rb 57.90(3) 2_565 1_565
As2 Rb Rb 122.10(3) 2 1_565
As1 Rb Rb 90.0 . 1_565
Ge3 Rb Rb 59.55(3) 5_666 1_565
Ge3 Rb Rb 120.45(3) 5_656 1_565
As3 Rb Rb 90.001(1) . 1_545
As2 Rb Rb 122.10(3) 2_565 1_545
As2 Rb Rb 57.90(3) 2 1_545
As1 Rb Rb 89.999(1) . 1_545
Ge3 Rb Rb 120.45(3) 5_666 1_545
Ge3 Rb Rb 59.55(3) 5_656 1_545
Rb Rb Rb 180.0 1_565 1_545
As3 Rb As1 63.55(6) . 5_556
As2 Rb As1 163.48(10) 2_565 5_556
As2 Rb As1 115.63(3) 2 5_556
As1 Rb As1 96.47(7) . 5_556
Ge3 Rb As1 122.75(9) 5_666 5_556
Ge3 Rb As1 92.24(6) 5_656 5_556
Rb Rb As1 119.68(2) 1_565 5_556
Rb Rb As1 60.32(3) 1_545 5_556
As3 Rb As1 63.55(6) . 5_566
As2 Rb As1 115.63(3) 2_565 5_566
As2 Rb As1 163.48(10) 2 5_566
As1 Rb As1 96.47(7) . 5_566
Ge3 Rb As1 92.24(6) 5_666 5_566
Ge3 Rb As1 122.75(9) 5_656 5_566
Rb Rb As1 60.32(3) 1_565 5_566
Rb Rb As1 119.68(2) 1_545 5_566
As1 Rb As1 59.36(5) 5_556 5_566
As3 Rb As2 76.33(7) . 6_656
As2 Rb As2 67.86(6) 2_565 6_656
As2 Rb As2 67.86(6) 2 6_656
As1 Rb As2 127.07(9) . 6_656
Ge3 Rb As2 37.32(4) 5_666 6_656
Ge3 Rb As2 37.32(4) 5_656 6_656
Rb Rb As2 90.000(1) 1_565 6_656
Rb Rb As2 90.0 1_545 6_656
As1 Rb As2 128.28(8) 5_556 6_656
As1 Rb As2 128.28(8) 5_566 6_656
As3 Rb Rb 109.73(10) . 5_556
As2 Rb Rb 116.89(11) 2_565 5_556
As2 Rb Rb 92.91(7) 2 5_556
As1 Rb Rb 49.29(6) . 5_556
Ge3 Rb Rb 164.25(11) 5_666 5_556
Ge3 Rb Rb 125.42(3) 5_656 5_556
Rb Rb Rb 112.20(3) 1_565 5_556
Rb Rb Rb 67.81(3) 1_545 5_556
As1 Rb Rb 47.17(5) 5_556 5_556
As1 Rb Rb 72.20(7) 5_566 5_556
As2 Rb Rb 156.57(5) 6_656 5_556
As3 Ge1 As2 109.80(8) . .
As3 Ge1 As1 112.09(6) . 2_564
As2 Ge1 As1 111.03(6) . 2_564
As3 Ge1 As1 112.09(6) . 2_554
As2 Ge1 As1 111.03(6) . 2_554
As1 Ge1 As1 100.55(8) 2_564 2_554
As1 Ge2 As3 100.43(7) 6_657 2
As1 Ge2 As3 100.43(7) 6_657 2_565
As3 Ge2 As3 99.12(8) 2 2_565
As1 Ge2 Ge3 122.78(8) 6_657 .
As3 Ge2 Ge3 115.19(6) 2 .
As3 Ge2 Ge3 115.19(6) 2_565 .
As2 Ge3 As2 97.22(8) 2 2_565
As2 Ge3 Ge2 98.25(7) 2 .
As2 Ge3 Ge2 98.25(7) 2_565 .
As2 Ge3 Rb 124.54(8) 2 5_666
As2 Ge3 Rb 78.85(6) 2_565 5_666
Ge2 Ge3 Rb 137.19(7) . 5_666
As2 Ge3 Rb 78.85(6) 2 5_656
As2 Ge3 Rb 124.54(8) 2_565 5_656
Ge2 Ge3 Rb 137.19(7) . 5_656
Rb Ge3 Rb 60.90(5) 5_666 5_656
Ge1 As1 Ge1 100.55(8) 2_565 2
Ge1 As1 Ge2 99.21(7) 2_565 6_557
Ge1 As1 Ge2 99.21(7) 2 6_557
Ge1 As1 Rb 85.84(6) 2_565 .
Ge1 As1 Rb 85.84(6) 2 .
Ge2 As1 Rb 172.02(9) 6_557 .
Ge1 As1 Rb 156.88(6) 2_565 5_556
Ge1 As1 Rb 99.09(4) 2 5_556
Ge2 As1 Rb 89.54(7) 6_557 5_556
Rb As1 Rb 83.53(7) . 5_556
Ge1 As1 Rb 99.09(4) 2_565 5_566
Ge1 As1 Rb 156.88(6) 2 5_566
Ge2 As1 Rb 89.54(7) 6_557 5_566
Rb As1 Rb 83.53(7) . 5_566
Rb As1 Rb 59.36(5) 5_556 5_566
Ge1 As2 Ge3 100.85(7) . 2_554
Ge1 As2 Ge3 100.85(7) . 2_564
Ge3 As2 Ge3 97.23(8) 2_554 2_564
Ge1 As2 Rb 89.05(7) . 2_554
Ge3 As2 Rb 98.12(5) 2_554 2_554
Ge3 As2 Rb 159.81(7) 2_564 2_554
Ge1 As2 Rb 89.05(7) . 2_564
Ge3 As2 Rb 159.81(7) 2_554 2_564
Ge3 As2 Rb 98.12(5) 2_564 2_564
Rb As2 Rb 64.19(6) 2_554 2_564
Ge1 As2 Rb 154.71(9) . 6_556
Ge3 As2 Rb 63.83(6) 2_554 6_556
Ge3 As2 Rb 63.83(6) 2_564 6_556
Rb As2 Rb 112.14(6) 2_554 6_556
Rb As2 Rb 112.14(6) 2_564 6_556
Ge1 As3 Ge2 90.06(6) . 2_554
Ge1 As3 Ge2 90.06(6) . 2_564
Ge2 As3 Ge2 99.12(8) 2_554 2_564
Ge1 As3 Rb 164.73(8) . .
Ge2 As3 Rb 99.78(7) 2_554 .
Ge2 As3 Rb 99.78(7) 2_564 .
loop_
_geom_bond_atom_site_label_1
_geom_bond_atom_site_label_2
_geom_bond_distance
_geom_bond_site_symmetry_2
Rb As3 3.380(4) .
Rb As2 3.538(3) 2_565
Rb As2 3.538(3) 2
Rb As1 3.673(4) .
Rb Ge3 3.709(3) 5_666
Rb Ge3 3.709(3) 5_656
Rb Rb 3.7595(7) 1_565
Rb Rb 3.7595(7) 1_545
Rb As1 3.796(3) 5_556
Rb As1 3.796(3) 5_566
Rb As2 4.055(3) 6_656
Rb Rb 4.976(6) 5_556
Ge1 As3 2.421(2) .
Ge1 As2 2.436(2) .
Ge1 As1 2.4440(14) 2_564
Ge1 As1 2.4440(14) 2_554
Ge2 As1 2.469(2) 6_657
Ge2 As3 2.4699(15) 2
Ge2 As3 2.4699(15) 2_565
Ge2 Ge3 2.541(3) .
Ge3 As2 2.5055(16) 2
Ge3 As2 2.5055(16) 2_565
Ge3 Rb 3.709(3) 5_666
Ge3 Rb 3.709(3) 5_656
As1 Ge1 2.4440(14) 2_565
As1 Ge1 2.4440(14) 2
As1 Ge2 2.469(2) 6_557
As1 Rb 3.796(3) 5_556
As1 Rb 3.796(3) 5_566
As2 Ge3 2.5054(16) 2_554
As2 Ge3 2.5054(16) 2_564
As2 Rb 3.538(3) 2_554
As2 Rb 3.538(3) 2_564
As2 Rb 4.055(3) 6_556
As3 Ge2 2.4699(15) 2_554
As3 Ge2 2.4699(15) 2_564
