#------------------------------------------------------------------------------
#$Date: 2021-04-06 12:42:09 +0300 (Tue, 06 Apr 2021) $
#$Revision: 263908 $
#$URL: file:///home/coder/svn-repositories/cod/cif/1/56/15/1561509.cif $
#------------------------------------------------------------------------------
#
# This file is available in the Crystallography Open Database (COD),
# http://www.crystallography.net/
#
# All data on this site have been placed in the public domain by the
# contributors.
#
data_1561509
loop_
_publ_author_name
'Khatun, Mansura'
'Stoyko, Stanislav S.'
'Mar, Arthur'
_publ_section_title
;
 Ternary arsenides ATt3As3 (A=K, Rb; Tt=Ge, Sn) with layered structures
;
_journal_name_full               'Journal of Solid State Chemistry'
_journal_page_first              229
_journal_page_last               235
_journal_paper_doi               10.1016/j.jssc.2016.03.035
_journal_volume                  238
_journal_year                    2016
_chemical_formula_structural     'K Ge3 As3'
_chemical_formula_sum            'As3 Ge3 K'
_chemical_formula_weight         481.63
_chemical_name_common            'potassium germanium arsenide (1/3/3)'
_chemical_name_systematic        'potassium germanium arsenide (1/3/3)'
_space_group_crystal_system      orthorhombic
_space_group_IT_number           62
_space_group_name_Hall           '-P 2ac 2n'
_space_group_name_H-M_alt        'P n m a'
_atom_sites_solution_hydrogens   .
_atom_sites_solution_primary     direct
_atom_sites_solution_secondary   difmap
_audit_creation_method           SHELXL-2013
_cell_angle_alpha                90
_cell_angle_beta                 90
_cell_angle_gamma                90
_cell_formula_units_Z            4
_cell_length_a                   9.9931(11)
_cell_length_b                   3.7664(4)
_cell_length_c                   18.607(2)
_cell_measurement_reflns_used    2151
_cell_measurement_temperature    193(2)
_cell_measurement_theta_max      27.03
_cell_measurement_theta_min      2.19
_cell_volume                     700.33(13)
_computing_cell_refinement       'Bruker SAINT 8.34A (Bruker, 2013)'
_computing_data_collection       'Bruker APEX 2 (Bruker, 2008)'
_computing_data_reduction        'Bruker SAINT 8.34A'
_computing_molecular_graphics    'ATOMS 5.1 (Dowty, 1999)'
_computing_publication_material  'Bruker SHELXTL'
_computing_structure_refinement  'SHELXL-2013 (Sheldrick, 2013)'
_computing_structure_solution    'SHELXS-97 (Sheldrick, 2008)'
_diffrn_ambient_temperature      193(2)
_diffrn_measured_fraction_theta_full 1.000
_diffrn_measured_fraction_theta_max 0.999
_diffrn_measurement_device_type  'Bruker PLATFORM/SMART APEX II CCD'
_diffrn_measurement_method       '\w scans'
_diffrn_radiation_type           MoK\a
_diffrn_radiation_wavelength     0.71073
_diffrn_reflns_av_R_equivalents  0.0780
_diffrn_reflns_av_unetI/netI     0.0428
_diffrn_reflns_Laue_measured_fraction_full 1.000
_diffrn_reflns_Laue_measured_fraction_max 0.999
_diffrn_reflns_limit_h_max       15
_diffrn_reflns_limit_h_min       -15
_diffrn_reflns_limit_k_max       5
_diffrn_reflns_limit_k_min       -5
_diffrn_reflns_limit_l_max       28
_diffrn_reflns_limit_l_min       -28
_diffrn_reflns_number            9750
_diffrn_reflns_point_group_measured_fraction_full 1.000
_diffrn_reflns_point_group_measured_fraction_max 0.999
_diffrn_reflns_theta_full        25.242
_diffrn_reflns_theta_max         33.047
_diffrn_reflns_theta_min         2.189
_diffrn_source                   'fine-focus sealed tube'
_exptl_absorpt_coefficient_mu    27.330
_exptl_absorpt_correction_T_max  0.5963
_exptl_absorpt_correction_T_min  0.1217
_exptl_absorpt_correction_type   numerical
_exptl_absorpt_process_details   'Bruker SHELXTL (Sheldrick, 2013)'
_exptl_crystal_colour            black
_exptl_crystal_density_diffrn    4.568
_exptl_crystal_description       needle
_exptl_crystal_F_000             856
_exptl_crystal_size_max          0.288
_exptl_crystal_size_mid          0.027
_exptl_crystal_size_min          0.024
_refine_diff_density_max         1.955
_refine_diff_density_min         -2.330
_refine_diff_density_rms         0.342
_refine_ls_extinction_coef       0.0012(2)
_refine_ls_extinction_expression Fc^*^=kFc[1+0.001xFc^2^\l^3^/sin(2\q)]^-1/4^
_refine_ls_extinction_method     SHELXL
_refine_ls_goodness_of_fit_ref   1.084
_refine_ls_hydrogen_treatment    undef
_refine_ls_matrix_type           full
_refine_ls_number_parameters     44
_refine_ls_number_reflns         1497
_refine_ls_number_restraints     0
_refine_ls_restrained_S_all      1.084
_refine_ls_R_factor_all          0.0626
_refine_ls_R_factor_gt           0.0386
_refine_ls_shift/su_max          0.000
_refine_ls_shift/su_mean         0.000
_refine_ls_structure_factor_coef Fsqd
_refine_ls_weighting_details
'w=1/[\s^2^(Fo^2^)+(0.0360P)^2^+6.8843P] where P=(Fo^2^+2Fc^2^)/3'
_refine_ls_weighting_scheme      calc
_refine_ls_wR_factor_gt          0.0879
_refine_ls_wR_factor_ref         0.0961
_reflns_Friedel_coverage         0.000
_reflns_Friedel_fraction_full    .
_reflns_Friedel_fraction_max     .
_reflns_number_gt                1092
_reflns_number_total             1497
_reflns_threshold_expression     'I > 2\s(I)'
_cod_data_source_file            mmc8.cif
_cod_data_source_block           KGe3As3unsplit
_cod_original_cell_volume        700.34(13)
_cod_database_code               1561509
_shelx_space_group_comment
;
The symmetry employed for this shelxl refinement is uniquely defined
by the following loop, which should always be used as a source of
symmetry information in preference to the above space-group names.
They are only intended as comments.
;
_shelx_estimated_absorpt_t_min   0.047
_shelx_estimated_absorpt_t_max   0.560
_shelxl_version_number           2013-4
_shelx_res_file
;
TITL KGe3As3 Pnma lsf final refinement
CELL 0.71073   9.99310   3.76640  18.60730  90.0000  90.0000  90.0000
ZERR    4.00   0.00110   0.00040   0.00210   0.0000   0.0000   0.0000
LATT  1
SYMM 0.5-X, -Y, 0.5+Z
SYMM -X, 0.5+Y, -Z
SYMM 0.5+X, 0.5-Y, 0.5-Z
SFAC K GE AS
UNIT 4 12 12
TEMP -80
SIZE 0.024 0.027 0.288

L.S. 4
ACTA

WGHT    0.036000    6.884300
EXTI    0.001183
FVAR       0.05957
K     1    0.220249    0.250000    0.457267    10.50000    0.04783    0.13251 =
         0.03368    0.00000   -0.00418    0.00000
GE1   2    0.308188    0.250000    0.156895    10.50000    0.01133    0.00989 =
         0.01459    0.00000    0.00016    0.00000
GE2   2    0.414213    0.250000    0.756601    10.50000    0.01383    0.00921 =
         0.01524    0.00000   -0.00255    0.00000
GE3   2    0.520365    0.250000    0.631808    10.50000    0.01774    0.01105 =
         0.02082    0.00000   -0.00109    0.00000
AS1   3    0.044049    0.250000    0.630482    10.50000    0.01172    0.00927 =
         0.01285    0.00000   -0.00118    0.00000
AS2   3    0.113505    0.250000    0.079132    10.50000    0.01424    0.01252 =
         0.01562    0.00000   -0.00084    0.00000
AS3   3    0.238667    0.250000    0.281214    10.50000    0.01379    0.00975 =
         0.01480    0.00000   -0.00055    0.00000
HKLF 4

REM  KGe3As3 Pnma lsf final refinement
REM R1 =  0.0386 for    1092 Fo > 4sig(Fo)  and  0.0626 for all    1497 data
REM     44 parameters refined using      0 restraints

END

WGHT      0.0360      6.8843

REM Highest difference peak  1.955,  deepest hole -2.330,  1-sigma level  0.342
Q1    1   0.2431  0.2500  0.2170  10.50000  0.05    1.96
Q2    1   0.2215  0.2500  0.0433  10.50000  0.05    1.60
Q3    1   0.3146  0.2500  0.3362  10.50000  0.05    1.55
Q4    1   0.1623  0.2500  0.2224  10.50000  0.05    1.53
Q5    1   0.2485  0.2500  0.1513  10.50000  0.05    1.42
Q6    1   0.2793 -0.2500  0.4702  10.50000  0.05    1.41
Q7    1   0.3467  0.2500  0.2997  10.50000  0.05    1.30
Q8    1   0.5058  0.2500  0.7598  10.50000  0.05    1.20
Q9    1   0.4809  0.2500  0.8114  10.50000  0.05    1.17
Q10   1   0.3999  0.2500  0.4486  10.50000  0.05    1.16
Q11   1   0.5298  0.2500  0.5582  10.50000  0.05    1.11
Q12   1   0.3137  0.2500  0.2272  10.50000  0.05    1.10
Q13   1   0.0795  0.2500  0.7170  10.50000  0.05    1.07
Q14   1   0.4186  0.2500  0.2760  10.50000  0.05    1.04
Q15   1   0.1949  0.2500  0.5284  10.50000  0.05    1.02
Q16   1   0.3783  0.2500  0.1694  10.50000  0.05    1.02
Q17   1   0.5238  0.2500  0.5976  10.50000  0.05    1.01
Q18   1   0.5483  0.2500  0.6926  10.50000  0.05    0.99
Q19   1   0.1173  0.2500  0.1699  10.50000  0.05    0.97
Q20   1   0.3072  0.2500  0.1060  10.50000  0.05    0.95
;
_shelx_res_checksum              9091
_shelx_hkl_file
;
   2   0 -28    2.51    1.70
   3   0 -28    5.80    2.00
   0   1 -28   -1.06    1.24
   1   1 -28    0.21    1.11
  -4  -1 -27    1.10    1.99
  -3  -1 -27    1.42    2.10
   4  -1 -27    1.33    1.58
   1   0 -27    6.18    2.01
   2   0 -27    0.12    1.18
   3   0 -27    0.11    1.21
   4   0 -27    0.88    1.21
  -1   1 -27    0.62    1.28
   0   1 -27   14.07    2.76
   1   1 -27    0.80    1.29
   2   1 -27   -0.77    1.25
   3   1 -27    1.08    1.50
  -3  -2 -26    3.29    2.26
  -2  -2 -26    9.85    2.66
  -1  -2 -26    3.05    1.86
   0  -2 -26    2.50    1.98
  -5  -1 -26    3.09    2.20
  -4  -1 -26    0.08    1.68
  -3  -1 -26    2.23    1.98
  -2  -1 -26    1.11    1.68
   3  -1 -26   -1.97    1.13
   4  -1 -26    0.00    1.29
   5  -1 -26    6.37    2.10
  -6   0 -26    0.62    1.81
  -5   0 -26    1.58    1.95
   1   0 -26    5.18    1.92
   2   0 -26   11.61    2.35
   3   0 -26    3.41    1.67
   4   0 -26    6.29    2.17
   5   0 -26    0.87    1.40
  -1   1 -26    3.87    1.74
   0   1 -26    0.69    1.27
   1   1 -26    2.67    1.54
   2   1 -26    0.90    1.19
   3   1 -26    0.97    1.29
   4   1 -26    0.60    1.38
  -3   2 -26    1.74    1.78
  -2   2 -26   15.84    3.14
  -1   2 -26    0.98    1.47
   0   2 -26    2.28    1.66
   1   2 -26    3.07    1.59
  -4  -2 -25    5.38    2.28
  -3  -2 -25    0.80    1.58
  -2  -2 -25   -0.04    1.40
  -1  -2 -25    2.40    1.76
   0  -2 -25    3.06    1.84
   1  -2 -25    1.41    1.80
   5  -2 -25    2.63    1.91
  -6  -1 -25    3.62    2.01
  -5  -1 -25    2.86    1.81
  -4  -1 -25    3.34    2.03
  -3  -1 -25    1.43    1.64
  -2  -1 -25    7.05    2.22
  -1  -1 -25   21.21    3.19
   2  -1 -25   13.28    2.71
   3  -1 -25    1.01    1.36
   4  -1 -25    0.72    1.25
   5  -1 -25    0.16    1.40
   6  -1 -25    0.04    1.31
  -7   0 -25    2.30    2.23
  -6   0 -25    2.46    1.83
  -5   0 -25    0.98    1.72
  -4   0 -25    9.69    2.57
   0   0 -25    1.33    1.15
   1   0 -25    1.18    1.21
   2   0 -25   -0.03    0.87
   3   0 -25    0.36    1.02
   4   0 -25    8.89    2.26
   5   0 -25    2.93    1.65
   6   0 -25    0.20    1.48
  -2   1 -25   12.25    2.38
  -1   1 -25   21.32    3.10
   0   1 -25   23.78    3.39
   1   1 -25   18.92    2.90
   2   1 -25    8.42    2.16
   3   1 -25    1.99    1.37
   4   1 -25    0.94    1.22
   5   1 -25    0.63    1.21
   6   1 -25   -0.24    1.25
  -3   2 -25    0.65    1.44
  -2   2 -25   -0.53    1.08
  -1   2 -25   -1.21    1.10
   0   2 -25   -0.51    1.12
   1   2 -25    0.08    1.24
   2   2 -25    1.00    1.43
   3   2 -25   -0.12    1.22
  -2  -3 -24   -0.16    1.81
  -1  -3 -24   -0.32    1.70
   0  -3 -24   -0.44    1.12
   1  -3 -24    3.23    1.91
   2  -3 -24    0.02    1.71
  -5  -2 -24    0.81    1.66
  -4  -2 -24    1.22    1.71
  -3  -2 -24   17.71    3.26
  -2  -2 -24    1.88    1.44
  -1  -2 -24    9.49    2.48
   0  -2 -24   23.33    3.50
   1  -2 -24   15.72    2.91
   2  -2 -24    3.64    1.94
   4  -2 -24    0.32    1.34
   5  -2 -24   -0.33    1.46
   6  -2 -24    0.45    1.39
  -7  -1 -24   -0.43    1.53
  -6  -1 -24   -0.52    1.51
  -5  -1 -24    4.43    2.04
  -4  -1 -24    0.57    1.60
  -3  -1 -24    0.10    1.46
  -2  -1 -24    6.01    2.01
  -1  -1 -24    0.95    1.46
   0  -1 -24    1.12    1.33
   2  -1 -24    4.59    1.61
   3  -1 -24    0.74    1.17
   4  -1 -24    1.20    1.37
   5  -1 -24    4.41    1.94
   6  -1 -24   -1.13    1.14
   7  -1 -24    1.41    1.46
  -8   0 -24    1.34    2.16
  -7   0 -24   -0.75    1.72
  -6   0 -24    0.29    1.62
  -5   0 -24   -0.10    1.47
  -4   0 -24   -0.64    1.44
  -3   0 -24   13.42    2.55
   0   0 -24   36.45    3.91
   1   0 -24    9.99    2.21
   2   0 -24    2.75    1.36
   3   0 -24    9.65    2.26
   4   0 -24    1.46    1.28
   5   0 -24   -0.38    1.10
   6   0 -24    0.12    1.26
   7   0 -24   -0.27    1.18
  -7   1 -24   -0.68    1.76
  -6   1 -24    3.17    2.02
  -2   1 -24    2.48    1.29
  -1   1 -24    1.92    1.33
   0   1 -24   -0.02    0.93
   1   1 -24    1.16    1.11
   2   1 -24    3.22    1.59
   3   1 -24    0.29    1.15
   4   1 -24    1.39    1.42
   5   1 -24    3.58    1.62
   6   1 -24   -0.89    0.98
   7   1 -24    0.05    1.05
  -4   2 -24    0.71    1.36
  -3   2 -24   10.47    2.48
  -2   2 -24    3.46    1.58
  -1   2 -24    6.01    1.90
   0   2 -24   26.95    3.59
   1   2 -24    6.38    1.99
   2   2 -24    6.50    2.13
   3   2 -24    7.78    2.13
   4   2 -24   -0.64    1.28
   5   2 -24    0.78    1.36
   0   3 -24   -0.93    1.49
   1   3 -24    0.51    1.79
   2   3 -24    2.38    1.84
  -4  -3 -23   -1.85    1.52
  -3  -3 -23    2.48    1.39
  -2  -3 -23   -0.33    1.14
  -1  -3 -23   13.34    2.11
   0  -3 -23    1.35    1.24
   1  -3 -23    9.57    2.48
   2  -3 -23    0.43    1.50
   3  -3 -23    2.95    1.81
   4  -3 -23    2.81    1.98
  -6  -2 -23    3.85    1.90
  -5  -2 -23    2.02    1.64
  -4  -2 -23    6.30    2.10
  -3  -2 -23    1.78    1.44
  -2  -2 -23    4.08    1.93
  -1  -2 -23    1.00    1.05
   0  -2 -23   -1.14    1.15
   1  -2 -23    1.28    1.62
   2  -2 -23    5.32    1.89
   3  -2 -23    3.32    1.61
   4  -2 -23    7.06    2.13
   5  -2 -23    0.94    1.37
   6  -2 -23    5.60    2.21
   7  -2 -23    0.76    1.46
  -8  -1 -23    0.06    1.47
  -7  -1 -23    0.36    1.47
  -6  -1 -23    5.82    2.12
  -5  -1 -23   11.43    2.65
  -4  -1 -23    0.81    1.48
  -3  -1 -23    2.02    1.52
  -2  -1 -23    0.42    1.34
  -1  -1 -23   22.83    3.15
   0  -1 -23    4.04    1.61
   1  -1 -23   22.40    3.03
   2  -1 -23   -1.57    0.75
   3  -1 -23    3.27    1.60
   4  -1 -23    3.02    1.50
   5  -1 -23   14.88    2.83
   6  -1 -23    1.94    1.55
   7  -1 -23    0.88    1.58
   8  -1 -23    0.45    1.16
  -8   0 -23    0.43    1.71
  -7   0 -23    3.93    1.87
  -6   0 -23    7.10    2.51
  -5   0 -23    2.79    1.80
  -4   0 -23    4.00    1.90
  -3   0 -23    0.77    1.39
  -2   0 -23    4.51    1.72
  -1   0 -23    1.72    1.09
   0   0 -23   -0.70    0.88
   1   0 -23    2.87    1.31
   2   0 -23    4.23    1.54
   3   0 -23    2.18    1.30
   4   0 -23    9.19    2.26
   5   0 -23   -0.11    0.98
   6   0 -23    2.68    1.53
   7   0 -23    1.89    1.53
   8   0 -23    0.31    1.24
  -8   1 -23    2.63    2.08
  -7   1 -23    0.67    1.79
  -6   1 -23    2.50    1.85
  -5   1 -23   15.10    2.80
  -3   1 -23    1.87    1.24
  -2   1 -23   -0.32    0.75
  -1   1 -23   18.10    2.82
   0   1 -23    3.31    1.38
   1   1 -23   20.98    3.03
   2   1 -23    2.33    1.33
   3   1 -23    1.59    1.31
   4   1 -23    2.01    1.29
   5   1 -23   13.89    2.62
   6   1 -23    2.30    1.34
   7   1 -23    0.14    1.06
   8   1 -23    0.36    1.42
  -4   2 -23    5.12    1.77
  -3   2 -23    1.18    1.29
  -2   2 -23    1.59    1.33
  -1   2 -23    0.23    1.19
   0   2 -23    0.63    1.12
   1   2 -23    1.48    1.51
   2   2 -23    1.82    1.44
   3   2 -23    0.75    0.84
   4   2 -23    6.92    1.40
   5   2 -23   -0.40    0.85
   6   2 -23    2.86    1.27
   7   2 -23    0.32    1.52
  -4   3 -23   -0.93    1.44
  -3   3 -23    1.20    1.44
  -2   3 -23    0.58    1.41
  -1   3 -23   11.48    1.97
   0   3 -23    3.24    1.30
   1   3 -23   13.77    2.03
   2   3 -23   -0.56    1.01
   3   3 -23    0.63    1.50
   4   3 -23   -0.97    1.47
  -5  -3 -22    0.56    1.61
  -4  -3 -22    1.06    1.13
  -3  -3 -22   -0.45    1.05
  -2  -3 -22    6.90    1.73
  -1  -3 -22    0.64    1.09
   0  -3 -22    0.37    1.38
   1  -3 -22    0.25    1.33
   2  -3 -22   11.89    2.75
   3  -3 -22    2.11    1.70
   4  -3 -22    1.58    1.72
   5  -3 -22   -0.55    1.36
  -7  -2 -22    1.77    1.74
  -6  -2 -22   -1.09    1.33
  -5  -2 -22    0.32    1.00
  -4  -2 -22    9.86    1.67
  -3  -2 -22   39.97    2.99
  -2  -2 -22    3.42    1.20
  -1  -2 -22   -0.13    0.86
   0  -2 -22   -0.05    1.20
   1  -2 -22    0.69    1.23
   2  -2 -22    4.19    1.71
   3  -2 -22   36.18    2.80
   4  -2 -22    8.43    1.57
   5  -2 -22    0.40    1.43
   6  -2 -22    0.91    1.51
   7  -2 -22    1.58    1.62
  -8  -1 -22   -0.18    1.39
  -7  -1 -22    1.47    1.57
  -6  -1 -22   16.86    3.02
  -5  -1 -22    3.80    1.80
  -4  -1 -22   -0.02    1.27
  -3  -1 -22    0.66    1.30
  -2  -1 -22   12.89    2.45
  -1  -1 -22    2.94    1.49
   0  -1 -22    0.79    1.18
   1  -1 -22   -0.30    0.69
   2  -1 -22   15.53    2.63
   3  -1 -22    0.57    0.97
   4  -1 -22   -0.04    1.06
   5  -1 -22    1.57    1.45
   6  -1 -22   22.96    3.45
   7  -1 -22    4.26    1.74
   8  -1 -22   -0.98    1.05
  -9   0 -22    0.39    1.71
  -8   0 -22    1.86    1.84
  -7   0 -22   -0.01    1.39
  -6   0 -22   -0.06    1.47
  -5   0 -22    0.11    1.45
  -4   0 -22   17.11    2.81
  -3   0 -22   55.47    4.08
  -2   0 -22    5.84    1.81
  -1   0 -22    0.61    0.72
   0   0 -22    2.14    1.11
   1   0 -22    1.03    1.02
   2   0 -22    5.52    1.57
   3   0 -22   46.49    4.53
   4   0 -22   17.27    2.90
   5   0 -22    2.00    1.29
   6   0 -22    0.31    1.10
   7   0 -22    0.71    1.23
   8   0 -22    5.07    1.88
   9   0 -22   -0.07    1.17
  -9   1 -22    1.59    2.11
  -8   1 -22    1.50    2.08
  -7   1 -22    1.77    1.86
  -6   1 -22   18.52    3.08
  -5   1 -22    1.94    1.60
  -4   1 -22    0.50    1.47
  -3   1 -22    0.53    0.99
  -2   1 -22   14.44    2.36
  -1   1 -22    0.43    0.99
   0   1 -22   -0.05    0.94
   1   1 -22    0.59    0.94
   2   1 -22   11.94    2.38
   3   1 -22    0.54    1.10
   4   1 -22    0.22    0.76
   5   1 -22    2.93    1.47
   6   1 -22   18.51    3.02
   7   1 -22    0.67    1.22
   8   1 -22   -0.82    1.06
  -8   2 -22    1.50    2.26
  -5   2 -22    2.34    1.35
  -4   2 -22    7.81    1.94
  -3   2 -22   40.06    4.38
  -2   2 -22    9.39    2.15
  -1   2 -22    0.31    0.79
   0   2 -22    0.92    0.86
   1   2 -22    0.04    0.74
   2   2 -22    5.36    1.30
   3   2 -22   37.98    2.89
   4   2 -22    8.07    1.56
   5   2 -22    2.12    1.04
   6   2 -22   -0.32    0.82
   7   2 -22    0.56    1.06
   8   2 -22    4.19    2.06
  -5   3 -22   -0.25    1.26
  -4   3 -22   -0.56    1.27
  -3   3 -22    0.40    1.44
  -2   3 -22   10.13    2.42
  -1   3 -22    1.08    1.07
   0   3 -22   -0.26    0.91
   1   3 -22    0.38    0.95
   2   3 -22    6.83    1.60
   3   3 -22    0.37    1.00
   4   3 -22    0.15    0.99
   5   3 -22    1.38    1.80
  -6  -3 -21   12.17    2.81
  -5  -3 -21    6.80    1.54
  -4  -3 -21    8.53    1.66
  -3  -3 -21   -0.24    1.06
  -2  -3 -21    7.06    1.54
  -1  -3 -21   -0.26    0.90
   0  -3 -21    2.61    1.65
   1  -3 -21    0.71    1.35
   2  -3 -21    2.98    1.61
   3  -3 -21    1.64    1.58
   4  -3 -21   13.82    2.81
   5  -3 -21    3.78    1.33
   6  -3 -21   22.03    2.54
  -8  -2 -21    8.15    1.62
  -7  -2 -21   -0.60    0.98
  -6  -2 -21    5.18    1.46
  -5  -2 -21   10.52    1.68
  -4  -2 -21   29.16    2.60
  -3  -2 -21   -0.81    0.78
  -2  -2 -21    0.48    0.86
  -1  -2 -21    2.91    1.14
   0  -2 -21   -0.98    0.99
   1  -2 -21    1.70    1.19
   2  -2 -21    1.20    0.91
   3  -2 -21   -0.32    0.74
   4  -2 -21   33.98    2.74
   5  -2 -21   13.30    2.74
   6  -2 -21    6.71    2.24
   7  -2 -21   -0.78    1.32
   8  -2 -21   11.55    2.77
  -9  -1 -21   -0.70    1.40
  -8  -1 -21    9.73    2.61
  -7  -1 -21    1.39    1.44
  -6  -1 -21   27.58    3.68
  -5  -1 -21    9.25    2.29
  -4  -1 -21   20.74    3.12
  -3  -1 -21    0.44    1.14
  -2  -1 -21    7.70    2.04
  -1  -1 -21   -0.21    0.94
   0  -1 -21    3.05    0.95
   1  -1 -21    1.13    0.76
   2  -1 -21   10.70    1.46
   3  -1 -21    0.90    0.98
   4  -1 -21   11.38    2.33
   5  -1 -21   10.62    2.29
   6  -1 -21   25.44    3.63
   7  -1 -21    2.71    1.65
   8  -1 -21    9.41    2.32
   9  -1 -21    0.78    1.32
  -9   0 -21   -0.42    1.64
  -8   0 -21   12.63    2.95
  -7   0 -21    2.91    1.68
  -6   0 -21    6.06    2.05
  -5   0 -21    9.49    2.27
  -4   0 -21   51.45    4.73
  -3   0 -21   -0.64    1.09
  -2   0 -21    1.22    0.72
  -1   0 -21    4.44    1.00
   0   0 -21   -0.04    0.74
   1   0 -21    3.64    1.27
   2   0 -21    0.96    0.97
   3   0 -21   -0.28    0.85
   4   0 -21   53.31    4.95
   5   0 -21   13.40    2.54
   6   0 -21    7.78    2.18
   7   0 -21   -0.45    0.93
   8   0 -21   15.32    2.90
   9   0 -21   -0.86    1.03
  -9   1 -21   -0.52    1.78
  -8   1 -21   11.00    2.83
  -7   1 -21    1.09    1.76
  -6   1 -21   30.30    3.81
  -5   1 -21    4.32    1.87
  -4   1 -21   14.32    1.75
  -3   1 -21    0.04    0.83
  -2   1 -21    9.02    1.93
  -1   1 -21    1.67    1.14
   0   1 -21    4.13    1.41
   1   1 -21    0.82    1.01
   2   1 -21    7.36    1.76
   3   1 -21   -0.02    0.72
   4   1 -21   14.21    2.53
   5   1 -21   10.24    1.55
   6   1 -21   24.98    2.39
   7   1 -21    1.92    1.02
   8   1 -21    9.12    1.48
   9   1 -21    0.06    0.93
  10   1 -21    1.90    1.73
  -8   2 -21    3.95    2.32
  -7   2 -21    0.73    2.03
  -5   2 -21   10.54    2.25
  -4   2 -21   34.35    3.81
  -3   2 -21    0.46    1.12
  -2   2 -21    1.16    1.08
  -1   2 -21    2.21    0.92
   0   2 -21    0.41    0.75
   1   2 -21    2.11    0.94
   2   2 -21   -0.05    0.68
   3   2 -21   -0.09    0.71
   4   2 -21   33.56    2.72
   5   2 -21   10.42    1.60
   6   2 -21    2.94    1.15
   7   2 -21    0.21    0.98
   8   2 -21    9.08    1.68
  -6   3 -21   13.76    2.78
  -5   3 -21    8.24    2.28
  -4   3 -21    6.65    2.08
  -3   3 -21    1.23    1.50
  -2   3 -21    3.38    1.53
  -1   3 -21    0.69    0.98
   0   3 -21    0.79    1.05
   1   3 -21    0.28    0.89
   2   3 -21    5.34    1.37
   3   3 -21    1.35    1.01
   4   3 -21    9.50    1.70
   5   3 -21    4.54    1.37
   6   3 -21   14.91    2.23
  -7  -3 -20    4.21    2.14
  -6  -3 -20    3.14    1.32
  -5  -3 -20    1.47    1.08
  -4  -3 -20    4.80    1.35
  -3  -3 -20    7.15    1.54
  -2  -3 -20   26.15    2.62
  -1  -3 -20    6.24    1.44
   0  -3 -20   -1.15    1.07
   1  -3 -20    2.33    1.54
   2  -3 -20   31.20    3.82
   3  -3 -20    5.71    2.04
   4  -3 -20    2.79    1.15
   5  -3 -20   -0.28    0.97
   6  -3 -20    4.26    1.35
   7  -3 -20   13.69    2.05
  -9  -2 -20    9.82    2.60
  -8  -2 -20    7.19    1.41
  -7  -2 -20    4.19    1.34
  -6  -2 -20    1.16    0.92
  -5  -2 -20    1.54    0.91
  -4  -2 -20    2.15    0.97
  -3  -2 -20    0.86    0.85
  -2  -2 -20    5.06    1.21
  -1  -2 -20   -0.30    0.69
   0  -2 -20   15.04    2.61
   1  -2 -20    0.54    0.99
   2  -2 -20    5.37    1.20
   3  -2 -20   -0.47    0.72
   4  -2 -20    3.22    1.04
   5  -2 -20    0.30    0.79
   6  -2 -20    1.24    1.43
   7  -2 -20    4.27    1.87
   8  -2 -20   13.03    3.01
   9  -2 -20    9.88    2.84
 -10  -1 -20    0.43    1.44
  -9  -1 -20    1.15    1.47
  -8  -1 -20    1.69    1.47
  -7  -1 -20    7.15    2.10
  -6  -1 -20    7.97    2.10
  -5  -1 -20    1.71    1.27
  -4  -1 -20    8.18    2.10
  -3  -1 -20    8.66    2.03
  -2  -1 -20   41.36    4.09
  -1  -1 -20   12.58    1.48
   0  -1 -20   -0.27    0.63
   1  -1 -20   13.06    1.52
   2  -1 -20   42.14    2.74
   3  -1 -20    6.98    1.21
   4  -1 -20   10.08    2.22
   5  -1 -20    1.15    1.05
   6  -1 -20    4.80    1.86
   7  -1 -20    8.81    2.28
   8  -1 -20    0.81    1.29
   9  -1 -20   -0.12    1.19
  10  -1 -20    2.54    1.65
 -10   0 -20    2.43    1.84
  -9   0 -20    7.11    2.20
  -8   0 -20   13.33    2.88
  -7   0 -20    2.02    1.61
  -6   0 -20    2.25    1.43
  -5   0 -20    2.34    1.47
  -4   0 -20    1.09    1.30
  -3   0 -20    0.28    1.01
  -2   0 -20    6.27    1.11
  -1   0 -20    0.24    0.62
   0   0 -20   18.05    1.72
   1   0 -20    0.44    0.81
   2   0 -20    6.24    1.70
   3   0 -20    0.98    0.95
   4   0 -20    4.53    1.41
   5   0 -20    1.99    1.19
   6   0 -20   -0.43    0.80
   7   0 -20    1.92    1.37
   8   0 -20   13.21    2.68
   9   0 -20    9.73    2.26
  10   0 -20    5.73    2.05
 -10   1 -20    1.42    1.74
  -9   1 -20    1.78    1.88
  -8   1 -20   -1.86    1.46
  -7   1 -20    4.02    2.04
  -6   1 -20    4.99    1.84
  -5   1 -20    1.49    1.39
  -4   1 -20    6.23    1.13
  -3   1 -20    9.46    1.36
  -2   1 -20   40.85    3.22
  -1   1 -20    9.28    1.87
   0   1 -20   -0.88    0.69
   1   1 -20   10.64    2.11
   2   1 -20   39.84    2.67
   3   1 -20    8.06    1.28
   4   1 -20    7.87    1.30
   5   1 -20    4.51    1.12
   6   1 -20    4.76    1.14
   7   1 -20   11.16    1.61
   8   1 -20   -0.56    0.79
   9   1 -20    0.18    0.98
  10   1 -20    0.84    1.08
  -9   2 -20    7.45    2.62
  -8   2 -20    5.90    2.54
  -7   2 -20    1.45    2.02
  -6   2 -20   -0.44    0.94
  -5   2 -20   -1.00    0.77
  -4   2 -20    2.47    1.28
  -3   2 -20    0.89    0.99
  -2   2 -20    4.58    1.11
  -1   2 -20   -0.31    0.66
   0   2 -20   10.11    1.47
   1   2 -20    0.09    0.61
   2   2 -20    2.92    0.92
   3   2 -20   -0.27    0.72
   4   2 -20    3.52    1.05
   5   2 -20    1.44    0.84
   6   2 -20    0.62    0.75
   7   2 -20    1.61    1.02
   8   2 -20    8.38    1.61
   9   2 -20    8.16    1.56
  -7   3 -20    8.13    2.15
  -6   3 -20    0.89    1.29
  -5   3 -20    1.03    1.27
  -4   3 -20    2.87    1.68
  -3   3 -20    4.16    1.78
  -2   3 -20   26.91    3.69
  -1   3 -20    7.19    1.50
   0   3 -20   -0.23    0.82
   1   3 -20    5.27    1.33
   2   3 -20   23.36    2.34
   3   3 -20    4.56    1.29
   4   3 -20    2.35    1.11
   5   3 -20    2.35    1.15
   6   3 -20    3.38    1.31
   7   3 -20    6.80    2.54
  -2  -4 -19    1.54    1.18
  -1  -4 -19    1.45    1.11
   0  -4 -19   -0.04    1.51
   1  -4 -19   -0.40    1.18
   2  -4 -19    2.24    1.75
  -7  -3 -19   23.98    2.55
  -6  -3 -19    2.81    1.26
  -5  -3 -19    0.19    0.97
  -4  -3 -19   -0.22    0.92
  -3  -3 -19    2.14    1.12
  -2  -3 -19    1.81    1.05
  -1  -3 -19    1.08    0.85
   0  -3 -19    5.38    1.74
   1  -3 -19    2.06    1.52
   2  -3 -19   -0.32    1.15
   3  -3 -19    3.12    1.54
   4  -3 -19    0.11    0.94
   5  -3 -19    0.23    0.92
   6  -3 -19    5.88    1.35
   7  -3 -19   26.78    2.69
 -10  -2 -19    1.77    1.97
  -9  -2 -19    7.92    1.61
  -8  -2 -19    0.71    1.00
  -7  -2 -19    0.47    0.96
  -6  -2 -19    0.16    0.83
  -5  -2 -19   12.12    1.69
  -4  -2 -19    4.71    1.12
  -3  -2 -19   13.75    1.76
  -2  -2 -19    0.42    0.72
  -1  -2 -19    2.75    1.49
   0  -2 -19    0.77    1.07
   1  -2 -19   -0.55    1.03
   2  -2 -19    3.25    0.95
   3  -2 -19   11.56    1.57
   4  -2 -19    4.11    1.14
   5  -2 -19   10.47    1.54
   6  -2 -19    0.69    0.83
   7  -2 -19    4.01    1.79
   8  -2 -19    0.79    1.37
   9  -2 -19   11.69    2.80
 -10  -1 -19    0.13    1.35
  -9  -1 -19    1.89    1.50
  -8  -1 -19   -0.66    1.12
  -7  -1 -19   33.46    4.11
  -6  -1 -19    7.84    1.37
  -5  -1 -19   -0.36    0.68
  -4  -1 -19    1.42    0.79
  -3  -1 -19    8.89    1.28
  -2  -1 -19   -0.18    0.54
  -1  -1 -19    2.23    0.64
   0  -1 -19   10.74    1.34
   1  -1 -19    2.83    0.80
   2  -1 -19   -0.58    0.52
   3  -1 -19    6.48    1.12
   4  -1 -19    0.86    0.98
   5  -1 -19   -0.29    0.78
   6  -1 -19   10.28    2.23
   7  -1 -19   45.09    4.69
   8  -1 -19    1.40    1.46
   9  -1 -19    1.23    1.43
  10  -1 -19   -0.21    1.11
 -10   0 -19   -0.17    1.68
  -9   0 -19   14.82    3.04
  -8   0 -19   -0.20    1.35
  -7   0 -19    1.82    1.57
  -6   0 -19    2.26    1.37
  -5   0 -19   10.12    2.13
  -4   0 -19    3.65    1.48
  -3   0 -19   19.77    1.83
  -2   0 -19    2.29    0.74
  -1   0 -19    0.79    0.66
   0   0 -19    0.00    0.46
   1   0 -19    2.76    0.77
   2   0 -19    0.77    1.06
   3   0 -19   13.97    2.41
   4   0 -19    4.28    1.45
   5   0 -19   15.40    2.63
   6   0 -19   -0.41    0.75
   7   0 -19    2.80    1.36
   8   0 -19   -0.08    0.85
   9   0 -19   17.58    3.02
  10   0 -19    2.54    1.57
  11   0 -19    1.39    1.51
 -10   1 -19   -0.05    1.80
  -9   1 -19    2.73    1.83
  -8   1 -19   -0.63    1.36
  -7   1 -19   36.15    4.27
  -6   1 -19    7.41    2.03
  -5   1 -19    0.05    1.24
  -4   1 -19    0.63    0.66
  -3   1 -19    5.13    1.08
  -2   1 -19    0.45    0.70
  -1   1 -19    3.01    0.74
   0   1 -19    6.52    1.08
   1   1 -19    1.99    0.75
   2   1 -19    0.30    0.56
   3   1 -19    7.31    1.05
   4   1 -19    0.07    0.48
   5   1 -19    0.38    0.60
   6   1 -19    8.79    1.31
   7   1 -19   45.27    3.09
   8   1 -19    1.44    0.84
   9   1 -19    4.15    1.22
  10   1 -19   -0.32    0.81
  11   1 -19   -0.02    1.55
  -9   2 -19    9.93    2.63
  -8   2 -19    2.27    1.95
  -7   2 -19    2.35    2.02
  -6   2 -19   -0.29    0.76
  -5   2 -19    9.30    1.70
  -4   2 -19    6.32    1.66
  -3   2 -19   11.28    2.17
  -2   2 -19    2.87    0.88
  -1   2 -19    0.35    0.66
   0   2 -19    0.56    0.71
   1   2 -19    1.84    0.84
   2   2 -19    1.04    0.73
   3   2 -19    9.15    1.42
   4   2 -19    5.31    1.17
   5   2 -19    7.65    1.32
   6   2 -19   -0.09    0.68
   7   2 -19   -0.18    0.71
   8   2 -19    0.55    0.93
   9   2 -19    9.80    1.76
  10   2 -19    5.00    2.30
  -7   3 -19   19.06    3.17
  -6   3 -19    2.18    1.65
  -5   3 -19    0.22    1.19
  -4   3 -19    0.69    1.25
  -3   3 -19    2.33    1.41
  -2   3 -19    1.53    0.97
  -1   3 -19    0.89    0.90
   0   3 -19    8.36    1.47
   1   3 -19    0.71    0.92
   2   3 -19    0.17    0.83
   3   3 -19    2.21    1.05
   4   3 -19    0.16    0.83
   5   3 -19   -0.23    0.84
   6   3 -19    3.19    1.25
   7   3 -19   24.55    2.73
   8   3 -19    0.79    1.82
  -2   4 -19   -0.62    1.32
  -1   4 -19    0.49    1.04
   0   4 -19    1.50    1.14
   1   4 -19   -0.13    1.04
   2   4 -19    2.54    1.22
  -4  -4 -18    3.18    1.40
  -3  -4 -18    0.33    1.17
  -2  -4 -18   23.01    2.54
  -1  -4 -18    0.00    0.98
   0  -4 -18    4.42    2.04
   1  -4 -18    1.72    1.69
   2  -4 -18   23.99    3.67
   3  -4 -18   -0.08    1.32
   4  -4 -18    4.71    1.98
  -8  -3 -18    9.65    1.79
  -7  -3 -18   10.29    1.88
  -6  -3 -18    0.19    0.92
  -5  -3 -18   -0.09    0.88
  -4  -3 -18   -0.33    0.77
  -3  -3 -18    6.06    1.37
  -2  -3 -18    1.58    1.03
  -1  -3 -18    9.54    2.27
   0  -3 -18   -0.25    1.04
   1  -3 -18   10.94    2.36
   2  -3 -18    3.78    1.55
   3  -3 -18    6.47    1.32
   4  -3 -18    1.21    1.00
   5  -3 -18    1.36    0.98
   6  -3 -18   -0.80    0.93
   7  -3 -18    9.10    1.67
   8  -3 -18    7.47    1.66
 -10  -2 -18    0.11    1.17
  -9  -2 -18    5.44    1.48
  -8  -2 -18    0.72    0.98
  -7  -2 -18    1.20    0.94
  -6  -2 -18    0.57    0.79
  -5  -2 -18    1.81    0.94
  -4  -2 -18   12.82    1.60
  -3  -2 -18    0.12    0.64
  -2  -2 -18   54.63    2.88
  -1  -2 -18    1.07    1.06
   0  -2 -18   13.87    2.41
   1  -2 -18   -0.37    0.58
   2  -2 -18   62.16    2.87
   3  -2 -18    0.11    0.61
   4  -2 -18   17.27    1.86
   5  -2 -18    3.05    1.00
   6  -2 -18   -0.12    0.74
   7  -2 -18    3.87    1.81
   8  -2 -18    0.57    1.39
   9  -2 -18    8.48    2.39
  10  -2 -18    1.77    1.66
 -11  -1 -18    1.27    1.55
 -10  -1 -18    1.48    1.47
  -9  -1 -18   -0.30    0.94
  -8  -1 -18    9.45    1.51
  -7  -1 -18   21.37    2.09
  -6  -1 -18   -0.47    0.71
  -5  -1 -18   -0.57    0.55
  -4  -1 -18    0.51    0.62
  -3  -1 -18   13.91    1.49
  -2  -1 -18    9.13    1.18
  -1  -1 -18   17.81    1.63
   0  -1 -18    0.06    0.53
   1  -1 -18   21.60    1.84
   2  -1 -18    8.21    1.19
   3  -1 -18   15.23    1.56
   4  -1 -18    0.17    0.57
   5  -1 -18   -0.02    0.98
   6  -1 -18    0.52    1.08
   7  -1 -18   20.33    3.12
   8  -1 -18   15.33    2.95
   9  -1 -18    0.75    1.23
  10  -1 -18    0.90    1.53
  11  -1 -18    1.16    1.56
 -11   0 -18   -1.57    1.38
 -10   0 -18    1.99    1.71
  -9   0 -18   10.61    2.47
  -8   0 -18   -0.96    0.97
  -7   0 -18    2.58    1.37
  -6   0 -18   -0.61    0.93
  -5   0 -18    3.09    1.46
  -4   0 -18   15.74    2.56
  -3   0 -18   -0.08    0.53
  -2   0 -18   81.02    3.05
  -1   0 -18   -0.32    0.45
   0   0 -18   22.26    1.76
   1   0 -18    0.40    0.53
   2   0 -18   79.28    4.61
   3   0 -18   -0.30    0.76
   4   0 -18   18.49    2.63
   5   0 -18    2.92    0.80
   6   0 -18    0.08    0.59
   7   0 -18    3.53    0.97
   8   0 -18   -0.18    0.61
   9   0 -18   15.41    1.93
  10   0 -18    2.56    1.16
  11   0 -18    1.47    1.06
 -11   1 -18    3.99    2.09
 -10   1 -18    4.74    2.10
  -9   1 -18   -1.04    1.31
  -8   1 -18    9.74    2.47
  -7   1 -18   15.34    2.77
  -6   1 -18    0.44    1.03
  -5   1 -18   -0.33    0.58
  -4   1 -18    1.57    0.73
  -3   1 -18   15.24    1.60
  -2   1 -18    8.92    0.95
  -1   1 -18   19.90    1.43
   0   1 -18   -0.28    0.45
   1   1 -18   20.83    1.83
   2   1 -18    6.64    1.03
   3   1 -18   14.33    1.56
   4   1 -18    0.56    0.65
   5   1 -18   -0.50    0.51
   6   1 -18   -0.32    0.58
   7   1 -18   22.66    2.15
   8   1 -18    8.14    1.46
   9   1 -18    0.80    0.81
  10   1 -18    7.04    1.52
  11   1 -18    0.18    1.08
 -10   2 -18   -0.62    1.60
  -9   2 -18    7.17    2.45
  -8   2 -18   -0.76    1.57
  -7   2 -18    1.99    1.93
  -6   2 -18   -0.14    0.68
  -5   2 -18    2.73    1.14
  -4   2 -18   16.62    2.11
  -3   2 -18    1.12    0.98
  -2   2 -18   59.55    2.88
  -1   2 -18   -0.22    0.56
   0   2 -18   10.85    1.47
   1   2 -18    0.19    0.63
   2   2 -18   58.00    2.92
   3   2 -18    0.44    0.63
   4   2 -18    9.63    1.45
   5   2 -18    4.59    1.11
   6   2 -18   -0.17    0.78
   7   2 -18    2.66    1.00
   8   2 -18   -0.15    0.85
   9   2 -18   11.97    1.88
  10   2 -18    0.32    0.95
  -8   3 -18    5.49    1.69
  -7   3 -18    9.53    2.36
  -6   3 -18   -0.88    1.02
  -5   3 -18    0.92    1.30
  -4   3 -18   -0.70    1.02
  -3   3 -18    1.80    1.26
  -2   3 -18    4.48    1.21
  -1   3 -18   11.64    1.67
   0   3 -18   -0.62    0.66
   1   3 -18    9.70    1.58
   2   3 -18    3.92    1.11
   3   3 -18    7.45    1.48
   4   3 -18   -0.84    0.68
   5   3 -18   -0.27    0.76
   6   3 -18    1.04    1.04
   7   3 -18    7.90    1.73
   8   3 -18    3.57    1.22
  -4   4 -18    3.65    1.82
  -3   4 -18   -0.25    1.10
  -2   4 -18   21.06    3.60
  -1   4 -18    1.01    1.02
   0   4 -18    2.97    1.25
   1   4 -18    0.97    1.05
   2   4 -18   26.54    2.80
   3   4 -18    0.17    1.00
   4   4 -18    5.19    1.52
  -5  -4 -17    7.71    1.67
  -4  -4 -17    3.60    1.45
  -3  -4 -17    0.01    0.98
  -2  -4 -17    2.61    1.21
  -1  -4 -17    1.84    1.15
   0  -4 -17    0.15    1.48
   1  -4 -17    3.07    1.78
   2  -4 -17    3.87    1.89
   3  -4 -17    0.53    1.49
   4  -4 -17    3.02    1.80
   5  -4 -17    9.56    2.55
   6  -4 -17   11.54    2.87
  -9  -3 -17   -1.54    1.01
  -8  -3 -17    1.93    1.24
  -7  -3 -17   -0.39    1.00
  -6  -3 -17   -0.35    0.79
  -5  -3 -17    0.83    0.94
  -4  -3 -17   36.73    2.93
  -3  -3 -17   -1.04    0.71
  -2  -3 -17   -0.34    0.74
  -1  -3 -17    1.69    1.39
   0  -3 -17   96.45    5.71
   1  -3 -17   -0.06    1.09
   2  -3 -17    1.83    1.24
   3  -3 -17   -0.02    0.77
   4  -3 -17   38.60    3.00
   5  -3 -17    1.97    1.00
   6  -3 -17    0.03    0.85
   7  -3 -17   -0.41    0.91
   8  -3 -17    5.86    1.52
   9  -3 -17    0.55    1.25
 -11  -2 -17   -2.47    1.60
 -10  -2 -17   11.33    1.77
  -9  -2 -17   -1.06    0.90
  -8  -2 -17   15.12    1.98
  -7  -2 -17    0.11    0.83
  -6  -2 -17   25.46    2.31
  -5  -2 -17   14.94    1.69
  -4  -2 -17    3.37    1.03
  -3  -2 -17    0.23    0.64
  -2  -2 -17    8.33    1.34
  -1  -2 -17    8.24    1.84
   0  -2 -17    0.61    0.98
   1  -2 -17    6.12    1.12
   2  -2 -17    6.98    1.20
   3  -2 -17    0.49    0.70
   4  -2 -17    7.49    1.30
   5  -2 -17   21.58    2.09
   6  -2 -17   29.94    2.42
   7  -2 -17    0.05    0.68
   8  -2 -17   22.39    3.54
   9  -2 -17   -1.88    0.99
  10  -2 -17   15.86    3.22
 -11  -1 -17    3.68    1.47
 -10  -1 -17    3.49    1.26
  -9  -1 -17   -0.49    0.85
  -8  -1 -17    7.34    1.33
  -7  -1 -17    1.35    0.78
  -6  -1 -17    1.44    0.79
  -5  -1 -17    3.35    0.89
  -4  -1 -17   73.00    3.03
  -3  -1 -17    0.37    0.52
  -2  -1 -17   -0.11    0.49
  -1  -1 -17    2.67    0.73
   0  -1 -17  168.13    5.06
   1  -1 -17    0.25    0.57
   2  -1 -17   -0.11    0.50
   3  -1 -17   -0.23    0.48
   4  -1 -17   68.99    2.90
   5  -1 -17    3.02    0.79
   6  -1 -17    1.70    1.18
   7  -1 -17    1.48    1.31
   8  -1 -17    6.41    2.03
   9  -1 -17    0.58    1.07
  10  -1 -17    2.05    1.46
  11  -1 -17    9.74    2.69
 -11   0 -17    1.95    1.70
 -10   0 -17   19.32    3.43
  -9   0 -17    0.38    1.15
  -8   0 -17   13.80    2.61
  -7   0 -17    1.25    1.25
  -6   0 -17   35.08    3.92
  -5   0 -17   25.19    3.11
  -4   0 -17    5.26    1.63
  -3   0 -17    0.46    0.52
  -2   0 -17   10.43    1.20
  -1   0 -17   11.66    1.25
   0   0 -17    0.71    0.52
   1   0 -17   11.51    1.25
   2   0 -17   12.51    1.26
   3   0 -17    1.12    0.56
   4   0 -17    5.88    0.97
   5   0 -17   24.35    2.02
   6   0 -17   43.11    2.51
   7   0 -17   -0.29    0.50
   8   0 -17   25.98    2.35
   9   0 -17    0.66    0.77
  10   0 -17   22.78    2.36
  11   0 -17   -0.57    0.89
  12   0 -17   11.31    1.97
 -11   1 -17    2.47    2.07
 -10   1 -17    2.78    1.72
  -9   1 -17    0.07    1.26
  -8   1 -17    5.84    1.94
  -7   1 -17    1.20    1.35
  -6   1 -17    0.47    1.19
  -5   1 -17    2.69    0.84
  -4   1 -17   72.54    2.99
  -3   1 -17    0.50    0.58
  -2   1 -17    0.25    0.41
  -1   1 -17    1.08    0.43
   0   1 -17  166.91    5.03
   1   1 -17    0.54    0.57
   2   1 -17   -0.41    0.40
   3   1 -17    0.15    0.49
   4   1 -17   69.77    3.04
   5   1 -17    2.21    0.81
   6   1 -17    0.17    0.66
   7   1 -17    0.49    0.71
   8   1 -17    9.79    1.53
   9   1 -17   -0.44    0.77
  10   1 -17    1.30    0.99
  11   1 -17    3.08    1.21
  12   1 -17    0.75    1.50
 -10   2 -17   14.29    3.04
  -9   2 -17    1.27    1.76
  -8   2 -17   15.64    3.00
  -7   2 -17    0.59    0.82
  -6   2 -17   30.39    2.59
  -5   2 -17   17.54    2.08
  -4   2 -17    7.36    1.46
  -3   2 -17    0.76    0.73
  -2   2 -17    8.91    1.29
  -1   2 -17    9.16    1.30
   0   2 -17    0.67    0.61
   1   2 -17    8.13    1.28
   2   2 -17    8.52    1.30
   3   2 -17    0.15    0.58
   4   2 -17    5.22    1.08
   5   2 -17   16.83    1.94
   6   2 -17   30.97    2.07
   7   2 -17    0.03    0.57
   8   2 -17   18.91    1.76
   9   2 -17    0.54    0.97
  10   2 -17   17.01    2.16
  11   2 -17   -0.73    1.44
  -9   3 -17    1.99    2.57
  -8   3 -17    6.66    1.76
  -7   3 -17    0.32    1.08
  -6   3 -17    0.36    1.04
  -5   3 -17    3.36    1.37
  -4   3 -17   34.87    3.94
  -3   3 -17    1.60    1.27
  -2   3 -17    0.24    0.73
  -1   3 -17   -0.01    0.72
   0   3 -17   89.02    3.96
   1   3 -17   -0.23    0.70
   2   3 -17   -0.19    0.70
   3   3 -17    0.26    0.79
   4   3 -17   38.59    3.02
   5   3 -17    0.51    0.94
   6   3 -17   -0.05    0.95
   7   3 -17    0.47    0.84
   8   3 -17    3.22    1.09
   9   3 -17   -0.18    1.30
  -5   4 -17    6.50    2.11
  -4   4 -17    2.75    1.74
  -3   4 -17   -0.03    1.25
  -2   4 -17    5.06    2.06
  -1   4 -17    3.26    1.25
   0   4 -17   -0.39    0.89
   1   4 -17    2.22    1.06
   2   4 -17    1.68    1.07
   3   4 -17   -0.53    0.95
   4   4 -17    0.96    1.20
   5   4 -17    9.67    1.82
   6   4 -17    6.01    2.43
  -6  -4 -16    0.46    1.10
  -5  -4 -16    0.97    1.11
  -4  -4 -16    2.23    1.09
  -3  -4 -16    7.03    1.50
  -2  -4 -16   47.29    3.46
  -1  -4 -16    3.66    1.27
   0  -4 -16   -2.02    1.04
   1  -4 -16    2.94    1.65
   2  -4 -16   50.05    5.01
   3  -4 -16    7.33    2.31
   4  -4 -16    0.97    1.36
   5  -4 -16   -0.10    1.01
   6  -4 -16   -1.10    0.98
  -9  -3 -16    0.38    0.84
  -8  -3 -16   15.91    2.17
  -7  -3 -16   -0.58    0.77
  -6  -3 -16   10.07    1.65
  -5  -3 -16    1.72    0.96
  -4  -3 -16    0.23    0.77
  -3  -3 -16    3.94    1.10
  -2  -3 -16    0.44    0.79
  -1  -3 -16   -1.24    0.80
   0  -3 -16   -1.25    0.80
   1  -3 -16    0.09    0.99
   2  -3 -16    2.26    0.95
   3  -3 -16    2.41    0.98
   4  -3 -16   -0.13    0.74
   5  -3 -16    1.51    0.93
   6  -3 -16   17.45    2.02
   7  -3 -16   -0.13    0.84
   8  -3 -16   19.37    2.29
   9  -3 -16    0.10    0.95
 -11  -2 -16    1.41    1.19
 -10  -2 -16    1.04    0.99
  -9  -2 -16    0.62    0.70
  -8  -2 -16    1.57    1.00
  -7  -2 -16    8.19    1.44
  -6  -2 -16    1.24    0.76
  -5  -2 -16    0.19    0.62
  -4  -2 -16    2.27    0.83
  -3  -2 -16   17.20    1.78
  -2  -2 -16  113.25    4.23
  -1  -2 -16   12.68    2.17
   0  -2 -16    0.14    0.60
   1  -2 -16   14.22    1.52
   2  -2 -16  122.09    4.18
   3  -2 -16   23.09    1.92
   4  -2 -16    2.31    0.82
   5  -2 -16    0.37    0.69
   6  -2 -16    0.11    0.65
   7  -2 -16   10.81    1.56
   8  -2 -16    0.86    0.83
   9  -2 -16    1.74    1.44
  10  -2 -16    1.15    1.38
  11  -2 -16   -0.40    1.54
 -12  -1 -16    7.94    1.75
 -11  -1 -16    3.84    1.35
 -10  -1 -16   -0.44    0.85
  -9  -1 -16    1.15    0.91
  -8  -1 -16   38.53    2.82
  -7  -1 -16   -1.22    0.57
  -6  -1 -16   22.10    2.01
  -5  -1 -16    0.90    0.63
  -4  -1 -16    0.51    0.57
  -3  -1 -16    9.07    1.13
  -2  -1 -16    1.97    0.51
  -1  -1 -16    0.45    0.48
   0  -1 -16   -0.30    0.46
   1  -1 -16    0.42    0.50
   2  -1 -16    2.10    0.69
   3  -1 -16    7.31    1.08
   4  -1 -16    0.93    0.57
   5  -1 -16    1.20    0.67
   6  -1 -16   23.39    3.17
   7  -1 -16    0.91    1.11
   8  -1 -16   37.29    4.30
   9  -1 -16    0.14    1.01
  10  -1 -16    0.19    1.28
  11  -1 -16    4.62    2.12
  12  -1 -16   14.73    3.20
 -12   0 -16    0.02    1.53
 -11   0 -16    2.76    1.70
 -10   0 -16    1.61    1.50
  -9   0 -16    1.69    1.28
  -8   0 -16    1.77    1.30
  -7   0 -16   11.12    2.21
  -6   0 -16    0.86    1.06
  -5   0 -16   -0.18    0.82
  -4   0 -16    2.20    0.67
  -3   0 -16   25.77    1.33
  -2   0 -16  166.51    3.77
  -1   0 -16   23.96    1.21
   0   0 -16    0.10    0.45
   1   0 -16   23.91    1.22
   2   0 -16  162.34    3.80
   3   0 -16   24.61    1.35
   4   0 -16    1.69    0.63
   5   0 -16    0.39    0.49
   6   0 -16    0.29    0.49
   7   0 -16   13.29    1.57
   8   0 -16    1.16    0.71
   9   0 -16    1.86    0.94
  10   0 -16    0.74    0.95
  11   0 -16    1.25    0.96
  12   0 -16    0.27    1.02
 -11   1 -16    5.82    2.21
 -10   1 -16    0.98    1.50
  -9   1 -16    0.41    1.25
  -8   1 -16   30.01    3.83
  -7   1 -16   -1.25    0.87
  -6   1 -16   23.43    1.96
  -5   1 -16    0.83    0.64
  -4   1 -16    0.81    0.56
  -3   1 -16    5.91    0.98
  -2   1 -16    1.75    0.53
  -1   1 -16    0.24    0.44
   0   1 -16    0.34    0.41
   1   1 -16    0.58    0.52
   2   1 -16    0.76    0.56
   3   1 -16    8.47    1.18
   4   1 -16    0.18    0.48
   5   1 -16    1.45    0.71
   6   1 -16   23.97    1.66
   7   1 -16    0.36    0.63
   8   1 -16   38.14    2.81
   9   1 -16    1.99    0.96
  10   1 -16    0.94    0.93
  11   1 -16    3.41    1.21
  12   1 -16   12.40    2.81
 -11   2 -16    3.57    1.97
 -10   2 -16    0.73    1.67
  -9   2 -16   -0.10    1.36
  -8   2 -16    0.21    1.51
  -7   2 -16    8.83    1.43
  -6   2 -16    0.58    0.77
  -5   2 -16    0.67    0.72
  -4   2 -16    1.26    0.84
  -3   2 -16   19.22    1.93
  -2   2 -16  120.96    4.22
  -1   2 -16    9.91    1.27
   0   2 -16   -0.36    0.46
   1   2 -16   11.31    1.38
   2   2 -16  107.73    4.16
   3   2 -16   20.37    1.91
   4   2 -16    0.94    0.68
   5   2 -16   -0.55    0.49
   6   2 -16    0.66    0.58
   7   2 -16    9.24    1.16
   8   2 -16    0.23    0.67
   9   2 -16    0.63    0.73
  10   2 -16   -0.09    0.96
  11   2 -16    0.42    1.02
  -9   3 -16    0.12    0.98
  -8   3 -16   13.57    2.03
  -7   3 -16   -0.37    0.84
  -6   3 -16   12.91    1.95
  -5   3 -16    2.44    1.33
  -4   3 -16    0.46    1.07
  -3   3 -16    3.10    1.44
  -2   3 -16    0.60    0.67
  -1   3 -16   -0.32    0.66
   0   3 -16    0.36    0.68
   1   3 -16    0.77    0.74
   2   3 -16    0.73    0.79
   3   3 -16    2.82    0.97
   4   3 -16   -0.64    0.73
   5   3 -16   -0.50    0.70
   6   3 -16   12.77    1.51
   7   3 -16   -0.21    0.79
   8   3 -16   16.92    1.86
   9   3 -16   -0.51    0.97
  -6   4 -16    2.34    1.66
  -5   4 -16    0.76    1.25
  -4   4 -16    2.73    1.56
  -3   4 -16    9.42    2.47
  -2   4 -16   53.75    5.55
  -1   4 -16    5.15    1.30
   0   4 -16    0.40    0.96
   1   4 -16    5.43    1.30
   2   4 -16   54.50    3.87
   3   4 -16    9.11    1.69
   4   4 -16    0.02    1.00
   5   4 -16   -0.92    0.94
   6   4 -16   -0.62    1.15
  -7  -4 -15    1.74    1.60
  -6  -4 -15    2.38    1.21
  -5  -4 -15   -0.36    0.92
  -4  -4 -15    0.45    1.00
  -3  -4 -15    2.25    1.13
  -2  -4 -15   -0.03    0.91
  -1  -4 -15    1.41    1.01
   0  -4 -15    0.28    1.17
   1  -4 -15    3.78    1.74
   2  -4 -15   -0.20    1.25
   3  -4 -15    2.39    1.48
   4  -4 -15    0.98    1.33
   5  -4 -15    1.01    1.10
   6  -4 -15    0.61    1.12
   7  -4 -15    0.34    1.08
 -10  -3 -15   -0.39    0.86
  -9  -3 -15    3.43    0.99
  -8  -3 -15    0.54    0.98
  -7  -3 -15    2.34    1.15
  -6  -3 -15    7.38    1.39
  -5  -3 -15    1.02    0.86
  -4  -3 -15   -0.22    0.73
  -3  -3 -15    3.12    1.03
  -2  -3 -15    2.92    0.99
  -1  -3 -15    2.87    1.46
   0  -3 -15  108.28    5.95
   1  -3 -15    0.82    1.02
   2  -3 -15    3.16    0.98
   3  -3 -15    1.75    0.93
   4  -3 -15    0.49    0.71
   5  -3 -15    1.96    0.95
   6  -3 -15   11.32    1.70
   7  -3 -15    4.85    1.26
   8  -3 -15    0.91    1.50
   9  -3 -15    5.76    2.06
 -11  -2 -15    7.44    1.62
 -10  -2 -15   15.44    1.59
  -9  -2 -15   12.59    1.41
  -8  -2 -15    1.22    0.90
  -7  -2 -15   -0.51    0.63
  -6  -2 -15    4.34    1.05
  -5  -2 -15    0.09    0.60
  -4  -2 -15    2.79    0.85
  -3  -2 -15    6.41    1.07
  -2  -2 -15   -0.30    0.50
  -1  -2 -15    7.77    1.72
   0  -2 -15   -0.10    0.56
   1  -2 -15    8.33    1.16
   2  -2 -15    0.99    0.61
   3  -2 -15    5.41    1.00
   4  -2 -15    2.16    0.76
   5  -2 -15    0.71    0.69
   6  -2 -15    2.47    0.91
   7  -2 -15    0.09    1.10
   8  -2 -15    0.35    1.24
   9  -2 -15   15.84    3.02
  10  -2 -15   18.94    3.25
  11  -2 -15    3.06    1.81
 -12  -1 -15   -0.99    0.97
 -11  -1 -15    2.11    1.15
 -10  -1 -15    1.15    0.96
  -9  -1 -15    7.47    1.40
  -8  -1 -15   -0.15    0.70
  -7  -1 -15    8.39    1.30
  -6  -1 -15   20.43    1.87
  -5  -1 -15    2.49    0.78
  -4  -1 -15    0.52    0.55
  -3  -1 -15    6.08    0.98
  -2  -1 -15    3.31    0.55
  -1  -1 -15    1.51    0.61
   0  -1 -15  168.04    5.02
   1  -1 -15    1.49    0.61
   2  -1 -15    2.82    0.70
   3  -1 -15    8.04    1.13
   4  -1 -15    0.84    0.51
   5  -1 -15    2.50    0.75
   6  -1 -15   24.12    1.93
   7  -1 -15    7.40    1.87
   8  -1 -15    1.59    1.17
   9  -1 -15    6.84    1.92
  10  -1 -15    1.31    1.57
  11  -1 -15    1.28    1.47
  12  -1 -15    1.66    1.72
 -12   0 -15   -0.36    1.36
 -11   0 -15   12.07    2.78
 -10   0 -15   23.64    3.45
  -9   0 -15   12.13    2.48
  -8   0 -15    1.09    0.77
  -7   0 -15   -0.18    0.56
  -6   0 -15    6.38    1.08
  -5   0 -15    3.29    0.75
  -4   0 -15    5.27    0.68
  -3   0 -15   10.35    0.85
  -2   0 -15   -0.27    0.26
  -1   0 -15   14.63    0.81
   0   0 -15    0.04    0.30
   1   0 -15   16.79    1.07
   2   0 -15   -0.10    0.30
   3   0 -15    8.97    0.84
   4   0 -15    4.74    0.86
   5   0 -15    1.98    0.67
   6   0 -15    7.11    1.14
   7   0 -15   -0.02    0.57
   8   0 -15    0.46    0.69
   9   0 -15   20.19    2.10
  10   0 -15   25.64    3.59
  11   0 -15   10.82    2.52
  12   0 -15    0.79    1.47
  13   0 -15    2.88    1.79
 -12   1 -15   -1.18    1.34
 -11   1 -15   -1.25    1.28
 -10   1 -15    0.38    1.26
  -9   1 -15   11.98    2.49
  -8   1 -15   -1.21    0.96
  -7   1 -15    8.90    2.08
  -6   1 -15   18.55    1.71
  -5   1 -15    1.30    0.64
  -4   1 -15    0.37    0.49
  -3   1 -15    5.24    0.93
  -2   1 -15    3.07    0.59
  -1   1 -15    1.86    0.48
   0   1 -15  175.15    4.22
   1   1 -15    1.85    0.62
   2   1 -15    3.20    0.73
   3   1 -15    8.68    1.16
   4   1 -15    0.40    0.54
   5   1 -15    1.79    0.58
   6   1 -15   20.33    1.49
   7   1 -15    5.78    0.91
   8   1 -15    0.37    0.69
   9   1 -15   11.73    1.67
  10   1 -15    2.01    1.01
  11   1 -15    1.45    1.07
  12   1 -15   -1.01    0.94
 -11   2 -15   11.27    2.81
 -10   2 -15   22.77    3.40
  -9   2 -15   13.64    2.77
  -8   2 -15    0.54    0.75
  -7   2 -15   -0.54    0.59
  -6   2 -15    4.23    1.07
  -5   2 -15    1.16    0.82
  -4   2 -15    2.36    0.91
  -3   2 -15    4.90    1.05
  -2   2 -15   -0.06    0.42
  -1   2 -15   11.62    1.36
   0   2 -15    0.34    0.51
   1   2 -15   10.86    1.36
   2   2 -15    0.45    0.57
   3   2 -15    5.45    1.00
   4   2 -15    1.84    0.75
   5   2 -15    0.82    0.55
   6   2 -15    2.15    0.71
   7   2 -15   -0.23    0.50
   8   2 -15    0.21    0.56
   9   2 -15   14.84    1.60
  10   2 -15   16.53    1.69
  11   2 -15    5.23    1.46
 -10   3 -15    1.24    2.11
  -9   3 -15    6.33    1.62
  -8   3 -15    1.91    1.16
  -7   3 -15    5.36    1.41
  -6   3 -15   11.33    1.71
  -5   3 -15    0.71    0.93
  -4   3 -15    0.49    0.91
  -3   3 -15    4.79    1.54
  -2   3 -15    1.50    0.82
  -1   3 -15    1.84    0.92
   0   3 -15   89.58    3.96
   1   3 -15    2.56    0.89
   2   3 -15    3.18    0.95
   3   3 -15    2.12    0.88
   4   3 -15   -0.09    0.68
   5   3 -15    0.36    0.68
   6   3 -15   10.10    1.38
   7   3 -15    4.17    1.07
   8   3 -15    1.87    0.96
   9   3 -15    5.24    1.34
  10   3 -15    2.22    1.82
  -7   4 -15    0.09    1.21
  -6   4 -15   -0.06    1.20
  -5   4 -15    0.72    1.31
  -4   4 -15    0.93    1.44
  -3   4 -15    0.89    1.35
  -2   4 -15   -0.17    1.25
  -1   4 -15    3.58    1.18
   0   4 -15    0.70    0.91
   1   4 -15    1.66    1.05
   2   4 -15   -0.10    0.82
   3   4 -15    1.48    1.04
   4   4 -15   -0.52    0.90
   5   4 -15    0.50    1.02
   6   4 -15    0.35    0.91
   7   4 -15   -0.15    1.96
  -8  -4 -14    4.24    2.02
  -7  -4 -14    1.17    1.13
  -6  -4 -14    0.05    0.94
  -5  -4 -14    6.17    1.52
  -4  -4 -14    7.68    1.51
  -3  -4 -14    0.43    0.93
  -2  -4 -14    1.28    0.92
  -1  -4 -14    0.12    0.85
   0  -4 -14   19.29    3.00
   1  -4 -14    1.37    1.33
   2  -4 -14    0.28    1.31
   3  -4 -14    0.80    1.39
   4  -4 -14    7.73    1.51
   5  -4 -14   10.44    1.72
   6  -4 -14    0.82    0.99
   7  -4 -14    1.61    1.19
 -10  -3 -14    3.10    0.98
  -9  -3 -14    7.13    1.18
  -8  -3 -14    1.14    0.99
  -7  -3 -14    4.70    1.25
  -6  -3 -14    0.36    0.78
  -5  -3 -14   13.93    1.79
  -4  -3 -14   18.42    2.01
  -3  -3 -14    1.56    0.85
  -2  -3 -14   23.51    2.16
  -1  -3 -14    2.10    1.17
   0  -3 -14    1.39    0.99
   1  -3 -14    0.49    1.06
   2  -3 -14   23.41    2.12
   3  -3 -14    3.35    1.00
   4  -3 -14   23.29    2.15
   5  -3 -14   24.98    2.27
   6  -3 -14   -0.13    0.77
   7  -3 -14    2.28    1.64
   8  -3 -14    2.83    1.75
   9  -3 -14    8.41    2.53
  10  -3 -14    3.58    1.94
 -12  -2 -14    1.99    1.16
 -11  -2 -14   11.45    1.75
 -10  -2 -14    1.94    0.81
  -9  -2 -14    1.26    0.63
  -8  -2 -14    8.83    1.45
  -7  -2 -14    0.97    0.72
  -6  -2 -14    0.36    0.65
  -5  -2 -14   19.48    1.83
  -4  -2 -14   13.69    1.56
  -3  -2 -14    2.01    0.71
  -2  -2 -14    1.02    0.62
  -1  -2 -14    3.28    1.23
   0  -2 -14   51.22    2.32
   1  -2 -14    3.05    0.78
   2  -2 -14    1.49    0.66
   3  -2 -14    4.31    0.95
   4  -2 -14   14.76    1.58
   5  -2 -14   19.37    1.86
   6  -2 -14    0.43    0.89
   7  -2 -14    2.72    1.32
   8  -2 -14   13.52    2.62
   9  -2 -14    4.06    1.76
  10  -2 -14    1.61    1.65
  11  -2 -14   14.03    2.95
 -13  -1 -14    4.59    2.34
 -12  -1 -14   -0.15    0.98
 -11  -1 -14    3.74    1.20
 -10  -1 -14    5.51    1.29
  -9  -1 -14   18.73    1.92
  -8  -1 -14    1.55    0.79
  -7  -1 -14    9.63    1.34
  -6  -1 -14    0.08    0.59
  -5  -1 -14   27.26    1.99
  -4  -1 -14   39.32    2.13
  -3  -1 -14    5.16    0.90
  -2  -1 -14   40.64    1.51
  -1  -1 -14    4.32    0.77
   0  -1 -14   -0.33    0.38
   1  -1 -14    3.36    0.73
   2  -1 -14   41.14    1.95
   3  -1 -14    4.36    0.82
   4  -1 -14   40.93    1.98
   5  -1 -14   28.41    1.79
   6  -1 -14    0.25    0.48
   7  -1 -14    8.74    2.01
   8  -1 -14    2.35    1.34
   9  -1 -14   20.93    3.12
  10  -1 -14    7.87    2.21
  11  -1 -14    1.81    1.62
  12  -1 -14    0.24    1.32
 -12   0 -14    0.75    1.58
 -11   0 -14   22.29    2.47
 -10   0 -14    1.29    0.97
  -9   0 -14    2.32    0.91
  -8   0 -14   12.91    1.60
  -7   0 -14    2.04    0.79
  -6   0 -14    0.96    0.61
  -5   0 -14   22.90    1.75
  -4   0 -14   19.27    1.17
  -3   0 -14    6.25    0.67
  -2   0 -14    1.64    0.40
  -1   0 -14    7.88    0.58
   0   0 -14   61.67    1.82
   1   0 -14    8.10    0.75
   2   0 -14    1.41    0.35
   3   0 -14    5.46    0.64
   4   0 -14   17.70    1.12
   5   0 -14   22.00    1.82
   6   0 -14    0.11    0.51
   7   0 -14    3.70    0.90
   8   0 -14   14.87    2.49
   9   0 -14    0.63    1.08
  10   0 -14    1.02    1.29
  11   0 -14   23.94    3.51
  12   0 -14    3.35    1.72
  13   0 -14    0.55    1.43
 -12   1 -14   -0.88    1.26
 -11   1 -14    3.47    1.74
 -10   1 -14    5.60    2.03
  -9   1 -14   17.28    2.89
  -8   1 -14    0.92    1.12
  -7   1 -14    9.41    2.04
  -6   1 -14   -0.40    0.45
  -5   1 -14   26.58    1.71
  -4   1 -14   38.73    1.96
  -3   1 -14    2.42    0.70
  -2   1 -14   40.19    1.56
  -1   1 -14    4.17    0.64
   0   1 -14    0.38    0.36
   1   1 -14    3.50    0.63
   2   1 -14   39.29    1.93
   3   1 -14    4.14    0.81
   4   1 -14   35.17    2.09
   5   1 -14   25.48    1.60
   6   1 -14   -0.37    0.40
   7   1 -14   11.64    1.18
   8   1 -14    1.83    0.63
   9   1 -14   21.99    2.21
  10   1 -14    8.73    1.52
  11   1 -14    3.61    1.23
  12   1 -14    0.39    1.03
 -11   2 -14   13.78    2.86
 -10   2 -14    1.67    1.53
  -9   2 -14    1.36    1.37
  -8   2 -14    9.81    1.44
  -7   2 -14    2.49    0.86
  -6   2 -14    0.49    0.61
  -5   2 -14   17.52    1.76
  -4   2 -14   14.00    1.55
  -3   2 -14    3.29    0.90
  -2   2 -14    1.09    0.52
  -1   2 -14    3.63    0.80
   0   2 -14   51.99    2.44
   1   2 -14    2.52    0.70
   2   2 -14    1.06    0.59
   3   2 -14    2.25    0.72
   4   2 -14   13.25    1.24
   5   2 -14   17.40    1.42
   6   2 -14   -0.26    0.46
   7   2 -14    1.96    0.73
   8   2 -14   11.57    1.35
   9   2 -14    0.26    0.75
  10   2 -14    2.02    0.88
  11   2 -14   12.20    1.96
 -10   3 -14    6.27    2.41
  -9   3 -14   11.04    1.85
  -8   3 -14    1.33    1.07
  -7   3 -14    8.16    1.59
  -6   3 -14   -0.52    0.77
  -5   3 -14   19.62    2.03
  -4   3 -14   17.98    1.76
  -3   3 -14    1.10    0.99
  -2   3 -14   24.34    2.20
  -1   3 -14    1.38    0.76
   0   3 -14    0.23    0.61
   1   3 -14    1.08    0.71
   2   3 -14   22.08    2.09
   3   3 -14    2.70    0.92
   4   3 -14   20.83    1.78
   5   3 -14   15.45    1.55
   6   3 -14   -0.95    0.60
   7   3 -14    6.25    1.17
   8   3 -14    1.94    0.88
   9   3 -14    6.04    1.42
  10   3 -14    5.94    1.61
  -8   4 -14    1.99    2.86
  -7   4 -14    0.68    1.34
  -6   4 -14    1.10    1.30
  -5   4 -14    8.12    2.31
  -4   4 -14    6.28    1.90
  -3   4 -14    1.27    1.38
  -2   4 -14    1.09    1.15
  -1   4 -14    1.13    0.88
   0   4 -14   19.76    2.21
   1   4 -14    0.77    0.87
   2   4 -14    2.33    1.08
   3   4 -14    0.12    0.94
   4   4 -14    4.24    1.31
   5   4 -14    6.53    1.55
   6   4 -14    0.76    0.98
   7   4 -14    0.92    1.21
  -2  -5 -13   12.91    3.10
  -1  -5 -13    3.10    2.18
   0  -5 -13    2.53    1.50
  -8  -4 -13    3.09    1.66
  -7  -4 -13    2.74    1.19
  -6  -4 -13    1.18    1.07
  -5  -4 -13   10.06    1.68
  -4  -4 -13   29.58    2.67
  -3  -4 -13    1.37    0.91
  -2  -4 -13    8.02    1.46
  -1  -4 -13    0.10    1.14
   0  -4 -13    1.09    1.20
   1  -4 -13    0.67    1.23
   2  -4 -13   11.73    2.41
   3  -4 -13    0.88    1.25
   4  -4 -13   29.69    2.62
   5  -4 -13   11.29    1.74
   6  -4 -13    2.50    1.11
   7  -4 -13    6.25    2.03
   8  -4 -13    2.35    1.72
 -11  -3 -13    3.97    1.28
 -10  -3 -13   -0.28    0.79
  -9  -3 -13    7.81    1.21
  -8  -3 -13    1.19    0.69
  -7  -3 -13    0.70    0.77
  -6  -3 -13   24.70    2.32
  -5  -3 -13    3.41    1.04
  -4  -3 -13    3.76    1.05
  -3  -3 -13   18.14    1.88
  -2  -3 -13   34.30    2.49
  -1  -3 -13   18.49    2.60
   0  -3 -13    2.62    1.20
   1  -3 -13   19.41    1.78
   2  -3 -13   36.99    2.53
   3  -3 -13   17.06    1.77
   4  -3 -13    1.25    0.70
   5  -3 -13    3.58    1.05
   6  -3 -13   30.09    3.65
   7  -3 -13    1.06    1.22
   8  -3 -13    1.76    1.44
   9  -3 -13   13.31    2.83
  10  -3 -13   -0.54    1.24
 -12  -2 -13    5.05    1.42
 -11  -2 -13    3.74    1.26
 -10  -2 -13    0.52    0.68
  -9  -2 -13    0.68    0.61
  -8  -2 -13    6.68    1.22
  -7  -2 -13    6.13    1.14
  -6  -2 -13    5.08    1.09
  -5  -2 -13   19.99    1.82
  -4  -2 -13   68.71    3.05
  -3  -2 -13    1.06    0.63
  -2  -2 -13   22.12    2.66
  -1  -2 -13   -0.24    0.43
   0  -2 -13    0.08    0.48
   1  -2 -13   -0.18    0.46
   2  -2 -13   26.56    1.95
   3  -2 -13    2.79    0.74
   4  -2 -13   73.05    3.05
   5  -2 -13   18.00    2.64
   6  -2 -13    1.93    1.25
   7  -2 -13    6.73    1.91
   8  -2 -13   12.10    2.60
   9  -2 -13    0.53    1.21
  10  -2 -13    1.05    1.34
  11  -2 -13    8.34    2.52
  12  -2 -13    1.71    1.79
 -13  -1 -13    0.27    1.11
 -12  -1 -13   16.65    2.18
 -11  -1 -13   12.39    1.91
 -10  -1 -13    0.41    0.78
  -9  -1 -13   18.24    2.00
  -8  -1 -13    4.00    0.95
  -7  -1 -13    0.04    0.53
  -6  -1 -13   54.72    2.54
  -5  -1 -13    6.75    1.02
  -4  -1 -13    4.42    0.83
  -3  -1 -13   31.94    1.83
  -2  -1 -13   71.86    2.09
  -1  -1 -13   42.42    1.87
   0  -1 -13    5.81    0.83
   1  -1 -13   39.44    1.85
   2  -1 -13   68.10    2.63
   3  -1 -13   29.59    1.25
   4  -1 -13    5.30    0.87
   5  -1 -13    6.39    0.94
   6  -1 -13   54.05    3.82
   7  -1 -13   -1.08    0.63
   8  -1 -13    0.23    0.85
   9  -1 -13   26.41    3.45
  10  -1 -13   -0.06    1.04
  11  -1 -13   19.50    3.32
  12  -1 -13   25.84    3.92
  13  -1 -13   -0.16    1.38
 -13   0 -13    2.52    1.81
 -12   0 -13    4.88    1.46
 -11   0 -13    8.00    1.55
 -10   0 -13    0.40    0.77
  -9   0 -13    1.64    0.78
  -8   0 -13   13.79    1.62
  -7   0 -13    6.73    1.10
  -6   0 -13    5.00    0.89
  -5   0 -13   27.26    1.24
  -4   0 -13  105.92    2.67
  -3   0 -13    2.57    0.44
  -2   0 -13   31.10    1.17
  -1   0 -13    0.41    0.23
   0   0 -13   -0.03    0.27
   1   0 -13    0.03    0.26
   2   0 -13   32.10    1.20
   3   0 -13    2.46    0.46
   4   0 -13  100.56    2.62
   5   0 -13   25.66    1.25
   6   0 -13    5.85    1.53
   7   0 -13   11.82    2.25
   8   0 -13   10.48    2.06
   9   0 -13    2.86    1.41
  10   0 -13   -0.50    0.92
  11   0 -13   11.31    2.61
  12   0 -13    5.88    1.97
  13   0 -13    5.22    2.19
 -12   1 -13   23.39    3.67
 -11   1 -13   11.88    2.67
 -10   1 -13   -0.68    0.97
  -9   1 -13   18.68    2.87
  -8   1 -13    4.75    1.55
  -7   1 -13    0.09    0.47
  -6   1 -13   55.86    2.41
  -5   1 -13    3.66    0.80
  -4   1 -13    5.75    0.89
  -3   1 -13   27.42    1.68
  -2   1 -13   70.18    2.14
  -1   1 -13   43.31    1.57
   0   1 -13    4.61    0.61
   1   1 -13   48.58    1.69
   2   1 -13   73.32    2.72
   3   1 -13   24.97    1.82
   4   1 -13    4.87    0.71
   5   1 -13    5.81    0.76
   6   1 -13   49.44    1.98
   7   1 -13   -0.21    0.38
   8   1 -13    2.93    0.69
   9   1 -13   24.29    2.26
  10   1 -13   -0.71    0.70
  11   1 -13   14.26    1.92
  12   1 -13   26.11    2.69
 -12   2 -13    6.37    2.52
 -11   2 -13    7.28    2.29
 -10   2 -13   -1.38    1.33
  -9   2 -13    3.52    1.09
  -8   2 -13    8.32    1.30
  -7   2 -13    6.99    1.21
  -6   2 -13    7.04    1.21
  -5   2 -13   24.25    1.98
  -4   2 -13   76.63    3.07
  -3   2 -13    3.38    0.84
  -2   2 -13   20.53    1.37
  -1   2 -13    0.32    0.38
   0   2 -13    0.26    0.48
   1   2 -13    0.18    0.47
   2   2 -13   21.68    1.80
   3   2 -13    1.83    0.54
   4   2 -13   69.08    2.49
   5   2 -13   19.05    1.49
   6   2 -13    1.90    0.65
   7   2 -13    6.07    0.95
   8   2 -13    8.60    1.21
   9   2 -13    0.34    0.70
  10   2 -13   -0.14    0.75
  11   2 -13    5.06    1.33
  12   2 -13    1.11    1.77
 -10   3 -13   -0.92    1.66
  -9   3 -13    9.16    1.69
  -8   3 -13    1.79    1.12
  -7   3 -13    0.37    0.82
  -6   3 -13   29.37    2.49
  -5   3 -13    5.34    1.10
  -4   3 -13    3.02    0.88
  -3   3 -13   21.26    2.89
  -2   3 -13   36.31    2.59
  -1   3 -13   16.94    1.82
   0   3 -13    2.38    0.77
   1   3 -13   18.66    1.87
   2   3 -13   32.01    2.46
   3   3 -13   18.64    1.94
   4   3 -13    2.52    0.76
   5   3 -13    2.01    0.72
   6   3 -13   26.70    2.02
   7   3 -13    0.11    0.65
   8   3 -13    3.06    0.99
   9   3 -13   11.35    1.82
  10   3 -13   -0.32    1.05
  11   3 -13    6.88    2.68
  -8   4 -13    2.86    1.53
  -7   4 -13    1.50    1.14
  -6   4 -13    1.13    1.42
  -5   4 -13   11.33    2.58
  -4   4 -13   26.29    3.51
  -3   4 -13    2.30    1.39
  -2   4 -13    9.29    2.21
  -1   4 -13    0.35    0.77
   0   4 -13    0.18    0.79
   1   4 -13   -0.86    0.60
   2   4 -13    8.45    1.54
   3   4 -13    2.59    1.03
   4   4 -13   26.29    2.62
   5   4 -13    8.69    1.28
   6   4 -13    1.02    0.90
   7   4 -13    5.00    1.53
  -1   5 -13    4.43    2.22
   0   5 -13    2.20    1.70
   1   5 -13    4.18    1.82
   2   5 -13   13.03    3.02
   3   5 -13    5.32    2.12
  -4  -5 -12    1.45    1.65
  -3  -5 -12    0.70    1.56
  -2  -5 -12    5.56    1.53
  -1  -5 -12   -0.89    0.96
   0  -5 -12    0.14    1.13
   1  -5 -12   -1.65    1.36
   2  -5 -12    0.91    1.62
  -9  -4 -12    0.27    1.75
  -8  -4 -12    0.98    0.87
  -7  -4 -12    6.49    1.17
  -6  -4 -12    0.96    1.05
  -5  -4 -12    0.76    0.96
  -4  -4 -12   50.44    3.43
  -3  -4 -12    0.14    0.80
  -2  -4 -12    1.77    0.97
  -1  -4 -12   -0.23    1.21
   0  -4 -12    0.15    1.14
   1  -4 -12   -0.86    0.90
   2  -4 -12    1.55    1.19
   3  -4 -12    1.15    0.91
   4  -4 -12   56.32    3.51
   5  -4 -12    4.27    1.26
   6  -4 -12   -0.03    1.16
   7  -4 -12    7.00    2.24
   8  -4 -12   -0.21    1.32
 -11  -3 -12   -0.10    0.88
 -10  -3 -12   -0.15    0.71
  -9  -3 -12    1.10    0.76
  -8  -3 -12   -0.17    0.62
  -7  -3 -12   -1.06    0.63
  -6  -3 -12   69.56    3.37
  -5  -3 -12   20.63    2.08
  -4  -3 -12    4.73    1.13
  -3  -3 -12    0.80    0.63
  -2  -3 -12   11.55    1.49
  -1  -3 -12    2.14    1.17
   0  -3 -12    0.85    0.95
   1  -3 -12    0.11    0.55
   2  -3 -12   13.04    1.50
   3  -3 -12    2.80    0.83
   4  -3 -12    3.71    0.94
   5  -3 -12   32.01    3.59
   6  -3 -12   65.43    4.66
   7  -3 -12   -0.06    1.01
   8  -3 -12    2.32    1.54
   9  -3 -12   -0.10    1.15
  10  -3 -12   -0.74    1.24
 -12  -2 -12    0.38    0.95
 -11  -2 -12    2.35    0.86
 -10  -2 -12   38.23    2.32
  -9  -2 -12    3.25    0.80
  -8  -2 -12    3.40    1.00
  -7  -2 -12   12.90    1.53
  -6  -2 -12    2.95    0.84
  -5  -2 -12   10.73    1.34
  -4  -2 -12  122.04    4.21
  -3  -2 -12    2.35    0.67
  -2  -2 -12    5.20    1.31
  -1  -2 -12    0.16    0.42
   0  -2 -12    0.79    0.55
   1  -2 -12   -0.19    0.46
   2  -2 -12    7.32    1.04
   3  -2 -12    1.80    0.62
   4  -2 -12  116.75    5.95
   5  -2 -12   10.71    2.01
   6  -2 -12    3.50    1.39
   7  -2 -12   11.21    2.30
   8  -2 -12    5.98    1.84
   9  -2 -12    4.76    1.87
  10  -2 -12   34.70    4.27
  11  -2 -12    5.48    2.05
  12  -2 -12   -3.24    1.21
 -13  -1 -12    0.35    1.09
 -12  -1 -12   -0.77    0.84
 -11  -1 -12    0.02    0.84
 -10  -1 -12    1.29    0.79
  -9  -1 -12    1.46    0.60
  -8  -1 -12    1.09    0.52
  -7  -1 -12    0.16    0.55
  -6  -1 -12  133.55    4.47
  -5  -1 -12   48.71    2.26
  -4  -1 -12    5.63    0.80
  -3  -1 -12    2.49    0.44
  -2  -1 -12   25.89    1.15
  -1  -1 -12    2.24    0.54
   0  -1 -12   -0.29    0.35
   1  -1 -12    1.27    0.31
   2  -1 -12   28.56    1.12
   3  -1 -12    4.03    0.75
   4  -1 -12    5.22    0.85
   5  -1 -12   47.18    3.38
   6  -1 -12  147.54    6.81
   7  -1 -12   -0.40    0.73
   8  -1 -12   -0.42    0.76
   9  -1 -12    3.41    1.44
  10  -1 -12    0.05    1.11
  11  -1 -12    1.59    1.21
  12  -1 -12    0.02    1.47
  13  -1 -12   -0.10    1.50
 -13   0 -12    5.23    1.51
 -12   0 -12    1.31    1.06
 -11   0 -12    4.22    1.23
 -10   0 -12   46.53    3.20
  -9   0 -12    3.75    0.96
  -8   0 -12    3.51    0.98
  -7   0 -12   19.35    1.68
  -6   0 -12    2.41    0.72
  -5   0 -12   16.68    1.06
  -4   0 -12  182.70    4.04
  -3   0 -12    2.92    0.42
  -2   0 -12    5.43    0.56
  -1   0 -12    0.21    0.25
   0   0 -12    2.07    0.39
   1   0 -12   -0.08    0.24
   2   0 -12    6.03    0.62
   3   0 -12    1.94    0.41
   4   0 -12  185.27    4.06
   5   0 -12   15.66    0.86
   6   0 -12    3.99    0.73
   7   0 -12   15.99    2.34
   8   0 -12    4.52    1.43
   9   0 -12    2.37    1.25
  10   0 -12   51.86    4.03
  11   0 -12    7.39    2.14
  12   0 -12    0.60    1.27
  13   0 -12    6.19    2.06
 -13   1 -12   -0.58    1.31
 -12   1 -12    0.63    1.36
 -11   1 -12    0.71    1.29
 -10   1 -12    2.09    1.38
  -9   1 -12    3.03    1.40
  -8   1 -12    0.16    1.02
  -7   1 -12    0.56    0.46
  -6   1 -12  132.82    4.26
  -5   1 -12   47.92    2.14
  -4   1 -12    5.29    0.81
  -3   1 -12    3.39    0.65
  -2   1 -12   26.77    1.23
  -1   1 -12    1.51    0.41
   0   1 -12    0.17    0.32
   1   1 -12    0.71    0.35
   2   1 -12   28.68    1.19
   3   1 -12    3.49    0.55
   4   1 -12    5.12    0.69
   5   1 -12   48.67    1.84
   6   1 -12  136.78    3.66
   7   1 -12    0.14    0.41
   8   1 -12    0.26    0.49
   9   1 -12    0.88    0.59
  10   1 -12   -0.65    0.67
  11   1 -12   -0.33    0.78
  12   1 -12    0.20    1.02
  13   1 -12    0.19    1.57
 -12   2 -12    0.26    1.65
 -11   2 -12    2.54    1.77
 -10   2 -12   35.01    4.09
  -9   2 -12    3.12    1.00
  -8   2 -12    1.92    0.89
  -7   2 -12    8.13    1.28
  -6   2 -12    2.82    0.88
  -5   2 -12   11.75    1.39
  -4   2 -12  121.06    4.09
  -3   2 -12    1.97    0.62
  -2   2 -12    6.21    0.76
  -1   2 -12    0.06    0.37
   0   2 -12    0.88    0.41
   1   2 -12   -0.05    0.42
   2   2 -12    6.63    1.04
   3   2 -12    0.66    0.44
   4   2 -12  120.56    3.43
   5   2 -12   11.40    1.14
   6   2 -12    1.83    0.64
   7   2 -12   13.03    1.32
   8   2 -12    1.72    0.75
   9   2 -12    1.34    0.81
  10   2 -12   40.75    2.57
  11   2 -12    5.28    1.35
  12   2 -12    2.02    1.20
 -10   3 -12   -1.46    1.50
  -9   3 -12    0.07    1.01
  -8   3 -12    0.46    0.92
  -7   3 -12    0.57    0.79
  -6   3 -12   70.89    3.32
  -5   3 -12   23.17    2.10
  -4   3 -12    1.04    0.66
  -3   3 -12    0.20    0.64
  -2   3 -12   14.37    1.63
  -1   3 -12   -0.30    0.52
   0   3 -12    0.48    0.60
   1   3 -12    0.75    0.65
   2   3 -12   13.67    1.62
   3   3 -12    0.60    0.52
   4   3 -12    3.10    0.74
   5   3 -12   21.77    1.75
   6   3 -12   67.74    2.74
   7   3 -12    0.30    0.68
   8   3 -12    0.16    0.75
   9   3 -12   -0.47    0.83
  10   3 -12   -0.61    1.00
  11   3 -12    0.25    1.68
  -8   4 -12    0.81    1.16
  -7   4 -12    4.94    1.40
  -6   4 -12    0.32    0.93
  -5   4 -12    2.35    1.45
  -4   4 -12   41.87    4.60
  -3   4 -12    0.87    1.11
  -2   4 -12    0.42    1.07
  -1   4 -12    0.93    0.86
   0   4 -12    0.98    0.76
   1   4 -12    0.19    0.75
   2   4 -12    3.32    1.05
   3   4 -12    0.69    0.90
   4   4 -12   48.85    2.84
   5   4 -12    5.40    1.07
   6   4 -12    0.72    0.83
   7   4 -12    6.16    1.56
   8   4 -12   -0.80    0.97
  -2   5 -12    3.19    1.86
  -1   5 -12   -0.22    1.34
   0   5 -12   -0.61    0.93
   1   5 -12    0.63    0.98
   2   5 -12    2.10    1.21
   3   5 -12    0.75    1.61
  -4  -5 -11   -0.48    1.17
  -3  -5 -11   -0.29    1.00
  -2  -5 -11    0.45    1.07
  -1  -5 -11    3.05    1.27
   0  -5 -11    1.66    1.23
   1  -5 -11    0.42    1.56
   2  -5 -11    1.04    1.49
   3  -5 -11    0.85    1.57
  -8  -4 -11   -0.19    0.79
  -7  -4 -11    6.62    1.19
  -6  -4 -11    3.62    1.21
  -5  -4 -11    5.40    1.20
  -4  -4 -11   33.85    2.73
  -3  -4 -11    5.03    1.24
  -2  -4 -11    3.70    1.11
  -1  -4 -11    9.30    2.15
   0  -4 -11    1.03    1.14
   1  -4 -11    1.92    1.24
   2  -4 -11    5.95    1.72
   3  -4 -11    3.63    1.06
   4  -4 -11   34.37    2.70
   5  -4 -11    4.17    1.73
   6  -4 -11    3.34    1.58
   7  -4 -11    7.19    2.15
   8  -4 -11    0.99    1.37
 -11  -3 -11    2.09    0.92
 -10  -3 -11    3.46    0.95
  -9  -3 -11    4.24    0.96
  -8  -3 -11    1.84    0.73
  -7  -3 -11    6.42    1.31
  -6  -3 -11   23.72    2.14
  -5  -3 -11    8.22    1.22
  -4  -3 -11    0.57    0.65
  -3  -3 -11   -0.15    0.59
  -2  -3 -11   -0.24    0.52
  -1  -3 -11   16.85    2.38
   0  -3 -11   10.77    1.33
   1  -3 -11   15.17    1.51
   2  -3 -11    0.33    0.55
   3  -3 -11    0.29    0.57
   4  -3 -11   -0.43    0.68
   5  -3 -11    3.35    1.30
   6  -3 -11   21.24    2.93
   7  -3 -11    2.96    1.42
   8  -3 -11    4.01    1.65
   9  -3 -11    3.53    1.55
  10  -3 -11    2.26    1.37
  11  -3 -11    1.31    1.53
 -13  -2 -11   -0.09    1.40
 -12  -2 -11    0.41    1.03
 -11  -2 -11    5.37    1.00
 -10  -2 -11    2.03    0.66
  -9  -2 -11    1.02    0.64
  -8  -2 -11   -0.20    0.46
  -7  -2 -11   22.48    2.03
  -6  -2 -11   10.59    1.34
  -5  -2 -11   10.20    1.29
  -4  -2 -11   84.70    3.30
  -3  -2 -11   14.80    1.45
  -2  -2 -11   16.99    2.22
  -1  -2 -11   17.36    1.36
   0  -2 -11   -0.76    0.33
   1  -2 -11   18.89    1.50
   2  -2 -11   16.84    1.46
   3  -2 -11   15.70    1.46
   4  -2 -11   83.02    4.63
   5  -2 -11    7.75    1.67
   6  -2 -11   17.81    2.52
   7  -2 -11   23.05    3.01
   8  -2 -11    0.46    0.84
   9  -2 -11    0.83    1.14
  10  -2 -11   -0.88    1.08
  11  -2 -11    4.78    2.01
  12  -2 -11   -0.13    1.25
 -13  -1 -11    2.33    1.27
 -12  -1 -11   18.06    2.24
 -11  -1 -11    2.33    1.08
 -10  -1 -11    3.72    1.09
  -9  -1 -11    8.63    1.04
  -8  -1 -11    3.92    0.72
  -7  -1 -11   11.90    1.38
  -6  -1 -11   39.11    2.09
  -5  -1 -11   13.10    1.28
  -4  -1 -11    1.03    0.48
  -3  -1 -11    5.29    0.55
  -2  -1 -11    0.67    0.30
  -1  -1 -11   38.22    1.65
   0  -1 -11   16.88    1.28
   1  -1 -11   40.05    1.21
   2  -1 -11    0.35    0.36
   3  -1 -11    5.32    0.78
   4  -1 -11    0.61    0.74
   5  -1 -11   13.40    2.05
   6  -1 -11   35.89    3.58
   7  -1 -11   15.66    2.42
   8  -1 -11    2.44    1.30
   9  -1 -11    9.72    2.21
  10  -1 -11    4.24    1.68
  11  -1 -11   -1.64    0.98
  12  -1 -11   22.95    3.47
  13  -1 -11    2.98    1.87
 -14   0 -11   -0.59    1.89
 -13   0 -11    2.43    1.23
 -12   0 -11    0.18    0.90
 -11   0 -11    8.40    1.46
 -10   0 -11    0.41    0.77
  -9   0 -11    1.69    0.80
  -8   0 -11    0.78    0.62
  -7   0 -11   38.52    1.56
  -6   0 -11   22.92    1.76
  -5   0 -11   13.59    0.91
  -4   0 -11  131.90    3.02
  -3   0 -11   25.20    1.03
  -2   0 -11   23.17    0.93
  -1   0 -11   26.88    0.98
   0   0 -11    0.49    0.25
   1   0 -11   26.73    1.01
   2   0 -11   23.97    0.99
   3   0 -11   23.59    1.02
   4   0 -11  128.14    2.57
   5   0 -11   12.84    1.13
   6   0 -11   20.91    1.38
   7   0 -11   37.97    3.01
   8   0 -11    1.03    0.95
   9   0 -11    0.79    0.94
  10   0 -11    1.70    1.09
  11   0 -11   13.12    2.46
  12   0 -11    0.72    1.45
  13   0 -11    0.94    1.53
 -13   1 -11    0.94    1.51
 -12   1 -11   14.61    2.82
 -11   1 -11    1.10    1.45
 -10   1 -11    5.78    1.26
  -9   1 -11    7.71    1.28
  -8   1 -11    3.27    0.71
  -7   1 -11   13.73    1.14
  -6   1 -11   42.70    1.66
  -5   1 -11   15.78    1.10
  -4   1 -11    1.30    0.44
  -3   1 -11    4.50    0.57
  -2   1 -11    0.47    0.32
  -1   1 -11   42.03    1.43
   0   1 -11   19.64    1.11
   1   1 -11   41.67    1.35
   2   1 -11    0.08    0.29
   3   1 -11    5.46    0.67
   4   1 -11    1.72    0.48
   5   1 -11   16.12    1.19
   6   1 -11   41.65    1.72
   7   1 -11   15.33    1.28
   8   1 -11    2.87    0.69
   9   1 -11    8.88    1.08
  10   1 -11    6.04    0.99
  11   1 -11    2.55    1.03
  12   1 -11   18.93    2.24
  13   1 -11    3.78    1.88
 -12   2 -11    1.98    1.83
 -11   2 -11    7.04    2.14
 -10   2 -11    1.02    1.26
  -9   2 -11    1.52    1.40
  -8   2 -11   -0.75    0.50
  -7   2 -11   22.47    1.95
  -6   2 -11   16.85    1.61
  -5   2 -11   10.67    1.30
  -4   2 -11   89.92    3.26
  -3   2 -11   14.49    1.35
  -2   2 -11   15.28    1.10
  -1   2 -11   19.04    1.20
   0   2 -11    0.04    0.30
   1   2 -11   18.62    1.52
   2   2 -11   13.32    1.11
   3   2 -11   12.97    1.12
   4   2 -11   87.77    2.72
   5   2 -11   10.03    1.05
   6   2 -11   12.28    1.22
   7   2 -11   22.99    1.69
   8   2 -11   -0.11    0.56
   9   2 -11   -0.04    0.63
  10   2 -11    1.82    0.88
  11   2 -11    4.00    1.26
  12   2 -11    0.02    0.97
 -11   3 -11    1.83    1.80
 -10   3 -11    2.90    1.83
  -9   3 -11    4.50    1.88
  -8   3 -11    2.32    1.05
  -7   3 -11    5.43    1.26
  -6   3 -11   21.61    2.06
  -5   3 -11    5.77    1.10
  -4   3 -11    1.14    0.72
  -3   3 -11    1.59    0.74
  -2   3 -11   -0.54    0.43
  -1   3 -11   12.88    1.52
   0   3 -11    8.02    1.20
   1   3 -11   13.50    1.53
   2   3 -11   -0.23    0.51
   3   3 -11    0.42    0.54
   4   3 -11    0.25    0.49
   5   3 -11    6.29    0.96
   6   3 -11   20.64    1.69
   7   3 -11    3.47    0.91
   8   3 -11    1.60    0.80
   9   3 -11    8.00    1.55
  10   3 -11    2.33    1.18
  11   3 -11    0.80    1.07
  -9   4 -11   -0.28    1.87
  -8   4 -11    0.13    0.99
  -7   4 -11    4.63    1.36
  -6   4 -11    5.59    1.42
  -5   4 -11    3.30    1.12
  -4   4 -11   40.31    4.34
  -3   4 -11    6.00    1.87
  -2   4 -11    6.27    1.80
  -1   4 -11    5.96    1.31
   0   4 -11    1.46    0.87
   1   4 -11    9.87    1.51
   2   4 -11    6.16    1.28
   3   4 -11    3.56    1.09
   4   4 -11   33.33    2.29
   5   4 -11    4.14    1.05
   6   4 -11    4.06    1.03
   7   4 -11    8.08    1.65
   8   4 -11   -0.26    1.08
  -3   5 -11    1.26    1.55
  -2   5 -11   -1.43    1.25
  -1   5 -11    0.70    1.43
   0   5 -11    2.07    1.18
   1   5 -11    3.71    1.36
   2   5 -11   -0.16    0.97
   3   5 -11    0.60    1.09
  -5  -5 -10    0.05    1.54
  -4  -5 -10    0.85    1.05
  -3  -5 -10    2.06    1.08
  -2  -5 -10    4.41    1.27
  -1  -5 -10   -0.02    1.05
   0  -5 -10    0.88    1.12
   1  -5 -10    0.83    1.49
   2  -5 -10    6.95    2.26
   3  -5 -10   -0.35    1.33
   4  -5 -10    1.18    1.52
   5  -5 -10   -0.73    1.48
  -9  -4 -10   -0.34    1.01
  -8  -4 -10    7.56    1.27
  -7  -4 -10   14.22    1.52
  -6  -4 -10   -0.39    0.81
  -5  -4 -10    0.06    0.80
  -4  -4 -10   -0.80    0.69
  -3  -4 -10   -0.68    0.68
  -2  -4 -10    1.20    0.86
  -1  -4 -10   20.27    2.93
   0  -4 -10   27.75    3.44
   1  -4 -10   27.95    3.33
   2  -4 -10    3.61    1.01
   3  -4 -10    0.55    0.69
   4  -4 -10   -0.42    0.97
   5  -4 -10    1.54    1.26
   6  -4 -10   -1.04    1.02
   7  -4 -10   15.35    2.97
   8  -4 -10    5.52    1.92
   9  -4 -10   -0.06    1.22
 -11  -3 -10   -1.25    0.85
 -10  -3 -10    6.70    1.16
  -9  -3 -10   28.46    1.96
  -8  -3 -10   18.58    1.60
  -7  -3 -10    6.78    1.30
  -6  -3 -10    0.51    0.65
  -5  -3 -10    0.58    0.64
  -4  -3 -10    3.53    0.90
  -3  -3 -10    0.08    0.58
  -2  -3 -10   20.00    1.79
  -1  -3 -10   -1.51    0.60
   0  -3 -10   -0.17    0.46
   1  -3 -10    0.53    0.49
   2  -3 -10   20.35    1.71
   3  -3 -10    1.16    0.88
   4  -3 -10    1.86    1.08
   5  -3 -10    0.16    0.91
   6  -3 -10    0.98    1.00
   7  -3 -10   10.59    2.10
   8  -3 -10   15.33    2.73
   9  -3 -10   32.42    4.08
  10  -3 -10    8.32    2.36
  11  -3 -10    0.19    1.39
 -13  -2 -10    8.00    2.18
 -12  -2 -10    0.33    0.78
 -11  -2 -10    4.42    0.93
 -10  -2 -10    5.17    0.90
  -9  -2 -10   -0.24    0.48
  -8  -2 -10   22.02    1.59
  -7  -2 -10   30.06    2.28
  -6  -2 -10    0.68    0.58
  -5  -2 -10    0.15    0.50
  -4  -2 -10   -0.07    0.41
  -3  -2 -10    2.28    0.68
  -2  -2 -10    6.59    0.81
  -1  -2 -10   74.80    2.62
   0  -2 -10   74.90    2.67
   1  -2 -10   74.93    2.70
   2  -2 -10    7.05    0.93
   3  -2 -10    3.37    1.09
   4  -2 -10    0.64    0.78
   5  -2 -10   -0.49    0.56
   6  -2 -10    0.39    0.81
   7  -2 -10   37.71    3.75
   8  -2 -10   29.16    3.48
   9  -2 -10   -0.32    0.77
  10  -2 -10    3.65    1.59
  11  -2 -10    8.13    2.45
  12  -2 -10    0.50    1.45
  13  -2 -10   10.90    2.82
 -14  -1 -10   -0.62    1.27
 -13  -1 -10    0.94    1.09
 -12  -1 -10    2.72    1.11
 -11  -1 -10    0.93    0.84
 -10  -1 -10   10.80    1.08
  -9  -1 -10   57.10    2.18
  -8  -1 -10   27.98    1.68
  -7  -1 -10   13.23    1.43
  -6  -1 -10    0.41    0.51
  -5  -1 -10   -0.07    0.34
  -4  -1 -10    3.45    0.67
  -3  -1 -10    1.42    0.30
  -2  -1 -10   37.09    1.25
  -1  -1 -10    1.64    0.45
   0  -1 -10    0.10    0.31
   1  -1 -10    1.85    0.31
   2  -1 -10   37.33    1.65
   3  -1 -10    1.84    0.87
   4  -1 -10    4.58    1.23
   5  -1 -10   -0.15    0.59
   6  -1 -10    0.58    0.74
   7  -1 -10   12.78    2.24
   8  -1 -10   27.20    3.24
   9  -1 -10   59.83    4.29
  10  -1 -10   14.32    2.63
  11  -1 -10   -0.67    1.00
  12  -1 -10    2.65    1.69
  13  -1 -10    3.39    1.86
  14  -1 -10   -0.19    1.66
 -14   0 -10   -0.20    1.02
 -13   0 -10   14.50    2.05
 -12   0 -10    0.93    0.99
 -11   0 -10    8.26    1.50
 -10   0 -10   13.36    1.70
  -9   0 -10    1.03    0.71
  -8   0 -10   30.09    2.24
  -7   0 -10   49.39    1.69
  -6   0 -10    0.58    0.30
  -5   0 -10    0.29    0.27
  -4   0 -10    0.61    0.27
  -3   0 -10    4.94    0.50
  -2   0 -10    5.59    0.51
  -1   0 -10  116.22    2.58
   0   0 -10  129.46    2.82
   1   0 -10  117.66    2.62
   2   0 -10    6.43    0.56
   3   0 -10    4.16    0.41
   4   0 -10    0.95    0.28
   5   0 -10    0.36    0.40
   6   0 -10    1.14    0.47
   7   0 -10   45.42    2.07
   8   0 -10   38.81    3.64
   9   0 -10   -0.29    0.71
  10   0 -10   11.61    2.23
  11   0 -10    7.18    2.02
  12   0 -10   -1.16    1.02
  13   0 -10   16.99    3.07
 -13   1 -10   -0.15    1.42
 -12   1 -10    3.02    1.27
 -11   1 -10    2.22    0.99
 -10   1 -10   14.01    1.77
  -9   1 -10   55.74    2.84
  -8   1 -10   28.94    1.68
  -7   1 -10   14.68    1.15
  -6   1 -10    0.23    0.37
  -5   1 -10    0.14    0.33
  -4   1 -10    3.92    0.55
  -3   1 -10    1.25    0.36
  -2   1 -10   37.89    1.02
  -1   1 -10    1.67    0.37
   0   1 -10   -0.16    0.24
   1   1 -10    2.35    0.40
   2   1 -10   37.94    1.38
   3   1 -10    2.24    0.44
   4   1 -10    4.34    0.61
   5   1 -10   -0.12    0.33
   6   1 -10    0.61    0.42
   7   1 -10   15.37    1.27
   8   1 -10   30.14    1.83
   9   1 -10   53.18    2.65
  10   1 -10   10.80    1.47
  11   1 -10    0.78    0.76
 -12   2 -10    0.69    1.37
 -11   2 -10    1.38    1.48
 -10   2 -10    7.55    2.05
  -9   2 -10   -1.32    0.99
  -8   2 -10   23.84    2.08
  -7   2 -10   38.85    2.28
  -6   2 -10    1.36    0.68
  -5   2 -10    0.91    0.52
  -4   2 -10    0.01    0.45
  -3   2 -10    2.05    0.66
  -2   2 -10    6.43    0.73
  -1   2 -10   75.05    2.18
   0   2 -10   74.52    2.10
   1   2 -10   75.38    2.83
   2   2 -10    6.50    0.76
   3   2 -10    2.83    0.59
   4   2 -10    0.13    0.36
   5   2 -10    0.31    0.43
   6   2 -10    1.10    0.54
   7   2 -10   37.26    2.15
   8   2 -10   23.67    1.84
   9   2 -10   -0.53    0.52
  10   2 -10    9.09    1.36
  11   2 -10    6.25    1.42
  12   2 -10    0.50    0.97
  13   2 -10   14.81    2.92
 -11   3 -10    1.14    1.68
 -10   3 -10    8.64    2.38
  -9   3 -10   32.93    3.99
  -8   3 -10   20.96    2.13
  -7   3 -10    7.78    1.31
  -6   3 -10   -0.21    0.63
  -5   3 -10    0.83    0.62
  -4   3 -10    3.15    0.93
  -3   3 -10    0.09    0.55
  -2   3 -10   21.91    1.46
  -1   3 -10    0.63    0.54
   0   3 -10    0.96    0.62
   1   3 -10   -0.01    0.51
   2   3 -10   20.47    1.52
   3   3 -10    0.62    0.53
   4   3 -10    3.20    0.69
   5   3 -10   -0.86    0.41
   6   3 -10   -0.43    0.50
   7   3 -10    9.52    1.27
   8   3 -10   17.28    1.65
   9   3 -10   28.35    2.66
  10   3 -10    4.94    1.37
  11   3 -10   -1.00    0.90
  -9   4 -10    1.83    1.88
  -8   4 -10    8.79    2.65
  -7   4 -10   14.09    1.90
  -6   4 -10   -0.22    0.84
  -5   4 -10   -0.25    0.74
  -4   4 -10   -0.82    0.68
  -3   4 -10    0.13    0.94
  -2   4 -10    4.30    1.60
  -1   4 -10   24.67    2.33
   0   4 -10   25.14    2.31
   1   4 -10   26.04    2.38
   2   4 -10    2.74    1.03
   3   4 -10    0.32    0.64
   4   4 -10    0.96    0.63
   5   4 -10   -0.28    0.62
   6   4 -10    0.91    0.98
   7   4 -10   10.40    1.76
   8   4 -10    8.63    1.79
   9   4 -10   -0.66    1.09
  -4   5 -10   -0.86    1.40
  -3   5 -10   -0.51    1.26
  -2   5 -10    8.49    2.18
  -1   5 -10    0.68    1.32
   0   5 -10   -0.08    0.85
   1   5 -10   -0.01    0.96
   2   5 -10    6.24    1.48
   3   5 -10    0.36    1.04
   4   5 -10    2.00    1.64
  -5  -5  -9    1.10    1.18
  -4  -5  -9   -0.97    0.81
  -3  -5  -9    7.19    1.46
  -2  -5  -9   25.14    2.57
  -1  -5  -9    7.69    1.56
   0  -5  -9   43.57    3.27
   1  -5  -9   10.77    2.38
   2  -5  -9   15.90    2.88
   3  -5  -9    4.77    1.97
   4  -5  -9   -0.49    1.30
   5  -5  -9    4.60    1.76
  -9  -4  -9    1.03    1.20
  -8  -4  -9    6.49    1.53
  -7  -4  -9    0.11    0.71
  -6  -4  -9    6.76    1.10
  -5  -4  -9    5.28    1.29
  -4  -4  -9    0.46    0.79
  -3  -4  -9    1.07    0.82
  -2  -4  -9   10.34    1.52
  -1  -4  -9    1.92    1.21
   0  -4  -9    0.28    0.96
   1  -4  -9    0.65    1.06
   2  -4  -9   10.66    1.43
   3  -4  -9    1.47    0.84
   4  -4  -9   -0.65    0.86
   5  -4  -9    6.26    1.81
   6  -4  -9    4.34    1.56
   7  -4  -9    1.96    1.43
   8  -4  -9    6.28    2.06
   9  -4  -9   -0.04    1.13
 -12  -3  -9   -0.87    1.11
 -11  -3  -9   -0.47    0.86
 -10  -3  -9   -0.71    0.64
  -9  -3  -9    0.33    0.62
  -8  -3  -9    4.58    0.90
  -7  -3  -9   -0.08    0.48
  -6  -3  -9   10.35    1.40
  -5  -3  -9    2.87    0.88
  -4  -3  -9   -0.06    0.52
  -3  -3  -9   17.27    1.68
  -2  -3  -9   68.24    2.96
  -1  -3  -9   41.35    3.13
   0  -3  -9  130.08    4.12
   1  -3  -9   37.00    2.08
   2  -3  -9   69.22    2.83
   3  -3  -9   19.02    2.33
   4  -3  -9   -0.43    0.64
   5  -3  -9    4.33    1.36
   6  -3  -9    6.82    1.71
   7  -3  -9    0.00    0.86
   8  -3  -9    6.16    1.79
   9  -3  -9    0.99    1.24
  10  -3  -9   -1.11    1.01
  11  -3  -9    0.80    1.40
 -13  -2  -9    4.21    2.06
 -12  -2  -9    9.28    1.28
 -11  -2  -9    8.40    1.19
 -10  -2  -9   23.08    1.75
  -9  -2  -9    0.61    0.53
  -8  -2  -9   20.47    1.53
  -7  -2  -9    2.14    0.76
  -6  -2  -9   13.68    1.45
  -5  -2  -9   22.36    1.78
  -4  -2  -9   -0.01    0.42
  -3  -2  -9    3.72    0.74
  -2  -2  -9   27.09    1.37
  -1  -2  -9    2.62    0.56
   0  -2  -9    0.45    0.40
   1  -2  -9    2.47    0.55
   2  -2  -9   22.16    2.15
   3  -2  -9    4.07    1.10
   4  -2  -9    0.39    0.55
   5  -2  -9   20.99    2.43
   6  -2  -9   15.60    2.25
   7  -2  -9    1.88    1.04
   8  -2  -9   19.44    2.81
   9  -2  -9   -0.18    0.87
  10  -2  -9   30.33    3.89
  11  -2  -9   11.39    2.66
  12  -2  -9    8.65    2.42
  13  -2  -9    4.59    2.20
 -14  -1  -9    4.31    1.44
 -13  -1  -9   -0.22    0.90
 -12  -1  -9    0.07    0.75
 -11  -1  -9    0.37    0.82
 -10  -1  -9    0.27    0.48
  -9  -1  -9    0.41    0.48
  -8  -1  -9   10.19    1.01
  -7  -1  -9   -0.12    0.47
  -6  -1  -9   20.87    1.65
  -5  -1  -9    6.18    0.89
  -4  -1  -9    1.60    0.49
  -3  -1  -9   27.99    0.96
  -2  -1  -9  158.03    3.34
  -1  -1  -9   60.08    2.04
   0  -1  -9  242.93    5.95
   1  -1  -9   62.73    2.15
   2  -1  -9  154.28    4.23
   3  -1  -9   29.97    2.19
   4  -1  -9    2.08    0.81
   5  -1  -9    5.99    1.34
   6  -1  -9   23.00    2.57
   7  -1  -9   -0.13    0.67
   8  -1  -9   11.33    2.18
   9  -1  -9   -0.24    0.82
  10  -1  -9   -0.68    0.85
  11  -1  -9   -1.55    0.96
  12  -1  -9   -0.34    1.18
  13  -1  -9   -0.31    1.28
  14  -1  -9    4.95    2.31
 -14   0  -9    4.87    1.44
 -13   0  -9    3.22    1.28
 -12   0  -9   10.48    1.74
 -11   0  -9    7.93    1.34
 -10   0  -9   37.20    2.79
  -9   0  -9    1.30    0.75
  -8   0  -9   33.36    2.28
  -7   0  -9    2.88    0.51
  -6   0  -9   17.53    0.97
  -5   0  -9   38.04    1.30
  -4   0  -9    2.97    0.40
  -3   0  -9    5.84    0.51
  -2   0  -9   33.75    1.07
  -1   0  -9    2.06    0.33
   0   0  -9    0.15    0.20
   1   0  -9    2.81    0.38
   2   0  -9   33.81    1.10
   3   0  -9    5.48    0.49
   4   0  -9    2.57    0.53
   5   0  -9   37.16    1.64
   6   0  -9   16.86    1.30
   7   0  -9    2.08    0.59
   8   0  -9   34.19    1.93
   9   0  -9    1.29    0.97
  10   0  -9   46.55    4.30
  11   0  -9   13.60    2.46
  12   0  -9   19.20    3.08
  13   0  -9    4.54    1.84
 -14   1  -9    5.13    2.43
 -13   1  -9    2.22    1.18
 -12   1  -9    0.71    1.03
 -11   1  -9   -0.36    0.77
 -10   1  -9   -0.40    0.63
  -9   1  -9    0.12    0.65
  -8   1  -9   10.22    1.33
  -7   1  -9   -0.63    0.32
  -6   1  -9   23.89    1.37
  -5   1  -9    5.85    0.68
  -4   1  -9    1.24    0.38
  -3   1  -9   25.54    1.03
  -2   1  -9  154.79    2.83
  -1   1  -9   60.38    1.69
   0   1  -9  243.48    4.79
   1   1  -9   61.60    1.61
   2   1  -9  151.95    3.49
   3   1  -9   25.85    1.18
   4   1  -9    1.31    0.37
   5   1  -9    7.83    0.84
   6   1  -9   19.40    1.34
   7   1  -9   -0.15    0.35
   8   1  -9   10.23    1.31
   9   1  -9    0.46    0.62
  10   1  -9   -0.66    0.61
  11   1  -9    1.29    0.83
 -13   2  -9    4.88    2.28
 -12   2  -9    6.59    2.30
 -11   2  -9    7.04    2.00
 -10   2  -9   19.44    3.02
  -9   2  -9    0.53    1.12
  -8   2  -9   24.93    2.07
  -7   2  -9    2.91    0.78
  -6   2  -9   13.85    1.43
  -5   2  -9   23.40    1.76
  -4   2  -9    2.00    0.62
  -3   2  -9    4.02    0.69
  -2   2  -9   24.06    1.32
  -1   2  -9    1.91    0.45
   0   2  -9    0.26    0.30
   1   2  -9    1.79    0.36
   2   2  -9   23.88    1.37
   3   2  -9    2.64    0.52
   4   2  -9    1.14    0.45
   5   2  -9   22.65    1.50
   6   2  -9   14.21    1.23
   7   2  -9    3.10    0.72
   8   2  -9   20.65    1.69
   9   2  -9    0.73    0.75
  10   2  -9   28.49    2.49
  11   2  -9    8.00    1.54
  12   2  -9    6.83    1.57
  13   2  -9    3.32    1.34
 -11   3  -9   -0.69    1.35
 -10   3  -9   -0.23    1.33
  -9   3  -9    1.70    1.59
  -8   3  -9    5.46    1.16
  -7   3  -9   -0.93    0.57
  -6   3  -9   11.78    1.54
  -5   3  -9    3.99    0.92
  -4   3  -9    0.15    0.54
  -3   3  -9   15.97    1.56
  -2   3  -9   74.92    2.39
  -1   3  -9   41.00    1.66
   0   3  -9  131.64    4.37
   1   3  -9   35.23    2.18
   2   3  -9   69.24    2.44
   3   3  -9   17.48    1.40
   4   3  -9    0.04    0.44
   5   3  -9    3.89    0.77
   6   3  -9   11.43    1.25
   7   3  -9    0.75    0.63
   8   3  -9    3.25    1.12
   9   3  -9    1.55    1.00
  10   3  -9    0.13    0.93
  11   3  -9   -1.14    0.97
  -9   4  -9    0.97    1.78
  -8   4  -9    8.46    2.40
  -7   4  -9    2.90    1.15
  -6   4  -9    7.07    1.45
  -5   4  -9    7.50    1.39
  -4   4  -9   -0.35    0.74
  -3   4  -9    0.09    0.85
  -2   4  -9    6.99    1.94
  -1   4  -9    0.50    0.66
   0   4  -9   -0.72    0.55
   1   4  -9   -0.08    0.68
   2   4  -9    9.89    1.48
   3   4  -9    1.38    0.71
   4   4  -9    0.24    0.58
   5   4  -9    8.33    1.23
   6   4  -9    6.52    1.47
   7   4  -9    0.48    0.97
   8   4  -9    7.48    1.57
   9   4  -9    1.84    1.27
  -4   5  -9    0.25    1.48
  -3   5  -9    3.83    1.80
  -2   5  -9   20.04    3.20
  -1   5  -9    8.14    2.10
   0   5  -9   37.47    3.10
   1   5  -9   15.18    1.99
   2   5  -9   16.69    2.15
   3   5  -9    4.81    1.40
   4   5  -9    0.77    1.17
   5   5  -9    3.35    1.48
  -5  -5  -8    0.03    1.06
  -4  -5  -8    0.83    0.85
  -3  -5  -8    3.12    1.18
  -2  -5  -8    2.46    1.20
  -1  -5  -8    4.99    1.27
   0  -5  -8   -0.16    0.96
   1  -5  -8    4.81    1.92
   2  -5  -8    1.27    1.47
   3  -5  -8    5.68    2.09
   4  -5  -8   -0.40    0.97
   5  -5  -8   -1.15    1.30
   6  -5  -8   24.69    3.62
  -9  -4  -8    2.36    1.21
  -8  -4  -8    3.46    1.26
  -7  -4  -8    0.31    0.68
  -6  -4  -8    0.20    0.66
  -5  -4  -8    8.21    1.42
  -4  -4  -8    9.45    1.42
  -3  -4  -8   17.98    1.88
  -2  -4  -8   34.59    2.54
  -1  -4  -8   23.68    2.95
   0  -4  -8   27.48    3.35
   1  -4  -8   22.95    1.97
   2  -4  -8   29.59    2.30
   3  -4  -8   15.31    2.31
   4  -4  -8   11.44    2.13
   5  -4  -8    6.39    1.85
   6  -4  -8    1.24    1.23
   7  -4  -8   -0.11    1.07
   8  -4  -8    1.15    1.38
   9  -4  -8    0.88    1.35
 -12  -3  -8    0.85    1.31
 -11  -3  -8   10.01    1.67
 -10  -3  -8    9.39    1.59
  -9  -3  -8    1.04    0.63
  -8  -3  -8   41.66    2.34
  -7  -3  -8   -0.10    0.43
  -6  -3  -8   39.80    2.46
  -5  -3  -8    0.00    0.51
  -4  -3  -8    0.81    0.61
  -3  -3  -8   10.58    1.26
  -2  -3  -8    5.85    0.98
  -1  -3  -8   16.39    1.37
   0  -3  -8    0.43    0.50
   1  -3  -8   19.59    1.56
   2  -3  -8    8.10    1.50
   3  -3  -8   12.78    1.86
   4  -3  -8    2.07    0.97
   5  -3  -8   -0.83    0.64
   6  -3  -8   41.46    3.95
   7  -3  -8    1.71    1.02
   8  -3  -8   44.83    4.43
   9  -3  -8   -0.25    0.86
  10  -3  -8    6.59    1.96
  11  -3  -8   12.04    2.72
 -13  -2  -8    2.81    1.98
 -12  -2  -8    0.41    0.68
 -11  -2  -8    5.43    0.97
 -10  -2  -8    2.49    0.72
  -9  -2  -8    2.46    0.65
  -8  -2  -8   10.12    1.04
  -7  -2  -8    3.57    0.63
  -6  -2  -8   -0.20    0.42
  -5  -2  -8   17.82    1.55
  -4  -2  -8   26.31    1.81
  -3  -2  -8   41.76    1.95
  -2  -2  -8   90.90    2.76
  -1  -2  -8   43.56    1.72
   0  -2  -8   76.91    2.61
   1  -2  -8   45.52    1.85
   2  -2  -8   86.14    4.15
   3  -2  -8   40.90    2.66
   4  -2  -8   26.09    2.51
   5  -2  -8   18.05    2.31
   6  -2  -8    0.16    0.69
   7  -2  -8    4.99    1.36
   8  -2  -8   13.29    2.16
   9  -2  -8    2.74    1.39
  10  -2  -8    1.98    1.26
  11  -2  -8    7.94    2.24
  12  -2  -8    2.45    1.84
  13  -2  -8    0.19    1.57
 -14  -1  -8    1.54    1.21
 -13  -1  -8   11.80    1.92
 -12  -1  -8   -0.79    0.79
 -11  -1  -8   19.47    2.06
 -10  -1  -8   10.17    1.14
  -9  -1  -8    3.64    0.70
  -8  -1  -8   92.43    2.74
  -7  -1  -8    0.51    0.37
  -6  -1  -8   72.64    2.83
  -5  -1  -8    0.19    0.37
  -4  -1  -8    5.11    0.74
  -3  -1  -8   31.04    0.95
  -2  -1  -8   15.20    0.74
  -1  -1  -8   42.64    1.56
   0  -1  -8   -0.01    0.28
   1  -1  -8   41.68    1.64
   2  -1  -8   17.57    1.77
   3  -1  -8   27.34    2.01
   4  -1  -8    5.62    1.14
   5  -1  -8   -0.90    0.38
   6  -1  -8   79.98    4.24
   7  -1  -8   -0.48    0.62
   8  -1  -8   92.68    5.18
   9  -1  -8    2.43    1.33
  10  -1  -8   15.64    2.77
  11  -1  -8   22.03    3.29
  12  -1  -8   -0.73    1.12
  13  -1  -8   10.12    2.66
  14  -1  -8    2.18    1.69
 -14   0  -8    0.00    1.01
 -13   0  -8    1.13    1.00
 -12   0  -8   -0.52    0.81
 -11   0  -8    7.27    1.32
 -10   0  -8    2.60    0.92
  -9   0  -8    4.05    1.00
  -8   0  -8   16.58    1.14
  -7   0  -8    3.53    0.54
  -6   0  -8    0.11    0.21
  -5   0  -8   21.44    0.99
  -4   0  -8   35.01    1.14
  -3   0  -8   51.05    1.41
  -2   0  -8  157.94    3.17
  -1   0  -8   54.12    1.38
   0   0  -8  118.10    2.50
   1   0  -8   53.37    1.40
   2   0  -8  151.94    3.20
   3   0  -8   50.84    1.79
   4   0  -8   35.06    1.46
   5   0  -8   24.30    1.31
   6   0  -8   -0.23    0.29
   7   0  -8    4.44    0.76
   8   0  -8   15.71    1.40
   9   0  -8    3.72    0.81
  10   0  -8    2.14    1.19
  11   0  -8    6.69    1.85
  12   0  -8    0.74    1.16
 -14   1  -8   -0.78    1.07
 -13   1  -8   14.95    2.11
 -12   1  -8    0.08    0.87
 -11   1  -8   21.95    2.20
 -10   1  -8   10.58    1.53
  -9   1  -8    2.72    0.85
  -8   1  -8   89.89    3.52
  -7   1  -8   -0.66    0.27
  -6   1  -8   75.57    2.23
  -5   1  -8    0.02    0.27
  -4   1  -8    4.63    0.55
  -3   1  -8   30.78    1.08
  -2   1  -8   16.02    0.64
  -1   1  -8   42.69    1.29
   0   1  -8    0.44    0.24
   1   1  -8   42.83    1.20
   2   1  -8   16.28    0.97
   3   1  -8   27.61    1.16
   4   1  -8    3.95    0.57
   5   1  -8   -0.05    0.29
   6   1  -8   73.25    2.30
   7   1  -8    0.29    0.44
   8   1  -8   93.16    3.47
   9   1  -8    4.55    0.98
  10   1  -8   11.73    1.48
  11   1  -8   20.47    1.98
  12   1  -8   -0.30    1.03
 -13   2  -8   -0.23    1.31
 -12   2  -8   -0.11    1.26
 -11   2  -8    8.73    2.27
 -10   2  -8    2.75    1.36
  -9   2  -8    3.80    1.44
  -8   2  -8    8.88    1.07
  -7   2  -8    3.36    0.69
  -6   2  -8    0.33    0.40
  -5   2  -8   18.55    1.15
  -4   2  -8   26.30    1.21
  -3   2  -8   40.54    1.30
  -2   2  -8   91.63    2.47
  -1   2  -8   44.86    1.49
   0   2  -8   81.11    2.13
   1   2  -8   42.71    1.22
   2   2  -8   92.16    2.56
   3   2  -8   37.41    1.53
   4   2  -8   25.86    1.47
   5   2  -8   17.45    1.30
   6   2  -8    0.17    0.43
   7   2  -8    2.44    0.65
   8   2  -8    9.50    1.17
   9   2  -8    0.92    0.68
  10   2  -8    2.91    1.05
  11   2  -8    4.80    1.29
  12   2  -8    1.20    0.99
  13   2  -8   -1.21    0.95
 -11   3  -8   15.34    2.93
 -10   3  -8    5.54    2.01
  -9   3  -8    2.15    1.51
  -8   3  -8   57.46    5.01
  -7   3  -8   -0.37    0.60
  -6   3  -8   39.26    2.67
  -5   3  -8    0.11    0.56
  -4   3  -8    0.93    0.65
  -3   3  -8    9.37    1.20
  -2   3  -8    6.10    0.82
  -1   3  -8   18.09    1.24
   0   3  -8   -0.18    0.37
   1   3  -8   17.19    1.33
   2   3  -8    5.61    0.81
   3   3  -8   13.78    1.17
   4   3  -8    0.96    0.54
   5   3  -8   -0.16    0.46
   6   3  -8   41.46    2.10
   7   3  -8    0.05    0.55
   8   3  -8   39.52    3.01
   9   3  -8    0.18    0.90
  10   3  -8    8.20    1.61
  11   3  -8   12.03    1.96
  12   3  -8   -0.82    1.48
  -9   4  -8    1.65    1.86
  -8   4  -8    4.78    2.02
  -7   4  -8    2.21    1.08
  -6   4  -8   -0.41    0.83
  -5   4  -8    6.67    1.34
  -4   4  -8   10.27    1.50
  -3   4  -8   17.64    1.84
  -2   4  -8   36.04    3.79
  -1   4  -8   19.92    2.01
   0   4  -8   31.69    2.51
   1   4  -8   21.48    2.10
   2   4  -8   35.00    2.16
   3   4  -8   17.34    1.57
   4   4  -8   10.44    1.24
   5   4  -8    9.03    1.15
   6   4  -8    0.96    1.00
   7   4  -8    0.55    0.99
   8   4  -8    3.84    1.29
   9   4  -8    1.40    1.28
  -5   5  -8    1.28    1.36
  -4   5  -8    0.40    1.49
  -3   5  -8    2.60    1.63
  -2   5  -8    0.36    1.18
  -1   5  -8    7.16    2.00
   0   5  -8    0.73    0.92
   1   5  -8    7.93    1.54
   2   5  -8    2.75    1.12
   3   5  -8    5.74    2.01
   4   5  -8    0.40    1.10
   5   5  -8    1.08    1.22
   6   5  -8   10.72    2.84
  -6  -5  -7   -0.14    1.15
  -5  -5  -7    0.65    1.11
  -4  -5  -7   -0.48    0.96
  -3  -5  -7   25.45    2.00
  -2  -5  -7    5.61    1.32
  -1  -5  -7    2.71    1.14
   0  -5  -7   17.96    2.20
   1  -5  -7    0.78    1.39
   2  -5  -7    7.41    2.27
   3  -5  -7   30.86    3.82
   4  -5  -7    0.33    0.99
   5  -5  -7    0.68    1.32
   6  -5  -7    0.04    1.36
  -9  -4  -7    1.35    1.06
  -8  -4  -7   14.74    1.91
  -7  -4  -7   -0.76    0.76
  -6  -4  -7    1.94    0.75
  -5  -4  -7    3.09    0.82
  -4  -4  -7    0.54    0.73
  -3  -4  -7   10.94    1.51
  -2  -4  -7    9.67    1.43
  -1  -4  -7    2.28    1.26
   0  -4  -7    0.41    1.00
   1  -4  -7    3.32    0.88
   2  -4  -7    7.49    1.26
   3  -4  -7   11.65    2.10
   4  -4  -7    1.28    1.00
   5  -4  -7    3.47    1.37
   6  -4  -7    3.49    1.48
   7  -4  -7    0.54    1.09
   8  -4  -7    9.94    2.29
   9  -4  -7    1.40    1.41
 -12  -3  -7   -0.05    1.00
 -11  -3  -7    0.60    0.91
 -10  -3  -7    2.85    1.02
  -9  -3  -7    0.69    0.63
  -8  -3  -7   12.75    1.31
  -7  -3  -7    2.96    0.72
  -6  -3  -7   -0.08    0.56
  -5  -3  -7    3.37    0.86
  -4  -3  -7    1.09    0.60
  -3  -3  -7   95.23    3.50
  -2  -3  -7   13.58    1.39
  -1  -3  -7   11.62    1.15
   0  -3  -7   54.58    2.33
   1  -3  -7   11.14    1.19
   2  -3  -7   12.87    1.80
   3  -3  -7   79.66    4.49
   4  -3  -7    1.54    0.89
   5  -3  -7    2.65    1.10
   6  -3  -7    0.70    0.88
   7  -3  -7    0.62    0.97
   8  -3  -7   10.30    2.08
   9  -3  -7   -0.44    0.88
  10  -3  -7    0.71    1.16
  11  -3  -7   -0.40    1.11
  12  -3  -7    0.74    1.49
 -13  -2  -7   29.92    2.74
 -12  -2  -7    2.12    1.03
 -11  -2  -7   -0.26    0.54
 -10  -2  -7   12.32    1.30
  -9  -2  -7    5.41    0.82
  -8  -2  -7   32.44    1.70
  -7  -2  -7    1.11    0.47
  -6  -2  -7    9.96    1.19
  -5  -2  -7    6.37    0.90
  -4  -2  -7    2.01    0.58
  -3  -2  -7   25.84    1.60
  -2  -2  -7   24.90    1.23
  -1  -2  -7    9.26    0.86
   0  -2  -7    0.21    0.33
   1  -2  -7    9.15    1.22
   2  -2  -7   25.65    1.89
   3  -2  -7   26.42    2.38
   4  -2  -7    1.49    0.81
   5  -2  -7    7.33    1.41
   6  -2  -7    7.99    1.64
   7  -2  -7    0.49    0.80
   8  -2  -7   32.71    3.29
   9  -2  -7    4.45    1.52
  10  -2  -7   11.61    2.45
  11  -2  -7    1.77    1.29
  12  -2  -7    1.12    1.47
  13  -2  -7   37.38    4.79
 -14  -1  -7   -0.06    1.00
 -13  -1  -7    8.28    1.62
 -12  -1  -7   -0.34    0.77
 -11  -1  -7    0.86    0.59
 -10  -1  -7    3.79    0.79
  -9  -1  -7    0.56    0.47
  -8  -1  -7   24.24    1.48
  -7  -1  -7    4.99    0.68
  -6  -1  -7    0.04    0.39
  -5  -1  -7    8.48    0.96
  -4  -1  -7    6.06    0.76
  -3  -1  -7  200.66    5.22
  -2  -1  -7   15.90    0.71
  -1  -1  -7   28.83    1.16
   0  -1  -7  162.75    4.13
   1  -1  -7   26.96    1.20
   2  -1  -7   17.68    1.66
   3  -1  -7  189.99    7.35
   4  -1  -7    8.43    1.35
   5  -1  -7    9.37    1.52
   6  -1  -7    0.36    0.52
   7  -1  -7    6.71    1.42
   8  -1  -7   26.34    2.99
   9  -1  -7    1.12    0.96
  10  -1  -7    3.63    1.40
  11  -1  -7   -0.79    0.97
  12  -1  -7    0.05    1.20
  13  -1  -7    7.87    2.40
  14  -1  -7   -0.15    1.64
 -14   0  -7    0.08    0.97
 -13   0  -7   39.17    3.17
 -12   0  -7    1.99    0.96
 -11   0  -7   -0.06    0.66
 -10   0  -7   20.86    2.06
  -9   0  -7    9.60    1.32
  -8   0  -7   41.70    1.60
  -7   0  -7    0.43    0.34
  -6   0  -7   18.49    0.97
  -5   0  -7   12.03    0.78
  -4   0  -7    0.97    0.27
  -3   0  -7   36.98    1.11
  -2   0  -7   33.58    1.01
  -1   0  -7   15.58    0.61
   0   0  -7    0.22    0.19
   1   0  -7   16.48    0.65
   2   0  -7   35.42    1.01
   3   0  -7   36.95    1.41
   4   0  -7    0.71    0.32
   5   0  -7   15.20    1.12
   6   0  -7   19.80    1.39
   7   0  -7    1.23    0.47
   8   0  -7   38.23    2.03
   9   0  -7    8.32    1.14
  10   0  -7   19.40    1.78
  11   0  -7    0.04    0.87
  12   0  -7    1.49    1.32
 -14   1  -7    0.44    1.05
 -13   1  -7    2.80    1.23
 -12   1  -7   -0.18    0.87
 -11   1  -7    0.69    0.76
 -10   1  -7    1.98    0.90
  -9   1  -7    0.08    0.61
  -8   1  -7   25.93    2.01
  -7   1  -7    6.11    0.75
  -6   1  -7    0.03    0.31
  -5   1  -7   10.83    0.83
  -4   1  -7    6.84    0.63
  -3   1  -7  202.41    4.10
  -2   1  -7   15.11    0.59
  -1   1  -7   28.15    0.97
   0   1  -7  159.42    3.31
   1   1  -7   26.50    0.77
   2   1  -7   16.06    0.93
   3   1  -7  199.35    4.29
   4   1  -7    5.39    0.63
   5   1  -7   10.33    0.90
   6   1  -7    0.23    0.41
   7   1  -7    6.21    1.00
   8   1  -7   27.33    2.05
   9   1  -7    1.15    0.67
  10   1  -7    3.49    0.90
  11   1  -7    1.09    0.73
  12   1  -7   -0.05    0.98
 -13   2  -7   33.48    4.17
 -12   2  -7    3.75    1.65
 -11   2  -7    0.02    1.03
 -10   2  -7   10.85    1.77
  -9   2  -7    6.01    1.28
  -8   2  -7   33.34    2.53
  -7   2  -7    1.47    0.56
  -6   2  -7    9.90    0.92
  -5   2  -7    7.60    0.74
  -4   2  -7    1.36    0.39
  -3   2  -7   25.78    1.05
  -2   2  -7   25.35    0.86
  -1   2  -7   10.11    0.52
   0   2  -7   -0.17    0.24
   1   2  -7   10.95    0.65
   2   2  -7   26.16    0.85
   3   2  -7   27.61    1.30
   4   2  -7    1.41    0.45
   5   2  -7    8.33    0.86
   6   2  -7    8.47    0.94
   7   2  -7    0.55    0.46
   8   2  -7   35.00    2.12
   9   2  -7    6.19    1.05
  10   2  -7   10.48    1.54
  11   2  -7   -0.08    0.89
  12   2  -7    1.70    1.12
  13   2  -7   37.85    3.19
 -12   3  -7    0.14    1.50
 -11   3  -7   -0.64    1.35
 -10   3  -7    2.81    1.48
  -9   3  -7   -0.39    1.21
  -8   3  -7   12.14    2.31
  -7   3  -7    2.89    0.94
  -6   3  -7   -1.17    0.49
  -5   3  -7    3.19    0.86
  -4   3  -7    0.91    0.60
  -3   3  -7   88.33    3.33
  -2   3  -7   10.08    0.95
  -1   3  -7   11.74    1.01
   0   3  -7   59.83    1.95
   1   3  -7   11.51    1.09
   2   3  -7   11.61    1.09
   3   3  -7   95.31    2.88
   4   3  -7    0.92    0.48
   5   3  -7    2.70    0.68
   6   3  -7   -0.15    0.46
   7   3  -7    1.29    0.57
   8   3  -7   12.75    1.69
   9   3  -7    0.67    0.86
  10   3  -7    1.57    1.02
  11   3  -7    1.29    1.21
  12   3  -7    1.02    1.17
  -9   4  -7    1.74    1.76
  -8   4  -7   11.99    2.59
  -7   4  -7   -1.42    1.30
  -6   4  -7    2.91    1.06
  -5   4  -7    1.82    0.95
  -4   4  -7    0.79    0.80
  -3   4  -7    9.30    1.43
  -2   4  -7    8.91    1.34
  -1   4  -7    4.68    1.09
   0   4  -7   -0.33    0.51
   1   4  -7    3.67    0.94
   2   4  -7   10.24    1.19
   3   4  -7   11.67    1.28
   4   4  -7    1.33    0.66
   5   4  -7    1.97    1.06
   6   4  -7    2.48    1.11
   7   4  -7    0.72    0.95
   8   4  -7   19.24    2.28
   9   4  -7    1.27    1.18
  10   4  -7    0.36    1.89
  -6   5  -7    1.14    1.85
  -5   5  -7    0.48    1.42
  -4   5  -7   -0.79    1.13
  -3   5  -7   31.19    3.89
  -2   5  -7    1.96    1.51
  -1   5  -7    0.21    1.28
   0   5  -7   17.11    2.11
   1   5  -7    1.83    1.07
   2   5  -7    2.82    1.13
   3   5  -7   25.34    3.71
   4   5  -7    0.12    1.04
   5   5  -7   -0.15    1.10
   6   5  -7    1.20    1.54
  -6  -5  -6   -0.63    1.11
  -5  -5  -6    0.51    1.06
  -4  -5  -6   12.17    1.90
  -3  -5  -6   -1.16    0.88
  -2  -5  -6    1.36    1.05
  -1  -5  -6    0.01    0.93
   0  -5  -6   -0.17    0.98
   1  -5  -6   -1.62    0.96
   2  -5  -6    1.99    1.60
   3  -5  -6    0.59    0.94
   4  -5  -6   15.16    2.69
   5  -5  -6    0.47    1.28
   6  -5  -6    0.24    1.26
 -10  -4  -6    0.25    1.15
  -9  -4  -6    0.11    0.97
  -8  -4  -6    9.99    1.60
  -7  -4  -6   -0.12    0.76
  -6  -4  -6   28.00    1.95
  -5  -4  -6   11.65    1.27
  -4  -4  -6   16.87    1.80
  -3  -4  -6    2.11    0.85
  -2  -4  -6    1.49    0.72
  -1  -4  -6   15.05    2.37
   0  -4  -6    8.96    1.91
   1  -4  -6   19.33    1.76
   2  -4  -6    2.91    1.12
   3  -4  -6    5.38    1.47
   4  -4  -6   17.60    2.50
   5  -4  -6   10.64    2.18
   6  -4  -6   29.39    3.53
   7  -4  -6    0.25    1.04
   8  -4  -6   12.23    2.59
   9  -4  -6    1.21    1.14
  10  -4  -6   -0.29    1.34
 -12  -3  -6    2.56    1.24
 -11  -3  -6   22.69    2.39
 -10  -3  -6    3.50    1.06
  -9  -3  -6    3.81    1.05
  -8  -3  -6    1.25    0.61
  -7  -3  -6   10.05    1.11
  -6  -3  -6   -0.17    0.39
  -5  -3  -6    0.16    0.51
  -4  -3  -6   43.13    2.19
  -3  -3  -6   -0.51    0.42
  -2  -3  -6    3.94    0.81
  -1  -3  -6    1.57    0.53
   0  -3  -6   -0.41    0.34
   1  -3  -6    0.18    0.57
   2  -3  -6    3.18    1.06
   3  -3  -6   -0.09    0.69
   4  -3  -6   38.72    2.97
   5  -3  -6   -0.50    0.57
   6  -3  -6   -0.13    0.70
   7  -3  -6   13.40    2.23
   8  -3  -6   -0.06    0.75
   9  -3  -6    4.29    1.49
  10  -3  -6    2.86    1.61
  11  -3  -6   20.41    3.29
  12  -3  -6    2.16    1.64
 -13  -2  -6    1.81    1.10
 -12  -2  -6    1.60    0.89
 -11  -2  -6    8.83    1.08
 -10  -2  -6    0.45    0.49
  -9  -2  -6    1.14    0.52
  -8  -2  -6   25.54    1.65
  -7  -2  -6    0.84    0.45
  -6  -2  -6   82.25    3.02
  -5  -2  -6   35.29    1.82
  -4  -2  -6   36.87    1.82
  -3  -2  -6   12.54    0.67
  -2  -2  -6    4.44    0.55
  -1  -2  -6   65.56    2.12
   0  -2  -6   20.26    1.17
   1  -2  -6   60.42    2.98
   2  -2  -6    5.67    1.03
   3  -2  -6   10.94    1.48
   4  -2  -6   41.95    2.68
   5  -2  -6   35.79    2.60
   6  -2  -6   81.11    4.38
   7  -2  -6   -0.69    0.42
   8  -2  -6   26.42    2.99
   9  -2  -6    1.13    1.00
  10  -2  -6   -0.59    0.83
  11  -2  -6    6.17    1.99
  12  -2  -6    4.75    1.87
  13  -2  -6    0.64    1.47
  14  -2  -6    0.36    1.77
 -14  -1  -6    7.56    2.70
 -13  -1  -6   -0.06    0.91
 -12  -1  -6    4.78    1.22
 -11  -1  -6   36.87    2.15
 -10  -1  -6    7.09    0.93
  -9  -1  -6    2.68    0.58
  -8  -1  -6    2.92    0.59
  -7  -1  -6   26.93    1.38
  -6  -1  -6    0.88    0.36
  -5  -1  -6    0.04    0.34
  -4  -1  -6   80.78    2.63
  -3  -1  -6    0.72    0.29
  -2  -1  -6   12.03    0.59
  -1  -1  -6    2.31    0.39
   0  -1  -6   -0.28    0.21
   1  -1  -6    4.29    0.75
   2  -1  -6   15.60    1.44
   3  -1  -6    1.16    0.55
   4  -1  -6   76.46    3.70
   5  -1  -6   -0.15    0.22
   6  -1  -6    1.53    0.40
   7  -1  -6   27.65    1.46
   8  -1  -6   -0.11    0.66
   9  -1  -6    2.36    1.19
  10  -1  -6   10.05    2.13
  11  -1  -6   44.71    4.45
  12  -1  -6    5.03    1.92
  13  -1  -6    0.62    1.49
 -14   0  -6   -0.27    0.93
 -13   0  -6    0.49    0.90
 -12   0  -6    5.61    1.30
 -11   0  -6   11.78    1.61
 -10   0  -6   -0.11    0.55
  -9   0  -6    0.07    0.38
  -8   0  -6   39.47    1.51
  -7   0  -6    2.07    0.42
  -6   0  -6  114.04    2.72
  -5   0  -6   58.28    1.35
  -4   0  -6   60.57    1.57
  -3   0  -6   27.33    0.88
  -2   0  -6    7.44    0.49
  -1   0  -6  133.31    2.27
   0   0  -6   39.14    1.04
   1   0  -6  130.48    2.68
   2   0  -6    8.73    0.69
   3   0  -6   26.96    1.13
   4   0  -6   58.60    1.98
   5   0  -6   55.03    2.02
   6   0  -6  114.00    3.43
   7   0  -6    2.07    0.59
   8   0  -6   40.05    1.92
   9   0  -6    0.26    0.47
  10   0  -6    0.40    0.57
  11   0  -6    9.64    2.01
  12   0  -6    4.45    1.58
 -14   1  -6    9.43    1.74
 -13   1  -6   -0.52    0.86
 -12   1  -6    4.50    1.27
 -11   1  -6   37.86    2.85
 -10   1  -6   10.37    1.50
  -9   1  -6    2.95    0.84
  -8   1  -6    0.72    0.61
  -7   1  -6   24.35    1.85
  -6   1  -6    1.77    0.43
  -5   1  -6    0.15    0.24
  -4   1  -6   84.91    2.12
  -3   1  -6    1.34    0.29
  -2   1  -6   12.42    0.55
  -1   1  -6    3.46    0.39
   0   1  -6   -0.03    0.18
   1   1  -6    3.41    0.29
   2   1  -6   13.25    0.82
   3   1  -6    0.50    0.28
   4   1  -6   79.12    2.19
   5   1  -6   -0.26    0.30
   6   1  -6    1.04    0.47
   7   1  -6   27.51    1.91
   8   1  -6    3.10    0.81
   9   1  -6    2.06    0.76
  10   1  -6    6.35    1.09
  11   1  -6   44.16    3.51
  12   1  -6    5.17    1.67
  13   1  -6    1.51    1.35
 -13   2  -6   -0.30    1.09
 -12   2  -6    4.11    1.37
 -11   2  -6    7.53    1.60
 -10   2  -6    0.34    0.83
  -9   2  -6   -0.39    0.79
  -8   2  -6   30.83    2.37
  -7   2  -6    1.68    0.51
  -6   2  -6   79.56    2.42
  -5   2  -6   38.05    1.47
  -4   2  -6   40.11    1.43
  -3   2  -6   12.70    0.80
  -2   2  -6    5.29    0.43
  -1   2  -6   62.79    1.44
   0   2  -6   20.77    0.95
   1   2  -6   61.54    1.51
   2   2  -6    5.66    0.47
   3   2  -6   11.77    0.92
   4   2  -6   42.93    1.56
   5   2  -6   34.58    1.49
   6   2  -6   73.10    2.42
   7   2  -6    0.71    0.49
   8   2  -6   26.03    1.78
   9   2  -6   -1.22    0.57
  10   2  -6    0.05    0.70
  11   2  -6    8.00    1.48
  12   2  -6    4.53    1.26
  13   2  -6    0.56    1.08
  14   2  -6    1.47    2.24
 -12   3  -6    1.10    1.57
 -11   3  -6   18.13    3.09
 -10   3  -6    5.09    1.85
  -9   3  -6    1.80    1.40
  -8   3  -6   -0.13    1.06
  -7   3  -6    9.01    1.35
  -6   3  -6    1.12    0.67
  -5   3  -6    0.39    0.56
  -4   3  -6   38.90    2.11
  -3   3  -6    0.01    0.49
  -2   3  -6    5.97    0.76
  -1   3  -6    1.24    0.45
   0   3  -6    0.40    0.37
   1   3  -6    1.58    0.43
   2   3  -6    3.84    0.66
   3   3  -6   -0.34    0.37
   4   3  -6   41.39    1.77
   5   3  -6    0.61    0.46
   6   3  -6    0.61    0.50
   7   3  -6    8.63    1.36
   8   3  -6    0.53    0.70
   9   3  -6    2.69    1.10
  10   3  -6    3.03    1.26
  11   3  -6   21.03    2.48
  12   3  -6    2.20    1.32
 -10   4  -6    0.95    1.70
  -9   4  -6    1.36    1.48
  -8   4  -6   11.59    2.51
  -7   4  -6    0.15    1.38
  -6   4  -6   33.00    2.71
  -5   4  -6   11.89    1.62
  -4   4  -6   15.78    1.72
  -3   4  -6    2.11    0.90
  -2   4  -6    1.14    0.77
  -1   4  -6   16.92    1.79
   0   4  -6    9.37    1.29
   1   4  -6   19.56    1.87
   2   4  -6    1.46    0.66
   3   4  -6    3.16    0.80
   4   4  -6   14.18    1.38
   5   4  -6   13.58    1.82
   6   4  -6   31.77    2.79
   7   4  -6    0.51    0.92
   8   4  -6    8.21    1.57
   9   4  -6   -1.08    1.05
  10   4  -6    0.16    1.24
  -6   5  -6   -0.99    1.90
  -5   5  -6   -0.49    1.55
  -4   5  -6    7.30    2.07
  -3   5  -6    0.05    1.20
  -2   5  -6    1.78    1.44
  -1   5  -6    1.99    1.47
   0   5  -6   -0.45    0.79
   1   5  -6    0.69    0.94
   2   5  -6    1.14    0.96
   3   5  -6    0.64    1.07
   4   5  -6   14.93    2.16
   5   5  -6    1.51    1.25
   6   5  -6   -0.51    1.10
  -7  -5  -5    8.78    2.56
  -6  -5  -5   -1.00    1.01
  -5  -5  -5    1.51    1.08
  -4  -5  -5    9.50    1.66
  -3  -5  -5    1.59    1.13
  -2  -5  -5    4.61    1.07
  -1  -5  -5    3.62    1.20
   0  -5  -5    2.76    1.20
   1  -5  -5    5.84    1.95
   2  -5  -5    9.19    2.13
   3  -5  -5    0.43    0.96
   4  -5  -5   11.76    2.47
   5  -5  -5   -0.72    1.20
   6  -5  -5   -1.37    1.05
 -10  -4  -5    2.66    1.26
  -9  -4  -5   17.72    2.17
  -8  -4  -5    0.27    0.92
  -7  -4  -5   -0.67    0.73
  -6  -4  -5   19.26    1.99
  -5  -4  -5   -0.48    0.52
  -4  -4  -5    6.38    0.93
  -3  -4  -5    2.50    0.90
  -2  -4  -5   71.16    3.13
  -1  -4  -5    7.17    1.14
   0  -4  -5    0.12    0.56
   1  -4  -5    6.66    1.05
   2  -4  -5   67.75    4.07
   3  -4  -5    3.97    1.32
   4  -4  -5    2.58    1.22
   5  -4  -5    1.08    1.08
   6  -4  -5   18.55    2.76
   7  -4  -5    0.68    1.17
   8  -4  -5   -0.07    1.04
   9  -4  -5   12.71    2.61
  10  -4  -5    0.53    1.25
 -12  -3  -5   10.34    1.80
 -11  -3  -5   -0.28    0.87
 -10  -3  -5   22.48    2.28
  -9  -3  -5    7.15    1.32
  -8  -3  -5   28.82    1.83
  -7  -3  -5   22.70    1.57
  -6  -3  -5   -0.29    0.37
  -5  -3  -5   -0.29    0.45
  -4  -3  -5   26.47    1.93
  -3  -3  -5    2.70    0.67
  -2  -3  -5   20.58    1.21
  -1  -3  -5   13.44    1.19
   0  -3  -5   13.93    1.24
   1  -3  -5   19.47    1.99
   2  -3  -5   24.32    2.37
   3  -3  -5    5.38    1.25
   4  -3  -5   30.57    2.96
   5  -3  -5    0.34    0.82
   6  -3  -5   -0.41    0.63
   7  -3  -5   24.97    2.93
   8  -3  -5   29.45    3.38
   9  -3  -5    5.94    1.77
  10  -3  -5   17.67    2.99
  11  -3  -5    0.76    1.35
  12  -3  -5    5.29    2.01
 -13  -2  -5    0.54    0.96
 -12  -2  -5    6.84    1.39
 -11  -2  -5    0.61    0.64
 -10  -2  -5    4.15    0.81
  -9  -2  -5   29.21    1.79
  -8  -2  -5    2.53    0.61
  -7  -2  -5   -0.14    0.35
  -6  -2  -5   53.87    1.86
  -5  -2  -5   -0.11    0.34
  -4  -2  -5   13.44    1.16
  -3  -2  -5   11.17    0.63
  -2  -2  -5  186.28    3.92
  -1  -2  -5   19.88    1.06
   0  -2  -5    0.13    0.29
   1  -2  -5   18.30    1.44
   2  -2  -5  183.96    6.91
   3  -2  -5    9.87    1.46
   4  -2  -5   16.01    1.85
   5  -2  -5    1.64    0.79
   6  -2  -5   49.76    3.26
   7  -2  -5    0.51    0.75
   8  -2  -5    2.01    0.98
   9  -2  -5   30.62    3.40
  10  -2  -5    4.88    1.52
  11  -2  -5    0.55    1.16
  12  -2  -5    6.87    2.04
  13  -2  -5   -0.81    1.21
  14  -2  -5    0.68    1.80
 -14  -1  -5    5.82    2.48
 -13  -1  -5    5.47    1.35
 -12  -1  -5    8.91    1.12
 -11  -1  -5    1.47    0.64
 -10  -1  -5   32.34    1.90
  -9  -1  -5   15.75    1.21
  -8  -1  -5   58.21    2.04
  -7  -1  -5   47.12    1.67
  -6  -1  -5    0.29    0.28
  -5  -1  -5    1.53    0.49
  -4  -1  -5   70.76    2.40
  -3  -1  -5    8.49    0.77
  -2  -1  -5   31.32    0.91
  -1  -1  -5   38.22    1.25
   0  -1  -5   56.81    1.72
   1  -1  -5   38.08    1.89
   2  -1  -5   31.01    1.81
   3  -1  -5   10.19    1.27
   4  -1  -5   76.77    3.52
   5  -1  -5    0.98    0.31
   6  -1  -5   -0.22    0.29
   7  -1  -5   44.94    1.86
   8  -1  -5   61.31    2.42
   9  -1  -5   16.54    2.40
  10  -1  -5   33.41    3.64
  11  -1  -5    0.34    1.16
  12  -1  -5   17.57    2.99
  13  -1  -5    8.87    2.31
 -15   0  -5   -1.45    1.21
 -14   0  -5    0.86    0.96
 -13   0  -5    1.70    1.00
 -12   0  -5   13.14    1.72
 -11   0  -5    0.41    0.75
 -10   0  -5    4.59    1.00
  -9   0  -5   48.31    1.81
  -8   0  -5    6.38    0.73
  -7   0  -5   -0.06    0.26
  -6   0  -5   87.05    2.23
  -5   0  -5    0.05    0.21
  -4   0  -5   16.24    0.74
  -3   0  -5   19.33    0.72
  -2   0  -5  338.86    6.05
  -1   0  -5   34.14    0.75
   0   0  -5   -0.30    0.15
   1   0  -5   37.16    0.94
   2   0  -5  330.48    7.56
   3   0  -5   22.86    0.97
   4   0  -5   16.72    0.95
   5   0  -5   -0.06    0.28
   6   0  -5   88.13    2.82
   7   0  -5   -0.05    0.35
   8   0  -5    7.62    0.97
   9   0  -5   45.42    2.17
  10   0  -5    7.00    1.07
  11   0  -5    2.17    0.82
  12   0  -5   13.20    2.42
 -14   1  -5    5.29    1.47
 -13   1  -5    5.77    1.41
 -12   1  -5   12.92    1.80
 -11   1  -5    1.61    0.91
 -10   1  -5   34.73    2.55
  -9   1  -5   15.50    1.68
  -8   1  -5   66.20    2.74
  -7   1  -5   47.03    2.19
  -6   1  -5    0.05    0.27
  -5   1  -5    1.66    0.37
  -4   1  -5   74.52    1.94
  -3   1  -5    8.60    0.61
  -2   1  -5   30.65    0.83
  -1   1  -5   36.81    0.84
   0   1  -5   53.43    1.36
   1   1  -5   36.83    0.88
   2   1  -5   31.75    1.07
   3   1  -5    8.55    0.68
   4   1  -5   73.59    2.02
   5   1  -5    1.40    0.37
   6   1  -5   -0.35    0.28
   7   1  -5   49.08    1.74
   8   1  -5   63.12    2.13
   9   1  -5   17.45    1.69
  10   1  -5   34.84    2.42
  11   1  -5    0.13    0.88
  12   1  -5   10.29    2.11
  13   1  -5    5.82    1.84
  14   1  -5    6.44    2.19
 -14   2  -5    0.13    1.61
 -13   2  -5   -0.44    0.97
 -12   2  -5    5.56    1.45
 -11   2  -5    0.09    0.91
 -10   2  -5    4.72    1.16
  -9   2  -5   39.26    2.87
  -8   2  -5    3.14    0.96
  -7   2  -5    0.42    0.57
  -6   2  -5   53.40    1.90
  -5   2  -5    0.31    0.36
  -4   2  -5   15.27    0.98
  -3   2  -5   12.26    0.78
  -2   2  -5  184.68    3.42
  -1   2  -5   17.97    0.72
   0   2  -5   -0.15    0.16
   1   2  -5   18.88    0.81
   2   2  -5  187.65    3.42
   3   2  -5   11.97    0.77
   4   2  -5   13.70    0.86
   5   2  -5    0.53    0.33
   6   2  -5   54.42    1.67
   7   2  -5    0.49    0.38
   8   2  -5    3.77    0.64
   9   2  -5   36.74    2.13
  10   2  -5    4.53    0.84
  11   2  -5    0.39    0.77
  12   2  -5    8.86    1.55
  13   2  -5   -0.40    0.99
  14   2  -5    2.26    2.00
 -12   3  -5    4.45    1.98
 -11   3  -5   -0.19    1.24
 -10   3  -5   16.75    2.88
  -9   3  -5    6.63    1.88
  -8   3  -5   29.17    3.35
  -7   3  -5   22.49    2.92
  -6   3  -5   -0.08    0.57
  -5   3  -5    0.07    0.41
  -4   3  -5   29.90    1.46
  -3   3  -5    4.31    0.61
  -2   3  -5   21.61    1.02
  -1   3  -5   15.07    0.88
   0   3  -5   15.83    0.81
   1   3  -5   14.45    0.89
   2   3  -5   20.74    1.03
   3   3  -5    3.38    0.63
   4   3  -5   29.19    1.38
   5   3  -5   -0.52    0.32
   6   3  -5   -0.54    0.34
   7   3  -5   24.21    1.78
   8   3  -5   33.95    2.15
   9   3  -5    6.54    1.10
  10   3  -5   14.59    1.99
  11   3  -5    0.66    1.07
  12   3  -5    4.88    1.62
 -10   4  -5    0.41    1.44
  -9   4  -5   17.50    3.08
  -8   4  -5    0.59    1.29
  -7   4  -5   -0.52    1.24
  -6   4  -5   18.96    2.98
  -5   4  -5    0.49    0.76
  -4   4  -5    5.57    1.19
  -3   4  -5    2.59    0.85
  -2   4  -5   67.47    3.00
  -1   4  -5    6.85    0.93
   0   4  -5   -0.81    0.54
   1   4  -5    6.18    0.91
   2   4  -5   67.84    2.52
   3   4  -5    3.32    0.76
   4   4  -5    7.39    1.04
   5   4  -5    0.47    0.76
   6   4  -5   21.68    2.26
   7   4  -5    0.08    0.95
   8   4  -5    0.46    0.96
   9   4  -5   11.73    1.99
  10   4  -5    0.75    1.18
  -7   5  -5    6.26    2.56
  -6   5  -5   -0.48    1.75
  -5   5  -5   -1.47    1.52
  -4   5  -5    7.20    1.61
  -3   5  -5    0.07    1.18
  -2   5  -5    4.49    1.81
  -1   5  -5    5.18    1.85
   0   5  -5    4.37    1.15
   1   5  -5    2.79    1.08
   2   5  -5    7.62    2.15
   3   5  -5    2.15    1.22
   4   5  -5    8.04    1.67
   5   5  -5    0.44    1.07
   6   5  -5    0.81    1.25
   7   5  -5    4.16    1.96
  -7  -5  -4   -0.13    1.85
  -6  -5  -4   -0.04    1.07
  -5  -5  -4    0.06    0.95
  -4  -5  -4   43.56    3.15
  -3  -5  -4    4.01    1.28
  -2  -5  -4    7.24    1.41
  -1  -5  -4    3.40    0.92
   0  -5  -4   -0.53    0.80
   1  -5  -4    2.69    1.52
   2  -5  -4    9.89    1.51
   3  -5  -4    6.03    1.94
   4  -5  -4   48.56    4.72
   5  -5  -4   -1.46    1.27
   6  -5  -4   -1.14    1.16
 -10  -4  -4    0.11    1.08
  -9  -4  -4    2.56    1.14
  -8  -4  -4    2.27    1.04
  -7  -4  -4   20.37    2.11
  -6  -4  -4   32.86    2.60
  -5  -4  -4    2.08    0.71
  -4  -4  -4    3.44    0.76
  -3  -4  -4    1.15    0.78
  -2  -4  -4   23.17    1.95
  -1  -4  -4    2.86    0.86
   0  -4  -4   15.72    1.51
   1  -4  -4    1.69    1.05
   2  -4  -4   24.16    2.72
   3  -4  -4    0.88    0.98
   4  -4  -4    4.02    1.42
   5  -4  -4    1.90    1.18
   6  -4  -4   34.39    3.74
   7  -4  -4   22.66    3.19
   8  -4  -4    3.48    1.57
   9  -4  -4    1.12    1.29
  10  -4  -4    0.65    1.21
 -12  -3  -4    2.89    1.28
 -11  -3  -4   -0.14    0.86
 -10  -3  -4    1.31    0.94
  -9  -3  -4   10.07    1.47
  -8  -3  -4    6.47    1.20
  -7  -3  -4   -0.48    0.40
  -6  -3  -4   -0.19    0.40
  -5  -3  -4    0.49    0.41
  -4  -3  -4  135.96    4.30
  -3  -3  -4   18.61    1.57
  -2  -3  -4   33.24    1.34
  -1  -3  -4    9.79    0.99
   0  -3  -4    0.02    0.37
   1  -3  -4   11.88    1.06
   2  -3  -4   33.91    2.40
   3  -3  -4   16.71    2.04
   4  -3  -4  139.61    6.11
   5  -3  -4    1.24    0.86
   6  -3  -4    1.24    0.97
   7  -3  -4    0.59    0.88
   8  -3  -4    7.66    1.75
   9  -3  -4   11.60    2.32
  10  -3  -4    3.88    1.59
  11  -3  -4    0.26    1.25
  12  -3  -4    1.89    1.52
 -14  -2  -4    5.30    1.98
 -13  -2  -4    2.37    1.05
 -12  -2  -4   30.00    2.65
 -11  -2  -4    0.08    0.65
 -10  -2  -4    0.18    0.48
  -9  -2  -4   16.20    1.35
  -8  -2  -4    4.31    0.72
  -7  -2  -4   60.14    2.04
  -6  -2  -4   87.59    2.51
  -5  -2  -4    2.18    0.59
  -4  -2  -4   10.67    1.03
  -3  -2  -4    9.90    0.60
  -2  -2  -4   66.01    1.75
  -1  -2  -4    6.29    0.66
   0  -2  -4   38.80    2.08
   1  -2  -4    6.96    1.03
   2  -2  -4   67.87    3.20
   3  -2  -4    8.75    1.31
   4  -2  -4   11.77    1.58
   5  -2  -4    4.18    1.08
   6  -2  -4   83.66    4.44
   7  -2  -4   59.28    3.65
   8  -2  -4    4.90    1.39
   9  -2  -4   18.43    2.62
  10  -2  -4    0.55    1.02
  11  -2  -4    0.87    0.97
  12  -2  -4   32.30    3.95
  13  -2  -4    7.64    2.32
  14  -2  -4    1.91    1.96
 -14  -1  -4    3.22    2.06
 -13  -1  -4    5.35    2.01
 -12  -1  -4    5.38    0.97
 -11  -1  -4    0.27    0.51
 -10  -1  -4    2.59    0.57
  -9  -1  -4   13.33    1.13
  -8  -1  -4   17.88    1.22
  -7  -1  -4   -0.04    0.29
  -6  -1  -4    1.29    0.38
  -5  -1  -4    0.66    0.30
  -4  -1  -4  284.55    6.90
  -3  -1  -4   32.66    1.96
  -2  -1  -4   70.43    2.97
  -1  -1  -4   25.86    0.93
   0  -1  -4    0.11    0.22
   1  -1  -4   25.59    1.45
   2  -1  -4   66.11    2.90
   3  -1  -4   34.24    1.95
   4  -1  -4  287.35    6.67
   5  -1  -4    0.87    0.33
   6  -1  -4    0.93    0.39
   7  -1  -4   -0.11    0.34
   8  -1  -4   19.21    1.44
   9  -1  -4   15.45    1.43
  10  -1  -4    2.91    1.28
  11  -1  -4    2.79    1.34
  12  -1  -4   10.69    2.31
  13  -1  -4    5.29    2.06
 -14   0  -4    7.91    1.56
 -13   0  -4    4.07    1.23
 -12   0  -4   41.71    3.02
 -11   0  -4    1.02    0.73
 -10   0  -4    0.07    0.41
  -9   0  -4   19.69    1.33
  -8   0  -4    9.12    0.85
  -7   0  -4   82.88    2.22
  -6   0  -4  133.00    2.98
  -5   0  -4    2.77    0.39
  -4   0  -4   14.25    0.55
  -3   0  -4   24.79    0.79
  -2   0  -4  131.91    2.60
  -1   0  -4    6.63    0.36
   0   0  -4   67.42    1.41
   1   0  -4    6.61    0.36
   2   0  -4  134.90    3.29
   3   0  -4   23.73    1.01
   4   0  -4   15.34    0.90
   5   0  -4    2.56    0.48
   6   0  -4  129.60    3.75
   7   0  -4   77.94    2.75
   8   0  -4    9.22    1.06
   9   0  -4   20.23    1.65
  10   0  -4    0.59    0.60
  11   0  -4   -0.46    0.54
  12   0  -4   41.12    3.92
 -14   1  -4    1.46    1.10
 -13   1  -4    6.81    1.49
 -12   1  -4    4.39    1.23
 -11   1  -4    0.98    0.76
 -10   1  -4    1.30    0.73
  -9   1  -4   12.03    1.42
  -8   1  -4   18.57    1.65
  -7   1  -4    0.02    0.45
  -6   1  -4    1.17    0.34
  -5   1  -4    0.38    0.21
  -4   1  -4  283.67    5.59
  -3   1  -4   33.27    1.08
  -2   1  -4   67.86    1.60
  -1   1  -4   24.81    0.65
   0   1  -4    0.15    0.17
   1   1  -4   25.24    0.67
   2   1  -4   66.85    1.70
   3   1  -4   34.12    0.98
   4   1  -4  275.51    5.60
   5   1  -4    0.84    0.30
   6   1  -4    0.73    0.34
   7   1  -4    0.02    0.34
   8   1  -4   18.96    1.30
   9   1  -4   13.83    1.20
  10   1  -4    2.49    0.79
  11   1  -4   -0.78    0.86
  12   1  -4    4.88    1.53
  13   1  -4    8.62    2.18
  14   1  -4    1.75    1.63
 -14   2  -4    5.45    2.39
 -13   2  -4    2.17    1.18
 -12   2  -4   32.92    2.89
 -11   2  -4    0.64    0.84
 -10   2  -4    0.02    0.69
  -9   2  -4   11.17    1.55
  -8   2  -4    6.35    1.10
  -7   2  -4   60.21    2.65
  -6   2  -4   89.38    2.59
  -5   2  -4    2.38    0.47
  -4   2  -4    9.71    0.78
  -3   2  -4   10.21    0.72
  -2   2  -4   64.73    1.75
  -1   2  -4    7.58    0.50
   0   2  -4   40.25    0.98
   1   2  -4    6.95    0.52
   2   2  -4   67.14    1.39
   3   2  -4    9.46    0.68
   4   2  -4   10.84    0.75
   5   2  -4    2.79    0.45
   6   2  -4   89.93    2.24
   7   2  -4   57.76    1.80
   8   2  -4    4.16    0.81
   9   2  -4   11.67    1.21
  10   2  -4    0.13    0.62
  11   2  -4   -0.43    0.59
  12   2  -4   28.24    2.63
  13   2  -4    2.69    1.28
  14   2  -4   12.60    3.12
 -12   3  -4    3.35    1.64
 -11   3  -4   -0.03    1.31
 -10   3  -4   -0.50    1.14
  -9   3  -4    7.75    1.41
  -8   3  -4    9.92    1.38
  -7   3  -4    0.52    0.65
  -6   3  -4    1.00    0.50
  -5   3  -4    0.88    0.46
  -4   3  -4  138.46    3.46
  -3   3  -4   19.03    1.18
  -2   3  -4   32.64    1.22
  -1   3  -4   13.36    0.84
   0   3  -4   -0.22    0.25
   1   3  -4   12.71    0.84
   2   3  -4   32.78    1.08
   3   3  -4   19.47    1.12
   4   3  -4  132.03    3.05
   5   3  -4    1.01    0.39
   6   3  -4    0.08    0.47
   7   3  -4    0.23    0.53
   8   3  -4    7.57    1.12
   9   3  -4    8.86    1.12
  10   3  -4    1.19    0.87
  11   3  -4   -0.17    0.86
  12   3  -4    0.77    1.22
 -10   4  -4    1.42    1.74
  -9   4  -4    3.67    1.94
  -8   4  -4   -0.07    1.18
  -7   4  -4   30.93    3.79
  -6   4  -4   42.06    4.12
  -5   4  -4    1.43    0.86
  -4   4  -4    5.32    1.14
  -3   4  -4    0.74    0.70
  -2   4  -4   21.77    1.93
  -1   4  -4    3.13    0.72
   0   4  -4   16.49    1.30
   1   4  -4    3.29    0.72
   2   4  -4   22.59    1.61
   3   4  -4    1.94    0.64
   4   4  -4    5.28    1.19
   5   4  -4    0.53    0.65
   6   4  -4   33.84    2.26
   7   4  -4   20.92    1.86
   8   4  -4    2.99    0.98
   9   4  -4    6.20    1.29
  10   4  -4   -0.40    1.16
  -7   5  -4    0.52    1.88
  -6   5  -4    0.12    1.72
  -5   5  -4    0.42    1.64
  -4   5  -4   45.82    4.86
  -3   5  -4    3.72    1.80
  -2   5  -4    7.63    2.06
  -1   5  -4    0.37    1.23
   0   5  -4    1.99    1.47
   1   5  -4    1.70    0.93
   2   5  -4   10.42    2.40
   3   5  -4    4.89    1.33
   4   5  -4   47.19    3.54
   5   5  -4   -0.45    1.03
   6   5  -4    1.43    1.22
  -7  -5  -3    3.44    2.20
  -6  -5  -3    1.66    1.05
  -5  -5  -3    4.34    1.38
  -4  -5  -3   36.28    2.87
  -3  -5  -3   -0.38    0.78
  -2  -5  -3    0.88    1.00
  -1  -5  -3    0.63    0.89
   0  -5  -3   -0.62    0.77
   1  -5  -3    0.47    1.25
   2  -5  -3   -0.20    0.84
   3  -5  -3   -0.26    1.15
   4  -5  -3   39.77    4.17
   5  -5  -3    2.43    1.57
   6  -5  -3    2.18    1.68
 -10  -4  -3    0.45    1.12
  -9  -4  -3    0.63    0.96
  -8  -4  -3    0.49    0.89
  -7  -4  -3   12.11    1.66
  -6  -4  -3   32.12    2.55
  -5  -4  -3    0.96    0.74
  -4  -4  -3    7.96    1.01
  -3  -4  -3    9.96    1.08
  -2  -4  -3    3.07    0.84
  -1  -4  -3    3.07    0.86
   0  -4  -3    0.31    0.56
   1  -4  -3    3.34    1.20
   2  -4  -3    4.73    1.27
   3  -4  -3    9.33    1.84
   4  -4  -3    5.27    1.37
   5  -4  -3    0.03    0.85
   6  -4  -3   37.69    3.82
   7  -4  -3    9.74    2.18
   8  -4  -3    0.59    1.18
   9  -4  -3    3.07    1.56
  10  -4  -3    0.34    1.28
 -12  -3  -3    0.01    0.98
 -11  -3  -3    5.39    1.33
 -10  -3  -3   26.03    2.43
  -9  -3  -3   12.55    1.64
  -8  -3  -3   -0.03    0.58
  -7  -3  -3    7.97    0.96
  -6  -3  -3    7.93    0.89
  -5  -3  -3   10.85    1.01
  -4  -3  -3  116.98    3.18
  -3  -3  -3    0.33    0.49
  -2  -3  -3    0.11    0.32
  -1  -3  -3    0.58    0.42
   0  -3  -3    0.41    0.65
   1  -3  -3    2.42    0.56
   2  -3  -3   -0.03    0.35
   3  -3  -3    0.48    0.68
   4  -3  -3  120.37    5.63
   5  -3  -3   10.36    1.78
   6  -3  -3    7.02    1.61
   7  -3  -3    6.89    1.69
   8  -3  -3    3.20    1.28
   9  -3  -3    9.47    2.06
  10  -3  -3   25.31    3.36
  11  -3  -3    7.54    2.01
  12  -3  -3    0.49    1.25
 -14  -2  -3   10.53    2.47
 -13  -2  -3    4.95    1.31
 -12  -2  -3    2.59    1.05
 -11  -2  -3    1.29    0.76
 -10  -2  -3    1.16    0.71
  -9  -2  -3    5.27    0.82
  -8  -2  -3    0.94    0.48
  -7  -2  -3   27.80    1.55
  -6  -2  -3   76.02    2.25
  -5  -2  -3    3.17    0.52
  -4  -2  -3   25.82    1.37
  -3  -2  -3   29.01    1.00
  -2  -2  -3    7.89    0.59
  -1  -2  -3    6.41    0.64
   0  -2  -3    0.11    0.38
   1  -2  -3    5.62    0.92
   2  -2  -3    9.58    0.74
   3  -2  -3   30.05    1.23
   4  -2  -3   23.53    1.16
   5  -2  -3    2.23    0.50
   6  -2  -3   73.92    4.06
   7  -2  -3   28.95    2.78
   8  -2  -3    0.37    0.75
   9  -2  -3    3.95    1.37
  10  -2  -3    1.13    0.91
  11  -2  -3   -0.64    0.90
  12  -2  -3    0.93    1.28
  13  -2  -3    4.44    1.92
  14  -2  -3   12.40    2.88
 -14  -1  -3    3.65    2.12
 -13  -1  -3    1.45    1.60
 -12  -1  -3   -0.58    0.51
 -11  -1  -3   14.84    1.35
 -10  -1  -3   55.82    2.13
  -9  -1  -3   23.14    1.47
  -8  -1  -3    1.15    0.42
  -7  -1  -3   21.94    1.27
  -6  -1  -3   20.37    1.15
  -5  -1  -3   19.24    0.99
  -4  -1  -3  223.82    5.66
  -3  -1  -3    3.35    0.49
  -2  -1  -3   -0.17    0.21
  -1  -1  -3    9.59    0.54
   0  -1  -3    5.24    0.60
   1  -1  -3    9.78    0.94
   2  -1  -3   -0.09    0.33
   3  -1  -3    4.47    0.45
   4  -1  -3  227.64    5.53
   5  -1  -3   18.83    1.05
   6  -1  -3   21.14    1.20
   7  -1  -3   20.80    1.31
   8  -1  -3    2.19    0.63
   9  -1  -3   23.21    1.77
  10  -1  -3   57.35    3.85
  11  -1  -3   16.78    2.60
  12  -1  -3   -0.35    1.06
  13  -1  -3    2.99    1.79
 -14   0  -3    8.18    1.53
 -13   0  -3    5.98    1.29
 -12   0  -3    0.85    0.76
 -11   0  -3    0.58    0.67
 -10   0  -3    1.38    0.55
  -9   0  -3    9.20    0.90
  -8   0  -3    2.05    0.47
  -7   0  -3   37.35    1.36
  -6   0  -3   97.84    2.38
  -5   0  -3    2.32    0.37
  -4   0  -3   43.44    1.19
  -3   0  -3   45.60    1.16
  -2   0  -3   10.60    0.45
  -1   0  -3   11.18    0.38
   0   0  -3   -0.11    0.10
   1   0  -3   12.18    0.52
   2   0  -3   11.34    0.61
   3   0  -3   44.27    1.45
   4   0  -3   43.82    1.54
   5   0  -3    2.43    0.37
   6   0  -3   96.05    2.35
   7   0  -3   37.08    1.32
   8   0  -3    1.97    0.46
   9   0  -3    8.45    1.12
  10   0  -3    3.65    0.84
  11   0  -3    0.58    0.65
  12   0  -3    0.71    0.97
 -15   1  -3   -1.35    1.19
 -14   1  -3    0.69    1.03
 -13   1  -3    2.16    1.05
 -12   1  -3   -0.44    0.70
 -11   1  -3   15.89    1.85
 -10   1  -3   56.21    2.79
  -9   1  -3   23.40    1.96
  -8   1  -3    2.07    0.67
  -7   1  -3   21.90    1.12
  -6   1  -3   19.50    0.97
  -5   1  -3   19.23    0.76
  -4   1  -3  225.87    4.61
  -3   1  -3    3.64    0.40
  -2   1  -3    0.04    0.19
  -1   1  -3   10.30    0.41
   0   1  -3    5.03    0.27
   1   1  -3   10.37    0.44
   2   1  -3    0.16    0.18
   3   1  -3    3.08    0.35
   4   1  -3  221.60    4.60
   5   1  -3   20.04    1.01
   6   1  -3   19.95    1.17
   7   1  -3   22.20    1.34
   8   1  -3    0.88    0.47
   9   1  -3   24.37    1.54
  10   1  -3   54.67    2.56
  11   1  -3   20.08    1.99
  12   1  -3   -0.34    0.90
  13   1  -3    2.21    1.46
  14   1  -3    2.16    1.62
  15   1  -3    1.67    1.70
 -14   2  -3    9.64    1.83
 -13   2  -3    6.55    1.43
 -12   2  -3   -0.02    0.87
 -11   2  -3    0.11    0.84
 -10   2  -3    2.17    0.87
  -9   2  -3    5.29    1.10
  -8   2  -3    0.97    0.65
  -7   2  -3   28.81    2.03
  -6   2  -3   73.65    2.85
  -5   2  -3    3.55    0.52
  -4   2  -3   22.97    1.11
  -3   2  -3   31.12    0.84
  -2   2  -3    7.35    0.42
  -1   2  -3    6.97    0.41
   0   2  -3   -0.04    0.14
   1   2  -3    6.28    0.39
   2   2  -3    7.70    0.48
   3   2  -3   28.46    1.00
   4   2  -3   25.60    1.03
   5   2  -3    2.08    0.41
   6   2  -3   75.82    1.99
   7   2  -3   29.85    1.34
   8   2  -3    0.63    0.56
   9   2  -3    3.51    0.81
  10   2  -3    0.09    0.59
  11   2  -3    1.34    0.79
  12   2  -3    1.43    0.80
  13   2  -3    5.16    1.38
  14   2  -3    5.79    1.58
 -12   3  -3    0.02    1.31
 -11   3  -3    5.96    1.70
 -10   3  -3   26.28    2.60
  -9   3  -3    6.04    1.33
  -8   3  -3    0.51    0.72
  -7   3  -3    7.99    1.20
  -6   3  -3    9.32    1.20
  -5   3  -3   12.58    1.05
  -4   3  -3  124.08    3.23
  -3   3  -3    0.60    0.37
  -2   3  -3    0.37    0.26
  -1   3  -3    1.03    0.28
   0   3  -3    0.20    0.22
   1   3  -3    1.69    0.31
   2   3  -3    0.23    0.28
   3   3  -3    0.30    0.33
   4   3  -3  119.88    2.81
   5   3  -3   11.88    0.92
   6   3  -3    8.41    0.97
   7   3  -3    9.85    1.14
   8   3  -3   -0.70    0.54
   9   3  -3   10.74    1.35
  10   3  -3   30.09    2.23
  11   3  -3    6.29    1.24
  12   3  -3   -0.06    0.92
 -10   4  -3   -0.17    1.58
  -9   4  -3    0.02    1.49
  -8   4  -3   -0.43    1.22
  -7   4  -3   16.63    2.90
  -6   4  -3   26.89    3.46
  -5   4  -3    2.69    1.44
  -4   4  -3   10.42    1.43
  -3   4  -3   11.61    1.51
  -2   4  -3    2.73    0.87
  -1   4  -3    1.92    0.60
   0   4  -3    0.55    0.50
   1   4  -3    3.20    0.74
   2   4  -3    3.17    0.72
   3   4  -3   12.31    1.04
   4   4  -3    7.79    1.10
   5   4  -3    0.56    0.62
   6   4  -3   32.32    2.20
   7   4  -3   14.89    1.63
   8   4  -3    0.21    0.76
   9   4  -3    0.86    0.96
  10   4  -3    0.75    0.99
  -7   5  -3    3.63    2.12
  -6   5  -3    2.11    1.91
  -5   5  -3    3.11    1.86
  -4   5  -3   38.09    4.27
  -3   5  -3    0.40    1.61
  -2   5  -3    1.10    1.40
  -1   5  -3    0.34    1.24
   0   5  -3   -0.63    1.22
   1   5  -3    1.25    0.93
   2   5  -3   -0.90    0.94
   3   5  -3    1.02    1.00
   4   5  -3   38.44    3.10
   5   5  -3    3.41    2.14
   6   5  -3   -0.16    1.74
   7   5  -3    3.77    2.30
  -7  -5  -2    0.51    1.13
  -6  -5  -2    2.72    1.06
  -5  -5  -2   17.55    1.79
  -4  -5  -2    2.14    0.95
  -3  -5  -2    1.62    0.86
  -2  -5  -2   17.05    2.78
   0  -5  -2   -0.45    1.13
   1  -5  -2    1.12    1.21
   2  -5  -2    9.11    1.94
   3  -5  -2   -1.24    1.01
   4  -5  -2    1.43    1.36
   5  -5  -2   19.24    2.98
   6  -5  -2    1.48    1.56
   7  -5  -2   -0.55    1.56
 -10  -4  -2    1.33    1.15
  -9  -4  -2    6.25    1.44
  -8  -4  -2    0.00    0.84
  -7  -4  -2    0.92    0.93
  -6  -4  -2    6.58    1.26
  -5  -4  -2    0.64    0.74
  -4  -4  -2    4.16    0.98
  -3  -4  -2    8.72    1.00
  -2  -4  -2    2.79    0.66
  -1  -4  -2    8.64    0.94
   0  -4  -2   35.43    2.12
   1  -4  -2   11.79    1.92
   2  -4  -2    1.34    1.03
   3  -4  -2    6.67    1.65
   4  -4  -2    5.54    1.53
   5  -4  -2    1.69    1.08
   6  -4  -2   13.85    2.39
   7  -4  -2    2.90    1.40
   8  -4  -2   -0.65    1.11
   9  -4  -2    3.04    1.46
  10  -4  -2   -0.55    1.19
 -12  -3  -2    6.85    1.60
 -11  -3  -2    9.82    1.68
 -10  -3  -2    2.54    1.03
  -9  -3  -2    3.66    1.09
  -8  -3  -2    5.09    1.06
  -7  -3  -2    0.00    0.48
  -6  -3  -2    3.84    0.70
  -5  -3  -2   75.46    2.38
  -4  -3  -2    6.64    0.78
  -3  -3  -2    0.57    0.47
  -2  -3  -2   36.56    1.39
  -1  -3  -2    1.35    0.46
   0  -3  -2    0.22    0.53
   1  -3  -2    2.22    0.58
   2  -3  -2   39.11    1.74
   3  -3  -2    1.19    0.48
   4  -3  -2    7.92    1.48
   5  -3  -2   73.86    4.23
   6  -3  -2    4.26    1.32
   7  -3  -2   -0.08    0.75
   8  -3  -2    6.10    1.62
   9  -3  -2    0.49    1.11
  10  -3  -2    5.30    1.68
  11  -3  -2    4.42    1.67
  12  -3  -2    6.94    2.27
 -14  -2  -2   -0.66    1.27
 -13  -2  -2    6.44    1.40
 -12  -2  -2   12.26    1.67
 -11  -2  -2    4.86    1.17
 -10  -2  -2   -0.48    0.54
  -9  -2  -2   15.27    1.29
  -8  -2  -2    2.21    0.54
  -7  -2  -2    5.40    0.67
  -6  -2  -2   24.39    1.26
  -5  -2  -2    6.32    0.68
  -4  -2  -2   16.30    1.00
  -3  -2  -2   26.22    1.27
  -2  -2  -2    6.21    0.70
  -1  -2  -2   28.03    1.18
   0  -2  -2   81.88    3.36
   1  -2  -2   29.27    1.77
   2  -2  -2    6.71    0.65
   3  -2  -2   25.68    1.18
   4  -2  -2   18.60    1.10
   5  -2  -2    6.88    0.81
   6  -2  -2   23.21    1.41
   7  -2  -2    4.00    1.15
   8  -2  -2    1.27    0.86
   9  -2  -2   14.33    2.19
  10  -2  -2    0.90    0.93
  11  -2  -2    3.64    1.56
  12  -2  -2   13.09    2.55
  13  -2  -2    4.24    1.91
  14  -2  -2    0.04    1.57
 -14  -1  -2    0.25    1.49
 -13  -1  -2    2.86    1.17
 -12  -1  -2    9.37    1.51
 -11  -1  -2   14.18    1.33
 -10  -1  -2    8.93    0.96
  -9  -1  -2    4.03    0.68
  -8  -1  -2   16.64    1.18
  -7  -1  -2   -0.15    0.28
  -6  -1  -2    6.12    0.63
  -5  -1  -2  160.19    3.45
  -4  -1  -2    9.58    0.67
  -3  -1  -2    2.91    0.46
  -2  -1  -2   97.11    2.60
  -1  -1  -2    4.98    0.40
   0  -1  -2   -0.38    0.22
   1  -1  -2    4.35    0.38
   2  -1  -2   95.72    2.46
   3  -1  -2    3.05    0.41
   4  -1  -2   11.75    0.83
   5  -1  -2  158.72    4.19
   6  -1  -2    6.91    0.79
   7  -1  -2    0.24    0.37
   8  -1  -2   20.12    1.48
   9  -1  -2    3.77    0.80
  10  -1  -2    8.02    1.14
  11  -1  -2   11.05    2.19
  12  -1  -2    8.83    2.05
 -14   0  -2    0.61    1.71
 -13   0  -2    6.33    1.29
 -12   0  -2   21.85    2.18
 -11   0  -2    7.46    1.26
 -10   0  -2    0.22    0.42
  -9   0  -2   18.34    1.28
  -8   0  -2    3.03    0.55
  -7   0  -2    8.15    0.76
  -6   0  -2   31.81    1.15
  -5   0  -2   12.66    0.76
  -4   0  -2   17.98    0.76
  -3   0  -2   53.60    1.28
  -2   0  -2    6.16    0.34
  -1   0  -2   44.38    0.92
   0   0  -2  129.65    2.86
   1   0  -2   42.78    1.17
   2   0  -2    6.97    0.50
   3   0  -2   53.41    1.27
   4   0  -2   19.72    0.72
   5   0  -2   12.59    0.68
   6   0  -2   30.77    1.09
   7   0  -2    8.03    0.70
   8   0  -2    3.08    0.50
   9   0  -2   22.79    1.73
  10   0  -2    0.63    0.56
  11   0  -2    3.56    0.95
  12   0  -2   17.25    2.62
  13   0  -2   13.06    2.37
 -15   1  -2    0.46    1.26
 -14   1  -2   -0.16    0.95
 -13   1  -2    4.08    1.15
 -12   1  -2   11.70    1.65
 -11   1  -2   15.10    1.80
 -10   1  -2   10.05    1.40
  -9   1  -2    4.02    0.90
  -8   1  -2   18.33    1.22
  -7   1  -2    0.25    0.32
  -6   1  -2    4.17    0.51
  -5   1  -2  157.37    3.36
  -4   1  -2    8.87    0.45
  -3   1  -2    2.99    0.39
  -2   1  -2   95.68    2.10
  -1   1  -2    4.32    0.24
   0   1  -2   -0.05    0.10
   1   1  -2    3.66    0.26
   2   1  -2   93.35    1.83
   3   1  -2    3.22    0.34
   4   1  -2    8.04    0.63
   5   1  -2  154.86    3.47
   6   1  -2    5.87    0.64
   7   1  -2   -0.49    0.29
   8   1  -2   19.82    1.33
   9   1  -2    4.77    0.77
  10   1  -2    8.43    1.17
  11   1  -2   14.94    1.64
  12   1  -2   10.66    2.29
  13   1  -2    5.65    1.79
  14   1  -2    1.41    1.46
  15   1  -2    3.71    1.93
 -14   2  -2    0.34    1.07
 -13   2  -2    7.58    1.55
 -12   2  -2   13.46    1.86
 -11   2  -2    5.42    1.23
 -10   2  -2    0.17    0.67
  -9   2  -2   16.84    1.77
  -8   2  -2    1.83    0.74
  -7   2  -2    4.64    0.88
  -6   2  -2   26.09    1.81
  -5   2  -2    5.81    0.67
  -4   2  -2   17.65    0.68
  -3   2  -2   25.07    0.78
  -2   2  -2    7.30    0.45
  -1   2  -2   27.87    0.74
   0   2  -2   77.95    1.26
   1   2  -2   27.28    0.64
   2   2  -2    7.19    0.43
   3   2  -2   25.30    0.92
   4   2  -2   16.71    0.84
   5   2  -2    5.30    0.52
   6   2  -2   26.18    1.13
   7   2  -2    4.88    0.54
   8   2  -2    2.25    0.60
   9   2  -2   10.20    1.14
  10   2  -2   -0.13    0.59
  11   2  -2    4.23    0.94
  12   2  -2   11.66    1.45
  13   2  -2    4.34    1.43
  14   2  -2    0.20    1.22
 -12   3  -2    6.51    1.61
 -11   3  -2    8.00    1.71
 -10   3  -2    5.06    1.34
  -9   3  -2    1.90    0.91
  -8   3  -2    6.64    1.22
  -7   3  -2    1.15    0.71
  -6   3  -2    3.65    0.84
  -5   3  -2   75.54    2.96
  -4   3  -2    7.31    0.82
  -3   3  -2    1.36    0.45
  -2   3  -2   35.16    1.16
  -1   3  -2    2.69    0.36
   0   3  -2    0.03    0.19
   1   3  -2    1.63    0.29
   2   3  -2   38.64    1.15
   3   3  -2    1.06    0.39
   4   3  -2    6.65    0.67
   5   3  -2   74.36    2.06
   6   3  -2    4.73    0.83
   7   3  -2    0.43    0.53
   8   3  -2    4.27    0.86
   9   3  -2    2.49    0.79
  10   3  -2    5.88    1.14
  11   3  -2    7.59    1.38
  12   3  -2    4.71    1.36
  13   3  -2    2.57    1.60
 -10   4  -2   -1.26    1.36
  -9   4  -2    8.12    2.15
  -8   4  -2   -0.63    1.28
  -7   4  -2    3.19    1.67
  -6   4  -2   11.16    2.33
  -5   4  -2    0.69    1.13
  -4   4  -2    8.21    1.99
  -3   4  -2   10.25    1.38
  -2   4  -2    3.84    0.74
  -1   4  -2   10.68    1.06
   0   4  -2   37.78    1.28
   1   4  -2   11.28    0.77
   2   4  -2    3.08    0.59
   3   4  -2    9.79    0.95
   4   4  -2    7.21    1.02
   5   4  -2    0.93    0.70
   6   4  -2    9.97    1.30
   7   4  -2    1.94    0.82
   8   4  -2    0.61    0.82
   9   4  -2    4.75    1.24
  10   4  -2    0.35    0.98
  -7   5  -2   -0.19    1.80
  -6   5  -2    1.62    1.86
  -5   5  -2   18.79    3.36
  -4   5  -2    4.19    1.97
  -3   5  -2    1.04    1.69
  -2   5  -2    5.61    1.94
  -1   5  -2    0.85    1.24
   0   5  -2   -0.20    1.08
   1   5  -2    0.66    1.26
   2   5  -2   15.98    2.03
   3   5  -2   -0.09    1.47
   4   5  -2    2.08    1.71
   5   5  -2   30.65    4.33
   6   5  -2    1.16    1.25
   7   5  -2    1.07    1.21
  -7  -5  -1    0.31    1.20
  -6  -5  -1    1.22    1.14
  -5  -5  -1    2.67    1.24
  -4  -5  -1    0.57    1.05
  -3  -5  -1   -1.59    0.90
  -2  -5  -1   60.69    4.54
   1  -5  -1    1.62    0.95
   2  -5  -1   57.68    4.36
   3  -5  -1   -0.55    1.01
   4  -5  -1   -1.10    1.12
   5  -5  -1    2.16    1.56
   6  -5  -1    2.01    1.46
   7  -5  -1    0.37    1.48
 -10  -4  -1    1.67    1.04
  -9  -4  -1    8.63    1.58
  -8  -4  -1   33.49    2.74
  -7  -4  -1    5.59    1.31
  -6  -4  -1   25.22    2.19
  -5  -4  -1    9.24    1.30
  -4  -4  -1    0.67    0.69
  -3  -4  -1    0.01    0.48
  -2  -4  -1    0.78    0.50
  -1  -4  -1    1.56    0.43
   0  -4  -1   -0.20    0.41
   1  -4  -1    0.60    0.88
   2  -4  -1    3.48    1.20
   3  -4  -1    0.13    0.83
   4  -4  -1   -0.10    0.83
   5  -4  -1    5.82    1.56
   6  -4  -1   26.64    3.15
   7  -4  -1    7.77    1.81
   8  -4  -1   33.20    3.77
   9  -4  -1    7.92    2.25
  10  -4  -1    1.52    1.43
 -13  -3  -1    4.84    2.01
 -12  -3  -1    0.51    1.03
 -11  -3  -1   15.32    1.97
 -10  -3  -1    1.41    0.86
  -9  -3  -1    0.64    0.78
  -8  -3  -1    4.57    1.01
  -7  -3  -1    0.58    0.57
  -6  -3  -1    0.19    0.53
  -5  -3  -1   13.56    1.06
  -4  -3  -1    0.75    0.40
  -3  -3  -1    4.26    0.61
  -2  -3  -1  174.29    5.05
  -1  -3  -1    6.93    1.27
   0  -3  -1    0.29    0.52
   1  -3  -1    8.21    0.93
   2  -3  -1  179.24    3.99
   3  -3  -1    4.47    0.77
   4  -3  -1    0.07    0.46
   5  -3  -1   14.17    2.02
   6  -3  -1   -0.54    0.66
   7  -3  -1    2.11    1.07
   8  -3  -1    6.95    1.73
   9  -3  -1    0.93    1.16
  10  -3  -1    0.20    1.12
  11  -3  -1    8.86    2.22
  12  -3  -1    0.00    1.26
 -14  -2  -1   12.89    2.07
 -13  -2  -1    0.88    1.00
 -12  -2  -1   10.93    1.71
 -11  -2  -1    2.03    0.89
 -10  -2  -1    0.04    0.64
  -9  -2  -1   18.87    1.81
  -8  -2  -1   81.80    2.50
  -7  -2  -1   25.69    1.38
  -6  -2  -1   61.57    1.93
  -5  -2  -1   24.16    1.17
  -4  -2  -1    4.93    0.56
  -3  -2  -1    1.77    0.36
  -2  -2  -1    3.19    0.51
  -1  -2  -1    2.49    0.67
   1  -2  -1    4.56    0.55
   2  -2  -1    3.56    0.50
   3  -2  -1    3.75    0.55
   4  -2  -1    6.04    0.71
   5  -2  -1   25.50    1.32
   6  -2  -1   60.87    2.34
   7  -2  -1   28.73    1.67
   8  -2  -1   79.04    4.48
   9  -2  -1   16.39    2.41
  10  -2  -1    0.33    0.87
  11  -2  -1    3.21    1.31
  12  -2  -1   10.40    2.37
  13  -2  -1   -0.04    1.31
 -14  -1  -1    2.57    1.96
 -13  -1  -1    6.68    1.37
 -12  -1  -1    1.22    0.77
 -11  -1  -1   20.61    1.57
 -10  -1  -1    0.76    0.46
  -9  -1  -1    2.23    0.55
  -8  -1  -1   12.95    1.02
  -7  -1  -1    1.56    0.39
  -6  -1  -1    0.43    0.28
  -5  -1  -1   32.44    1.15
  -4  -1  -1    1.19    0.30
  -3  -1  -1   18.57    0.74
  -2  -1  -1  455.53   13.80
  -1  -1  -1    9.82    0.90
   1  -1  -1    9.75    0.55
   2  -1  -1  454.20    9.91
   3  -1  -1   21.67    0.92
   4  -1  -1    2.15    0.42
   5  -1  -1   33.30    1.40
   6  -1  -1    0.09    0.35
   7  -1  -1    1.77    0.55
   8  -1  -1   10.80    1.13
   9  -1  -1    1.42    0.62
  10  -1  -1    0.65    0.60
  11  -1  -1   24.56    2.01
  12  -1  -1   -0.67    1.13
 -14   0  -1   14.39    3.20
 -13   0  -1    0.18    0.77
 -12   0  -1   13.79    1.69
 -11   0  -1    2.78    0.67
 -10   0  -1    0.05    0.40
  -9   0  -1   25.77    1.51
  -8   0  -1  114.31    2.91
  -7   0  -1   47.54    1.58
  -6   0  -1   85.18    2.18
  -5   0  -1   42.55    1.29
  -4   0  -1    7.57    0.54
  -3   0  -1    8.40    0.49
  -2   0  -1    8.58    0.39
  -1   0  -1    6.35    0.32
   1   0  -1    6.89    0.24
   2   0  -1    8.73    0.36
   3   0  -1    7.69    0.45
   4   0  -1    7.41    0.49
   5   0  -1   44.83    1.25
   6   0  -1   84.32    2.08
   7   0  -1   48.71    1.51
   8   0  -1  111.21    2.77
   9   0  -1   24.53    1.31
  10   0  -1   -0.10    0.58
  11   0  -1    4.89    1.53
  12   0  -1   14.27    2.51
  13   0  -1    0.32    1.13
  14   0  -1   22.35    3.39
 -15   1  -1   -1.20    1.10
 -14   1  -1    2.64    1.13
 -13   1  -1    1.85    0.94
 -12   1  -1    0.04    0.63
 -11   1  -1   21.70    2.07
 -10   1  -1    0.37    0.63
  -9   1  -1    1.36    0.66
  -8   1  -1   10.30    0.92
  -7   1  -1    2.07    0.46
  -6   1  -1    0.58    0.31
  -5   1  -1   33.07    1.13
  -4   1  -1    1.62    0.29
  -3   1  -1   19.97    0.60
  -2   1  -1  452.40    6.85
  -1   1  -1    9.66    0.34
   0   1  -1    0.02    0.11
   1   1  -1    9.63    0.31
   2   1  -1  433.86    6.99
   3   1  -1   18.71    0.73
   4   1  -1    1.61    0.31
   5   1  -1   32.54    1.15
   6   1  -1    0.05    0.29
   7   1  -1    1.11    0.43
   8   1  -1   12.95    1.08
   9   1  -1    2.56    0.73
  10   1  -1   -0.07    0.57
  11   1  -1   24.44    2.05
  12   1  -1    0.77    1.19
  13   1  -1    3.72    1.84
  14   1  -1    1.98    1.65
  15   1  -1   -1.45    1.59
 -14   2  -1   12.66    2.03
 -13   2  -1    0.60    0.94
 -12   2  -1   10.48    1.63
 -11   2  -1    2.27    0.90
 -10   2  -1    0.20    0.61
  -9   2  -1   20.01    1.89
  -8   2  -1   80.16    3.26
  -7   2  -1   32.57    1.95
  -6   2  -1   59.09    2.51
  -5   2  -1   23.22    0.95
  -4   2  -1    4.84    0.40
  -3   2  -1    2.42    0.31
  -2   2  -1    3.47    0.34
  -1   2  -1    3.85    0.28
   0   2  -1    0.17    0.15
   1   2  -1    4.17    0.30
   2   2  -1    4.01    0.33
   3   2  -1    1.98    0.29
   4   2  -1    5.36    0.49
   5   2  -1   23.44    1.01
   6   2  -1   63.93    1.69
   7   2  -1   33.56    1.60
   8   2  -1   77.70    2.62
   9   2  -1   17.91    1.47
  10   2  -1   -0.05    0.65
  11   2  -1    1.48    0.97
  12   2  -1    9.22    1.59
  13   2  -1   -0.75    0.90
  14   2  -1   11.64    1.98
 -13   3  -1   -1.84    2.21
 -12   3  -1   -0.55    1.13
 -11   3  -1   12.42    1.94
 -10   3  -1    0.21    0.90
  -9   3  -1    0.89    0.87
  -8   3  -1    5.40    1.14
  -7   3  -1    2.07    0.83
  -6   3  -1   -0.42    0.49
  -5   3  -1   15.27    1.46
  -4   3  -1    0.79    0.41
  -3   3  -1    4.84    0.52
  -2   3  -1  183.95    3.50
  -1   3  -1    7.92    0.52
   0   3  -1    0.40    0.22
   1   3  -1    9.16    0.53
   2   3  -1  182.78    2.91
   3   3  -1    4.22    0.49
   4   3  -1    0.77    0.35
   5   3  -1   11.48    1.11
   6   3  -1    0.05    0.49
   7   3  -1    0.84    0.58
   8   3  -1    6.89    1.05
   9   3  -1    1.46    0.79
  10   3  -1    0.52    0.75
  11   3  -1   15.22    1.80
  12   3  -1    1.95    1.06
  13   3  -1    2.63    1.53
 -10   4  -1    0.22    1.61
  -9   4  -1    6.94    2.22
  -8   4  -1   31.54    3.92
  -7   4  -1    5.90    1.93
  -6   4  -1   24.17    2.15
  -5   4  -1    7.03    1.24
  -4   4  -1    1.43    0.84
  -3   4  -1    0.05    0.48
  -2   4  -1    1.12    0.55
  -1   4  -1    0.56    0.50
   0   4  -1   -0.14    0.29
   1   4  -1    0.35    0.33
   2   4  -1    0.80    0.46
   3   4  -1    0.76    0.58
   4   4  -1    2.70    0.73
   5   4  -1    6.08    0.99
   6   4  -1   23.39    1.85
   7   4  -1    7.85    1.23
   8   4  -1   31.55    2.29
   9   4  -1    8.87    1.78
  10   4  -1    0.56    1.13
  -7   5  -1    1.76    1.76
  -6   5  -1    0.06    1.49
  -5   5  -1    3.60    2.01
  -4   5  -1   -2.35    1.45
  -3   5  -1    1.31    1.52
  -2   5  -1   62.76    4.79
  -1   5  -1    4.29    1.78
   0   5  -1    0.86    1.23
   2   5  -1   62.10    5.71
   3   5  -1    0.35    0.95
   4   5  -1    0.68    1.03
   5   5  -1    3.41    1.36
   6   5  -1   -0.83    1.02
   7   5  -1    0.69    1.23
  -7  -5   0    0.57    1.22
  -6  -5   0    0.38    1.11
  -5  -5   0    0.98    1.15
  -4  -5   0   10.31    1.65
  -3  -5   0   -0.20    0.84
   1  -5   0   -0.83    0.77
   2  -5   0    0.48    1.14
   3  -5   0    0.52    1.21
   4  -5   0    6.23    1.96
   5  -5   0    1.60    1.47
   6  -5   0    2.70    1.65
   7  -5   0    1.29    1.61
 -11  -4   0   -0.80    1.77
 -10  -4   0   -0.12    0.85
  -9  -4   0   -0.32    0.80
  -8  -4   0    0.20    0.81
  -7  -4   0    0.56    0.80
  -6  -4   0    9.06    1.38
  -5  -4   0   -0.72    0.62
  -4  -4   0    4.70    1.03
  -3  -4   0   -0.04    0.60
  -2  -4   0    2.93    0.50
  -1  -4   0   -0.15    0.31
   0  -4   0  349.32    6.37
   1  -4   0   -0.56    0.51
   2  -4   0    3.59    1.16
   3  -4   0    0.23    0.86
   4  -4   0    4.38    1.42
   5  -4   0   -0.33    0.84
   6  -4   0    8.43    1.91
   7  -4   0    0.41    1.04
   8  -4   0    0.11    1.04
   9  -4   0   -1.06    1.17
  10  -4   0    0.84    1.50
 -13  -3   0    0.14    1.41
 -12  -3   0    2.47    0.95
 -11  -3   0    0.33    0.92
 -10  -3   0   72.26    3.55
  -9  -3   0   -0.85    0.62
  -8  -3   0   18.84    1.86
  -7  -3   0    0.26    0.59
  -6  -3   0    4.08    0.84
  -5  -3   0   -0.32    0.33
  -4  -3   0   31.23    1.40
  -3  -3   0    0.08    0.31
  -2  -3   0    4.61    0.60
  -1  -3   0    0.44    0.40
   0  -3   0   -0.32    0.46
   1  -3   0    0.02    0.31
   2  -3   0    2.52    0.49
   3  -3   0    0.11    0.40
   4  -3   0   27.39    1.67
   5  -3   0   -0.85    0.44
   6  -3   0    2.77    1.16
   7  -3   0   -0.39    0.69
   8  -3   0   17.76    2.46
   9  -3   0   -0.47    0.95
  10  -3   0   76.13    5.04
  11  -3   0    1.87    1.40
  12  -3   0    1.74    1.54
  13  -3   0   -1.61    1.38
 -14  -2   0   10.66    1.86
 -13  -2   0    0.22    0.72
 -12  -2   0    0.36    0.83
 -11  -2   0   -0.37    0.75
 -10  -2   0    2.18    0.79
  -9  -2   0    0.62    0.58
  -8  -2   0    0.48    0.54
  -7  -2   0    0.14    0.34
  -6  -2   0   23.33    1.19
  -5  -2   0   -0.22    0.24
  -4  -2   0   23.62    1.07
  -3  -2   0   -0.12    0.23
  -2  -2   0    6.55    0.68
   1  -2   0    0.27    0.41
   2  -2   0    5.30    0.47
   3  -2   0   -0.25    0.20
   4  -2   0   21.17    1.29
   5  -2   0   -0.15    0.33
   6  -2   0   26.24    1.54
   7  -2   0    0.18    0.45
   8  -2   0    0.48    0.53
   9  -2   0    0.84    0.86
  10  -2   0    6.31    1.58
  11  -2   0   -0.57    0.88
  12  -2   0    1.15    1.33
  13  -2   0   -0.86    1.08
 -14  -1   0    1.22    1.78
 -13  -1   0    0.07    0.83
 -12  -1   0    1.73    0.87
 -11  -1   0   -0.58    0.57
 -10  -1   0  154.40    4.02
  -9  -1   0   -0.60    0.33
  -8  -1   0   26.88    1.34
  -7  -1   0    0.11    0.29
  -6  -1   0   13.05    0.86
  -5  -1   0    0.18    0.23
  -4  -1   0   50.75    1.40
  -3  -1   0    0.00    0.20
  -2  -1   0   12.80    0.54
  -1  -1   0   -0.03    0.17
   1  -1   0   -0.18    0.23
   2  -1   0   12.28    0.76
   3  -1   0    0.12    0.23
   4  -1   0   53.03    1.76
   5  -1   0    0.10    0.29
   6  -1   0   11.68    1.00
   7  -1   0    0.37    0.38
   8  -1   0   26.81    1.80
   9  -1   0    0.05    0.46
  10  -1   0  154.27    4.91
  11  -1   0   -0.27    0.63
  12  -1   0    2.29    1.26
 -14   0   0   23.80    3.76
 -13   0   0    0.32    1.33
 -12   0   0    0.70    0.82
 -11   0   0    0.01    0.45
 -10   0   0    6.97    0.83
  -9   0   0   -0.08    0.30
  -8   0   0    0.69    0.36
  -7   0   0   -0.13    0.24
  -6   0   0   37.40    1.28
  -5   0   0   -0.06    0.19
  -4   0   0   43.42    1.22
  -3   0   0    0.16    0.19
  -2   0   0    4.44    0.31
  -1   0   0    0.11    0.07
   1   0   0    0.04    0.08
   2   0   0    4.38    0.28
   3   0   0    0.01    0.17
   4   0   0   45.17    1.17
   5   0   0    0.25    0.20
   6   0   0   38.58    1.20
   7   0   0   -0.31    0.25
   8   0   0    0.90    0.37
   9   0   0   -0.13    0.33
  10   0   0    7.52    1.11
  11   0   0   -0.21    0.89
  12   0   0    1.17    1.22
  13   0   0   -0.77    1.14
  14   0   0   13.26    2.60
 -14   1   0    1.94    1.03
 -13   1   0   -0.25    0.75
 -12   1   0    3.23    0.99
 -11   1   0    0.27    0.57
 -10   1   0  154.18    7.52
  -9   1   0    0.22    0.41
  -8   1   0   29.08    1.46
  -7   1   0    0.09    0.32
  -6   1   0   11.49    0.87
  -5   1   0    0.53    0.27
  -4   1   0   48.88    1.38
  -3   1   0   -0.06    0.19
  -2   1   0   11.96    0.48
  -1   1   0   -0.28    0.09
   0   1   0   -1.40    0.10
   1   1   0   -0.14    0.10
   2   1   0   11.15    0.43
   3   1   0   -0.22    0.15
   4   1   0   51.29    1.36
   5   1   0    0.15    0.22
   6   1   0   13.04    0.89
   7   1   0    0.33    0.36
   8   1   0   26.07    1.49
   9   1   0    0.41    0.57
  10   1   0  160.78    4.96
  11   1   0    0.32    0.67
  12   1   0    3.51    1.47
  13   1   0   -0.45    1.18
  14   1   0    2.39    1.80
  15   1   0    0.35    1.61
 -14   2   0   20.48    2.41
 -13   2   0   -0.03    0.96
 -12   2   0    1.08    0.92
 -11   2   0   -0.03    0.67
 -10   2   0    2.02    0.86
  -9   2   0   -0.09    0.57
  -8   2   0    1.49    0.66
  -7   2   0   -0.77    0.44
  -6   2   0   24.18    1.09
  -5   2   0    0.08    0.24
  -4   2   0   25.27    0.97
  -3   2   0   -0.08    0.17
  -2   2   0    5.62    0.38
  -1   2   0   -0.09    0.13
   0   2   0  970.37   11.22
   1   2   0    0.11    0.14
   2   2   0    5.98    0.38
   3   2   0    0.25    0.19
   4   2   0   24.72    0.83
   5   2   0   -0.19    0.22
   6   2   0   22.53    1.01
   7   2   0   -0.24    0.39
   8   2   0    0.27    0.54
   9   2   0    0.54    0.70
  10   2   0    2.05    0.94
  11   2   0   -0.18    0.75
  12   2   0    2.94    1.09
  13   2   0   -1.41    1.29
  14   2   0   13.03    1.97
 -13   3   0    3.12    2.29
 -12   3   0    1.12    1.20
 -11   3   0   -0.54    0.90
 -10   3   0   68.22    3.60
  -9   3   0   -0.36    0.75
  -8   3   0   18.64    1.86
  -7   3   0    0.18    0.67
  -6   3   0    4.39    0.92
  -5   3   0    0.01    0.53
  -4   3   0   30.04    1.96
  -3   3   0   -0.14    0.26
  -2   3   0    2.87    0.44
  -1   3   0    0.04    0.20
   0   3   0   -0.14    0.18
   1   3   0   -0.11    0.20
   2   3   0    3.71    0.37
   3   3   0    0.21    0.28
   4   3   0   31.42    1.13
   5   3   0    0.02    0.45
   6   3   0    3.18    0.73
   7   3   0    0.12    0.55
   8   3   0   19.94    1.60
   9   3   0    0.43    0.70
  10   3   0   79.71    3.73
  11   3   0   -0.03    0.88
  12   3   0    0.28    1.01
  13   3   0    1.56    1.96
 -10   4   0    1.95    1.58
  -9   4   0    2.08    1.61
  -8   4   0   -0.48    0.89
  -7   4   0   -0.13    0.73
  -6   4   0   10.97    1.56
  -5   4   0   -0.09    0.69
  -4   4   0    7.20    1.21
  -3   4   0   -0.25    0.66
  -2   4   0    2.64    0.65
  -1   4   0    0.20    0.41
   0   4   0  359.02    4.88
   1   4   0   -0.09    0.30
   2   4   0    3.28    0.54
   3   4   0   -0.04    0.44
   4   4   0    7.25    0.94
   5   4   0    0.33    0.57
   6   4   0    9.55    1.22
   7   4   0    0.58    0.72
   8   4   0    0.58    0.98
   9   4   0   -0.61    1.00
  10   4   0    2.46    1.33
  -7   5   0    0.66    1.77
  -6   5   0   -0.22    1.88
  -5   5   0   -0.21    1.56
  -4   5   0    7.23    2.38
  -3   5   0    0.23    1.46
  -2   5   0    0.20    1.53
  -1   5   0   -0.83    1.14
   2   5   0    2.25    1.36
   3   5   0    0.96    1.06
   4   5   0   13.63    2.01
   5   5   0   -0.26    1.01
   6   5   0    1.85    1.37
   7   5   0   -1.40    1.09
  -7  -5   1    0.78    1.22
  -6  -5   1    0.00    1.01
  -5  -5   1    2.24    1.20
  -4  -5   1    0.16    1.01
  -3  -5   1   -0.80    0.76
  -2  -5   1   64.93    4.96
   0  -5   1    0.54    1.23
   1  -5   1    0.84    1.32
   2  -5   1   55.77    4.45
   3  -5   1    2.25    1.45
   4  -5   1    0.37    1.14
   5  -5   1   -0.15    1.22
   6  -5   1    0.33    1.39
 -11  -4   1    1.75    2.05
 -10  -4   1   -0.17    0.86
  -9  -4   1   12.34    1.57
  -8  -4   1   37.28    2.38
  -7  -4   1    9.73    1.25
  -6  -4   1   24.41    1.82
  -5  -4   1    7.25    1.02
  -4  -4   1    1.45    0.64
  -3  -4   1    0.54    0.55
  -2  -4   1    1.45    0.54
  -1  -4   1    0.83    0.40
   0  -4   1    0.49    0.38
   1  -4   1    1.77    0.79
   2  -4   1    0.34    0.59
   3  -4   1    0.31    0.82
   4  -4   1    3.15    1.33
   5  -4   1    5.34    1.60
   6  -4   1   17.92    2.77
   7  -4   1    7.57    1.90
   8  -4   1   33.22    3.96
   9  -4   1    9.27    2.26
  10  -4   1    0.41    1.39
 -13  -3   1    1.07    1.66
 -12  -3   1   -0.32    0.73
 -11  -3   1   12.98    1.47
 -10  -3   1    0.99    0.71
  -9  -3   1    0.72    0.82
  -8  -3   1    7.03    1.23
  -7  -3   1    0.65    0.62
  -6  -3   1    0.12    0.51
  -5  -3   1   13.00    1.33
  -4  -3   1    1.27    0.44
  -3  -3   1    5.49    0.67
  -2  -3   1  180.77    4.04
  -1  -3   1    9.05    0.93
   0  -3   1   -0.24    0.38
   1  -3   1    8.44    0.92
   2  -3   1  184.54    4.08
   3  -3   1    5.00    0.82
   4  -3   1    0.56    0.49
   5  -3   1   16.32    1.46
   6  -3   1   -0.08    0.70
   7  -3   1    1.86    1.01
   8  -3   1    4.84    1.43
   9  -3   1    2.39    1.34
  10  -3   1    1.77    1.27
  11  -3   1   12.09    2.48
  12  -3   1   -0.86    1.10
  13  -3   1    1.37    1.55
 -14  -2   1   14.27    2.22
 -13  -2   1    0.61    0.69
 -12  -2   1   12.57    1.43
 -11  -2   1    1.57    0.84
 -10  -2   1    0.56    0.68
  -9  -2   1   18.00    1.76
  -8  -2   1   82.30    3.18
  -7  -2   1   27.90    1.37
  -6  -2   1   63.77    1.91
  -5  -2   1   23.03    1.09
  -4  -2   1    4.84    0.52
  -3  -2   1    2.30    0.37
  -2  -2   1    4.00    0.43
  -1  -2   1    3.91    0.71
   1  -2   1    4.25    0.54
   2  -2   1    4.36    0.54
   3  -2   1    2.77    0.36
   4  -2   1    5.08    0.71
   5  -2   1   22.21    1.40
   6  -2   1   66.20    2.48
   7  -2   1   31.13    1.69
   8  -2   1   81.43    3.07
   9  -2   1   22.01    1.84
  10  -2   1    1.04    0.94
  11  -2   1    1.11    1.05
  12  -2   1    9.94    2.10
  13  -2   1    0.16    1.36
 -14  -1   1    2.64    1.20
 -13  -1   1    5.62    1.32
 -12  -1   1   -0.10    0.71
 -11  -1   1   22.55    2.08
 -10  -1   1    0.08    0.43
  -9  -1   1    2.68    0.58
  -8  -1   1   12.33    1.01
  -7  -1   1    1.58    0.42
  -6  -1   1    0.59    0.28
  -5  -1   1   34.11    1.13
  -4  -1   1    1.78    0.31
  -3  -1   1   19.56    0.71
  -2  -1   1  441.07    7.88
  -1  -1   1    9.40    0.55
   1  -1   1    8.85    0.53
   2  -1   1  453.49    9.75
   3  -1   1   20.81    0.96
   4  -1   1    2.20    0.44
   5  -1   1   32.06    1.42
   6  -1   1    0.58    0.40
   7  -1   1    1.90    0.55
   8  -1   1   11.60    1.20
   9  -1   1    2.01    0.64
  10  -1   1    1.53    0.69
  11  -1   1   22.94    1.97
  12  -1   1    0.75    1.14
 -14   0   1   12.27    2.83
 -13   0   1   -1.31    1.26
 -12   0   1   14.24    1.38
 -11   0   1    3.84    0.70
 -10   0   1   -0.16    0.39
  -9   0   1   22.93    1.39
  -8   0   1  112.93    2.90
  -7   0   1   49.65    1.59
  -6   0   1   86.55    2.19
  -5   0   1   44.60    1.31
  -4   0   1    7.54    0.55
  -3   0   1    8.26    0.51
  -2   0   1    8.86    0.41
  -1   0   1    7.02    0.26
   1   0   1    6.72    0.24
   2   0   1    7.95    0.36
   3   0   1    7.97    0.45
   4   0   1    6.39    0.46
   5   0   1   43.62    1.24
   6   0   1   86.00    2.09
   7   0   1   49.60    1.50
   8   0   1  113.91    2.78
   9   0   1   23.01    1.31
  10   0   1    1.24    0.66
  11   0   1    6.72    1.74
  12   0   1   15.16    2.64
  13   0   1   -0.69    1.09
  14   0   1   14.54    2.95
  15   0   1   -0.49    1.46
 -14   1   1    0.14    0.88
 -13   1   1    5.08    1.32
 -12   1   1    0.61    0.75
 -11   1   1   18.95    1.87
 -10   1   1   -0.21    0.55
  -9   1   1    3.04    0.64
  -8   1   1   12.39    1.02
  -7   1   1    1.40    0.44
  -6   1   1   -0.02    0.29
  -5   1   1   32.65    1.17
  -4   1   1    1.85    0.34
  -3   1   1   20.01    0.76
  -2   1   1  448.48    7.94
  -1   1   1    9.04    0.34
   0   1   1   -0.08    0.10
   1   1   1    9.19    0.30
   2   1   1  440.60    6.17
   3   1   1   19.44    0.59
   4   1   1    1.90    0.25
   5   1   1   31.38    1.06
   6   1   1    0.34    0.30
   7   1   1    1.09    0.40
   8   1   1   11.41    1.17
   9   1   1    1.26    0.69
  10   1   1    0.70    0.66
  11   1   1   23.14    2.01
  12   1   1   -1.18    0.96
  13   1   1    3.28    1.65
  14   1   1    3.21    1.88
  15   1   1    4.70    2.48
 -14   2   1   11.45    1.82
 -13   2   1   -0.35    0.85
 -12   2   1   13.20    1.89
 -11   2   1    1.38    0.97
 -10   2   1    0.15    0.67
  -9   2   1   17.38    1.81
  -8   2   1   80.23    3.26
  -7   2   1   28.70    2.05
  -6   2   1   63.30    1.88
  -5   2   1   20.91    1.03
  -4   2   1    5.06    0.53
  -3   2   1    2.98    0.39
  -2   2   1    3.75    0.31
  -1   2   1    3.64    0.27
   0   2   1    0.23    0.15
   1   2   1    4.01    0.29
   2   2   1    3.73    0.31
   3   2   1    2.29    0.29
   4   2   1    4.37    0.39
   5   2   1   25.10    0.89
   6   2   1   61.17    2.08
   7   2   1   29.29    1.71
   8   2   1   80.48    3.23
   9   2   1   20.98    1.91
  10   2   1   -0.49    0.71
  11   2   1    1.76    0.93
  12   2   1    8.48    1.57
  13   2   1   -0.18    1.44
  14   2   1   16.09    3.26
 -13   3   1    2.87    2.38
 -12   3   1    0.42    0.99
 -11   3   1    9.30    1.74
 -10   3   1   -1.02    0.80
  -9   3   1    2.80    0.99
  -8   3   1    4.84    1.12
  -7   3   1    1.98    0.83
  -6   3   1    0.08    0.61
  -5   3   1   13.86    1.40
  -4   3   1    1.20    0.39
  -3   3   1    5.02    0.62
  -2   3   1  188.07    3.13
  -1   3   1    7.82    0.52
   0   3   1    0.06    0.20
   1   3   1    8.47    0.50
   2   3   1  182.31    2.91
   3   3   1    3.43    0.44
   4   3   1    0.26    0.37
   5   3   1   13.84    1.00
   6   3   1    0.08    0.49
   7   3   1    0.77    0.59
   8   3   1    3.97    0.87
   9   3   1    0.49    0.74
  10   3   1   -0.12    0.77
  11   3   1   13.26    1.71
  12   3   1   -0.79    1.07
  13   3   1    0.12    1.72
 -10   4   1    1.13    1.23
  -9   4   1    8.92    1.59
  -8   4   1   31.73    2.61
  -7   4   1   12.33    1.70
  -6   4   1   27.56    2.32
  -5   4   1    7.17    1.25
  -4   4   1    1.06    0.75
  -3   4   1   -0.26    0.68
  -2   4   1    2.63    0.85
  -1   4   1    0.53    0.52
   0   4   1    0.56    0.32
   1   4   1    1.57    0.37
   2   4   1    0.90    0.37
   3   4   1    1.01    0.50
   4   4   1    0.49    0.53
   5   4   1    7.84    1.04
   6   4   1   28.03    2.38
   7   4   1    9.44    1.66
   8   4   1   33.77    2.90
   9   4   1    8.70    1.74
  10   4   1   -1.31    1.07
  -7   5   1    0.91    2.00
  -6   5   1   -1.43    1.54
  -5   5   1    0.43    1.86
  -4   5   1   -0.52    1.34
  -3   5   1    1.00    1.63
  -2   5   1   57.11    5.22
  -1   5   1    1.78    1.52
   0   5   1    0.75    1.46
   2   5   1   56.59    4.40
   3   5   1    0.11    1.28
   4   5   1    1.25    1.07
   5   5   1    1.94    1.26
   6   5   1   -0.24    1.15
   7   5   1   -0.04    1.12
  -7  -5   2   -0.40    1.09
  -6  -5   2    0.58    1.14
  -5  -5   2   20.67    2.30
  -4  -5   2    1.05    0.87
  -3  -5   2   -0.19    0.97
  -2  -5   2   10.59    1.78
   0  -5   2    0.43    1.16
   1  -5   2    0.21    1.13
   2  -5   2    7.26    2.12
   3  -5   2    1.35    1.31
   4  -5   2    1.83    1.40
   5  -5   2   11.14    2.43
   6  -5   2    1.45    1.45
 -11  -4   2    2.41    2.30
 -10  -4   2   -0.24    0.88
  -9  -4   2    4.98    1.16
  -8  -4   2    0.47    0.78
  -7  -4   2    1.35    0.74
  -6  -4   2   11.48    1.26
  -5  -4   2    1.45    0.69
  -4  -4   2    7.44    0.98
  -3  -4   2    8.94    0.98
  -2  -4   2    3.32    0.67
  -1  -4   2   10.61    0.78
   0  -4   2   36.06    2.33
   1  -4   2    9.71    1.24
   2  -4   2    3.48    0.91
   3  -4   2    9.50    1.28
   4  -4   2    7.95    1.84
   5  -4   2    2.55    1.32
   6  -4   2    8.26    2.04
   7  -4   2    2.95    1.47
   8  -4   2   -0.21    0.99
   9  -4   2    4.67    1.84
  10  -4   2    0.05    1.35
 -13  -3   2    3.29    1.81
 -12  -3   2    4.32    1.06
 -11  -3   2    9.88    1.33
 -10  -3   2    4.60    0.97
  -9  -3   2    1.72    0.73
  -8  -3   2    6.20    0.98
  -7  -3   2   -0.19    0.54
  -6  -3   2    2.60    0.73
  -5  -3   2   71.79    2.86
  -4  -3   2    2.75    0.66
  -3  -3   2    0.89    0.38
  -2  -3   2   36.55    1.21
  -1  -3   2    2.57    0.47
   0  -3   2   -0.49    0.29
   1  -3   2    2.64    0.48
   2  -3   2   38.90    1.73
   3  -3   2    1.02    0.46
   4  -3   2    4.99    0.86
   5  -3   2   74.50    2.97
   6  -3   2    3.20    0.79
   7  -3   2   -1.25    0.68
   8  -3   2    4.36    1.39
   9  -3   2    0.60    1.05
  10  -3   2    7.70    2.03
  11  -3   2    5.01    1.73
  12  -3   2    6.78    2.10
  13  -3   2    1.29    1.67
 -14  -2   2   -0.80    1.01
 -13  -2   2    3.89    1.00
 -12  -2   2   16.80    1.58
 -11  -2   2    3.21    0.80
 -10  -2   2   -0.32    0.49
  -9  -2   2   11.80    1.48
  -8  -2   2    2.03    0.72
  -7  -2   2    5.80    0.95
  -6  -2   2   23.00    1.15
  -5  -2   2    6.16    0.59
  -4  -2   2   16.60    0.88
  -3  -2   2   24.25    0.94
  -2  -2   2    6.47    0.53
  -1  -2   2   26.32    0.96
   0  -2   2   80.14    2.28
   1  -2   2   27.62    1.22
   2  -2   2    6.91    0.69
   3  -2   2   26.58    1.13
   4  -2   2   16.81    1.26
   5  -2   2    7.36    0.90
   6  -2   2   25.09    1.59
   7  -2   2    4.18    0.77
   8  -2   2    1.82    0.71
   9  -2   2   12.57    1.42
  10  -2   2    0.99    0.71
  11  -2   2    2.46    1.24
  12  -2   2   10.96    2.37
  13  -2   2    6.96    2.01
 -14  -1   2    0.95    1.15
 -13  -1   2    4.30    1.30
 -12  -1   2   10.29    1.56
 -11  -1   2   14.28    1.33
 -10  -1   2    8.76    0.98
  -9  -1   2    3.92    0.64
  -8  -1   2   19.71    1.22
  -7  -1   2    0.23    0.30
  -6  -1   2    6.67    0.62
  -5  -1   2  160.16    3.35
  -4  -1   2    8.39    0.57
  -3  -1   2    3.27    0.33
  -2  -1   2   98.79    1.98
  -1  -1   2    4.37    0.33
   0  -1   2   -0.03    0.19
   1  -1   2    4.18    0.43
   2  -1   2   96.88    2.47
   3  -1   2    3.72    0.42
   4  -1   2    9.47    0.49
   5  -1   2  161.98    4.30
   6  -1   2    6.54    0.51
   7  -1   2   -0.39    0.34
   8  -1   2   16.64    1.46
   9  -1   2    4.36    0.86
  10  -1   2    8.10    1.17
  11  -1   2   17.34    1.66
  12  -1   2   11.27    2.20
  13  -1   2    1.48    1.60
 -14   0   2    2.79    1.91
 -13   0   2    7.18    2.19
 -12   0   2   22.48    1.98
 -11   0   2    5.23    0.84
 -10   0   2    0.13    0.40
  -9   0   2   19.88    1.06
  -8   0   2    3.06    0.42
  -7   0   2    6.47    0.66
  -6   0   2   33.05    1.17
  -5   0   2   13.65    0.80
  -4   0   2   20.41    0.77
  -3   0   2   53.92    1.11
  -2   0   2    6.81    0.33
  -1   0   2   42.91    0.80
   0   0   2  127.23    2.84
   1   0   2   43.62    0.92
   2   0   2    6.46    0.36
   3   0   2   52.81    1.26
   4   0   2   19.09    0.71
   5   0   2   13.63    0.69
   6   0   2   30.37    1.07
   7   0   2    6.50    0.61
   8   0   2    2.71    0.48
   9   0   2   20.96    1.23
  10   0   2    1.28    1.08
  11   0   2    9.57    2.01
  12   0   2   20.28    2.98
  13   0   2    8.10    2.39
  14   0   2    2.91    1.55
  15   0   2   25.24    3.96
 -14   1   2    0.03    1.53
 -13   1   2    5.09    1.21
 -12   1   2   12.11    1.62
 -11   1   2   16.46    1.75
 -10   1   2   10.07    1.07
  -9   1   2    3.72    0.65
  -8   1   2   18.85    1.24
  -7   1   2    0.37    0.36
  -6   1   2    6.71    0.68
  -5   1   2  157.65    3.46
  -4   1   2    9.35    0.65
  -3   1   2    3.37    0.41
  -2   1   2   97.02    2.08
  -1   1   2    4.91    0.27
   0   1   2   -0.16    0.11
   1   1   2    4.59    0.24
   2   1   2   95.34    1.55
   3   1   2    3.08    0.40
   4   1   2    7.76    0.61
   5   1   2  158.00    2.87
   6   1   2    6.38    0.58
   7   1   2    0.05    0.31
   8   1   2   16.22    1.44
   9   1   2    3.42    0.81
  10   1   2   10.11    1.26
  11   1   2   12.08    1.53
  12   1   2   11.82    2.47
  13   1   2    6.12    2.02
  14   1   2    0.43    1.54
 -14   2   2    1.25    1.10
 -13   2   2    5.27    1.36
 -12   2   2   15.41    1.89
 -11   2   2    4.72    1.13
 -10   2   2   -0.38    0.61
  -9   2   2   14.07    1.61
  -8   2   2    1.68    0.71
  -7   2   2    5.48    0.69
  -6   2   2   24.86    1.23
  -5   2   2    7.34    0.68
  -4   2   2   15.60    0.87
  -3   2   2   25.58    1.00
  -2   2   2    6.57    0.44
  -1   2   2   27.59    0.68
   0   2   2   80.44    1.27
   1   2   2   26.40    0.64
   2   2   2    5.74    0.37
   3   2   2   26.30    0.76
   4   2   2   16.60    0.67
   5   2   2    6.06    0.44
   6   2   2   23.10    1.41
   7   2   2    5.09    0.79
   8   2   2    2.64    0.80
   9   2   2   12.39    1.53
  10   2   2    0.38    0.75
  11   2   2    2.86    1.06
  12   2   2   15.90    2.02
  13   2   2    5.41    1.48
  14   2   2   -0.09    1.58
 -12   3   2    6.42    1.54
 -11   3   2    8.42    1.63
 -10   3   2    4.90    1.31
  -9   3   2    1.53    0.91
  -8   3   2    7.26    1.27
  -7   3   2    0.44    0.61
  -6   3   2    4.50    0.97
  -5   3   2   77.48    3.06
  -4   3   2    5.67    0.68
  -3   3   2    0.69    0.39
  -2   3   2   35.95    1.17
  -1   3   2    2.05    0.32
   0   3   2    0.04    0.20
   1   3   2    2.41    0.31
   2   3   2   36.58    1.01
   3   3   2    1.32    0.32
   4   3   2    6.11    0.67
   5   3   2   77.52    2.12
   6   3   2    5.26    0.81
   7   3   2   -0.36    0.51
   8   3   2    6.58    1.04
   9   3   2    1.51    0.81
  10   3   2    4.55    1.13
  11   3   2    4.02    1.31
  12   3   2    6.69    1.69
  13   3   2    1.70    2.13
 -11   4   2    2.52    2.58
 -10   4   2   -0.89    1.08
  -9   4   2    4.69    1.33
  -8   4   2   -0.40    0.92
  -7   4   2    0.48    0.90
  -6   4   2   11.91    1.61
  -5   4   2    2.86    0.97
  -4   4   2    8.07    1.28
  -3   4   2    6.71    1.18
  -2   4   2    2.95    0.64
  -1   4   2   11.54    1.09
   0   4   2   36.41    1.32
   1   4   2   12.97    0.82
   2   4   2    4.17    0.58
   3   4   2    9.03    1.05
   4   4   2    6.87    1.00
   5   4   2    0.51    0.64
   6   4   2    8.93    1.54
   7   4   2    3.31    1.15
   8   4   2    0.17    0.91
   9   4   2    4.83    1.39
  10   4   2    0.77    1.19
  -6   5   2    1.14    1.55
  -5   5   2   19.14    3.23
  -4   5   2    4.46    1.89
  -3   5   2    0.25    1.60
  -2   5   2   10.98    2.46
  -1   5   2    1.91    1.04
   0   5   2    0.39    0.93
   1   5   2    0.08    1.23
   2   5   2   10.79    1.64
   3   5   2    0.45    1.36
   4   5   2    0.52    1.04
   5   5   2   20.57    2.41
   6   5   2   -0.93    1.08
   7   5   2    1.12    1.31
  -7  -5   3    3.73    2.02
  -6  -5   3    2.22    1.29
  -5  -5   3    3.58    1.42
  -4  -5   3   38.05    2.48
  -3  -5   3   -0.25    0.95
  -2  -5   3    0.38    0.98
  -1  -5   3    0.56    1.48
   0  -5   3    0.73    1.23
   1  -5   3    0.89    1.20
   2  -5   3    1.79    1.31
   3  -5   3    0.00    1.30
   4  -5   3   32.96    3.96
   5  -5   3    4.17    1.86
   6  -5   3    4.28    1.84
 -10  -4   3   -1.11    0.95
  -9  -4   3    0.79    1.05
  -8  -4   3   -0.73    0.82
  -7  -4   3   15.21    1.90
  -6  -4   3   31.00    2.51
  -5  -4   3    1.20    0.84
  -4  -4   3    9.05    1.29
  -3  -4   3    8.94    1.31
  -2  -4   3    2.91    0.67
  -1  -4   3    2.54    0.70
   0  -4   3   -0.04    0.63
   1  -4   3    1.34    0.94
   2  -4   3    3.75    0.91
   3  -4   3    8.64    1.24
   4  -4   3    8.40    1.82
   5  -4   3    3.04    1.29
   6  -4   3   26.55    3.35
   7  -4   3    9.82    2.19
   8  -4   3   -0.34    1.09
   9  -4   3    0.76    1.42
  10  -4   3    1.12    1.44
 -13  -3   3    2.23    1.77
 -12  -3   3    0.13    0.82
 -11  -3   3    8.39    1.30
 -10  -3   3   33.13    2.23
  -9  -3   3   10.65    1.26
  -8  -3   3    1.46    0.67
  -7  -3   3   11.03    1.15
  -6  -3   3    8.67    0.98
  -5  -3   3   12.19    1.09
  -4  -3   3  122.58    3.17
  -3  -3   3    0.70    0.33
  -2  -3   3    0.23    0.29
  -1  -3   3    2.03    0.45
   0  -3   3    0.04    0.36
   1  -3   3    1.68    0.43
   2  -3   3    0.91    0.50
   3  -3   3    0.28    0.73
   4  -3   3  114.80    3.96
   5  -3   3    9.48    1.16
   6  -3   3    6.46    1.04
   7  -3   3   10.09    1.33
   8  -3   3    0.99    0.97
   9  -3   3   12.40    2.23
  10  -3   3   35.10    3.94
  11  -3   3    7.06    1.93
  12  -3   3   -0.40    1.33
  13  -3   3    1.31    1.69
 -14  -2   3    9.32    1.84
 -13  -2   3    5.82    1.12
 -12  -2   3    0.22    0.69
 -11  -2   3    1.02    0.66
 -10  -2   3    1.16    0.59
  -9  -2   3    5.33    0.86
  -8  -2   3    1.14    0.51
  -7  -2   3   29.64    2.03
  -6  -2   3   76.02    2.80
  -5  -2   3    3.39    0.45
  -4  -2   3   26.63    0.98
  -3  -2   3   28.04    0.89
  -2  -2   3    7.67    0.50
  -1  -2   3    7.33    0.55
   0  -2   3   -0.22    0.22
   1  -2   3    6.42    0.52
   2  -2   3    8.22    0.53
   3  -2   3   30.78    1.29
   4  -2   3   25.45    0.98
   5  -2   3    2.95    0.63
   6  -2   3   80.63    2.87
   7  -2   3   29.93    1.84
   8  -2   3    0.85    0.62
   9  -2   3    3.94    0.91
  10  -2   3   -0.49    0.63
  11  -2   3    1.03    1.09
  12  -2   3    1.39    1.26
 -14  -1   3    1.27    1.05
 -13  -1   3    2.38    1.07
 -12  -1   3   -0.03    0.75
 -11  -1   3   18.22    1.47
 -10  -1   3   54.52    2.12
  -9  -1   3   23.48    1.51
  -8  -1   3    2.00    0.41
  -7  -1   3   20.77    1.09
  -6  -1   3   20.57    0.99
  -5  -1   3   17.17    0.82
  -4  -1   3  228.44    4.41
  -3  -1   3    3.99    0.31
  -2  -1   3    0.12    0.13
  -1  -1   3   10.83    0.49
   0  -1   3    4.91    0.37
   1  -1   3    9.69    0.43
   2  -1   3    0.35    0.27
   3  -1   3    4.21    0.48
   4  -1   3  234.51    4.48
   5  -1   3   17.41    0.80
   6  -1   3   19.44    0.88
   7  -1   3   24.36    1.48
   8  -1   3    0.85    0.50
   9  -1   3   22.01    1.77
  10  -1   3   62.67    2.69
  11  -1   3   17.80    1.75
  12  -1   3    0.40    1.11
  13  -1   3    2.07    1.46
 -14   0   3   13.52    3.00
 -13   0   3   10.05    2.58
 -12   0   3    1.39    0.84
 -11   0   3    0.64    0.49
 -10   0   3    1.44    0.52
  -9   0   3    9.31    0.75
  -8   0   3    2.97    0.44
  -7   0   3   35.84    1.12
  -6   0   3   98.94    2.04
  -5   0   3    2.79    0.33
  -4   0   3   42.31    1.02
  -3   0   3   44.76    0.99
  -2   0   3   10.06    0.40
  -1   0   3   11.15    0.36
   0   0   3   -0.06    0.09
   1   0   3   11.11    0.41
   2   0   3   10.73    0.45
   3   0   3   44.67    0.96
   4   0   3   42.44    1.17
   5   0   3    2.37    0.34
   6   0   3   97.01    2.33
   7   0   3   37.54    1.30
   8   0   3    1.89    0.44
   9   0   3    7.84    0.77
  10   0   3    2.07    1.04
  11   0   3    0.90    1.04
  12   0   3    1.07    1.15
  13   0   3   11.83    2.60
  14   0   3    4.53    2.09
  15   0   3   -1.35    1.56
 -14   1   3    2.07    1.83
 -13   1   3    1.73    0.93
 -12   1   3    0.21    0.68
 -11   1   3   17.86    1.83
 -10   1   3   57.58    2.14
  -9   1   3   23.57    1.51
  -8   1   3    0.78    0.41
  -7   1   3   18.13    1.19
  -6   1   3   20.02    1.15
  -5   1   3   20.94    1.12
  -4   1   3  232.13    4.58
  -3   1   3    3.62    0.43
  -2   1   3    0.14    0.16
  -1   1   3   10.46    0.45
   0   1   3    5.47    0.25
   1   1   3   10.37    0.37
   2   1   3    0.17    0.16
   3   1   3    4.07    0.43
   4   1   3  231.65    4.56
   5   1   3   21.01    0.96
   6   1   3   19.89    0.85
   7   1   3   22.62    1.62
   8   1   3    1.13    0.59
   9   1   3   24.78    1.88
  10   1   3   59.48    2.68
  11   1   3   15.26    1.71
  12   1   3    0.34    1.24
  13   1   3   -0.06    1.32
  14   1   3    2.87    1.88
 -14   2   3    7.94    1.78
 -13   2   3    3.97    1.26
 -12   2   3    1.14    0.84
 -11   2   3    0.49    0.81
 -10   2   3    0.53    0.69
  -9   2   3    6.11    1.15
  -8   2   3    1.34    0.69
  -7   2   3   29.85    1.60
  -6   2   3   75.26    2.21
  -5   2   3    3.20    0.50
  -4   2   3   26.06    1.09
  -3   2   3   30.60    0.87
  -2   2   3    8.46    0.52
  -1   2   3    7.33    0.43
   0   2   3   -0.11    0.14
   1   2   3    7.40    0.38
   2   2   3    7.65    0.42
   3   2   3   30.79    0.82
   4   2   3   24.98    0.80
   5   2   3    3.02    0.47
   6   2   3   76.20    2.01
   7   2   3   31.51    1.65
   8   2   3    0.15    0.55
   9   2   3    4.10    0.99
  10   2   3    1.39    0.86
  11   2   3    0.15    0.85
  12   2   3    0.87    0.98
  13   2   3    7.51    1.52
 -12   3   3   -0.92    0.95
 -11   3   3    8.17    1.59
 -10   3   3   31.61    2.73
  -9   3   3   12.25    1.71
  -8   3   3    0.36    0.78
  -7   3   3   10.35    1.39
  -6   3   3    7.52    1.18
  -5   3   3   12.10    1.00
  -4   3   3  126.38    3.14
  -3   3   3    0.36    0.34
  -2   3   3    0.07    0.26
  -1   3   3    1.68    0.33
   0   3   3   -0.22    0.20
   1   3   3    1.05    0.26
   2   3   3    0.26    0.23
   3   3   3    0.58    0.28
   4   3   3  124.20    2.77
   5   3   3   10.47    0.88
   6   3   3    7.95    0.81
   7   3   3   10.68    1.15
   8   3   3   -0.01    0.61
   9   3   3    8.43    1.47
  10   3   3   33.95    2.87
  11   3   3    8.06    1.59
  12   3   3   -0.45    1.05
 -10   4   3    0.78    1.19
  -9   4   3    1.63    1.14
  -8   4   3   -0.06    0.96
  -7   4   3   11.88    1.70
  -6   4   3   36.36    2.77
  -5   4   3    2.55    0.91
  -4   4   3    5.49    1.17
  -3   4   3   15.99    1.75
  -2   4   3    3.73    0.74
  -1   4   3    3.62    0.70
   0   4   3   -0.09    0.37
   1   4   3    2.44    0.53
   2   4   3    3.99    0.64
   3   4   3   11.52    1.16
   4   4   3    7.24    1.04
   5   4   3    2.34    0.80
   6   4   3   31.86    2.61
   7   4   3   14.86    1.89
   8   4   3    0.45    0.96
   9   4   3    0.79    0.97
  10   4   3    0.08    1.19
  -6   5   3    0.48    1.80
  -5   5   3    3.03    1.82
  -4   5   3   40.17    3.13
  -3   5   3    2.21    1.14
  -2   5   3    1.52    1.07
  -1   5   3    0.35    0.92
   0   5   3    0.52    1.01
   1   5   3    0.20    0.97
   2   5   3   -0.92    0.90
   3   5   3    0.16    1.03
   4   5   3   34.72    4.25
   5   5   3    2.93    1.31
   6   5   3    2.59    1.35
   7   5   3    2.82    1.55
  -7  -5   4   -0.49    1.52
  -6  -5   4    0.49    1.17
  -5  -5   4   -0.04    0.90
  -4  -5   4   43.32    3.32
  -3  -5   4    3.28    1.36
  -2  -5   4   10.38    1.75
  -1  -5   4    1.20    0.96
   0  -5   4   -0.42    0.81
   1  -5   4    4.09    1.63
   2  -5   4   14.09    2.63
   3  -5   4    6.45    2.01
   4  -5   4   42.01    4.61
   5  -5   4   -0.57    1.25
   6  -5   4   -1.09    1.20
 -10  -4   4    1.04    1.08
  -9  -4   4    9.58    1.74
  -8  -4   4    0.59    0.98
  -7  -4   4   20.38    2.19
  -6  -4   4   38.04    2.82
  -5  -4   4    1.02    0.82
  -4  -4   4    6.12    1.15
  -3  -4   4    2.63    0.87
  -2  -4   4   23.08    1.55
  -1  -4   4    3.02    0.72
   0  -4   4   16.56    1.67
   1  -4   4    4.63    1.44
   2  -4   4   22.55    2.81
   3  -4   4    1.86    0.74
   4  -4   4    1.80    0.77
   5  -4   4    0.69    0.94
   6  -4   4   34.30    3.71
   7  -4   4   24.28    3.24
   8  -4   4    1.17    1.27
   9  -4   4    3.59    1.67
  10  -4   4    0.10    1.32
 -12  -3   4    3.66    1.08
 -11  -3   4   -0.37    0.70
 -10  -3   4    1.67    0.80
  -9  -3   4    9.11    1.20
  -8  -3   4    6.50    0.98
  -7  -3   4    0.27    0.49
  -6  -3   4    0.30    0.46
  -5  -3   4    1.86    0.54
  -4  -3   4  130.34    3.37
  -3  -3   4   20.37    1.23
  -2  -3   4   29.24    1.08
  -1  -3   4   12.96    0.81
   0  -3   4    0.26    0.29
   1  -3   4   11.62    0.89
   2  -3   4   32.79    1.75
   3  -3   4   16.07    2.08
   4  -3   4  133.96    6.17
   5  -3   4    0.36    0.59
   6  -3   4    1.09    0.68
   7  -3   4    0.02    0.61
   8  -3   4    7.00    1.19
   9  -3   4    5.33    1.68
  10  -3   4    3.58    1.47
  11  -3   4    1.28    1.41
  12  -3   4    1.48    1.38
 -14  -2   4    5.42    1.56
 -13  -2   4    1.87    1.11
 -12  -2   4   36.51    2.33
 -11  -2   4    0.29    0.54
 -10  -2   4    0.17    0.51
  -9  -2   4   14.08    1.30
  -8  -2   4    6.10    0.83
  -7  -2   4   60.28    2.09
  -6  -2   4   89.19    2.54
  -5  -2   4    2.50    0.50
  -4  -2   4   11.58    0.61
  -3  -2   4    9.25    0.55
  -2  -2   4   65.69    1.44
  -1  -2   4    5.66    0.50
   0  -2   4   41.71    1.28
   1  -2   4    7.39    0.55
   2  -2   4   68.57    1.64
   3  -2   4   11.19    0.91
   4  -2   4   12.26    0.95
   5  -2   4    2.70    0.65
   6  -2   4   88.00    3.13
   7  -2   4   56.85    2.50
   8  -2   4    6.76    1.05
   9  -2   4   14.38    1.52
  10  -2   4   -0.24    0.66
  11  -2   4   -0.86    0.70
  12  -2   4   30.02    3.41
 -14  -1   4    1.42    1.10
 -13  -1   4    5.58    1.38
 -12  -1   4    2.51    1.18
 -11  -1   4    0.79    0.56
 -10  -1   4    3.09    0.71
  -9  -1   4   14.91    1.22
  -8  -1   4   17.15    1.22
  -7  -1   4    0.31    0.25
  -6  -1   4    1.20    0.29
  -5  -1   4    0.31    0.20
  -4  -1   4  282.29    4.66
  -3  -1   4   31.64    1.05
  -2  -1   4   65.08    1.60
  -1  -1   4   26.02    0.76
   0  -1   4    0.05    0.12
   1  -1   4   25.82    0.77
   2  -1   4   69.88    2.05
   3  -1   4   34.01    1.30
   4  -1   4  285.80    6.70
   5  -1   4    0.60    0.26
   6  -1   4    0.58    0.30
   7  -1   4   -0.06    0.26
   8  -1   4   16.87    1.43
   9  -1   4   15.22    1.48
  10  -1   4    1.57    0.76
  11  -1   4   -0.95    0.92
  12  -1   4    7.96    2.16
  13  -1   4    8.37    2.26
  14  -1   4   -0.34    1.62
 -14   0   4    9.60    2.62
 -13   0   4    2.45    1.06
 -12   0   4   51.86    3.36
 -11   0   4    0.44    0.67
 -10   0   4    0.09    0.40
  -9   0   4   20.45    1.04
  -8   0   4    8.64    0.68
  -7   0   4   80.61    1.86
  -6   0   4  129.12    2.55
  -5   0   4    2.70    0.33
  -4   0   4   14.71    0.59
  -3   0   4   25.69    0.70
  -2   0   4  133.17    2.26
  -1   0   4    6.77    0.30
   0   0   4   67.61    1.24
   1   0   4    6.28    0.33
   2   0   4  128.16    2.59
   3   0   4   24.39    0.79
   4   0   4   14.63    0.54
   5   0   4    2.72    0.37
   6   0   4  129.88    2.93
   7   0   4   78.89    2.12
   8   0   4    8.54    0.75
   9   0   4   20.53    1.59
  10   0   4   -1.26    0.72
  11   0   4    0.40    1.01
  12   0   4   40.90    4.34
  13   0   4    5.71    2.14
  14   0   4   13.20    2.98
  15   0   4    0.39    1.67
 -14   1   4    2.97    1.84
 -13   1   4    7.93    2.27
 -12   1   4    5.51    1.14
 -11   1   4    0.72    0.63
 -10   1   4    2.35    0.60
  -9   1   4   17.43    1.23
  -8   1   4   16.94    1.21
  -7   1   4   -0.18    0.30
  -6   1   4    0.65    0.36
  -5   1   4    0.36    0.28
  -4   1   4  286.71    5.57
  -3   1   4   34.43    0.87
  -2   1   4   71.02    1.39
  -1   1   4   26.03    0.71
   0   1   4    0.01    0.14
   1   1   4   24.71    0.63
   2   1   4   65.50    1.42
   3   1   4   32.95    1.09
   4   1   4  284.10    5.52
   5   1   4    0.57    0.31
   6   1   4    0.46    0.34
   7   1   4    0.20    0.43
   8   1   4   19.78    1.60
   9   1   4   13.13    1.41
  10   1   4    1.83    0.84
  11   1   4   -0.16    0.72
  12   1   4    4.76    1.92
  13   1   4    5.59    2.24
  14   1   4    2.12    1.90
 -14   2   4    8.21    2.11
 -13   2   4    0.10    0.92
 -12   2   4   37.75    2.98
 -11   2   4   -0.34    0.69
 -10   2   4    0.61    0.70
  -9   2   4   14.89    1.64
  -8   2   4    5.68    0.83
  -7   2   4   57.27    2.00
  -6   2   4   89.60    2.50
  -5   2   4    3.10    0.50
  -4   2   4   11.62    0.87
  -3   2   4   10.63    0.55
  -2   2   4   67.41    1.50
  -1   2   4    7.45    0.45
   0   2   4   41.39    0.88
   1   2   4    6.83    0.41
   2   2   4   64.39    1.37
   3   2   4   10.98    0.66
   4   2   4   11.05    0.72
   5   2   4    2.52    0.45
   6   2   4   87.39    2.20
   7   2   4   62.54    2.12
   8   2   4    4.97    1.00
   9   2   4   13.15    1.53
  10   2   4    0.06    0.74
  11   2   4    0.55    0.90
  12   2   4   36.64    2.94
  13   2   4    1.68    1.17
 -12   3   4    4.18    1.33
 -11   3   4    0.10    0.92
 -10   3   4    2.41    1.08
  -9   3   4    8.82    1.45
  -8   3   4    8.36    1.32
  -7   3   4    0.80    0.68
  -6   3   4    2.35    0.79
  -5   3   4    0.57    0.38
  -4   3   4  132.02    3.37
  -3   3   4   16.68    1.14
  -2   3   4   32.78    1.15
  -1   3   4   12.61    0.71
   0   3   4   -0.08    0.24
   1   3   4   10.93    0.62
   2   3   4   33.28    1.06
   3   3   4   19.70    0.95
   4   3   4  137.03    2.97
   5   3   4    0.65    0.44
   6   3   4    0.61    0.42
   7   3   4   -0.49    0.51
   8   3   4    6.24    1.28
   9   3   4   11.68    1.66
  10   3   4    1.13    1.11
  11   3   4   -0.10    1.03
  12   3   4    4.33    1.41
 -10   4   4   -1.81    0.97
  -9   4   4    3.39    1.35
  -8   4   4    4.94    1.34
  -7   4   4   20.14    2.13
  -6   4   4   34.80    2.71
  -5   4   4   -0.06    0.75
  -4   4   4    5.38    1.13
  -3   4   4    2.15    0.87
  -2   4   4   23.48    1.57
  -1   4   4    1.90    0.60
   0   4   4   14.92    1.07
   1   4   4    2.67    0.65
   2   4   4   23.20    1.36
   3   4   4    2.46    0.73
   4   4   4    4.16    0.89
   5   4   4    2.13    0.81
   6   4   4   38.39    2.34
   7   4   4   27.48    2.61
   8   4   4    3.30    1.29
   9   4   4    5.11    1.41
  10   4   4    1.18    1.25
  -6   5   4    0.57    1.19
  -5   5   4   -0.03    1.05
  -4   5   4   42.72    3.29
  -3   5   4    1.75    1.22
  -2   5   4    8.52    1.56
  -1   5   4    1.11    1.00
   0   5   4    1.77    1.39
   1   5   4    1.70    1.06
   2   5   4    8.18    2.10
   3   5   4    8.43    1.50
   4   5   4   41.66    3.10
   5   5   4   -0.27    1.34
   6   5   4    0.16    1.57
   7   5   4    1.13    2.19
  -7  -5   5    6.87    2.43
  -6  -5   5    0.34    1.12
  -5  -5   5    0.35    0.91
  -4  -5   5    8.84    1.92
  -3  -5   5    1.19    1.15
  -2  -5   5    6.30    1.40
  -1  -5   5    3.51    1.76
   0  -5   5    1.73    1.03
   1  -5   5    5.48    1.32
   2  -5   5    3.22    1.68
   3  -5   5    1.66    1.43
   4  -5   5    6.66    2.08
   5  -5   5    0.12    1.31
   6  -5   5   -0.26    1.44
 -10  -4   5    1.79    1.32
  -9  -4   5   14.08    2.06
  -8  -4   5    1.03    1.02
  -7  -4   5   -0.15    0.85
  -6  -4   5   19.00    2.03
  -5  -4   5    1.03    0.84
  -4  -4   5    4.55    1.07
  -3  -4   5    3.46    0.93
  -2  -4   5   67.28    2.41
  -1  -4   5    6.47    1.16
   0  -4   5    0.45    0.72
   1  -4   5    1.50    1.12
   2  -4   5   67.10    4.49
   3  -4   5    3.82    0.96
   4  -4   5    4.45    1.09
   5  -4   5   -0.21    0.65
   6  -4   5   12.84    2.37
   7  -4   5   -1.17    0.91
   8  -4   5   -0.07    1.08
   9  -4   5   13.41    2.54
  10  -4   5    2.32    1.58
 -12  -3   5    5.60    1.29
 -11  -3   5    1.57    0.86
 -10  -3   5   18.69    1.68
  -9  -3   5    9.32    1.19
  -8  -3   5   34.91    2.09
  -7  -3   5   22.94    1.64
  -6  -3   5   -0.08    0.45
  -5  -3   5    0.06    0.40
  -4  -3   5   30.22    1.50
  -3  -3   5    4.46    0.65
  -2  -3   5   21.99    1.15
  -1  -3   5   13.48    0.82
   0  -3   5   14.55    0.81
   1  -3   5   14.78    1.00
   2  -3   5   23.48    1.70
   3  -3   5    5.09    0.85
   4  -3   5   31.90    3.04
   5  -3   5    0.89    0.58
   6  -3   5    0.13    0.49
   7  -3   5   24.33    2.03
   8  -3   5   33.57    2.45
   9  -3   5    7.74    1.89
  10  -3   5   22.12    3.10
  11  -3   5   -0.82    1.16
  12  -3   5    3.98    1.94
 -13  -2   5    0.41    1.08
 -12  -2   5   10.52    1.35
 -11  -2   5    0.74    0.64
 -10  -2   5    6.03    0.94
  -9  -2   5   34.90    2.03
  -8  -2   5    3.76    0.72
  -7  -2   5   -0.42    0.35
  -6  -2   5   53.62    1.87
  -5  -2   5   -0.01    0.32
  -4  -2   5   14.49    0.97
  -3  -2   5   11.63    0.57
  -2  -2   5  182.88    3.27
  -1  -2   5   18.27    0.79
   0  -2   5    0.08    0.19
   1  -2   5   19.44    0.82
   2  -2   5  192.88    3.78
   3  -2   5   13.12    1.04
   4  -2   5   13.71    1.06
   5  -2   5    0.71    0.45
   6  -2   5   53.07    2.34
   7  -2   5   -0.19    0.50
   8  -2   5    1.36    0.66
   9  -2   5   34.29    2.41
  10  -2   5    3.38    0.87
  11  -2   5    0.28    0.81
  12  -2   5    8.44    2.01
 -14  -1   5    5.84    1.47
 -13  -1   5    5.75    1.39
 -12  -1   5   13.13    1.74
 -11  -1   5    1.63    0.59
 -10  -1   5   29.34    1.83
  -9  -1   5   18.93    1.37
  -8  -1   5   63.12    2.10
  -7  -1   5   47.18    1.67
  -6  -1   5    0.28    0.22
  -5  -1   5    0.79    0.23
  -4  -1   5   74.78    1.92
  -3  -1   5    8.12    0.59
  -2  -1   5   30.99    0.96
  -1  -1   5   36.26    0.99
   0  -1   5   54.33    1.39
   1  -1   5   37.11    1.03
   2  -1   5   29.03    1.26
   3  -1   5   10.29    0.85
   4  -1   5   76.85    2.33
   5  -1   5    1.04    0.32
   6  -1   5   -0.12    0.27
   7  -1   5   46.24    1.52
   8  -1   5   64.90    2.59
   9  -1   5   18.84    1.61
  10  -1   5   35.00    2.36
  11  -1   5    2.64    1.49
  12  -1   5   12.33    2.44
  13  -1   5    3.83    1.69
  14  -1   5    4.77    1.99
 -14   0   5    0.60    1.47
 -13   0   5    1.59    0.97
 -12   0   5   11.14    1.68
 -11   0   5    0.42    0.66
 -10   0   5    5.99    0.83
  -9   0   5   43.95    1.45
  -8   0   5    6.12    0.59
  -7   0   5    0.13    0.23
  -6   0   5   88.60    1.91
  -5   0   5   -0.24    0.16
  -4   0   5   17.90    0.67
  -3   0   5   20.20    0.67
  -2   0   5  324.95    5.21
  -1   0   5   33.00    0.81
   0   0   5   -0.24    0.15
   1   0   5   34.77    0.80
   2   0   5  329.39    6.02
   3   0   5   19.65    0.72
   4   0   5   15.26    0.71
   5   0   5   -0.09    0.19
   6   0   5   85.04    2.17
   7   0   5    0.18    0.30
   8   0   5    5.67    0.64
   9   0   5   48.15    2.15
  10   0   5    5.36    1.62
  11   0   5    0.41    1.02
  12   0   5   12.59    2.50
  13   0   5    2.54    1.53
  14   0   5    0.28    1.48
  15   0   5   -1.00    1.64
 -14   1   5    3.98    2.11
 -13   1   5    9.17    2.49
 -12   1   5   12.95    1.63
 -11   1   5    1.98    0.59
 -10   1   5   35.03    1.99
  -9   1   5   17.93    1.30
  -8   1   5   66.20    2.13
  -7   1   5   43.93    1.65
  -6   1   5   -0.07    0.31
  -5   1   5    0.59    0.34
  -4   1   5   72.11    1.59
  -3   1   5   10.37    0.55
  -2   1   5   33.70    0.88
  -1   1   5   37.15    0.93
   0   1   5   56.13    1.06
   1   1   5   37.52    0.93
   2   1   5   31.85    0.88
   3   1   5    8.90    0.63
   4   1   5   71.52    1.91
   5   1   5    0.61    0.33
   6   1   5   -0.46    0.27
   7   1   5   43.28    2.05
   8   1   5   65.92    2.66
   9   1   5   16.46    1.55
  10   1   5   32.76    2.34
  11   1   5    1.10    0.79
  12   1   5   11.38    2.58
  13   1   5    5.98    2.10
  14   1   5    7.26    2.43
 -14   2   5    1.49    1.53
 -13   2   5   -0.72    0.84
 -12   2   5    7.33    1.48
 -11   2   5    2.40    0.93
 -10   2   5    4.11    1.04
  -9   2   5   37.13    2.62
  -8   2   5    3.48    0.70
  -7   2   5   -0.25    0.35
  -6   2   5   52.96    1.85
  -5   2   5    0.79    0.36
  -4   2   5   16.04    1.02
  -3   2   5   12.97    0.63
  -2   2   5  191.62    3.38
  -1   2   5   19.31    0.65
   0   2   5    0.03    0.17
   1   2   5   19.34    0.62
   2   2   5  186.84    3.04
   3   2   5   11.90    0.63
   4   2   5   13.67    0.80
   5   2   5    0.49    0.31
   6   2   5   52.60    1.62
   7   2   5   -0.45    0.39
   8   2   5    2.72    0.83
   9   2   5   33.16    2.42
  10   2   5    3.37    1.06
  11   2   5    0.22    0.86
  12   2   5    9.24    1.67
  13   2   5    0.12    1.03
 -12   3   5    4.04    1.19
 -11   3   5    0.41    0.92
 -10   3   5   24.59    2.36
  -9   3   5    9.78    1.55
  -8   3   5   32.83    2.50
  -7   3   5   23.10    2.07
  -6   3   5    0.25    0.61
  -5   3   5    0.50    0.41
  -4   3   5   29.62    1.46
  -3   3   5    3.15    0.59
  -2   3   5   20.80    0.99
  -1   3   5   15.02    0.78
   0   3   5   16.21    0.83
   1   3   5   15.47    0.74
   2   3   5   19.85    0.90
   3   3   5    4.11    0.47
   4   3   5   30.44    1.58
   5   3   5    0.91    0.53
   6   3   5    0.70    0.52
   7   3   5   21.97    1.63
   8   3   5   33.47    2.58
   9   3   5    7.58    1.40
  10   3   5   16.19    2.03
  11   3   5    0.68    1.11
  12   3   5    3.58    1.44
 -10   4   5    0.76    1.11
  -9   4   5   15.42    2.07
  -8   4   5    0.31    1.02
  -7   4   5   -0.64    0.82
  -6   4   5   16.32    1.92
  -5   4   5   -0.35    0.76
  -4   4   5    7.01    1.29
  -3   4   5    3.77    0.74
  -2   4   5   70.88    2.47
  -1   4   5    3.61    0.78
   0   4   5   -0.56    0.39
   1   4   5    5.95    0.83
   2   4   5   67.87    2.13
   3   4   5    3.12    0.78
   4   4   5    6.99    1.04
   5   4   5    0.31    0.61
   6   4   5   13.76    1.43
   7   4   5    1.42    1.07
   8   4   5    1.39    1.10
   9   4   5   12.69    2.01
  10   4   5    0.63    1.34
  -7   5   5   11.41    3.00
  -6   5   5   -0.02    1.12
  -5   5   5   -1.06    1.05
  -4   5   5    6.36    1.53
  -3   5   5    1.16    1.07
  -2   5   5    5.55    1.43
  -1   5   5    3.23    1.20
   0   5   5    3.67    1.20
   1   5   5    5.03    1.34
   2   5   5    8.19    2.09
   3   5   5    1.68    1.07
   4   5   5    9.27    1.64
   5   5   5    1.92    1.24
   6   5   5    1.89    1.48
  -6  -5   6    0.35    0.96
  -5  -5   6   -1.65    1.04
  -4  -5   6   13.63    2.17
  -3  -5   6   -0.29    1.09
  -2  -5   6    2.44    1.27
  -1  -5   6   -2.26    1.23
   0  -5   6   -0.34    1.23
   1  -5   6    0.44    0.96
   2  -5   6    0.84    1.49
   3  -5   6    0.85    1.32
   4  -5   6    5.88    2.00
   5  -5   6    0.64    1.55
   6  -5   6    0.49    1.55
 -10  -4   6    0.81    1.11
  -9  -4   6    0.57    1.08
  -8  -4   6   10.76    1.72
  -7  -4   6    0.08    0.84
  -6  -4   6   34.22    2.70
  -5  -4   6   11.51    1.64
  -4  -4   6   14.40    1.67
  -3  -4   6    1.85    0.73
  -2  -4   6    1.39    0.65
  -1  -4   6   20.94    1.88
   0  -4   6    4.92    1.07
   1  -4   6   22.62    1.94
   2  -4   6    3.21    1.40
   3  -4   6    0.68    1.02
   4  -4   6   12.04    1.50
   5  -4   6    8.52    1.43
   6  -4   6   19.23    2.80
   7  -4   6   -0.03    1.08
   8  -4   6    8.22    2.06
   9  -4   6    1.32    1.50
  10  -4   6   -0.27    1.32
 -12  -3   6    2.73    1.11
 -11  -3   6   21.52    1.94
 -10  -3   6    3.61    0.91
  -9  -3   6    1.01    0.76
  -8  -3   6    0.94    0.61
  -7  -3   6    8.09    1.00
  -6  -3   6    1.00    0.53
  -5  -3   6    0.00    0.44
  -4  -3   6   41.37    1.64
  -3  -3   6    0.13    0.49
  -2  -3   6    5.34    0.91
  -1  -3   6    0.97    0.43
   0  -3   6    0.31    0.38
   1  -3   6    1.90    0.65
   2  -3   6    5.77    0.94
   3  -3   6   -0.08    0.48
   4  -3   6   42.81    3.20
   5  -3   6    0.04    0.50
   6  -3   6    0.45    0.61
   7  -3   6    6.91    1.17
   8  -3   6    0.39    0.77
   9  -3   6    2.32    1.03
  10  -3   6    2.34    1.47
  11  -3   6   16.19    2.76
  12  -3   6    1.44    1.47
 -13  -2   6    0.54    1.11
 -12  -2   6    4.17    1.02
 -11  -2   6    7.52    1.12
 -10  -2   6    0.56    0.58
  -9  -2   6    0.48    0.47
  -8  -2   6   28.14    1.74
  -7  -2   6    1.42    0.51
  -6  -2   6   81.19    2.40
  -5  -2   6   37.66    1.46
  -4  -2   6   40.11    1.46
  -3  -2   6   11.37    0.80
  -2  -2   6    3.73    0.44
  -1  -2   6   61.88    1.46
   0  -2   6   21.29    0.75
   1  -2   6   64.88    1.71
   2  -2   6    6.03    0.50
   3  -2   6   11.33    1.04
   4  -2   6   43.22    1.77
   5  -2   6   39.62    1.65
   6  -2   6   83.46    3.06
   7  -2   6    1.41    0.63
   8  -2   6   27.73    2.11
   9  -2   6    0.07    0.61
  10  -2   6    0.64    0.74
  11  -2   6    7.48    1.36
  12  -2   6    2.97    1.70
 -14  -1   6    8.46    1.74
 -13  -1   6    0.33    1.02
 -12  -1   6    5.61    1.29
 -11  -1   6   45.13    2.23
 -10  -1   6    8.59    1.06
  -9  -1   6    2.84    0.64
  -8  -1   6    4.10    0.64
  -7  -1   6   26.76    1.38
  -6  -1   6    1.06    0.38
  -5  -1   6    0.12    0.17
  -4  -1   6   79.09    2.08
  -3  -1   6    0.58    0.26
  -2  -1   6   11.77    0.63
  -1  -1   6    3.15    0.29
   0  -1   6    0.21    0.22
   1  -1   6    3.04    0.36
   2  -1   6   11.74    0.53
   3  -1   6    1.16    0.40
   4  -1   6   79.95    2.56
   5  -1   6   -0.17    0.36
   6  -1   6    1.72    0.39
   7  -1   6   26.51    1.19
   8  -1   6    1.76    0.64
   9  -1   6    1.70    0.63
  10  -1   6    9.75    1.29
  11  -1   6   36.56    3.94
  12  -1   6    4.48    1.83
  13  -1   6   -1.84    1.26
  14  -1   6   10.83    2.64
 -14   0   6   -0.93    1.34
 -13   0   6    0.86    0.98
 -12   0   6    4.97    1.18
 -11   0   6    8.31    1.39
 -10   0   6    0.67    0.65
  -9   0   6   -0.09    0.36
  -8   0   6   36.41    1.28
  -7   0   6    2.63    0.39
  -6   0   6  115.96    2.35
  -5   0   6   59.29    1.40
  -4   0   6   60.33    1.38
  -3   0   6   26.23    0.77
  -2   0   6    8.20    0.47
  -1   0   6  133.19    2.34
   0   0   6   40.27    0.93
   1   0   6  131.84    2.32
   2   0   6    8.78    0.56
   3   0   6   26.06    0.89
   4   0   6   60.98    1.57
   5   0   6   57.98    1.34
   6   0   6  112.64    2.68
   7   0   6    1.51    0.39
   8   0   6   41.15    1.50
   9   0   6   -0.67    0.52
  10   0   6   -0.22    0.96
  11   0   6    7.25    1.90
  12   0   6    6.44    1.94
  13   0   6    1.00    1.59
  14   0   6   -0.94    1.45
 -14   1   6   12.48    2.94
 -13   1   6   -0.69    1.27
 -12   1   6    2.03    1.53
 -11   1   6   43.74    2.31
 -10   1   6    8.73    1.01
  -9   1   6    2.59    0.60
  -8   1   6    1.69    0.51
  -7   1   6   26.54    1.39
  -6   1   6    2.14    0.36
  -5   1   6   -0.19    0.21
  -4   1   6   82.81    1.78
  -3   1   6    0.58    0.22
  -2   1   6   12.35    0.63
  -1   1   6    3.17    0.35
   0   1   6    0.12    0.15
   1   1   6    3.49    0.32
   2   1   6   11.31    0.61
   3   1   6    0.49    0.28
   4   1   6   82.38    2.11
   5   1   6   -0.09    0.27
   6   1   6    1.29    0.42
   7   1   6   27.01    1.46
   8   1   6    3.66    0.83
   9   1   6    2.54    0.76
  10   1   6    9.13    1.35
  11   1   6   36.19    2.67
  12   1   6    4.29    1.88
  13   1   6    0.08    1.36
  14   1   6    7.02    2.43
 -13   2   6    0.48    1.00
 -12   2   6    4.36    1.23
 -11   2   6    9.18    1.49
 -10   2   6   -0.18    0.63
  -9   2   6    0.21    0.55
  -8   2   6   28.59    1.77
  -7   2   6    2.05    0.57
  -6   2   6   81.77    2.42
  -5   2   6   35.21    1.45
  -4   2   6   41.23    1.50
  -3   2   6   12.45    0.65
  -2   2   6    5.49    0.48
  -1   2   6   62.47    1.54
   0   2   6   22.26    0.77
   1   2   6   63.64    1.30
   2   2   6    5.53    0.41
   3   2   6   12.26    0.64
   4   2   6   40.78    1.23
   5   2   6   34.94    1.23
   6   2   6   77.33    2.06
   7   2   6    1.08    0.54
   8   2   6   28.61    1.76
   9   2   6   -0.29    0.67
  10   2   6    0.43    0.74
  11   2   6    4.22    1.17
  12   2   6    3.67    1.24
  13   2   6    1.20    1.30
 -12   3   6    2.10    1.13
 -11   3   6   19.38    2.25
 -10   3   6    2.42    1.09
  -9   3   6    3.45    1.08
  -8   3   6    0.23    0.76
  -7   3   6   12.56    1.57
  -6   3   6    0.89    0.48
  -5   3   6    0.39    0.41
  -4   3   6   42.78    1.70
  -3   3   6    0.21    0.37
  -2   3   6    5.47    0.56
  -1   3   6    1.64    0.39
   0   3   6    0.38    0.27
   1   3   6    1.73    0.41
   2   3   6    5.51    0.63
   3   3   6   -0.35    0.31
   4   3   6   40.18    1.73
   5   3   6    0.11    0.47
   6   3   6    0.35    0.54
   7   3   6    8.39    1.09
   8   3   6   -0.02    0.59
   9   3   6    0.52    0.85
  10   3   6    4.87    1.36
  11   3   6   18.30    2.30
  12   3   6    3.66    1.46
 -10   4   6   -1.07    1.08
  -9   4   6    0.08    1.05
  -8   4   6   13.91    1.89
  -7   4   6    2.13    1.06
  -6   4   6   33.94    2.73
  -5   4   6   17.23    1.90
  -4   4   6   16.19    1.77
  -3   4   6    2.54    0.74
  -2   4   6    1.71    0.63
  -1   4   6   19.57    1.43
   0   4   6    5.57    0.74
   1   4   6   19.64    1.41
   2   4   6    1.94    0.66
   3   4   6    2.46    0.72
   4   4   6   12.16    1.28
   5   4   6   14.90    1.44
   6   4   6   25.76    1.95
   7   4   6    0.65    0.77
   8   4   6   12.04    2.01
   9   4   6   -0.28    1.05
  10   4   6   -0.31    1.18
  -6   5   6   -0.28    1.24
  -5   5   6   -0.82    1.11
  -4   5   6   11.93    1.88
  -3   5   6   -1.37    0.99
  -2   5   6    1.95    1.23
  -1   5   6   -0.54    1.02
   0   5   6    0.01    0.97
   1   5   6   -0.51    0.97
   2   5   6    1.02    1.59
   3   5   6    1.54    1.04
   4   5   6   13.66    1.92
   5   5   6    0.17    1.09
   6   5   6    0.80    1.48
  -6  -5   7   -0.09    1.11
  -5  -5   7    1.24    1.35
  -4  -5   7    0.91    1.24
  -3  -5   7   24.94    2.62
  -2  -5   7    4.36    1.35
  -1  -5   7    1.14    1.50
   0  -5   7   15.85    2.87
   1  -5   7    3.14    2.00
   2  -5   7    3.08    1.31
   3  -5   7   25.02    3.65
   4  -5   7    2.85    1.66
   5  -5   7   -0.68    1.27
  -9  -4   7    4.87    1.45
  -8  -4   7   16.57    2.14
  -7  -4   7    0.76    0.98
  -6  -4   7    2.02    1.01
  -5  -4   7    1.68    1.03
  -4  -4   7   -0.09    0.70
  -3  -4   7    8.95    1.15
  -2  -4   7    9.88    1.53
  -1  -4   7    4.23    1.13
   0  -4   7   -0.07    0.71
   1  -4   7    1.60    0.89
   2  -4   7    8.80    2.13
   3  -4   7    7.14    1.83
   4  -4   7    1.19    0.82
   5  -4   7    0.58    0.82
   6  -4   7    2.01    1.00
   7  -4   7   -0.16    1.14
   8  -4   7   14.27    2.64
   9  -4   7    3.13    1.79
  10  -4   7    6.34    2.31
 -12  -3   7    1.20    1.11
 -11  -3   7    0.74    0.97
 -10  -3   7    0.95    0.90
  -9  -3   7    0.21    0.82
  -8  -3   7   13.83    1.63
  -7  -3   7    2.16    0.90
  -6  -3   7   -0.52    0.54
  -5  -3   7    2.92    0.79
  -4  -3   7    1.20    0.60
  -3  -3   7   90.70    3.27
  -2  -3   7   12.55    1.03
  -1  -3   7   11.55    0.99
   0  -3   7   59.49    1.93
   1  -3   7   10.89    1.26
   2  -3   7    9.57    1.21
   3  -3   7   95.88    3.37
   4  -3   7    3.17    1.22
   5  -3   7    3.52    1.30
   6  -3   7    0.45    0.61
   7  -3   7    2.42    0.90
   8  -3   7   13.81    1.68
   9  -3   7   -0.47    0.79
  10  -3   7    2.32    1.18
  11  -3   7    1.60    1.37
  12  -3   7    0.68    1.55
 -13  -2   7   36.19    3.17
 -12  -2   7    1.60    0.86
 -11  -2   7   -0.19    0.66
 -10  -2   7   11.03    1.24
  -9  -2   7    7.90    1.03
  -8  -2   7   34.76    1.96
  -7  -2   7    1.29    0.48
  -6  -2   7    9.09    0.91
  -5  -2   7    7.51    0.74
  -4  -2   7    2.63    0.48
  -3  -2   7   25.12    1.10
  -2  -2   7   23.97    1.01
  -1  -2   7    9.37    0.54
   0  -2   7   -0.11    0.16
   1  -2   7   10.99    0.73
   2  -2   7   26.91    0.97
   3  -2   7   23.46    1.48
   4  -2   7    1.45    0.55
   5  -2   7    8.72    0.92
   6  -2   7   10.04    1.16
   7  -2   7    1.32    0.60
   8  -2   7   31.20    2.26
   9  -2   7    5.34    1.09
  10  -2   7   14.76    1.73
  11  -2   7   -0.22    0.73
  12  -2   7    0.58    1.56
 -14  -1   7    0.15    1.06
 -13  -1   7    4.24    1.23
 -12  -1   7   -0.09    0.81
 -11  -1   7    0.75    0.79
 -10  -1   7    1.84    0.66
  -9  -1   7    1.51    0.55
  -8  -1   7   24.39    1.50
  -7  -1   7    7.77    0.84
  -6  -1   7    0.34    0.31
  -5  -1   7   10.92    0.82
  -4  -1   7    5.86    0.61
  -3  -1   7  199.83    4.10
  -2  -1   7   15.57    0.75
  -1  -1   7   27.02    0.76
   0  -1   7  162.21    4.09
   1  -1   7   27.27    0.95
   2  -1   7   15.42    0.67
   3  -1   7  197.00    5.20
   4  -1   7    6.10    0.76
   5  -1   7   10.84    0.98
   6  -1   7    0.01    0.34
   7  -1   7    6.52    0.68
   8  -1   7   25.63    1.83
   9  -1   7    0.52    0.57
  10  -1   7    2.42    1.34
  11  -1   7   -0.56    1.04
  12  -1   7    0.18    1.32
  13  -1   7    7.86    2.18
  14  -1   7    0.52    1.62
 -14   0   7    0.31    1.70
 -13   0   7   53.60    3.54
 -12   0   7    4.79    1.20
 -11   0   7   -0.49    0.58
 -10   0   7   16.94    1.76
  -9   0   7   10.59    1.36
  -8   0   7   39.56    1.30
  -7   0   7    0.36    0.26
  -6   0   7   19.00    0.83
  -5   0   7   13.03    0.72
  -4   0   7    1.09    0.25
  -3   0   7   37.23    0.99
  -2   0   7   34.66    0.80
  -1   0   7   15.97    0.61
   0   0   7   -0.18    0.17
   1   0   7   15.44    0.60
   2   0   7   34.63    1.07
   3   0   7   38.06    1.14
   4   0   7    0.60    0.26
   5   0   7   13.48    0.84
   6   0   7   19.32    0.79
   7   0   7    0.93    0.36
   8   0   7   42.44    2.02
   9   0   7    8.92    1.17
  10   0   7   19.55    2.86
  11   0   7    1.84    1.30
  12   0   7    1.85    1.54
  13   0   7   49.59    5.22
  14   0   7    0.76    1.77
 -14   1   7    3.03    1.98
 -13   1   7    6.75    2.20
 -12   1   7   -1.00    1.09
 -11   1   7    1.01    0.61
 -10   1   7    3.07    0.71
  -9   1   7    1.18    0.51
  -8   1   7   23.29    1.47
  -7   1   7    6.63    0.79
  -6   1   7    0.49    0.30
  -5   1   7   12.00    0.74
  -4   1   7    7.28    0.56
  -3   1   7  205.43    3.58
  -2   1   7   15.60    0.71
  -1   1   7   27.26    0.85
   0   1   7  161.81    2.86
   1   1   7   27.12    0.83
   2   1   7   15.36    0.70
   3   1   7  200.73    4.14
   4   1   7    6.02    0.61
   5   1   7   10.18    0.83
   6   1   7    0.19    0.34
   7   1   7    7.90    0.79
   8   1   7   24.48    1.88
   9   1   7    0.43    0.65
  10   1   7    0.99    0.80
  11   1   7    0.16    0.81
  12   1   7   -0.29    1.26
  13   1   7    8.15    2.53
  14   1   7    0.64    1.70
 -13   2   7   36.62    3.04
 -12   2   7    0.43    0.91
 -11   2   7    0.02    0.76
 -10   2   7   12.69    1.63
  -9   2   7    5.83    0.97
  -8   2   7   35.17    2.00
  -7   2   7    0.72    0.46
  -6   2   7    7.16    0.84
  -5   2   7    8.59    0.87
  -4   2   7    1.54    0.31
  -3   2   7   26.96    0.94
  -2   2   7   26.50    1.01
  -1   2   7    9.28    0.64
   0   2   7   -0.16    0.19
   1   2   7   10.99    0.68
   2   2   7   24.42    0.74
   3   2   7   25.53    0.83
   4   2   7    1.43    0.34
   5   2   7    7.92    0.68
   6   2   7   10.76    0.84
   7   2   7    0.98    0.51
   8   2   7   35.69    1.99
   9   2   7    6.67    1.26
  10   2   7   11.67    1.61
  11   2   7   -0.76    0.80
  12   2   7    0.41    1.04
  13   2   7   31.90    2.98
 -12   3   7   -0.50    0.95
 -11   3   7    0.11    0.91
 -10   3   7    0.51    0.89
  -9   3   7   -0.12    0.75
  -8   3   7   14.75    1.78
  -7   3   7    2.13    0.85
  -6   3   7   -0.35    0.40
  -5   3   7    4.45    0.74
  -4   3   7    0.97    0.42
  -3   3   7   96.46    2.75
  -2   3   7   11.10    0.82
  -1   3   7   11.00    0.81
   0   3   7   60.52    1.75
   1   3   7   11.42    0.82
   2   3   7   13.20    0.91
   3   3   7   96.47    2.41
   4   3   7    0.65    0.50
   5   3   7    4.03    0.78
   6   3   7   -0.02    0.53
   7   3   7    1.12    0.64
   8   3   7   13.80    1.41
   9   3   7    0.26    0.91
  10   3   7    2.30    1.15
  11   3   7    1.95    1.19
  12   3   7   -1.24    1.07
 -10   4   7    4.61    2.10
  -9   4   7    2.46    1.26
  -8   4   7   18.19    2.17
  -7   4   7    0.71    0.99
  -6   4   7    2.44    1.08
  -5   4   7    5.86    1.28
  -4   4   7    0.75    0.56
  -3   4   7    9.17    1.09
  -2   4   7   10.39    1.09
  -1   4   7    3.63    0.80
   0   4   7   -0.16    0.42
   1   4   7    2.91    0.67
   2   4   7   10.09    1.14
   3   4   7    9.63    1.16
   4   4   7    1.02    0.71
   5   4   7    2.65    0.84
   6   4   7    2.87    0.92
   7   4   7    0.27    0.78
   8   4   7   12.21    1.93
   9   4   7    1.78    1.20
  10   4   7    5.97    2.62
  -6   5   7    0.62    1.83
  -5   5   7    1.63    1.28
  -4   5   7   -0.88    1.04
  -3   5   7   29.81    2.73
  -2   5   7    3.39    1.33
  -1   5   7    0.51    1.17
   0   5   7   16.89    2.02
   1   5   7    1.77    1.17
   2   5   7    3.60    1.32
   3   5   7   29.46    2.61
   4   5   7   -0.51    1.03
   5   5   7    2.95    1.29
   6   5   7    0.07    1.58
  -5  -5   8    0.40    1.27
  -4  -5   8   -0.62    1.09
  -3  -5   8    3.07    1.33
  -2  -5   8    0.68    1.12
  -1  -5   8    1.07    1.47
   0  -5   8    0.86    1.60
   1  -5   8    3.20    1.83
   2  -5   8    2.73    1.23
   3  -5   8    2.00    1.22
   4  -5   8   -1.05    1.33
   5  -5   8    0.24    1.39
  -9  -4   8    0.70    1.20
  -8  -4   8    2.94    1.30
  -7  -4   8    1.07    1.00
  -6  -4   8    0.05    0.84
  -5  -4   8    7.94    1.40
  -4  -4   8    7.80    1.10
  -3  -4   8   13.55    1.38
  -2  -4   8   28.54    2.41
  -1  -4   8   21.04    2.00
   0  -4   8   32.27    2.47
   1  -4   8   20.57    2.02
   2  -4   8   35.16    3.81
   3  -4   8   16.22    2.62
   4  -4   8   14.62    2.66
   5  -4   8    6.51    1.30
   6  -4   8   -0.04    0.79
   7  -4   8    0.12    0.88
   8  -4   8    4.49    1.81
   9  -4   8    2.88    1.77
 -12  -3   8   -0.24    1.24
 -11  -3   8   15.24    2.08
 -10  -3   8    7.50    1.51
  -9  -3   8   -1.18    0.70
  -8  -3   8   44.69    3.11
  -7  -3   8    0.13    0.66
  -6  -3   8   38.80    2.60
  -5  -3   8    0.39    0.62
  -4  -3   8    2.02    0.79
  -3  -3   8   14.37    1.45
  -2  -3   8    6.62    0.83
  -1  -3   8   19.30    1.28
   0  -3   8    0.59    0.62
   1  -3   8   18.46    1.62
   2  -3   8    6.11    1.05
   3  -3   8   13.95    1.48
   4  -3   8    2.57    1.29
   5  -3   8    0.10    0.90
   6  -3   8   36.49    2.54
   7  -3   8    0.75    0.73
   8  -3   8   41.75    2.94
   9  -3   8    1.27    0.87
  10  -3   8    6.23    1.41
  11  -3   8   10.71    2.28
  12  -3   8   -1.50    1.38
 -13  -2   8    2.51    1.28
 -12  -2   8    0.63    0.74
 -11  -2   8    5.25    1.04
 -10  -2   8    2.47    0.78
  -9  -2   8    2.47    0.71
  -8  -2   8    7.06    0.96
  -7  -2   8    3.06    0.67
  -6  -2   8    0.40    0.43
  -5  -2   8   18.73    1.21
  -4  -2   8   25.94    1.19
  -3  -2   8   39.20    1.38
  -2  -2   8   91.07    2.02
  -1  -2   8   42.43    1.15
   0  -2   8   80.08    2.15
   1  -2   8   42.84    1.43
   2  -2   8   94.60    2.29
   3  -2   8   41.82    1.90
   4  -2   8   26.16    1.59
   5  -2   8   19.01    1.43
   6  -2   8    1.08    0.86
   7  -2   8    4.21    0.92
   8  -2   8   10.37    1.37
   9  -2   8    2.25    0.95
  10  -2   8    1.19    0.83
  11  -2   8    6.46    1.29
  12  -2   8    0.29    1.31
  13  -2   8    1.38    1.84
 -14  -1   8    2.39    1.23
 -13  -1   8   10.28    1.80
 -12  -1   8    1.14    0.89
 -11  -1   8   22.75    2.27
 -10  -1   8   10.38    1.18
  -9  -1   8    4.36    0.80
  -8  -1   8   89.92    2.74
  -7  -1   8   -0.50    0.34
  -6  -1   8   72.96    2.21
  -5  -1   8   -0.02    0.28
  -4  -1   8    4.29    0.55
  -3  -1   8   28.63    1.09
  -2  -1   8   14.86    0.68
  -1  -1   8   40.38    1.02
   0  -1   8    0.24    0.26
   1  -1   8   41.05    1.29
   2  -1   8   15.08    0.72
   3  -1   8   30.44    0.93
   4  -1   8    5.18    0.72
   5  -1   8    0.02    0.37
   6  -1   8   76.62    2.66
   7  -1   8   -0.29    0.31
   8  -1   8   93.54    3.39
   9  -1   8    2.84    0.79
  10  -1   8    8.82    2.08
  11  -1   8   27.09    3.52
  12  -1   8   -1.25    1.26
  13  -1   8   10.14    2.60
  14  -1   8    2.70    1.91
 -14   0   8   -1.03    0.97
 -13   0   8    0.20    0.91
 -12   0   8    0.52    0.81
 -11   0   8    5.92    1.20
 -10   0   8    4.32    1.02
  -9   0   8    5.72    1.04
  -8   0   8   17.16    1.22
  -7   0   8    4.00    0.49
  -6   0   8   -0.17    0.22
  -5   0   8   22.02    0.87
  -4   0   8   33.46    1.00
  -3   0   8   51.65    1.25
  -2   0   8  152.24    2.80
  -1   0   8   52.58    1.25
   0   0   8  114.56    2.18
   1   0   8   54.88    1.24
   2   0   8  151.14    3.21
   3   0   8   51.28    1.46
   4   0   8   34.96    1.16
   5   0   8   21.42    0.97
   6   0   8    0.05    0.24
   7   0   8    4.52    0.58
   8   0   8   14.50    1.36
   9   0   8    3.41    0.91
  10   0   8    4.60    1.44
  11   0   8    4.04    1.60
  12   0   8    1.79    1.49
  13   0   8    0.83    1.52
  14   0   8   -0.38    1.57
 -14   1   8    3.18    2.07
 -13   1   8   11.83    2.85
 -12   1   8    0.67    0.85
 -11   1   8   24.19    2.25
 -10   1   8   11.88    1.18
  -9   1   8    4.16    0.72
  -8   1   8   90.33    2.71
  -7   1   8    0.41    0.37
  -6   1   8   73.55    1.85
  -5   1   8    0.03    0.24
  -4   1   8    5.00    0.50
  -3   1   8   28.56    0.96
  -2   1   8   17.38    0.77
  -1   1   8   41.40    1.14
   0   1   8    0.02    0.19
   1   1   8   42.26    1.12
   2   1   8   15.42    0.76
   3   1   8   29.48    1.14
   4   1   8    3.41    0.50
   5   1   8    0.29    0.33
   6   1   8   73.50    2.19
   7   1   8   -0.16    0.38
   8   1   8   89.75    2.65
   9   1   8    3.22    0.88
  10   1   8   10.76    1.45
  11   1   8   23.56    2.15
  12   1   8   -1.31    1.10
  13   1   8   12.56    2.86
  14   1   8   -0.65    1.79
 -13   2   8   -0.90    1.35
 -12   2   8    0.41    0.80
 -11   2   8    2.82    1.07
 -10   2   8    0.25    0.60
  -9   2   8    3.13    0.77
  -8   2   8   11.89    1.16
  -7   2   8    2.31    0.61
  -6   2   8    0.56    0.44
  -5   2   8   19.56    1.29
  -4   2   8   26.32    1.03
  -3   2   8   41.85    1.24
  -2   2   8   90.61    2.07
  -1   2   8   43.37    1.29
   0   2   8   80.37    1.65
   1   2   8   42.82    1.25
   2   2   8   92.53    2.10
   3   2   8   40.34    1.31
   4   2   8   24.88    1.40
   5   2   8   19.09    1.29
   6   2   8   -0.26    0.40
   7   2   8    3.48    0.73
   8   2   8   10.16    1.15
   9   2   8    3.01    1.02
  10   2   8    1.15    0.94
  11   2   8    4.84    1.31
  12   2   8    0.59    1.03
  13   2   8   -1.39    1.07
 -12   3   8   -0.51    1.29
 -11   3   8   16.03    2.11
 -10   3   8    8.63    1.58
  -9   3   8    1.12    0.93
  -8   3   8   48.81    2.93
  -7   3   8    0.48    0.52
  -6   3   8   42.06    1.98
  -5   3   8   -0.10    0.42
  -4   3   8    1.08    0.52
  -3   3   8   12.58    1.09
  -2   3   8    5.75    0.63
  -1   3   8   18.71    1.06
   0   3   8    0.51    0.37
   1   3   8   19.42    1.02
   2   3   8    6.53    0.67
   3   3   8   13.07    0.96
   4   3   8    1.70    0.54
   5   3   8    0.08    0.51
   6   3   8   40.66    2.08
   7   3   8    0.16    0.59
   8   3   8   45.28    2.52
   9   3   8    0.61    0.91
  10   3   8    5.65    1.37
  11   3   8   11.34    1.89
  12   3   8   -0.26    1.74
  -9   4   8    2.47    1.33
  -8   4   8    4.76    1.34
  -7   4   8    1.05    0.98
  -6   4   8   -0.39    0.82
  -5   4   8    7.76    1.38
  -4   4   8    9.38    1.14
  -3   4   8   15.64    1.41
  -2   4   8   30.77    1.93
  -1   4   8   19.77    1.52
   0   4   8   32.21    1.84
   1   4   8   17.08    1.42
   2   4   8   29.64    1.86
   3   4   8   16.96    1.46
   4   4   8   10.12    1.51
   5   4   8    7.37    1.12
   6   4   8   -0.06    0.69
   7   4   8    0.53    0.83
   8   4   8    5.47    1.27
   9   4   8   -0.43    1.16
  10   4   8    0.27    2.05
  -6   5   8   12.15    2.94
  -5   5   8   -0.94    1.10
  -4   5   8   -1.03    0.97
  -3   5   8    3.16    1.40
  -2   5   8    0.16    1.03
  -1   5   8    4.79    1.29
   0   5   8   -0.27    0.91
   1   5   8    2.51    1.25
   2   5   8    0.33    1.14
   3   5   8    4.14    1.30
   4   5   8   -0.58    1.04
   5   5   8    0.74    1.07
   6   5   8   12.86    3.09
  -5  -5   9    2.33    1.44
  -4  -5   9    1.76    1.26
  -3  -5   9    3.89    1.38
  -2  -5   9   19.92    2.38
  -1  -5   9   11.61    2.98
   0  -5   9   38.67    4.68
   1  -5   9   12.68    2.90
   2  -5   9   20.32    3.35
   3  -5   9    3.82    1.28
   4  -5   9    1.65    1.59
  -9  -4   9    1.74    1.22
  -8  -4   9    9.04    1.70
  -7  -4   9    2.70    1.16
  -6  -4   9    6.81    1.39
  -5  -4   9    9.32    1.23
  -4  -4   9   -0.56    0.66
  -3  -4   9   -0.09    0.78
  -2  -4   9    8.13    1.41
  -1  -4   9    1.33    1.13
   0  -4   9    0.35    0.75
   1  -4   9    0.91    0.89
   2  -4   9    5.76    1.81
   3  -4   9    0.28    1.03
   4  -4   9    1.58    1.26
   5  -4   9    7.17    1.35
   6  -4   9    6.76    1.45
   7  -4   9    1.88    0.98
   8  -4   9    6.68    1.98
   9  -4   9    2.56    1.72
 -12  -3   9    0.46    1.48
 -11  -3   9   -0.07    0.95
 -10  -3   9   -0.27    0.84
  -9  -3   9    0.17    0.81
  -8  -3   9    4.73    1.23
  -7  -3   9   -0.16    0.70
  -6  -3   9   12.46    1.55
  -5  -3   9    5.08    1.03
  -4  -3   9   -0.08    0.61
  -3  -3   9   15.48    1.27
  -2  -3   9   66.75    2.29
  -1  -3   9   39.20    1.68
   0  -3   9  129.57    4.41
   1  -3   9   42.45    2.24
   2  -3   9   68.92    2.97
   3  -3   9   18.06    1.64
   4  -3   9    0.11    0.85
   5  -3   9    6.28    1.74
   6  -3   9    7.43    1.78
   7  -3   9   -0.66    0.56
   8  -3   9    2.41    0.97
   9  -3   9   -0.32    0.79
  10  -3   9    0.34    0.96
  11  -3   9    0.92    1.08
  12  -3   9    0.65    1.54
 -13  -2   9   -0.31    1.29
 -12  -2   9    9.76    1.35
 -11  -2   9    7.90    1.18
 -10  -2   9   38.49    2.32
  -9  -2   9    0.50    0.59
  -8  -2   9   21.21    1.55
  -7  -2   9    1.90    0.57
  -6  -2   9   14.22    1.14
  -5  -2   9   21.51    1.32
  -4  -2   9    0.70    0.38
  -3  -2   9    2.22    0.43
  -2  -2   9   24.52    1.36
  -1  -2   9    2.72    0.52
   0  -2   9   -0.41    0.34
   1  -2   9    2.14    0.44
   2  -2   9   20.73    1.61
   3  -2   9    3.39    0.73
   4  -2   9    1.20    0.59
   5  -2   9   23.36    1.69
   6  -2   9   14.31    2.23
   7  -2   9    2.41    0.77
   8  -2   9   22.02    1.96
   9  -2   9    1.29    0.80
  10  -2   9   28.15    2.38
  11  -2   9    6.72    2.07
  12  -2   9    7.78    2.32
  13  -2   9    4.52    2.19
 -14  -1   9    3.66    1.37
 -13  -1   9   -1.07    0.84
 -12  -1   9   -0.14    0.86
 -11  -1   9    0.90    0.78
 -10  -1   9   -0.06    0.45
  -9  -1   9    0.55    0.49
  -8  -1   9    9.08    1.01
  -7  -1   9    0.20    0.41
  -6  -1   9   19.39    1.25
  -5  -1   9    6.01    0.67
  -4  -1   9    1.52    0.39
  -3  -1   9   27.62    1.12
  -2  -1   9  153.42    2.89
  -1  -1   9   60.70    1.37
   0  -1   9  231.41    4.84
   1  -1   9   60.66    1.69
   2  -1   9  157.16    3.30
   3  -1   9   27.47    0.94
   4  -1   9    1.43    0.54
   5  -1   9    4.64    0.77
   6  -1   9   20.46    1.53
   7  -1   9   -0.03    0.36
   8  -1   9   11.22    1.28
   9  -1   9    0.61    0.62
  10  -1   9    1.57    1.19
  11  -1   9   -0.69    1.22
  12  -1   9    2.36    1.50
  13  -1   9    2.58    1.97
  14  -1   9    3.03    2.09
 -14   0   9    4.23    1.34
 -13   0   9    4.34    1.30
 -12   0   9   12.94    1.82
 -11   0   9   11.03    1.56
 -10   0   9   37.51    2.67
  -9   0   9    0.79    0.63
  -8   0   9   34.86    1.59
  -7   0   9    2.36    0.41
  -6   0   9   16.93    0.92
  -5   0   9   38.20    1.15
  -4   0   9    1.77    0.30
  -3   0   9    5.92    0.41
  -2   0   9   35.00    1.00
  -1   0   9    2.46    0.31
   0   0   9    0.06    0.20
   1   0   9    2.13    0.30
   2   0   9   36.59    1.19
   3   0   9    6.05    0.57
   4   0   9    2.42    0.40
   5   0   9   39.37    1.33
   6   0   9   18.09    0.79
   7   0   9    1.48    0.48
   8   0   9   32.86    1.98
   9   0   9    1.31    0.74
  10   0   9   33.31    3.85
  11   0   9    7.55    2.20
  12   0   9    8.95    2.30
  13   0   9    4.05    1.90
  14   0   9    5.14    2.40
 -13   1   9    1.12    1.45
 -12   1   9    0.17    0.83
 -11   1   9    0.63    0.75
 -10   1   9    0.00    0.52
  -9   1   9    0.70    0.48
  -8   1   9   11.47    1.07
  -7   1   9    0.65    0.45
  -6   1   9   21.19    1.10
  -5   1   9    6.32    0.60
  -4   1   9    1.80    0.37
  -3   1   9   26.38    0.95
  -2   1   9  152.20    2.93
  -1   1   9   62.08    1.73
   0   1   9  241.23    4.15
   1   1   9   60.96    1.46
   2   1   9  152.43    2.93
   3   1   9   28.26    1.14
   4   1   9    1.51    0.44
   5   1   9    6.13    0.69
   6   1   9   21.70    1.28
   7   1   9    0.00    0.40
   8   1   9    9.60    1.00
   9   1   9    0.96    0.74
  10   1   9    0.32    0.83
  11   1   9   -0.37    0.76
  12   1   9   -1.50    1.30
  13   1   9   -0.48    1.43
 -13   2   9    3.98    1.87
 -12   2   9    7.79    1.64
 -11   2   9   10.71    1.61
 -10   2   9   28.49    2.01
  -9   2   9    1.08    0.63
  -8   2   9   21.50    1.58
  -7   2   9    1.84    0.57
  -6   2   9   13.85    1.16
  -5   2   9   26.00    1.50
  -4   2   9    1.24    0.35
  -3   2   9    4.01    0.49
  -2   2   9   26.54    1.04
  -1   2   9    2.04    0.39
   0   2   9   -0.27    0.22
   1   2   9    1.53    0.35
   2   2   9   26.18    1.07
   3   2   9    4.57    0.55
   4   2   9    0.22    0.41
   5   2   9   23.14    1.42
   6   2   9   14.91    1.22
   7   2   9    1.59    0.63
   8   2   9   23.97    1.64
   9   2   9    0.39    0.62
  10   2   9   27.68    2.38
  11   2   9    6.47    1.45
  12   2   9    8.90    1.71
  13   2   9    3.23    1.37
 -12   3   9   -1.29    1.19
 -11   3   9   -0.68    0.87
 -10   3   9   -0.35    0.87
  -9   3   9    0.84    0.86
  -8   3   9    5.94    1.30
  -7   3   9   -0.22    0.50
  -6   3   9   10.28    1.10
  -5   3   9    4.96    0.81
  -4   3   9    0.03    0.44
  -3   3   9   15.81    1.24
  -2   3   9   72.90    1.98
  -1   3   9   40.29    1.45
   0   3   9  132.64    3.40
   1   3   9   36.19    1.59
   2   3   9   70.50    2.01
   3   3   9   16.93    1.07
   4   3   9    0.68    0.49
   5   3   9    2.41    0.69
   6   3   9   11.41    1.19
   7   3   9    0.28    0.63
   8   3   9    4.72    1.02
   9   3   9    0.24    0.79
  10   3   9   -0.05    1.00
  11   3   9    0.30    1.12
  -9   4   9    0.18    0.99
  -8   4   9    8.03    1.67
  -7   4   9    2.45    1.13
  -6   4   9    7.13    1.42
  -5   4   9    4.87    1.27
  -4   4   9    0.70    0.61
  -3   4   9    0.65    0.64
  -2   4   9    8.00    1.05
  -1   4   9    0.83    0.61
   0   4   9    0.08    0.51
   1   4   9    0.84    0.59
   2   4   9   10.93    1.20
   3   4   9   -0.38    0.58
   4   4   9    1.13    0.79
   5   4   9    7.54    1.37
   6   4   9    4.39    1.05
   7   4   9    0.78    0.82
   8   4   9    7.10    1.38
   9   4   9    0.63    1.31
  -5   5   9   -0.07    1.69
  -4   5   9   -0.52    1.14
  -3   5   9    5.41    1.51
  -2   5   9   18.93    2.33
  -1   5   9   11.69    1.69
   0   5   9   43.67    3.23
   1   5   9    9.23    1.70
   2   5   9   25.81    2.57
   3   5   9    6.54    1.50
   4   5   9    0.46    1.11
   5   5   9    2.22    1.34
  -5  -5  10   -2.41    1.45
  -4  -5  10    0.67    1.11
  -3  -5  10    1.41    1.36
  -2  -5  10    7.35    1.73
  -1  -5  10   -1.38    1.26
   0  -5  10    1.38    1.76
   1  -5  10    0.53    1.67
   2  -5  10    5.68    1.98
   3  -5  10   -1.95    1.44
   4  -5  10   -0.01    0.96
  -9  -4  10   -1.00    1.08
  -8  -4  10   10.09    1.89
  -7  -4  10   13.63    2.06
  -6  -4  10    0.69    1.05
  -5  -4  10    1.11    0.78
  -4  -4  10    0.92    0.70
  -3  -4  10    0.28    0.82
  -2  -4  10    1.98    1.06
  -1  -4  10   24.72    2.34
   0  -4  10   29.38    2.52
   1  -4  10   27.08    2.41
   2  -4  10    2.87    1.48
   3  -4  10    3.21    1.55
   4  -4  10   -0.14    1.16
   5  -4  10    2.46    1.70
   6  -4  10    0.67    0.91
   7  -4  10   13.17    1.93
   8  -4  10    7.51    1.60
   9  -4  10    1.32    1.46
 -11  -3  10   -0.18    1.04
 -10  -3  10    3.40    1.18
  -9  -3  10   31.99    2.77
  -8  -3  10   13.52    1.80
  -7  -3  10    7.04    1.35
  -6  -3  10   -0.85    0.60
  -5  -3  10   -0.27    0.63
  -4  -3  10    3.72    0.78
  -3  -3  10    0.65    0.55
  -2  -3  10   23.21    1.50
  -1  -3  10    0.11    0.49
   0  -3  10   -0.17    0.62
   1  -3  10    0.84    0.71
   2  -3  10   23.14    1.97
   3  -3  10    0.09    0.63
   4  -3  10    2.52    1.18
   5  -3  10   -1.15    1.00
   6  -3  10    1.46    1.33
   7  -3  10    7.31    1.31
   8  -3  10   15.70    1.88
   9  -3  10   24.10    2.39
  10  -3  10    3.10    1.19
  11  -3  10    1.34    1.24
 -12  -2  10   -0.06    0.82
 -11  -2  10    5.05    1.02
 -10  -2  10    5.68    1.04
  -9  -2  10    0.48    0.62
  -8  -2  10   25.39    1.75
  -7  -2  10   36.68    1.86
  -6  -2  10    0.98    0.49
  -5  -2  10   -0.41    0.47
  -4  -2  10    0.30    0.49
  -3  -2  10    2.19    0.52
  -2  -2  10    6.56    0.78
  -1  -2  10   78.08    2.25
   0  -2  10   76.07    2.19
   1  -2  10   76.19    2.14
   2  -2  10    3.90    0.80
   3  -2  10    1.90    0.69
   4  -2  10    0.77    0.59
   5  -2  10   -0.86    0.46
   6  -2  10    1.65    1.09
   7  -2  10   29.13    2.22
   8  -2  10   22.11    2.00
   9  -2  10    0.15    0.72
  10  -2  10    7.53    1.36
  11  -2  10    7.55    2.40
  12  -2  10    0.03    1.70
  13  -2  10   10.45    2.73
 -14  -1  10   -0.12    1.87
 -13  -1  10    1.48    1.17
 -12  -1  10    4.24    1.25
 -11  -1  10    0.21    0.78
 -10  -1  10   12.14    1.25
  -9  -1  10   56.97    2.18
  -8  -1  10   31.49    1.68
  -7  -1  10   13.55    1.12
  -6  -1  10    1.02    0.44
  -5  -1  10   -0.26    0.28
  -4  -1  10    3.73    0.53
  -3  -1  10    1.37    0.32
  -2  -1  10   35.65    1.08
  -1  -1  10    1.54    0.24
   0  -1  10    0.07    0.31
   1  -1  10    1.05    0.35
   2  -1  10   37.08    1.25
   3  -1  10    0.64    0.31
   4  -1  10    3.39    0.73
   5  -1  10   -0.35    0.44
   6  -1  10    0.52    0.57
   7  -1  10   12.55    1.03
   8  -1  10   29.60    1.90
   9  -1  10   52.61    4.20
  10  -1  10    7.68    2.15
  11  -1  10    2.53    1.67
  12  -1  10    2.56    1.88
  13  -1  10    3.85    2.01
 -14   0  10   -0.77    1.00
 -13   0  10   12.65    1.77
 -12   0  10   -0.86    0.74
 -11   0  10    5.43    1.18
 -10   0  10   12.18    1.57
  -9   0  10   -0.06    0.55
  -8   0  10   31.82    1.62
  -7   0  10   49.04    1.81
  -6   0  10    0.96    0.32
  -5   0  10    0.43    0.25
  -4   0  10    1.01    0.29
  -3   0  10    4.15    0.43
  -2   0  10    4.91    0.44
  -1   0  10  119.04    2.32
   0   0  10  127.14    2.47
   1   0  10  113.17    2.28
   2   0  10    5.89    0.59
   3   0  10    3.23    0.47
   4   0  10    0.90    0.35
   5   0  10   -0.35    0.29
   6   0  10    1.41    0.43
   7   0  10   47.07    1.69
   8   0  10   29.06    2.14
   9   0  10    1.30    0.77
  10   0  10    8.24    1.35
  11   0  10    6.71    2.13
  12   0  10   -0.03    1.40
  13   0  10    8.99    2.61
  14   0  10    0.06    1.89
 -13   1  10    3.62    2.23
 -12   1  10    2.53    1.09
 -11   1  10   -0.69    0.74
 -10   1  10   16.94    1.84
  -9   1  10   57.09    2.18
  -8   1  10   27.57    1.67
  -7   1  10   15.32    1.18
  -6   1  10    0.76    0.35
  -5   1  10   -0.15    0.26
  -4   1  10    4.71    0.52
  -3   1  10    0.75    0.30
  -2   1  10   37.11    1.15
  -1   1  10    1.02    0.33
   0   1  10   -0.12    0.22
   1   1  10    1.97    0.34
   2   1  10   38.94    1.16
   3   1  10    1.61    0.40
   4   1  10    4.76    0.62
   5   1  10    0.21    0.35
   6   1  10   -1.16    0.35
   7   1  10   13.97    1.13
   8   1  10   30.54    1.60
   9   1  10   56.61    2.77
  10   1  10   16.24    1.85
  11   1  10   -0.58    0.80
  12   1  10    2.63    1.73
  13   1  10    0.42    1.72
 -12   2  10   -0.45    1.46
 -11   2  10    5.11    1.28
 -10   2  10    9.05    1.21
  -9   2  10    0.46    0.56
  -8   2  10   23.61    1.71
  -7   2  10   33.52    1.93
  -6   2  10    1.28    0.53
  -5   2  10   -0.14    0.37
  -4   2  10    0.63    0.32
  -3   2  10    2.04    0.41
  -2   2  10    6.46    0.62
  -1   2  10   74.85    1.91
   0   2  10   76.70    1.80
   1   2  10   74.82    1.86
   2   2  10    5.72    0.58
   3   2  10    1.70    0.44
   4   2  10    0.61    0.42
   5   2  10   -0.12    0.42
   6   2  10    0.66    0.52
   7   2  10   33.88    1.95
   8   2  10   21.85    1.63
   9   2  10    0.91    0.69
  10   2  10    4.70    1.24
  11   2  10    5.08    1.36
  12   2  10   -1.27    1.00
  13   2  10    9.98    2.48
 -11   3  10    0.11    0.95
 -10   3  10    2.89    1.23
  -9   3  10   39.89    3.01
  -8   3  10   20.70    2.17
  -7   3  10    7.40    0.98
  -6   3  10   -0.06    0.52
  -5   3  10   -0.03    0.46
  -4   3  10    2.18    0.65
  -3   3  10    0.63    0.51
  -2   3  10   20.38    1.15
  -1   3  10    0.79    0.41
   0   3  10   -0.21    0.36
   1   3  10    0.13    0.43
   2   3  10   17.64    1.31
   3   3  10    0.03    0.38
   4   3  10    4.26    0.78
   5   3  10    0.30    0.53
   6   3  10    0.15    0.56
   7   3  10    7.31    1.08
   8   3  10   14.55    1.51
   9   3  10   28.90    2.16
  10   3  10    3.24    1.43
  11   3  10   -0.83    1.11
  -9   4  10    0.24    1.13
  -8   4  10   14.38    1.99
  -7   4  10   16.92    2.10
  -6   4  10    2.11    1.09
  -5   4  10   -0.24    0.66
  -4   4  10    0.02    0.60
  -3   4  10    0.38    0.62
  -2   4  10    3.53    0.90
  -1   4  10   28.95    1.96
   0   4  10   26.69    2.27
   1   4  10   29.31    1.89
   2   4  10    3.57    0.88
   3   4  10    0.71    0.69
   4   4  10    1.28    0.88
   5   4  10    0.21    0.85
   6   4  10   -0.37    0.93
   7   4  10   13.98    1.63
   8   4  10    8.26    1.45
   9   4  10   -0.38    1.10
  -4   5  10   -0.85    1.12
  -3   5  10    0.36    1.18
  -2   5  10    7.54    2.45
  -1   5  10   -0.96    0.89
   0   5  10    0.22    0.99
   1   5  10   -0.11    1.03
   2   5  10    8.37    1.69
   3   5  10   -0.59    1.13
   4   5  10    0.94    1.24
   5   5  10   -1.46    1.46
  -4  -5  11    0.16    1.94
  -3  -5  11    0.79    1.28
  -2  -5  11   -0.32    1.14
  -1  -5  11    0.74    1.65
   0  -5  11    2.30    1.94
   1  -5  11    3.71    2.20
   2  -5  11    2.10    1.77
   3  -5  11   -3.26    1.62
   4  -5  11   -1.88    1.48
  -9  -4  11    2.58    2.00
  -8  -4  11   -0.82    0.99
  -7  -4  11    6.92    1.49
  -6  -4  11    5.49    1.10
  -5  -4  11    4.08    1.03
  -4  -4  11   31.90    2.78
  -3  -4  11    2.79    1.16
  -2  -4  11    4.90    1.29
  -1  -4  11    5.41    1.28
   0  -4  11   -0.24    0.87
   1  -4  11    6.87    1.43
   2  -4  11    4.14    1.78
   3  -4  11    4.21    1.78
   4  -4  11   34.07    4.16
   5  -4  11    6.22    2.10
   6  -4  11    2.56    1.07
   7  -4  11    6.57    1.56
   8  -4  11    1.04    1.13
 -11  -3  11   -0.01    1.03
 -10  -3  11    2.10    1.17
  -9  -3  11    6.28    1.41
  -8  -3  11    2.23    1.00
  -7  -3  11    7.93    1.33
  -6  -3  11   23.79    2.19
  -5  -3  11    6.93    1.21
  -4  -3  11    0.01    0.56
  -3  -3  11    0.95    0.61
  -2  -3  11   -0.17    0.49
  -1  -3  11   16.55    1.77
   0  -3  11    7.64    1.24
   1  -3  11   15.54    1.65
   2  -3  11    0.35    0.74
   3  -3  11    0.18    0.71
   4  -3  11   -0.93    0.92
   5  -3  11    6.80    1.86
   6  -3  11   22.21    3.11
   7  -3  11    5.97    1.27
   8  -3  11    1.84    1.03
   9  -3  11    3.10    1.22
  10  -3  11    0.75    1.06
  11  -3  11    1.26    1.14
 -12  -2  11    0.96    0.96
 -11  -2  11    5.50    1.17
 -10  -2  11   -0.03    0.73
  -9  -2  11    0.54    0.68
  -8  -2  11    0.51    0.66
  -7  -2  11   21.62    1.96
  -6  -2  11   12.87    1.51
  -5  -2  11    8.08    1.16
  -4  -2  11   87.15    3.22
  -3  -2  11   13.95    1.15
  -2  -2  11   16.51    1.19
  -1  -2  11   17.98    1.20
   0  -2  11    0.17    0.39
   1  -2  11   18.95    1.16
   2  -2  11   17.71    1.56
   3  -2  11   15.57    1.49
   4  -2  11   87.08    3.27
   5  -2  11   10.29    1.22
   6  -2  11   11.83    2.14
   7  -2  11   23.86    3.15
   8  -2  11    0.25    0.65
   9  -2  11    0.79    0.85
  10  -2  11    0.00    0.84
  11  -2  11    0.14    1.55
  12  -2  11    1.71    1.77
  13  -2  11    1.13    1.84
 -13  -1  11    3.47    1.28
 -12  -1  11   23.08    2.44
 -11  -1  11    2.24    1.09
 -10  -1  11    5.71    0.89
  -9  -1  11   10.76    1.15
  -8  -1  11    2.28    0.63
  -7  -1  11   14.29    1.19
  -6  -1  11   40.98    1.65
  -5  -1  11   12.58    1.01
  -4  -1  11    1.28    0.40
  -3  -1  11    4.62    0.47
  -2  -1  11    0.13    0.24
  -1  -1  11   39.11    1.07
   0  -1  11   17.89    1.11
   1  -1  11   36.66    1.39
   2  -1  11   -0.02    0.29
   3  -1  11    4.43    0.53
   4  -1  11    0.82    0.53
   5  -1  11   11.01    1.22
   6  -1  11   37.61    2.07
   7  -1  11   13.48    1.40
   8  -1  11    4.42    0.88
   9  -1  11    3.72    1.72
  10  -1  11    3.50    1.78
  11  -1  11    3.28    1.75
  12  -1  11   24.52    3.87
  13  -1  11    2.22    1.80
 -14   0  11    0.14    1.44
 -13   0  11    0.79    0.95
 -12   0  11   -0.73    0.71
 -11   0  11    7.85    1.42
 -10   0  11    0.98    0.82
  -9   0  11    1.84    0.76
  -8   0  11    0.14    0.38
  -7   0  11   35.97    1.64
  -6   0  11   21.98    1.37
  -5   0  11   13.94    0.82
  -4   0  11  126.99    2.32
  -3   0  11   25.06    0.95
  -2   0  11   21.96    0.91
  -1   0  11   28.13    0.94
   0   0  11    0.25    0.22
   1   0  11   26.91    0.92
   2   0  11   25.40    1.10
   3   0  11   26.01    1.12
   4   0  11  125.57    3.05
   5   0  11   12.01    0.88
   6   0  11   21.52    1.15
   7   0  11   38.73    2.21
   8   0  11   -0.05    0.62
   9   0  11    1.17    0.75
  10   0  11    0.58    0.79
  11   0  11   11.44    2.62
  12   0  11    0.75    1.49
  13   0  11    3.16    1.78
 -13   1  11    5.39    2.02
 -12   1  11   22.71    2.35
 -11   1  11    0.80    0.84
 -10   1  11    4.22    1.05
  -9   1  11    7.84    1.33
  -8   1  11    1.66    0.61
  -7   1  11   11.52    1.09
  -6   1  11   43.40    1.42
  -5   1  11   14.39    0.92
  -4   1  11    1.59    0.38
  -3   1  11    4.33    0.49
  -2   1  11    0.75    0.30
  -1   1  11   41.57    1.19
   0   1  11   17.90    0.86
   1   1  11   39.37    1.21
   2   1  11    0.37    0.29
   3   1  11    5.03    0.63
   4   1  11    1.28    0.43
   5   1  11   15.79    1.14
   6   1  11   41.96    1.64
   7   1  11   13.17    1.13
   8   1  11    3.51    0.76
   9   1  11    8.12    1.04
  10   1  11    6.98    1.40
  11   1  11    1.43    1.04
  12   1  11   20.62    3.53
  13   1  11    1.99    1.91
 -12   2  11    0.57    1.64
 -11   2  11    6.51    2.06
 -10   2  11    0.76    0.66
  -9   2  11    0.82    0.63
  -8   2  11   -0.40    0.50
  -7   2  11   24.05    1.63
  -6   2  11   13.58    1.19
  -5   2  11   10.04    1.03
  -4   2  11   87.92    2.18
  -3   2  11   12.72    0.88
  -2   2  11   17.53    1.03
  -1   2  11   16.03    1.09
   0   2  11   -0.22    0.30
   1   2  11   16.39    0.93
   2   2  11   17.58    1.01
   3   2  11   14.13    0.96
   4   2  11   87.81    2.61
   5   2  11   11.17    1.07
   6   2  11   11.45    1.17
   7   2  11   21.66    1.59
   8   2  11   -0.10    0.62
   9   2  11    0.30    0.68
  10   2  11    0.45    0.92
  11   2  11    4.89    1.33
  12   2  11    0.06    1.13
  13   2  11    0.17    1.72
 -11   3  11    0.61    1.01
 -10   3  11    0.13    0.95
  -9   3  11    3.39    1.09
  -8   3  11    2.86    0.88
  -7   3  11    8.04    1.08
  -6   3  11   20.04    1.62
  -5   3  11    7.02    0.97
  -4   3  11    0.44    0.52
  -3   3  11   -0.02    0.50
  -2   3  11    0.34    0.37
  -1   3  11   17.15    1.12
   0   3  11    8.53    0.93
   1   3  11   13.19    1.15
   2   3  11   -0.12    0.45
   3   3  11    0.22    0.52
   4   3  11    0.04    0.49
   5   3  11    6.79    0.99
   6   3  11   19.89    1.62
   7   3  11    8.20    1.20
   8   3  11    2.22    0.90
   9   3  11    4.52    1.08
  10   3  11    1.90    1.26
  11   3  11   -0.26    1.16
  -8   4  11    0.77    1.10
  -7   4  11    7.89    1.61
  -6   4  11    5.60    1.42
  -5   4  11    5.59    1.02
  -4   4  11   34.19    2.18
  -3   4  11    4.34    0.94
  -2   4  11    5.68    1.03
  -1   4  11    7.03    1.27
   0   4  11    0.06    0.75
   1   4  11    6.24    0.98
   2   4  11    6.24    0.98
   3   4  11    2.79    0.87
   4   4  11   38.22    2.89
   5   4  11    3.01    1.14
   6   4  11    5.07    1.42
   7   4  11    5.36    1.42
   8   4  11   -0.87    0.84
   9   4  11   -1.24    2.03
  -4   5  11    1.42    1.84
  -3   5  11    0.66    1.31
  -2   5  11    0.30    1.01
  -1   5  11    4.79    1.37
   0   5  11    1.85    1.23
   1   5  11    4.93    1.53
   2   5  11   -0.18    1.29
   3   5  11    1.01    1.79
   4   5  11    0.57    1.65
  -3  -5  12    2.81    2.05
  -2  -5  12    5.88    1.76
  -1  -5  12    1.74    2.10
   0  -5  12    0.99    1.76
   1  -5  12   -1.44    1.50
   2  -5  12    4.33    2.16
   3  -5  12    0.59    2.00
   4  -5  12    0.18    1.98
  -8  -4  12    1.00    0.90
  -7  -4  12    7.23    1.32
  -6  -4  12    0.94    0.85
  -5  -4  12    3.61    0.99
  -4  -4  12   48.07    3.56
  -3  -4  12   -0.70    0.91
  -2  -4  12    5.17    1.34
  -1  -4  12   -1.42    0.80
   0  -4  12   -0.56    0.84
   1  -4  12    0.04    0.93
   2  -4  12   -1.05    1.02
   3  -4  12   -0.08    1.31
   4  -4  12   30.32    4.03
   5  -4  12    1.17    1.56
   6  -4  12    2.10    1.05
   7  -4  12    5.35    1.38
   8  -4  12    0.90    1.22
   9  -4  12   -0.54    2.02
 -11  -3  12   -0.95    1.16
 -10  -3  12   -0.17    0.94
  -9  -3  12    0.55    0.94
  -8  -3  12    1.30    0.95
  -7  -3  12   -0.87    0.71
  -6  -3  12   73.34    3.28
  -5  -3  12   25.94    1.81
  -4  -3  12    3.24    0.80
  -3  -3  12    1.36    0.69
  -2  -3  12   14.93    1.32
  -1  -3  12    0.91    0.83
   0  -3  12   -1.09    0.63
   1  -3  12    0.70    0.78
   2  -3  12   14.38    1.66
   3  -3  12    1.30    0.81
   4  -3  12    1.57    1.25
   5  -3  12   20.63    3.07
   6  -3  12   67.82    4.99
   7  -3  12    0.49    0.77
   8  -3  12   -0.23    0.81
   9  -3  12    0.87    0.90
  10  -3  12   -1.06    0.92
  11  -3  12   -0.60    1.17
 -12  -2  12    0.88    1.01
 -11  -2  12    3.10    1.16
 -10  -2  12   39.04    2.98
  -9  -2  12    3.14    1.05
  -8  -2  12    2.10    0.83
  -7  -2  12   11.74    1.48
  -6  -2  12    0.84    0.67
  -5  -2  12   10.25    1.35
  -4  -2  12  122.27    3.36
  -3  -2  12    1.43    0.55
  -2  -2  12    6.35    0.82
  -1  -2  12   -0.54    0.38
   0  -2  12    0.05    0.41
   1  -2  12    0.15    0.56
   2  -2  12    5.66    0.95
   3  -2  12    1.61    0.69
   4  -2  12  122.66    4.18
   5  -2  12   13.21    1.42
   6  -2  12    2.60    1.23
   7  -2  12   13.35    2.55
   8  -2  12    5.21    1.13
   9  -2  12    2.90    1.05
  10  -2  12   31.20    4.15
  11  -2  12    2.52    1.94
  12  -2  12    3.48    1.81
 -13  -1  12    1.16    1.09
 -12  -1  12   -0.38    0.97
 -11  -1  12   -1.00    0.74
 -10  -1  12   -0.32    0.49
  -9  -1  12    0.81    0.55
  -8  -1  12    1.03    0.51
  -7  -1  12   -0.50    0.40
  -6  -1  12  137.54    3.53
  -5  -1  12   48.94    1.76
  -4  -1  12    5.37    0.58
  -3  -1  12    2.44    0.42
  -2  -1  12   27.08    0.98
  -1  -1  12    2.17    0.49
   0  -1  12   -0.54    0.33
   1  -1  12    1.14    0.43
   2  -1  12   26.74    1.22
   3  -1  12    1.66    0.43
   4  -1  12    5.40    0.99
   5  -1  12   53.26    2.39
   6  -1  12  138.54    4.52
   7  -1  12    0.08    0.70
   8  -1  12    0.46    0.51
   9  -1  12    1.09    1.28
  10  -1  12    1.59    1.45
  11  -1  12    1.41    1.58
  12  -1  12    1.61    1.78
  13  -1  12   -0.34    1.70
 -13   0  12    5.28    1.37
 -12   0  12    2.45    1.09
 -11   0  12    5.05    1.20
 -10   0  12   51.17    3.29
  -9   0  12    6.43    1.16
  -8   0  12    3.86    0.73
  -7   0  12   19.14    1.34
  -6   0  12    3.00    0.60
  -5   0  12   17.70    0.83
  -4   0  12  186.01    3.57
  -3   0  12    2.55    0.40
  -2   0  12    5.70    0.53
  -1   0  12    0.30    0.25
   0   0  12    1.75    0.32
   1   0  12    0.10    0.25
   2   0  12    5.90    0.65
   3   0  12    2.64    0.49
   4   0  12  182.61    4.10
   5   0  12   17.87    1.12
   6   0  12    4.50    0.66
   7   0  12   17.17    1.69
   8   0  12    2.68    0.94
   9   0  12    4.10    1.09
  10   0  12   47.31    2.82
  11   0  12    4.64    1.86
  12   0  12    2.59    1.87
  13   0  12    4.94    2.41
 -13   1  12    0.70    0.99
 -12   1  12    0.54    0.95
 -11   1  12   -0.49    0.78
 -10   1  12   -0.13    0.72
  -9   1  12    1.12    0.77
  -8   1  12    1.45    0.57
  -7   1  12   -0.60    0.37
  -6   1  12  135.05    3.00
  -5   1  12   45.89    1.56
  -4   1  12    3.71    0.50
  -3   1  12    2.35    0.40
  -2   1  12   25.09    1.30
  -1   1  12    1.89    0.38
   0   1  12   -0.11    0.28
   1   1  12    1.66    0.39
   2   1  12   27.10    1.04
   3   1  12    3.00    0.57
   4   1  12    4.36    0.66
   5   1  12   50.67    1.82
   6   1  12  137.75    3.53
   7   1  12   -0.64    0.45
   8   1  12    1.67    0.66
   9   1  12    0.51    0.82
  10   1  12   -0.23    0.76
  11   1  12    0.33    0.93
  12   1  12   -0.60    1.54
  13   1  12   -1.13    1.51
 -12   2  12   -0.10    1.41
 -11   2  12    6.16    2.11
 -10   2  12   38.70    2.38
  -9   2  12    2.68    0.77
  -8   2  12    2.87    0.74
  -7   2  12   11.27    1.15
  -6   2  12    3.54    0.69
  -5   2  12   10.76    1.09
  -4   2  12  124.11    2.82
  -3   2  12    2.54    0.48
  -2   2  12    5.76    0.65
  -1   2  12    0.47    0.38
   0   2  12    0.12    0.38
   1   2  12    0.05    0.31
   2   2  12    7.05    0.69
   3   2  12    1.14    0.45
   4   2  12  123.31    3.32
   5   2  12   12.08    1.16
   6   2  12    2.28    0.67
   7   2  12   12.59    1.27
   8   2  12    2.98    0.81
   9   2  12    3.66    0.92
  10   2  12   42.02    3.12
  11   2  12    2.93    1.28
  12   2  12    0.78    1.21
 -11   3  12    0.47    1.26
 -10   3  12    0.56    0.99
  -9   3  12   -0.02    0.87
  -8   3  12    1.54    0.75
  -7   3  12   -0.32    0.56
  -6   3  12   65.41    2.61
  -5   3  12   29.95    1.92
  -4   3  12    4.21    0.82
  -3   3  12    1.78    0.62
  -2   3  12   11.51    1.18
  -1   3  12    0.95    0.51
   0   3  12    0.10    0.46
   1   3  12    0.33    0.48
   2   3  12   12.19    1.17
   3   3  12    1.51    0.57
   4   3  12    2.90    0.75
   5   3  12   21.38    1.62
   6   3  12   69.01    3.38
   7   3  12    0.00    0.69
   8   3  12    0.40    0.80
   9   3  12   -0.21    0.84
  10   3  12    1.13    1.00
  11   3  12    0.04    1.28
  -8   4  12    2.38    1.27
  -7   4  12    3.88    1.32
  -6   4  12    0.10    1.08
  -5   4  12    4.47    1.01
  -4   4  12   44.68    2.55
  -3   4  12    1.15    0.73
  -2   4  12    3.81    0.94
  -1   4  12    0.27    0.76
   0   4  12   -0.77    0.71
   1   4  12   -0.48    0.61
   2   4  12    1.36    0.75
   3   4  12   -0.28    0.70
   4   4  12   50.76    3.01
   5   4  12    3.94    1.24
   6   4  12    0.62    1.03
   7   4  12    3.62    1.30
   8   4  12    1.99    1.30
  -3   5  12    1.06    1.85
  -2   5  12    2.49    1.25
  -1   5  12    0.91    1.18
   0   5  12    0.93    1.12
   1   5  12   -0.25    1.09
   2   5  12    3.48    1.47
   3   5  12   -1.67    1.92
   4   5  12   -2.92    1.43
  -3  -5  13    5.80    2.41
  -2  -5  13   15.55    3.26
  -1  -5  13    4.83    2.25
   0  -5  13    3.51    2.10
   1  -5  13    2.99    1.93
   2  -5  13    7.23    2.35
   3  -5  13    3.99    2.35
  -8  -4  13    2.16    2.05
  -7  -4  13    3.03    1.17
  -6  -4  13    2.61    1.05
  -5  -4  13   10.39    1.79
  -4  -4  13   32.67    2.89
  -3  -4  13   -0.29    0.92
  -2  -4  13   10.70    1.75
  -1  -4  13   -1.36    0.86
   0  -4  13    0.51    0.92
   1  -4  13   -0.30    1.06
   2  -4  13    7.32    2.13
   3  -4  13   -0.17    1.35
   4  -4  13   26.13    3.89
   5  -4  13   11.20    2.78
   6  -4  13    1.90    1.86
   7  -4  13    4.64    1.34
   8  -4  13    5.47    1.52
 -10  -3  13    0.06    1.08
  -9  -3  13   11.95    1.85
  -8  -3  13    0.90    1.02
  -7  -3  13    0.51    0.88
  -6  -3  13   29.25    2.09
  -5  -3  13    2.97    0.83
  -4  -3  13    2.74    0.81
  -3  -3  13   20.38    1.56
  -2  -3  13   34.73    2.58
  -1  -3  13   20.06    2.03
   0  -3  13    2.53    0.98
   1  -3  13   15.85    1.85
   2  -3  13   36.05    2.64
   3  -3  13   18.16    1.94
   4  -3  13    1.73    1.34
   5  -3  13    2.17    1.64
   6  -3  13   23.99    3.43
   7  -3  13   -1.29    1.20
   8  -3  13    2.76    1.17
   9  -3  13   12.83    1.74
  10  -3  13    1.16    1.13
  11  -3  13    6.63    2.62
 -12  -2  13    3.74    2.25
 -11  -2  13    7.14    1.50
 -10  -2  13    0.79    0.87
  -9  -2  13    0.97    0.81
  -8  -2  13    9.25    1.43
  -7  -2  13    7.56    1.31
  -6  -2  13    4.36    0.94
  -5  -2  13   23.32    1.60
  -4  -2  13   74.41    2.49
  -3  -2  13    2.83    0.67
  -2  -2  13   25.67    1.58
  -1  -2  13   -0.21    0.44
   0  -2  13    0.58    0.49
   1  -2  13   -0.45    0.54
   2  -2  13   22.82    1.92
   3  -2  13    0.56    0.70
   4  -2  13   76.60    3.19
   5  -2  13   22.01    1.88
   6  -2  13    8.22    2.01
   7  -2  13    4.82    1.82
   8  -2  13    6.48    1.27
   9  -2  13    0.46    0.85
  10  -2  13    1.65    1.57
  11  -2  13    4.02    2.11
  12  -2  13    4.44    2.28
 -13  -1  13   -0.25    1.07
 -12  -1  13   20.65    2.43
 -11  -1  13   15.30    2.00
 -10  -1  13    0.22    0.60
  -9  -1  13   19.89    1.58
  -8  -1  13    2.04    0.66
  -7  -1  13    0.04    0.45
  -6  -1  13   50.55    1.95
  -5  -1  13    5.46    0.62
  -4  -1  13    6.04    0.61
  -3  -1  13   27.75    1.54
  -2  -1  13   74.23    2.25
  -1  -1  13   44.42    1.67
   0  -1  13    3.30    0.58
   1  -1  13   40.69    1.57
   2  -1  13   75.10    2.13
   3  -1  13   26.41    1.96
   4  -1  13    4.42    0.94
   5  -1  13    5.55    1.00
   6  -1  13   53.55    2.62
   7  -1  13   -0.50    0.56
   8  -1  13    2.74    0.97
   9  -1  13   18.08    2.99
  10  -1  13   -1.46    1.09
  11  -1  13   12.52    2.81
  12  -1  13   16.56    3.28
  13  -1  13   -0.13    1.81
 -13   0  13    0.56    1.02
 -12   0  13    4.61    1.32
 -11   0  13    9.39    1.65
 -10   0  13    0.31    0.69
  -9   0  13    3.21    0.97
  -8   0  13   13.12    1.24
  -7   0  13    8.48    0.98
  -6   0  13    7.43    0.89
  -5   0  13   26.43    1.19
  -4   0  13  102.97    2.35
  -3   0  13    1.70    0.37
  -2   0  13   29.15    1.12
  -1   0  13    0.87    0.32
   0   0  13    0.18    0.28
   1   0  13   -0.43    0.24
   2   0  13   30.16    1.29
   3   0  13    2.25    0.49
   4   0  13  100.43    2.71
   5   0  13   27.25    1.33
   6   0  13    4.47    0.95
   7   0  13    6.79    1.19
   8   0  13   14.43    1.61
   9   0  13    1.71    0.98
  10   0  13    0.03    0.82
  11   0  13    4.90    2.20
  12   0  13    4.16    2.06
  13   0  13   -0.22    1.59
 -13   1  13    0.17    1.11
 -12   1  13   18.97    2.24
 -11   1  13   11.94    1.74
 -10   1  13    0.58    0.76
  -9   1  13   25.23    2.28
  -8   1  13    4.24    0.98
  -7   1  13   -0.05    0.43
  -6   1  13   50.65    1.66
  -5   1  13    4.33    0.60
  -4   1  13    5.46    0.59
  -3   1  13   28.41    1.45
  -2   1  13   72.71    2.20
  -1   1  13   43.76    1.35
   0   1  13    3.87    0.51
   1   1  13   44.35    1.38
   2   1  13   72.47    1.87
   3   1  13   28.64    1.42
   4   1  13    5.83    0.74
   5   1  13    6.70    0.86
   6   1  13   52.88    2.01
   7   1  13   -0.49    0.47
   8   1  13    2.70    0.71
   9   1  13   15.36    1.83
  10   1  13    0.40    0.91
  11   1  13   12.95    1.82
  12   1  13   21.72    3.74
 -12   2  13    8.89    2.49
 -11   2  13    9.30    1.63
 -10   2  13    1.12    0.92
  -9   2  13    0.80    0.66
  -8   2  13    8.07    1.09
  -7   2  13    9.00    1.08
  -6   2  13    4.28    0.79
  -5   2  13   21.04    1.48
  -4   2  13   76.84    2.14
  -3   2  13    1.56    0.43
  -2   2  13   22.94    1.41
  -1   2  13    0.04    0.38
   0   2  13    0.08    0.40
   1   2  13    0.33    0.42
   2   2  13   24.63    1.28
   3   2  13    1.50    0.47
   4   2  13   71.62    2.45
   5   2  13   20.37    1.48
   6   2  13    3.81    0.81
   7   2  13    6.96    1.01
   8   2  13    6.59    1.03
   9   2  13    0.48    0.73
  10   2  13    0.13    0.79
  11   2  13    3.65    1.32
  12   2  13    2.99    1.37
 -11   3  13    4.90    1.83
 -10   3  13    0.07    0.93
  -9   3  13   10.09    1.68
  -8   3  13    2.32    0.86
  -7   3  13   -0.04    0.61
  -6   3  13   30.39    1.98
  -5   3  13    0.97    0.58
  -4   3  13    2.38    0.73
  -3   3  13   14.40    1.34
  -2   3  13   32.71    1.98
  -1   3  13   15.98    1.31
   0   3  13    0.62    0.53
   1   3  13   17.79    1.39
   2   3  13   35.41    1.83
   3   3  13   17.98    1.44
   4   3  13    4.82    1.09
   5   3  13    1.87    0.70
   6   3  13   27.81    1.99
   7   3  13    0.02    0.78
   8   3  13    2.06    0.87
   9   3  13    7.76    1.34
  10   3  13   -0.08    0.92
  -8   4  13    4.19    2.09
  -7   4  13    3.37    1.40
  -6   4  13    1.21    1.15
  -5   4  13   10.93    1.39
  -4   4  13   29.95    2.07
  -3   4  13    0.00    0.74
  -2   4  13    9.79    1.57
  -1   4  13   -0.17    0.82
   0   4  13    1.15    0.87
   1   4  13    0.02    0.63
   2   4  13    9.10    1.21
   3   4  13    0.90    0.77
   4   4  13   28.31    2.52
   5   4  13    8.98    1.62
   6   4  13    4.06    1.33
   7   4  13    2.07    1.25
  -2   5  13    8.80    2.32
  -1   5  13    6.14    2.20
   0   5  13    2.08    1.35
   1   5  13    5.32    2.22
  -8  -4  14    4.54    2.28
  -7  -4  14    0.53    1.07
  -6  -4  14   -0.11    0.95
  -5  -4  14    6.87    1.66
  -4  -4  14    4.87    1.42
  -3  -4  14    0.16    0.97
  -2  -4  14    1.73    1.12
  -1  -4  14   -0.97    0.99
   0  -4  14   22.21    2.23
   1  -4  14    1.59    1.11
   2  -4  14    1.40    1.50
   3  -4  14   -1.02    1.39
   4  -4  14    9.33    2.50
   5  -4  14   11.10    2.88
   6  -4  14    0.93    1.59
   7  -4  14    1.15    1.13
   8  -4  14    2.76    2.23
 -10  -3  14    3.28    1.37
  -9  -3  14    8.26    1.77
  -8  -3  14    1.52    1.06
  -7  -3  14    4.16    1.03
  -6  -3  14    0.00    0.71
  -5  -3  14   17.65    1.62
  -4  -3  14   17.86    1.59
  -3  -3  14    1.42    0.75
  -2  -3  14   20.37    2.09
  -1  -3  14    1.97    0.97
   0  -3  14   -0.56    0.72
   1  -3  14    1.73    0.97
   2  -3  14   22.79    2.20
   3  -3  14    1.56    1.00
   4  -3  14   20.12    3.19
   5  -3  14   12.93    2.84
   6  -3  14    2.84    1.58
   7  -3  14    3.48    1.83
   8  -3  14    2.22    0.97
   9  -3  14    8.57    1.68
  10  -3  14    4.30    1.43
 -11  -2  14   17.86    2.17
 -10  -2  14    0.73    0.91
  -9  -2  14    2.13    0.97
  -8  -2  14   10.82    1.62
  -7  -2  14    1.46    0.85
  -6  -2  14    0.88    0.60
  -5  -2  14   20.08    1.58
  -4  -2  14   12.59    1.21
  -3  -2  14    2.36    0.66
  -2  -2  14    0.39    0.54
  -1  -2  14    3.64    0.72
   0  -2  14   50.05    1.93
   1  -2  14    5.25    1.00
   2  -2  14    1.60    0.77
   3  -2  14    3.18    0.98
   4  -2  14   12.45    1.56
   5  -2  14   16.86    1.79
   6  -2  14   -0.09    0.78
   7  -2  14    3.29    1.68
   8  -2  14    7.36    1.28
   9  -2  14   -2.20    1.10
  10  -2  14    4.10    2.04
  11  -2  14   17.69    3.67
  12  -2  14   -0.53    2.02
 -12  -1  14    0.83    1.57
 -11  -1  14    5.03    1.97
 -10  -1  14    6.97    1.15
  -9  -1  14   20.97    1.67
  -8  -1  14    2.22    0.71
  -7  -1  14    9.29    1.07
  -6  -1  14    0.09    0.43
  -5  -1  14   26.04    1.63
  -4  -1  14   36.91    1.70
  -3  -1  14    3.61    0.69
  -2  -1  14   40.98    1.67
  -1  -1  14    3.97    0.66
   0  -1  14   -0.33    0.38
   1  -1  14    4.44    0.68
   2  -1  14   39.91    1.56
   3  -1  14    3.42    0.88
   4  -1  14   41.19    2.34
   5  -1  14   25.29    2.04
   6  -1  14   -0.28    0.66
   7  -1  14    9.48    1.32
   8  -1  14    1.67    0.87
   9  -1  14   13.75    2.83
  10  -1  14    3.15    1.76
  11  -1  14    3.70    2.06
  12  -1  14    1.67    1.85
 -13   0  14    0.66    1.13
 -12   0  14    6.24    1.51
 -11   0  14   19.78    2.22
 -10   0  14    3.36    1.12
  -9   0  14    1.08    0.80
  -8   0  14   15.09    1.32
  -7   0  14    2.98    0.68
  -6   0  14    1.11    0.51
  -5   0  14   24.13    1.17
  -4   0  14   17.15    1.00
  -3   0  14    7.22    0.66
  -2   0  14    1.63    0.39
  -1   0  14    8.46    0.67
   0   0  14   62.29    1.64
   1   0  14    6.77    0.60
   2   0  14   -0.07    0.41
   3   0  14    5.93    0.72
   4   0  14   17.29    1.17
   5   0  14   23.99    1.40
   6   0  14    0.37    0.63
   7   0  14    3.40    1.01
   8   0  14   12.49    1.64
   9   0  14    1.88    1.00
  10   0  14    2.62    1.16
  11   0  14   20.15    3.50
  12   0  14    2.86    2.15
 -13   1  14    3.15    1.66
 -12   1  14   -0.07    0.96
 -11   1  14    3.11    1.17
 -10   1  14    7.29    1.40
  -9   1  14   22.36    2.15
  -8   1  14    1.14    0.75
  -7   1  14    9.74    1.38
  -6   1  14    0.11    0.36
  -5   1  14   23.66    1.26
  -4   1  14   37.30    1.41
  -3   1  14    4.19    0.64
  -2   1  14   40.49    1.62
  -1   1  14    3.64    0.51
   0   1  14   -0.16    0.30
   1   1  14    3.37    0.49
   2   1  14   41.75    1.39
   3   1  14    3.18    0.61
   4   1  14   35.44    1.62
   5   1  14   28.60    1.65
   6   1  14   -1.08    0.46
   7   1  14    9.28    1.04
   8   1  14    2.24    0.74
   9   1  14   18.67    2.02
  10   1  14    5.69    1.35
  11   1  14    4.13    1.29
  12   1  14   -0.22    1.66
 -11   2  14   16.29    2.09
 -10   2  14    1.30    1.06
  -9   2  14    0.80    0.67
  -8   2  14   10.83    1.25
  -7   2  14    0.73    0.61
  -6   2  14    0.53    0.54
  -5   2  14   19.16    1.43
  -4   2  14   12.80    1.17
  -3   2  14    2.45    0.53
  -2   2  14    1.63    0.52
  -1   2  14    2.68    0.57
   0   2  14   49.43    1.90
   1   2  14    3.77    0.70
   2   2  14    1.19    0.50
   3   2  14    3.53    0.62
   4   2  14   13.66    1.23
   5   2  14   16.17    1.36
   6   2  14    1.49    0.67
   7   2  14    2.70    0.82
   8   2  14   10.78    1.28
   9   2  14    0.39    0.79
  10   2  14    1.48    0.97
  11   2  14    9.35    1.79
  12   2  14    2.77    1.92
 -10   3  14    2.37    1.14
  -9   3  14    8.19    1.37
  -8   3  14    1.41    0.84
  -7   3  14    6.29    1.12
  -6   3  14   -0.39    0.56
  -5   3  14   15.64    1.45
  -4   3  14   18.63    1.54
  -3   3  14    1.26    0.66
  -2   3  14   19.17    1.88
  -1   3  14    1.02    0.55
   0   3  14   -0.38    0.47
   1   3  14    1.19    0.61
   2   3  14   25.54    1.73
   3   3  14    1.86    0.72
   4   3  14   16.76    1.78
   5   3  14   18.35    1.89
   6   3  14   -0.38    0.72
   7   3  14    4.95    1.13
   8   3  14    2.41    1.03
   9   3  14    7.11    1.29
  10   3  14    2.40    1.16
  -7   4  14    1.14    1.09
  -6   4  14   -0.51    0.76
  -5   4  14    9.41    1.33
  -4   4  14    5.32    1.09
  -3   4  14    0.51    1.00
  -2   4  14    1.20    1.01
  -1   4  14    1.17    0.99
   0   4  14   19.34    2.10
   1   4  14    2.19    0.82
   2   4  14    0.46    0.75
   3   4  14    0.60    0.80
   4   4  14    5.56    1.31
   5   4  14    6.69    1.47
   6   4  14   -0.30    0.98
   7   4  14    1.04    1.17
  -1   5  14    1.29    2.00
  -7  -4  15    0.07    1.79
  -6  -4  15    0.42    1.22
  -5  -4  15    0.23    1.18
  -4  -4  15    0.73    1.21
  -3  -4  15    3.90    1.28
  -2  -4  15    0.51    1.04
  -1  -4  15    3.62    1.27
   0  -4  15   -0.07    1.09
   1  -4  15    3.63    1.32
   2  -4  15    1.56    1.67
   3  -4  15    2.37    1.97
   4  -4  15    0.23    1.44
   5  -4  15   -0.83    1.58
   6  -4  15   -1.48    1.37
   7  -4  15    0.06    1.06
 -10  -3  15    2.50    2.01
  -9  -3  15    4.47    1.17
  -8  -3  15    0.96    0.87
  -7  -3  15    3.74    1.07
  -6  -3  15   13.41    1.48
  -5  -3  15    1.49    0.81
  -4  -3  15   -0.30    0.67
  -3  -3  15    4.54    1.04
  -2  -3  15    2.22    1.02
  -1  -3  15    0.80    0.94
   0  -3  15  101.61    5.95
   1  -3  15    0.52    0.91
   2  -3  15    0.51    0.92
   3  -3  15    2.38    1.05
   4  -3  15    0.44    1.48
   5  -3  15   -1.72    1.18
   6  -3  15    9.72    2.50
   7  -3  15    6.04    2.18
   8  -3  15    1.32    1.03
   9  -3  15    6.25    1.57
  10  -3  15    1.67    1.99
 -11  -2  15   14.08    2.09
 -10  -2  15   17.05    2.11
  -9  -2  15   12.86    1.78
  -8  -2  15   -0.96    0.71
  -7  -2  15   -0.31    0.55
  -6  -2  15    3.38    0.84
  -5  -2  15    0.90    0.61
  -4  -2  15    0.89    0.61
  -3  -2  15    4.07    0.80
  -2  -2  15    0.33    0.53
  -1  -2  15   11.02    1.10
   0  -2  15   -0.51    0.61
   1  -2  15   10.26    1.34
   2  -2  15    0.14    0.71
   3  -2  15    8.03    1.32
   4  -2  15    2.39    0.98
   5  -2  15    1.59    0.82
   6  -2  15    3.64    1.10
   7  -2  15    1.10    1.40
   8  -2  15    1.63    1.52
   9  -2  15   12.81    2.88
  10  -2  15   22.09    3.90
  11  -2  15    7.28    2.53
 -12  -1  15   -0.68    1.58
 -11  -1  15    3.37    1.85
 -10  -1  15    1.48    0.94
  -9  -1  15    7.45    1.37
  -8  -1  15    0.11    0.67
  -7  -1  15    6.08    0.90
  -6  -1  15   18.04    1.44
  -5  -1  15    1.76    0.64
  -4  -1  15    0.30    0.52
  -3  -1  15    7.10    0.89
  -2  -1  15    2.65    0.65
  -1  -1  15    1.10    0.51
   0  -1  15  177.98    4.22
   1  -1  15    1.39    0.54
   2  -1  15    2.49    0.57
   3  -1  15    7.81    1.14
   4  -1  15    0.83    0.70
   5  -1  15    1.16    0.73
   6  -1  15   17.66    1.81
   7  -1  15    6.70    1.20
   8  -1  15    1.04    0.89
   9  -1  15    9.02    2.44
  10  -1  15    3.79    1.89
  11  -1  15    2.76    1.88
  12  -1  15    0.07    1.88
 -13   0  15    2.74    2.08
 -12   0  15    1.84    1.09
 -11   0  15   11.45    1.78
 -10   0  15   25.37    2.41
  -9   0  15   18.95    2.02
  -8   0  15    0.45    0.58
  -7   0  15    0.06    0.42
  -6   0  15    8.09    0.94
  -5   0  15    2.13    0.58
  -4   0  15    4.02    0.55
  -3   0  15    9.10    0.75
  -2   0  15    0.14    0.31
  -1   0  15   13.29    0.86
   0   0  15    0.52    0.33
   1   0  15   13.62    0.86
   2   0  15    0.68    0.44
   3   0  15    8.22    0.86
   4   0  15    2.87    0.63
   5   0  15    3.44    0.67
   6   0  15    4.80    1.10
   7   0  15    0.62    0.77
   8   0  15   -0.05    0.78
   9   0  15   16.00    1.84
  10   0  15   24.58    2.39
  11   0  15    9.55    2.72
  12   0  15    2.95    2.08
 -12   1  15    0.75    1.08
 -11   1  15   -0.06    0.89
 -10   1  15    0.89    0.93
  -9   1  15   10.29    1.61
  -8   1  15    1.01    0.79
  -7   1  15    8.59    1.33
  -6   1  15   18.51    1.17
  -5   1  15    2.01    0.49
  -4   1  15    0.58    0.43
  -3   1  15    6.28    0.78
  -2   1  15    1.40    0.51
  -1   1  15    1.51    0.51
   0   1  15  180.71    3.62
   1   1  15    1.76    0.46
   2   1  15    1.71    0.46
   3   1  15    6.96    0.84
   4   1  15   -0.16    0.46
   5   1  15    1.42    0.57
   6   1  15   15.24    1.31
   7   1  15    5.74    0.89
   8   1  15    1.88    0.99
   9   1  15    5.81    1.33
  10   1  15    0.69    0.98
  11   1  15    2.12    1.28
  12   1  15    2.51    2.07
 -11   2  15   12.05    1.88
 -10   2  15   22.63    2.33
  -9   2  15   13.40    1.77
  -8   2  15    0.34    0.60
  -7   2  15   -0.61    0.52
  -6   2  15    2.90    0.71
  -5   2  15    0.63    0.54
  -4   2  15    2.00    0.60
  -3   2  15    4.93    0.76
  -2   2  15    0.52    0.50
  -1   2  15    9.62    1.02
   0   2  15    0.04    0.45
   1   2  15    8.60    0.97
   2   2  15    0.43    0.49
   3   2  15    4.24    0.67
   4   2  15    2.57    0.76
   5   2  15    1.11    0.69
   6   2  15    3.32    0.86
   7   2  15   -0.27    0.64
   8   2  15    0.22    0.76
   9   2  15    9.77    1.34
  10   2  15   16.69    2.19
  11   2  15    8.38    1.76
 -10   3  15    0.43    1.66
  -9   3  15    6.64    1.31
  -8   3  15    0.77    0.79
  -7   3  15    4.13    0.95
  -6   3  15   10.96    1.34
  -5   3  15    0.93    0.68
  -4   3  15    0.21    0.59
  -3   3  15    2.10    0.92
  -2   3  15    1.89    0.87
  -1   3  15    1.92    0.67
   0   3  15  110.37    3.33
   1   3  15    1.08    0.62
   2   3  15    2.18    0.73
   3   3  15    2.73    0.79
   4   3  15    0.34    0.74
   5   3  15    0.58    0.81
   6   3  15    8.78    1.56
   7   3  15    3.73    1.01
   8   3  15    1.13    0.93
   9   3  15    5.71    1.32
  10   3  15    1.76    1.43
  -7   4  15    0.97    1.43
  -6   4  15    1.45    0.89
  -5   4  15    0.08    0.78
  -4   4  15    0.73    0.86
  -3   4  15    1.81    1.12
  -2   4  15   -0.74    0.88
  -1   4  15    5.67    1.42
   0   4  15   -1.06    0.87
   1   4  15    2.82    0.95
   2   4  15   -0.80    0.70
   3   4  15    1.44    0.90
   4   4  15   -1.35    0.90
   5   4  15    0.58    1.03
   6   4  15    0.83    1.18
  -6  -4  16    0.02    1.21
  -5  -4  16    0.86    1.26
  -4  -4  16    1.87    1.27
  -3  -4  16    7.05    1.61
  -2  -4  16   43.21    3.50
  -1  -4  16    3.87    1.41
   0  -4  16   -0.46    1.06
   1  -4  16    5.75    1.56
   2  -4  16   40.68    5.19
   3  -4  16    3.61    2.08
   4  -4  16    0.08    1.59
   5  -4  16    0.22    1.85
   6  -4  16   -0.89    1.73
  -9  -3  16    1.00    0.99
  -8  -3  16   18.28    1.85
  -7  -3  16    0.17    0.83
  -6  -3  16   14.77    1.63
  -5  -3  16    1.29    0.84
  -4  -3  16    0.28    0.75
  -3  -3  16    0.94    0.98
  -2  -3  16    0.43    0.87
  -1  -3  16    0.24    0.91
   0  -3  16   -0.37    0.80
   1  -3  16   -0.73    0.84
   2  -3  16    1.14    1.06
   3  -3  16    1.47    1.11
   4  -3  16    0.65    1.49
   5  -3  16    1.03    1.61
   6  -3  16    7.04    2.26
   7  -3  16    0.08    1.49
   8  -3  16   18.96    2.29
   9  -3  16   -0.20    1.04
 -11  -2  16    0.19    1.02
 -10  -2  16    0.28    1.02
  -9  -2  16    1.34    0.81
  -8  -2  16    1.59    0.79
  -7  -2  16    8.59    1.18
  -6  -2  16    0.05    0.62
  -5  -2  16   -0.24    0.59
  -4  -2  16    0.92    0.72
  -3  -2  16   16.60    1.44
  -2  -2  16  115.37    3.41
  -1  -2  16   14.15    1.31
   0  -2  16    0.38    0.75
   1  -2  16   11.04    1.50
   2  -2  16  117.68    4.39
   3  -2  16   21.71    2.00
   4  -2  16    3.61    1.10
   5  -2  16    0.71    0.78
   6  -2  16    0.71    0.89
   7  -2  16    6.28    2.05
   8  -2  16    0.92    1.53
   9  -2  16    0.31    1.54
  10  -2  16    2.37    1.83
  11  -2  16    2.10    2.11
 -11  -1  16    2.01    1.79
 -10  -1  16   -0.63    1.20
  -9  -1  16    0.17    0.77
  -8  -1  16   32.80    2.67
  -7  -1  16   -0.58    0.51
  -6  -1  16   26.40    1.76
  -5  -1  16    2.03    0.70
  -4  -1  16    0.07    0.47
  -3  -1  16    8.62    0.99
  -2  -1  16    0.77    0.55
  -1  -1  16    1.14    0.56
   0  -1  16    0.03    0.45
   1  -1  16    0.85    0.50
   2  -1  16    0.69    0.70
   3  -1  16    7.64    1.12
   4  -1  16    0.87    0.69
   5  -1  16    3.28    0.98
   6  -1  16   23.79    2.15
   7  -1  16    0.44    0.78
   8  -1  16   30.85    2.58
   9  -1  16   -0.80    1.48
  10  -1  16   -0.38    1.42
  11  -1  16    3.81    2.33
 -12   0  16    0.91    1.08
 -11   0  16    2.19    1.09
 -10   0  16   -0.11    0.84
  -9   0  16    0.29    0.79
  -8   0  16    2.09    0.67
  -7   0  16   14.14    1.27
  -6   0  16   -1.05    0.41
  -5   0  16    0.73    0.49
  -4   0  16    3.06    0.66
  -3   0  16   24.03    1.18
  -2   0  16  160.15    3.35
  -1   0  16   22.26    1.11
   0   0  16    0.39    0.46
   1   0  16   19.57    1.30
   2   0  16  155.35    3.92
   3   0  16   22.11    1.41
   4   0  16    2.48    0.64
   5   0  16    0.35    0.62
   6   0  16   -0.66    0.67
   7   0  16   10.80    1.65
   8   0  16    3.15    1.08
   9   0  16    1.54    1.07
  10   0  16    0.55    1.03
  11   0  16    2.55    1.88
  12   0  16   -0.95    1.81
 -12   1  16    9.49    1.73
 -11   1  16    4.08    1.36
 -10   1  16    0.47    0.89
  -9   1  16    1.09    0.88
  -8   1  16   34.64    2.68
  -7   1  16    0.28    0.69
  -6   1  16   26.20    2.15
  -5   1  16    1.66    0.57
  -4   1  16    0.16    0.41
  -3   1  16    7.70    0.89
  -2   1  16    1.69    0.54
  -1   1  16    0.82    0.48
   0   1  16    0.64    0.46
   1   1  16    1.07    0.45
   2   1  16    0.96    0.42
   3   1  16    7.09    0.89
   4   1  16    1.01    0.51
   5   1  16    1.05    0.59
   6   1  16   23.49    1.61
   7   1  16    0.91    0.64
   8   1  16   39.79    2.92
   9   1  16    1.54    1.14
  10   1  16    0.15    1.04
  11   1  16    4.46    1.47
 -11   2  16    1.52    1.11
 -10   2  16    0.87    0.97
  -9   2  16    0.43    0.91
  -8   2  16    0.86    0.86
  -7   2  16    7.51    1.08
  -6   2  16    0.11    0.53
  -5   2  16    0.11    0.53
  -4   2  16    1.82    0.78
  -3   2  16   18.65    1.49
  -2   2  16  119.05    3.41
  -1   2  16   12.71    1.19
   0   2  16   -0.78    0.42
   1   2  16   12.14    1.16
   2   2  16  115.30    3.39
   3   2  16   17.60    1.39
   4   2  16    2.44    0.81
   5   2  16   -0.39    0.62
   6   2  16   -0.24    0.65
   7   2  16    7.09    1.11
   8   2  16    2.18    0.92
   9   2  16    0.41    0.88
  10   2  16    0.44    1.17
  11   2  16   -0.74    1.18
  -9   3  16    0.33    0.87
  -8   3  16   19.03    1.79
  -7   3  16    0.08    0.69
  -6   3  16   13.07    1.46
  -5   3  16    1.26    0.73
  -4   3  16    0.32    0.66
  -3   3  16    2.68    0.96
  -2   3  16    0.49    0.79
  -1   3  16    1.12    0.65
   0   3  16    1.05    0.64
   1   3  16    0.41    0.61
   2   3  16   -0.10    0.60
   3   3  16    2.78    0.81
   4   3  16    1.02    0.81
   5   3  16    0.71    0.82
   6   3  16   15.52    1.86
   7   3  16   -0.57    0.90
   8   3  16   19.43    2.27
   9   3  16    0.85    0.98
  -6   4  16    0.48    0.86
  -5   4  16   -0.65    0.81
  -4   4  16    1.74    1.03
  -3   4  16    7.74    1.75
  -2   4  16   56.56    3.71
  -1   4  16    2.39    1.27
   0   4  16    0.94    1.08
   1   4  16    5.13    1.18
   2   4  16   54.32    2.96
   3   4  16    8.97    1.37
   4   4  16    1.82    1.12
   5   4  16    0.25    1.18
   6   4  16    1.47    1.19
  -5  -4  17    5.65    1.73
  -4  -4  17    2.75    1.35
  -3  -4  17    0.22    1.17
  -2  -4  17    1.85    1.28
  -1  -4  17    3.73    1.47
   0  -4  17    0.30    1.31
   1  -4  17    1.44    1.35
   2  -4  17    2.78    1.92
   3  -4  17    1.33    1.98
   4  -4  17    1.66    2.03
   5  -4  17    3.31    2.43
  -9  -3  17   -0.37    1.29
  -8  -3  17    3.25    1.18
  -7  -3  17    1.39    0.98
  -6  -3  17    0.79    0.92
  -5  -3  17    0.81    0.80
  -4  -3  17   35.39    2.93
  -3  -3  17    0.23    0.94
  -2  -3  17   -0.17    0.91
  -1  -3  17   -0.07    0.97
   0  -3  17   84.50    4.05
   1  -3  17    1.32    1.00
   2  -3  17   -0.44    0.92
   3  -3  17   -0.74    0.87
   4  -3  17   30.08    4.25
   5  -3  17    0.18    1.55
   6  -3  17    0.16    1.54
   7  -3  17    1.03    1.67
   8  -3  17    2.53    1.23
   9  -3  17   -0.93    1.43
 -11  -2  17   -0.17    1.33
 -10  -2  17   14.28    2.03
  -9  -2  17    1.53    0.93
  -8  -2  17   19.15    1.74
  -7  -2  17   -0.43    0.68
  -6  -2  17   28.46    1.98
  -5  -2  17   20.06    1.70
  -4  -2  17    6.04    1.01
  -3  -2  17   -0.01    0.58
  -2  -2  17    8.16    1.05
  -1  -2  17    5.67    1.24
   0  -2  17    0.60    0.78
   1  -2  17    4.25    1.09
   2  -2  17    7.41    1.38
   3  -2  17    0.17    0.82
   4  -2  17    3.54    1.07
   5  -2  17   12.92    1.67
   6  -2  17   24.37    2.33
   7  -2  17   -0.90    1.24
   8  -2  17   16.06    3.36
   9  -2  17    0.02    1.70
  10  -2  17   13.43    3.25
 -11  -1  17    2.61    1.72
 -10  -1  17    0.40    1.39
  -9  -1  17    0.57    0.92
  -8  -1  17    7.05    1.35
  -7  -1  17    2.20    0.91
  -6  -1  17    1.54    0.68
  -5  -1  17    1.64    0.67
  -4  -1  17   71.35    2.50
  -3  -1  17   -0.03    0.49
  -2  -1  17    0.64    0.54
  -1  -1  17    0.92    0.57
   0  -1  17  166.43    4.20
   1  -1  17    0.02    0.47
   2  -1  17    0.82    0.77
   3  -1  17    0.24    0.70
   4  -1  17   72.41    3.30
   5  -1  17    1.61    0.89
   6  -1  17    0.97    0.92
   7  -1  17    1.06    0.94
   8  -1  17    6.15    1.40
   9  -1  17   -0.07    1.57
  10  -1  17    0.46    1.61
  11  -1  17    4.08    2.35
 -11   0  17    1.22    1.00
 -10   0  17   28.32    2.57
  -9   0  17    2.23    0.95
  -8   0  17   21.61    2.12
  -7   0  17    0.55    0.56
  -6   0  17   44.78    2.03
  -5   0  17   24.42    1.60
  -4   0  17    6.97    1.16
  -3   0  17    0.18    0.63
  -2   0  17   13.02    1.18
  -1   0  17    8.19    0.92
   0   0  17   -0.19    0.41
   1   0  17    9.58    0.97
   2   0  17   10.53    1.04
   3   0  17    0.25    0.49
   4   0  17    7.47    0.94
   5   0  17   23.48    2.12
   6   0  17   42.14    2.92
   7   0  17   -1.26    0.72
   8   0  17   22.04    2.32
   9   0  17    0.27    1.04
  10   0  17   20.61    2.36
  11   0  17   -1.24    1.68
 -11   1  17    2.50    1.21
 -10   1  17    2.42    1.10
  -9   1  17    1.36    0.93
  -8   1  17    7.61    1.34
  -7   1  17    2.36    0.93
  -6   1  17    1.28    0.78
  -5   1  17    2.05    0.62
  -4   1  17   68.28    2.41
  -3   1  17   -0.10    0.45
  -2   1  17    0.46    0.48
  -1   1  17    0.56    0.47
   0   1  17  168.39    4.17
   1   1  17    1.27    0.49
   2   1  17    0.00    0.40
   3   1  17   -0.04    0.47
   4   1  17   70.73    2.45
   5   1  17    2.18    0.74
   6   1  17    0.52    0.59
   7   1  17    1.96    1.03
   8   1  17    7.16    1.44
   9   1  17   -0.81    0.93
  10   1  17    1.32    1.13
  11   1  17    4.10    1.43
 -11   2  17   -1.70    1.12
 -10   2  17   13.27    1.96
  -9   2  17    1.32    1.00
  -8   2  17   16.59    1.96
  -7   2  17   -0.06    0.59
  -6   2  17   25.86    1.80
  -5   2  17   17.50    1.89
  -4   2  17    5.36    1.12
  -3   2  17   -0.44    0.51
  -2   2  17   10.07    1.13
  -1   2  17    7.78    0.95
   0   2  17   -0.69    0.47
   1   2  17    6.46    0.89
   2   2  17    7.79    1.01
   3   2  17    1.11    0.62
   4   2  17    6.57    1.18
   5   2  17   17.88    1.67
   6   2  17   26.62    1.98
   7   2  17   -0.04    0.72
   8   2  17   12.42    1.46
   9   2  17    1.01    1.14
  10   2  17   10.97    2.05
  -9   3  17    1.90    1.78
  -8   3  17    4.09    1.09
  -7   3  17    1.40    0.83
  -6   3  17    0.74    0.72
  -5   3  17    2.01    0.84
  -4   3  17   36.63    2.84
  -3   3  17    1.54    0.87
  -2   3  17   -0.87    0.71
  -1   3  17   -0.93    0.56
   0   3  17   90.32    3.18
   1   3  17    0.92    0.70
   2   3  17    1.20    0.75
   3   3  17    0.62    0.71
   4   3  17   34.20    2.71
   5   3  17    1.59    1.02
   6   3  17    0.32    0.95
   7   3  17    0.04    1.03
   8   3  17    3.09    1.30
   9   3  17    2.30    1.77
  -6   4  17    9.00    2.40
  -5   4  17    5.29    1.53
  -4   4  17    1.49    1.15
  -3   4  17    0.76    1.22
  -2   4  17    2.53    1.29
  -1   4  17    1.32    1.23
   0   4  17    0.69    1.22
   1   4  17    4.63    1.48
   2   4  17    5.00    1.17
   3   4  17    0.26    1.11
   4   4  17    3.37    1.37
   5   4  17    6.68    1.62
  -4  -4  18    5.99    1.74
  -3  -4  18   -0.46    1.21
  -2  -4  18   24.66    2.76
  -1  -4  18    0.84    1.20
   0  -4  18    6.08    1.71
   1  -4  18    1.42    1.40
   2  -4  18   20.46    3.91
   3  -4  18    0.23    1.70
   4  -4  18    4.49    2.58
  -8  -3  18    4.83    1.27
  -7  -3  18   11.57    1.54
  -6  -3  18    0.86    0.90
  -5  -3  18   -0.68    0.85
  -4  -3  18    1.09    1.06
  -3  -3  18    3.99    1.37
  -2  -3  18    3.70    1.30
  -1  -3  18   14.01    1.99
   0  -3  18    0.04    0.94
   1  -3  18   12.13    1.84
   2  -3  18    1.39    1.13
   3  -3  18    3.52    1.26
   4  -3  18   -0.64    1.57
   5  -3  18    0.95    1.61
   6  -3  18   -0.32    1.52
   7  -3  18   11.16    3.13
   8  -3  18    3.42    2.57
 -10  -2  18    0.93    1.20
  -9  -2  18    6.10    1.57
  -8  -2  18   -0.21    0.83
  -7  -2  18    1.65    0.86
  -6  -2  18   -0.50    0.63
  -5  -2  18    3.22    0.96
  -4  -2  18   10.88    1.28
  -3  -2  18    0.00    0.62
  -2  -2  18   57.49    2.37
  -1  -2  18    0.34    0.78
   0  -2  18   16.12    1.91
   1  -2  18    0.48    0.83
   2  -2  18   54.59    3.01
   3  -2  18    1.48    0.90
   4  -2  18   10.60    1.60
   5  -2  18    0.13    0.88
   6  -2  18    0.48    0.95
   7  -2  18    2.67    1.85
   8  -2  18   -0.57    1.71
   9  -2  18    7.13    2.51
  10  -2  18    3.55    2.21
 -11  -1  18   -0.46    1.63
 -10  -1  18    5.10    2.01
  -9  -1  18   -1.53    0.76
  -8  -1  18   12.18    1.73
  -7  -1  18   18.42    1.94
  -6  -1  18    0.38    0.81
  -5  -1  18   -0.16    0.53
  -4  -1  18    1.05    0.62
  -3  -1  18   15.88    1.40
  -2  -1  18    6.91    0.98
  -1  -1  18   19.03    1.46
   0  -1  18    0.56    0.56
   1  -1  18   20.63    1.49
   2  -1  18    6.59    1.22
   3  -1  18   13.89    1.72
   4  -1  18    1.99    0.89
   5  -1  18    0.03    0.82
   6  -1  18    1.43    0.97
   7  -1  18   19.20    2.12
   8  -1  18   10.44    1.71
   9  -1  18   -0.53    1.63
  10  -1  18    0.78    1.76
  11  -1  18    0.62    1.95
 -11   0  18   -0.94    1.45
 -10   0  18    1.32    1.60
  -9   0  18   14.09    2.78
  -8   0  18    1.90    1.43
  -7   0  18    1.85    0.91
  -6   0  18    0.52    0.68
  -5   0  18    4.93    1.11
  -4   0  18   15.43    1.60
  -3   0  18    0.37    0.65
  -2   0  18   82.14    2.65
  -1   0  18   -0.05    0.48
   0   0  18   19.44    1.41
   1   0  18   -0.10    0.46
   2   0  18   75.87    2.57
   3   0  18    0.21    0.52
   4   0  18   15.90    1.82
   5   0  18    5.37    1.18
   6   0  18   -0.86    0.77
   7   0  18    2.96    1.09
   8   0  18   -0.44    0.84
   9   0  18   11.70    1.81
  10   0  18    3.26    1.35
  11   0  18    0.39    1.82
 -11   1  18   -0.13    0.91
 -10   1  18    3.24    1.24
  -9   1  18    0.35    0.86
  -8   1  18   11.44    1.68
  -7   1  18   20.19    2.06
  -6   1  18   -0.08    0.67
  -5   1  18   -0.38    0.47
  -4   1  18    0.27    0.50
  -3   1  18   12.65    1.19
  -2   1  18    7.43    0.95
  -1   1  18   21.36    1.48
   0   1  18   -0.14    0.46
   1   1  18   23.88    1.53
   2   1  18    7.30    0.80
   3   1  18   13.29    1.22
   4   1  18   -0.65    0.51
   5   1  18    0.19    0.60
   6   1  18    0.45    0.68
   7   1  18   20.43    2.08
   8   1  18   10.47    1.69
   9   1  18    0.61    1.04
  10   1  18    2.67    1.37
  11   1  18    1.79    1.31
 -10   2  18    3.03    1.16
  -9   2  18    8.37    1.56
  -8   2  18   -0.59    0.80
  -7   2  18    4.11    1.20
  -6   2  18   -0.32    0.82
  -5   2  18    3.70    1.05
  -4   2  18   11.66    1.52
  -3   2  18   -0.15    0.59
  -2   2  18   60.27    2.40
  -1   2  18    0.10    0.57
   0   2  18   12.72    1.14
   1   2  18    0.45    0.59
   2   2  18   55.10    3.01
   3   2  18   -0.54    0.56
   4   2  18   10.69    1.47
   5   2  18    2.08    0.99
   6   2  18   -1.31    0.65
   7   2  18    1.95    0.91
   8   2  18   -0.46    0.81
   9   2  18   10.58    1.88
  10   2  18    3.46    1.55
  -8   3  18    6.08    1.21
  -7   3  18    6.51    1.16
  -6   3  18   -0.05    0.93
  -5   3  18    1.09    1.01
  -4   3  18    0.53    0.88
  -3   3  18    4.73    1.19
  -2   3  18    0.93    0.93
  -1   3  18   10.41    1.29
   0   3  18   -0.23    0.64
   1   3  18   10.38    1.31
   2   3  18    1.57    0.80
   3   3  18    7.26    1.15
   4   3  18    0.60    0.88
   5   3  18   -0.74    0.82
   6   3  18   -0.56    0.94
   7   3  18    6.59    1.52
   8   3  18    5.25    1.55
  -5   4  18    0.22    1.64
  -4   4  18    4.93    1.47
  -3   4  18   -1.04    1.13
  -2   4  18   27.79    2.80
  -1   4  18    0.89    1.14
   0   4  18    5.56    1.58
   1   4  18   -0.67    1.12
   2   4  18   23.54    2.06
   3   4  18   -0.53    1.10
   4   4  18    3.42    1.43
  -3  -4  19    2.61    2.27
  -2  -4  19    0.94    1.35
  -1  -4  19   -0.23    1.21
   0  -4  19    0.10    1.25
   1  -4  19   -0.12    1.29
   2  -4  19    0.11    1.74
  -8  -3  19    2.04    1.45
  -7  -3  19   27.09    2.30
  -6  -3  19    5.03    1.30
  -5  -3  19   -1.39    1.06
  -4  -3  19    0.66    1.18
  -3  -3  19    1.08    1.08
  -2  -3  19    1.64    1.18
  -1  -3  19    0.90    1.09
   0  -3  19    6.20    1.48
   1  -3  19   -0.26    1.05
   2  -3  19    1.54    1.14
   3  -3  19    2.62    1.22
   4  -3  19    0.87    1.82
   5  -3  19   -0.05    1.72
   6  -3  19    5.56    2.21
   7  -3  19   24.01    4.25
 -10  -2  19    4.43    2.06
  -9  -2  19    8.98    1.80
  -8  -2  19   -0.59    0.99
  -7  -2  19    0.76    0.86
  -6  -2  19   -0.21    0.75
  -5  -2  19   10.92    1.34
  -4  -2  19    4.86    1.02
  -3  -2  19   14.62    1.46
  -2  -2  19    2.56    0.89
  -1  -2  19    0.22    0.89
   0  -2  19   -0.28    0.81
   1  -2  19    0.81    0.86
   2  -2  19    1.47    1.00
   3  -2  19    9.23    1.64
   4  -2  19    4.19    1.24
   5  -2  19    8.19    1.50
   6  -2  19   -0.18    1.00
   7  -2  19    2.25    1.98
   8  -2  19   -1.47    1.51
   9  -2  19   11.04    3.04
 -10  -1  19    1.55    1.64
  -9  -1  19    2.64    1.16
  -8  -1  19    0.77    0.90
  -7  -1  19   44.26    3.22
  -6  -1  19   10.66    1.62
  -5  -1  19    1.67    0.86
  -4  -1  19    0.68    0.66
  -3  -1  19    6.49    1.02
  -2  -1  19    1.26    0.69
  -1  -1  19    4.72    0.85
   0  -1  19    9.46    1.13
   1  -1  19    2.10    1.00
   2  -1  19    1.31    0.88
   3  -1  19    5.91    1.31
   4  -1  19   -1.21    0.70
   5  -1  19   -0.75    0.81
   6  -1  19    7.88    1.53
   7  -1  19   40.90    3.10
   8  -1  19    0.77    1.13
   9  -1  19    1.74    2.06
  10  -1  19   -1.35    1.70
 -10   0  19    1.84    1.66
  -9   0  19   25.04    3.61
  -8   0  19    0.92    1.19
  -7   0  19    2.76    1.00
  -6   0  19   -0.19    0.68
  -5   0  19   10.50    1.47
  -4   0  19    3.63    0.98
  -3   0  19   18.59    1.88
  -2   0  19    3.56    0.98
  -1   0  19    1.48    0.62
   0   0  19   -0.56    0.48
   1   0  19    0.83    0.55
   2   0  19    2.67    0.74
   3   0  19   16.07    1.36
   4   0  19    4.93    1.18
   5   0  19   13.11    1.66
   6   0  19   -0.50    0.80
   7   0  19    1.82    1.08
   8   0  19    0.26    1.01
   9   0  19   15.06    2.07
  10   0  19    2.46    1.37
 -11   1  19    1.52    1.84
 -10   1  19    0.96    1.00
  -9   1  19    3.62    1.17
  -8   1  19    1.98    0.99
  -7   1  19   47.23    3.14
  -6   1  19    7.39    1.32
  -5   1  19   -0.15    0.50
  -4   1  19   -0.15    0.48
  -3   1  19    4.84    0.82
  -2   1  19    0.27    0.51
  -1   1  19    1.86    0.62
   0   1  19    8.65    1.05
   1   1  19    2.64    0.72
   2   1  19    0.07    0.54
   3   1  19    4.14    0.83
   4   1  19    0.59    0.64
   5   1  19    1.37    0.74
   6   1  19    6.78    1.37
   7   1  19   46.14    3.29
   8   1  19    2.54    1.21
   9   1  19    3.62    1.50
  10   1  19   -0.83    1.09
  11   1  19   -1.97    1.76
  -9   2  19   12.68    1.78
  -8   2  19   -0.13    0.95
  -7   2  19    1.94    1.05
  -6   2  19   -0.24    0.86
  -5   2  19    8.23    1.39
  -4   2  19    3.01    0.98
  -3   2  19   10.98    1.29
  -2   2  19    1.90    0.77
  -1   2  19    0.46    0.62
   0   2  19    0.89    0.61
   1   2  19    0.57    0.61
   2   2  19    0.75    0.69
   3   2  19   11.21    1.22
   4   2  19    6.20    1.25
   5   2  19    8.65    1.47
   6   2  19   -0.43    0.82
   7   2  19    2.30    0.98
   8   2  19    0.19    1.18
   9   2  19   14.51    2.18
  10   2  19    0.09    2.02
  -8   3  19    3.36    1.82
  -7   3  19   25.44    2.58
  -6   3  19    4.18    1.24
  -5   3  19    0.15    0.96
  -4   3  19    0.65    0.92
  -3   3  19    3.31    1.17
  -2   3  19    0.44    0.91
  -1   3  19    2.09    0.79
   0   3  19    6.92    1.17
   1   3  19    0.68    0.80
   2   3  19   -0.75    0.73
   3   3  19    3.23    0.97
   4   3  19    0.44    0.96
   5   3  19    0.36    0.95
   6   3  19    4.35    1.30
   7   3  19   21.97    2.47
   8   3  19    0.47    1.75
  -3   4  19    4.85    2.27
  -2   4  19    1.44    1.28
  -1   4  19    0.97    1.23
   0   4  19    1.34    1.32
   1   4  19    0.11    1.25
   2   4  19    1.06    1.08
   3   4  19    5.95    2.35
   4   4  19    2.06    1.84
  -1  -4  20    0.28    1.92
   0  -4  20    9.39    2.96
   1  -4  20    1.53    2.42
  -7  -3  20    7.06    1.78
  -6  -3  20    4.68    1.29
  -5  -3  20    0.82    1.29
  -4  -3  20    4.41    1.47
  -3  -3  20    6.52    1.65
  -2  -3  20   23.12    2.55
  -1  -3  20    5.33    1.41
   0  -3  20    0.14    1.14
   1  -3  20    4.17    1.48
   2  -3  20   27.94    2.88
   3  -3  20    4.30    1.55
   4  -3  20    2.07    2.14
   5  -3  20    3.74    1.94
   6  -3  20    1.57    1.93
  -9  -2  20    8.30    1.70
  -8  -2  20    8.64    1.73
  -7  -2  20    3.31    1.25
  -6  -2  20    0.15    0.81
  -5  -2  20   -0.03    0.79
  -4  -2  20    2.46    0.93
  -3  -2  20    1.04    0.76
  -2  -2  20    5.00    1.38
  -1  -2  20   -0.71    0.81
   0  -2  20   12.40    1.73
   1  -2  20    0.41    0.89
   2  -2  20    4.38    1.25
   3  -2  20    1.10    0.98
   4  -2  20    4.77    1.31
   5  -2  20    0.63    1.09
   6  -2  20   -0.23    1.06
   7  -2  20    0.64    1.73
   8  -2  20    9.81    3.16
 -10  -1  20    3.42    2.00
  -9  -1  20    0.51    0.98
  -8  -1  20   -0.07    0.87
  -7  -1  20    7.44    1.47
  -6  -1  20    5.35    1.30
  -5  -1  20    1.86    0.98
  -4  -1  20    6.92    1.32
  -3  -1  20    7.57    1.09
  -2  -1  20   38.55    2.08
  -1  -1  20    8.85    1.13
   0  -1  20    0.73    0.64
   1  -1  20    9.48    1.50
   2  -1  20   38.37    2.85
   3  -1  20    5.91    1.31
   4  -1  20    6.73    1.44
   5  -1  20    2.19    1.15
   6  -1  20    3.86    1.34
   7  -1  20    8.28    1.65
   8  -1  20    0.16    1.18
   9  -1  20    1.42    2.00
  10  -1  20    1.66    2.25
 -10   0  20   10.20    2.54
  -9   0  20   11.49    2.61
  -8   0  20   14.20    2.75
  -7   0  20    4.67    1.18
  -6   0  20   -0.37    0.63
  -5   0  20    1.50    0.89
  -4   0  20    4.42    1.09
  -3   0  20    1.36    0.80
  -2   0  20    6.97    1.25
  -1   0  20    0.96    0.73
   0   0  20   16.31    1.42
   1   0  20    0.60    0.64
   2   0  20    7.99    1.06
   3   0  20   -1.12    0.76
   4   0  20    4.48    1.18
   5   0  20    0.81    1.00
   6   0  20   -0.54    0.95
   7   0  20    4.91    1.46
   8   0  20   13.48    2.09
   9   0  20   11.43    1.81
  10   0  20    6.52    1.79
 -10   1  20    2.66    1.24
  -9   1  20    0.68    0.96
  -8   1  20   -0.24    0.95
  -7   1  20   10.14    1.55
  -6   1  20    3.04    1.05
  -5   1  20    2.23    0.77
  -4   1  20    5.96    0.93
  -3   1  20    6.89    0.96
  -2   1  20   37.68    2.12
  -1   1  20    6.13    1.19
   0   1  20    0.01    0.64
   1   1  20   12.50    1.58
   2   1  20   35.95    2.57
   3   1  20    5.70    1.22
   4   1  20    5.93    0.99
   5   1  20    1.10    0.71
   6   1  20    7.59    1.51
   7   1  20    7.23    1.47
   8   1  20   -0.30    1.02
   9   1  20    0.22    1.26
  10   1  20    0.18    1.33
  -9   2  20    7.82    1.55
  -8   2  20   11.78    1.88
  -7   2  20    5.19    1.42
  -6   2  20    0.30    0.91
  -5   2  20    2.22    1.00
  -4   2  20    2.37    1.04
  -3   2  20    0.73    0.70
  -2   2  20    4.05    0.90
  -1   2  20   -0.16    0.59
   0   2  20   16.58    1.50
   1   2  20    0.40    0.62
   2   2  20    3.14    0.87
   3   2  20    0.06    0.77
   4   2  20    3.50    1.11
   5   2  20    1.54    1.07
   6   2  20    0.76    0.96
   7   2  20    1.60    1.14
   8   2  20    8.54    1.89
   9   2  20    8.68    1.90
  -7   3  20    7.18    1.61
  -6   3  20    2.16    1.17
  -5   3  20    0.86    1.07
  -4   3  20    0.59    1.14
  -3   3  20    6.76    1.45
  -2   3  20   16.74    2.13
  -1   3  20    6.59    1.44
   0   3  20   -0.05    0.76
   1   3  20    8.27    1.31
   2   3  20   26.78    2.11
   3   3  20    5.01    1.42
   4   3  20    1.68    1.11
   5   3  20    1.39    1.03
   6   3  20    1.02    1.19
   7   3  20    1.96    1.88
   2   4  20    0.97    1.90
  -6  -3  21   16.71    3.21
  -5  -3  21    5.17    1.64
  -4  -3  21   10.30    1.91
  -3  -3  21    1.52    1.28
  -2  -3  21    4.92    1.65
  -1  -3  21    1.17    1.18
   0  -3  21    2.11    1.34
   1  -3  21    1.58    1.26
   2  -3  21    5.63    1.60
   3  -3  21    0.50    1.33
   4  -3  21    4.59    2.42
   5  -3  21    0.04    1.95
  -8  -2  21   12.32    1.99
  -7  -2  21   -1.94    0.94
  -6  -2  21    3.95    1.09
  -5  -2  21    8.57    1.39
  -4  -2  21   35.80    2.42
  -3  -2  21   -0.74    0.92
  -2  -2  21    1.14    1.04
  -1  -2  21    1.21    1.15
   0  -2  21    0.57    1.05
   1  -2  21    2.62    1.10
   2  -2  21    0.66    1.09
   3  -2  21    0.78    0.94
   4  -2  21   28.62    2.67
   5  -2  21   10.36    1.86
   6  -2  21    4.32    1.55
   7  -2  21   -1.57    1.65
   8  -2  21   10.04    3.10
  -9  -1  21    0.71    1.06
  -8  -1  21   11.37    1.78
  -7  -1  21    1.01    1.01
  -6  -1  21   24.48    2.46
  -5  -1  21    7.24    1.51
  -4  -1  21   13.62    1.79
  -3  -1  21    0.58    0.69
  -2  -1  21    9.89    1.24
  -1  -1  21    0.80    0.70
   0  -1  21    1.50    0.92
   1  -1  21    1.09    0.99
   2  -1  21    7.41    1.44
   3  -1  21    0.17    0.89
   4  -1  21   16.71    2.07
   5  -1  21    6.64    1.46
   6  -1  21   30.82    2.88
   7  -1  21    2.96    1.27
   8  -1  21   15.26    2.24
   9  -1  21    0.09    1.99
  -9   0  21   -1.36    1.27
  -8   0  21   13.88    2.94
  -7   0  21    0.06    0.94
  -6   0  21    7.84    1.44
  -5   0  21   11.42    1.63
  -4   0  21   46.12    3.19
  -3   0  21   -0.60    0.64
  -2   0  21    0.78    0.75
  -1   0  21    3.48    1.01
   0   0  21   -0.40    0.67
   1   0  21    3.65    0.82
   2   0  21    0.92    0.67
   3   0  21   -0.09    0.87
   4   0  21   43.45    3.21
   5   0  21    7.68    1.52
   6   0  21    7.41    1.58
   7   0  21    0.33    0.99
   8   0  21   12.96    2.09
   9   0  21    1.28    1.24
  10   0  21   -2.51    1.57
  -9   1  21    0.50    1.42
  -8   1  21   12.59    2.81
  -7   1  21    1.90    1.70
  -6   1  21   34.82    4.11
  -5   1  21    7.33    1.39
  -4   1  21   15.43    1.81
  -3   1  21    0.02    0.77
  -2   1  21    6.97    1.28
  -1   1  21    1.47    0.84
   0   1  21    1.94    0.98
   1   1  21    2.09    0.94
   2   1  21    7.37    1.24
   3   1  21   -0.21    0.76
   4   1  21   15.33    1.80
   5   1  21    4.91    1.38
   6   1  21   25.53    2.62
   7   1  21    2.01    1.25
   8   1  21   11.69    1.96
   9   1  21   -0.50    1.18
  -8   2  21   13.32    2.02
  -7   2  21    0.92    0.98
  -6   2  21    6.14    1.42
  -5   2  21    8.92    1.53
  -4   2  21   33.30    2.72
  -3   2  21   -0.73    0.67
  -2   2  21   -0.05    0.62
  -1   2  21    2.49    0.84
   0   2  21    0.21    0.66
   1   2  21    3.38    0.89
   2   2  21    0.31    0.67
   3   2  21    0.96    0.97
   4   2  21   30.96    3.96
   5   2  21   10.71    1.68
   6   2  21    3.70    1.33
   7   2  21   -0.88    1.01
   8   2  21   11.37    3.01
  -6   3  21   16.80    3.23
  -5   3  21    5.63    1.57
  -4   3  21    8.60    1.67
  -3   3  21    0.23    1.13
  -2   3  21    4.93    1.47
  -1   3  21    1.16    1.10
   0   3  21    1.74    1.03
   1   3  21    1.37    0.93
   2   3  21    5.35    1.19
   3   3  21   -0.70    0.98
   4   3  21   11.35    1.81
   5   3  21    4.60    1.42
   6   3  21   12.16    2.75
  -5  -3  22   -0.99    1.80
  -4  -3  22    0.79    1.48
  -3  -3  22    0.45    1.24
  -2  -3  22    6.68    1.75
  -1  -3  22    1.07    1.23
   0  -3  22    0.00    1.24
   1  -3  22   -0.66    1.23
   2  -3  22    6.88    1.72
   3  -3  22   -0.34    1.40
   4  -3  22   -1.55    1.60
  -7  -2  22   -0.58    1.07
  -6  -2  22   -1.15    1.01
  -5  -2  22    0.65    0.87
  -4  -2  22   13.61    1.64
  -3  -2  22   33.51    2.96
  -2  -2  22    5.38    1.37
  -1  -2  22   -0.18    0.96
   0  -2  22    1.03    1.08
   1  -2  22    1.95    1.13
   2  -2  22    3.16    1.43
   3  -2  22   35.47    3.07
   4  -2  22    6.13    1.57
   5  -2  22   -1.41    1.05
   6  -2  22    0.12    1.17
   7  -2  22    0.11    1.83
  -8  -1  22   -0.33    1.04
  -7  -1  22    0.62    1.03
  -6  -1  22   19.90    2.28
  -5  -1  22    0.29    0.98
  -4  -1  22    0.97    0.98
  -3  -1  22    2.01    0.99
  -2  -1  22   12.16    1.40
  -1  -1  22    0.71    0.73
   0  -1  22   -1.10    0.85
   1  -1  22    0.28    0.93
   2  -1  22   11.59    1.77
   3  -1  22    0.32    1.02
   4  -1  22    0.34    0.95
   5  -1  22    0.49    1.11
   6  -1  22   19.19    2.37
   7  -1  22    0.25    1.08
   8  -1  22   -1.76    1.12
  -9   0  22    3.01    2.07
  -8   0  22    6.99    2.34
  -7   0  22   -0.46    0.86
  -6   0  22    0.01    0.76
  -5   0  22    2.18    1.00
  -4   0  22   15.23    1.73
  -3   0  22   41.78    3.04
  -2   0  22    2.59    0.99
  -1   0  22   -0.81    0.66
   0   0  22    2.30    0.97
   1   0  22    0.48    0.83
   2   0  22    4.00    0.95
   3   0  22   48.23    3.40
   4   0  22   11.99    1.84
   5   0  22    1.25    1.06
   6   0  22    0.19    1.08
   7   0  22    0.35    1.12
   8   0  22    6.39    1.83
   9   0  22    0.87    1.31
  -8   1  22   -1.02    1.28
  -7   1  22   -2.18    1.16
  -6   1  22   19.76    3.26
  -5   1  22   -0.04    0.72
  -4   1  22   -0.01    0.73
  -3   1  22    1.39    0.91
  -2   1  22   16.68    1.91
  -1   1  22    0.13    0.81
   0   1  22    0.40    0.85
   1   1  22   -0.81    0.75
   2   1  22   18.51    1.98
   3   1  22    0.36    0.85
   4   1  22    1.53    1.01
   5   1  22   -1.06    1.21
   6   1  22   21.65    2.53
   7   1  22   -0.40    1.13
   8   1  22    0.21    1.18
   9   1  22    0.74    1.49
  -8   2  22    3.73    2.16
  -7   2  22   -0.49    1.00
  -6   2  22   -0.74    0.91
  -5   2  22    0.71    1.03
  -4   2  22    9.54    1.60
  -3   2  22   38.85    2.96
  -2   2  22    3.21    0.93
  -1   2  22   -0.26    0.69
   0   2  22    1.44    0.76
   1   2  22   -0.24    0.67
   2   2  22    3.89    1.02
   3   2  22   36.18    2.85
   4   2  22   10.64    1.72
   5   2  22    1.16    1.09
   6   2  22   -0.85    1.15
   7   2  22    1.71    1.94
  -5   3  22    1.01    1.83
  -4   3  22   -0.26    1.12
  -3   3  22    0.91    1.21
  -2   3  22    7.77    1.64
  -1   3  22    2.45    1.26
   0   3  22    0.46    0.92
   1   3  22   -0.35    0.83
   2   3  22    9.00    1.48
   3   3  22    0.74    1.10
   4   3  22    1.23    1.20
   5   3  22    2.29    1.95
  -4  -3  23    0.51    1.78
  -3  -3  23   -0.69    1.78
  -2  -3  23   -0.78    1.20
  -1  -3  23    9.88    2.05
   0  -3  23    3.49    1.50
   1  -3  23   10.62    2.08
   2  -3  23    0.31    1.34
   3  -3  23    0.31    1.45
  -7  -2  23    0.63    1.67
  -6  -2  23    4.62    1.50
  -5  -2  23   -0.07    1.21
  -4  -2  23    5.15    1.60
  -3  -2  23    3.72    1.37
  -2  -2  23    3.66    1.37
  -1  -2  23    1.43    1.20
   0  -2  23    0.09    1.01
   1  -2  23    3.17    1.35
   2  -2  23    4.55    1.43
   3  -2  23    1.26    1.17
   4  -2  23    7.81    1.83
   5  -2  23    0.33    1.27
   6  -2  23    1.20    1.38
  -8  -1  23    0.84    1.06
  -7  -1  23   -0.17    0.96
  -6  -1  23    2.56    1.07
  -5  -1  23   16.65    2.12
  -4  -1  23    0.28    0.93
  -3  -1  23    1.74    1.09
  -2  -1  23   -0.24    0.85
  -1  -1  23   23.86    2.43
   0  -1  23    0.19    1.04
   1  -1  23   23.06    2.40
   2  -1  23    1.38    1.00
   3  -1  23    2.07    1.18
   4  -1  23    1.33    1.18
   5  -1  23   12.67    2.02
   6  -1  23    3.16    1.44
   7  -1  23    1.23    1.21
   8  -1  23   -1.77    1.26
  -8   0  23    0.74    1.67
  -7   0  23    0.04    1.58
  -6   0  23    1.56    1.00
  -5   0  23    0.22    0.87
  -4   0  23    7.95    1.38
  -3   0  23    0.04    0.78
  -2   0  23    4.85    1.22
  -1   0  23    5.21    1.27
   0   0  23    0.40    0.86
   1   0  23    2.97    1.12
   2   0  23    7.63    2.27
   3   0  23    0.95    1.06
   4   0  23    4.74    1.42
   5   0  23    1.29    1.11
   6   0  23    3.98    1.44
   7   0  23   -0.35    1.17
   8   0  23   -1.40    1.15
   9   0  23    4.57    2.23
  -7   1  23   -0.66    1.33
  -6   1  23    3.30    1.70
  -5   1  23   14.61    2.86
  -4   1  23    1.12    0.97
  -3   1  23    1.89    1.01
  -2   1  23    0.40    0.83
  -1   1  23   22.30    2.27
   0   1  23    2.88    1.08
   1   1  23   17.65    1.96
   2   1  23    1.16    0.98
   3   1  23    1.30    1.07
   4   1  23   -0.38    1.38
   5   1  23   15.92    3.21
   6   1  23    3.02    2.04
   7   1  23   -1.13    1.18
   8   1  23   -0.07    1.31
  -6   2  23    5.25    1.46
  -5   2  23    0.37    1.11
  -4   2  23    6.55    1.61
  -3   2  23    1.09    1.14
  -2   2  23    1.10    0.92
  -1   2  23    3.29    1.15
   0   2  23    1.38    0.97
   1   2  23    2.91    1.13
   2   2  23    2.71    1.16
   3   2  23    0.71    1.01
   4   2  23    5.80    1.36
   5   2  23    0.35    1.11
   6   2  23    2.63    2.23
  -4   3  23    1.21    2.08
  -3   3  23   -0.27    1.59
  -2   3  23   -0.86    1.02
  -1   3  23   12.15    2.05
   0   3  23    0.12    1.01
   1   3  23   12.73    1.68
   2   3  23    0.41    1.00
   3   3  23   -1.49    1.11
   1  -3  24    2.23    2.10
   2  -3  24   -2.19    2.17
  -6  -2  24    1.83    2.06
  -5  -2  24    0.95    1.80
  -4  -2  24    0.66    1.79
  -3  -2  24   12.58    1.99
  -2  -2  24    5.01    1.57
  -1  -2  24   11.61    1.86
   0  -2  24   22.11    2.64
   1  -2  24    9.92    1.97
   2  -2  24    2.49    1.38
   3  -2  24   11.87    2.07
   4  -2  24    1.21    1.35
   5  -2  24    0.50    1.24
  -7  -1  24    0.95    1.16
  -6  -1  24    0.26    1.05
  -5  -1  24    5.62    1.50
  -4  -1  24    3.19    1.15
  -3  -1  24    1.40    1.08
  -2  -1  24    2.37    1.14
  -1  -1  24   -1.76    1.37
   0  -1  24    0.03    0.97
   1  -1  24    2.30    1.28
   2  -1  24    1.37    1.17
   3  -1  24    0.70    1.10
   4  -1  24    1.87    1.36
   5  -1  24    4.13    1.58
   6  -1  24    0.70    1.30
   7  -1  24   -1.14    1.32
  -7   0  24    1.95    1.80
  -6   0  24    1.39    1.06
  -5   0  24    0.02    0.86
  -4   0  24    0.71    0.89
  -3   0  24   14.23    1.94
  -2   0  24    2.82    1.18
  -1   0  24   10.39    1.51
   0   0  24   29.37    2.61
   1   0  24   13.73    2.87
   2   0  24    4.69    2.01
   3   0  24   16.16    2.95
   4   0  24    1.05    1.17
   5   0  24   -0.07    1.10
   6   0  24    0.90    1.21
   7   0  24    2.67    1.35
   8   0  24   -1.01    1.31
  -7   1  24    0.42    1.62
  -6   1  24    0.84    1.62
  -5   1  24    4.98    1.94
  -4   1  24   -0.05    0.90
  -3   1  24   -0.27    0.82
  -2   1  24    3.61    1.13
  -1   1  24    0.78    0.93
   0   1  24    0.14    0.93
   1   1  24    1.27    0.96
   2   1  24    3.20    1.10
   3   1  24    0.56    1.04
   4   1  24    1.13    1.56
   5   1  24    4.97    2.39
   6   1  24   -0.21    1.65
   7   1  24   -2.50    1.56
  -5   2  24    1.04    1.76
  -4   2  24   -1.35    1.43
  -3   2  24   11.80    2.59
  -2   2  24    2.03    1.07
  -1   2  24   10.17    1.60
   0   2  24   17.62    2.11
   1   2  24   10.17    1.71
   2   2  24    2.79    1.28
   3   2  24    9.61    1.67
   4   2  24    0.74    1.07
   5   2  24    0.64    1.26
  -2   3  24    2.22    2.10
  -1   3  24    0.58    2.06
   0   3  24   -0.89    1.68
   1   3  24    0.68    1.33
   2   3  24   -0.67    1.20
  -3  -2  25   -0.93    1.41
  -2  -2  25    1.27    1.32
  -1  -2  25   -0.17    1.09
   0  -2  25   -0.88    1.24
   1  -2  25    0.29    1.16
   2  -2  25    1.17    1.33
   3  -2  25    2.20    1.44
   4  -2  25    5.82    1.75
   5  -2  25    0.07    1.97
  -6  -1  25   -0.14    1.06
  -5  -1  25    2.48    1.16
  -4  -1  25    2.17    1.16
  -3  -1  25    0.25    1.06
  -2  -1  25    7.14    2.41
  -1  -1  25   26.34    3.73
   0  -1  25   14.42    3.02
   1  -1  25   19.33    2.32
   2  -1  25    8.36    1.75
   3  -1  25    0.14    1.22
   4  -1  25   -0.65    1.14
   5  -1  25    1.65    1.48
   6  -1  25    1.23    1.37
  -6   0  25    1.02    1.06
  -5   0  25    2.48    1.03
  -4   0  25    5.85    1.47
  -3   0  25    0.96    0.97
  -2   0  25   -0.19    0.92
  -1   0  25    0.43    0.96
   0   0  25    0.54    1.08
   1   0  25    2.52    1.66
   2   0  25   -0.33    1.70
   3   0  25   -0.50    1.63
   4   0  25    7.49    2.34
   5   0  25    2.29    1.37
   6   0  25   -0.31    1.25
   7   0  25    0.81    1.43
  -6   1  25   -0.17    1.69
  -5   1  25    2.57    2.00
  -4   1  25    1.16    0.98
  -3   1  25   -0.42    0.87
  -2   1  25   10.52    1.76
  -1   1  25   20.64    2.34
   0   1  25   16.03    2.03
   1   1  25   21.30    2.29
   2   1  25    7.04    1.41
   3   1  25   -0.59    1.39
   4   1  25    0.18    1.73
   5   1  25    3.23    2.09
   6   1  25    1.52    1.96
  -3   2  25   -0.08    1.56
  -2   2  25   -0.14    1.00
  -1   2  25    0.10    0.88
   0   2  25   -0.74    1.01
   1   2  25    1.09    1.04
   2   2  25   -0.72    1.15
   3   2  25   -0.38    1.08
   4   2  25    6.33    2.13
  -1  -2  26    0.05    1.90
   0  -2  26   -0.96    1.26
   1  -2  26    2.21    1.43
   2  -2  26    8.31    1.99
   3  -2  26    6.47    3.12
  -5  -1  26    3.20    1.29
  -4  -1  26    0.63    1.19
  -3  -1  26    1.72    2.01
  -2  -1  26    2.84    1.85
  -1  -1  26    3.85    2.13
   0  -1  26    2.84    1.77
   1  -1  26    1.40    1.78
   2  -1  26    1.51    1.30
   3  -1  26   -1.16    1.09
   4  -1  26    1.10    1.35
   5  -1  26    3.54    1.76
  -6   0  26    1.13    1.48
  -5   0  26   -0.45    0.95
  -4   0  26    7.82    1.52
  -3   0  26    4.72    1.40
  -2   0  26   11.12    1.84
  -1   0  26    1.55    1.16
   0   0  26    1.20    1.50
   1   0  26    2.82    1.96
   2   0  26   13.97    3.11
   3   0  26    7.07    2.61
   4   0  26    3.79    1.95
   5   0  26   -0.79    1.65
  -4   1  26    0.41    0.95
  -3   1  26   -1.03    0.89
  -2   1  26   -0.41    0.87
  -1   1  26    2.16    1.17
   0   1  26   -0.50    0.93
   1   1  26    3.58    1.32
   2   1  26    0.37    1.18
   3   1  26   -0.70    1.59
   4   1  26    0.08    1.58
  -2   2  26    9.52    2.54
  -1   2  26    2.17    1.17
   0   2  26    0.37    1.04
   1   2  26    4.23    1.38
   2   2  26   10.00    1.99
   3   2  26    2.44    1.94
  -4  -1  27   -0.06    1.85
  -2  -1  27    1.99    1.78
  -1  -1  27    1.84    1.84
   0  -1  27    8.61    2.55
   1  -1  27    1.73    1.74
   2  -1  27    1.48    2.00
   4  -1  27   -0.34    2.21
  -4   0  27    1.42    1.25
  -3   0  27    0.11    1.07
  -2   0  27    0.76    0.91
  -1   0  27    2.59    1.34
   0   0  27    0.35    1.66
   1   0  27    3.29    2.05
   2   0  27   -1.02    1.70
   3   0  27    0.27    1.84
  -4   1  27    1.67    1.61
  -3   1  27    2.04    1.19
  -2   1  27   -0.86    1.01
  -1   1  27    2.17    1.17
   0   1  27    8.80    1.65
   1   1  27    1.35    1.08
   2   1  27   -0.61    1.75
  -2   0  28    4.75    1.95
   0   1  28   -1.19    1.33
   0   0   0    0.00    0.00
;
_shelx_hkl_checksum              57933
loop_
_space_group_symop_operation_xyz
'x, y, z'
'-x+1/2, -y, z+1/2'
'-x, y+1/2, -z'
'x+1/2, -y+1/2, -z+1/2'
'-x, -y, -z'
'x-1/2, y, -z-1/2'
'x, -y-1/2, z'
'-x-1/2, y-1/2, z-1/2'
loop_
_atom_site_label
_atom_site_type_symbol
_atom_site_fract_x
_atom_site_fract_y
_atom_site_fract_z
_atom_site_U_iso_or_equiv
_atom_site_adp_type
_atom_site_occupancy
_atom_site_site_symmetry_order
_atom_site_calc_flag
_atom_site_refinement_flags_posn
_atom_site_refinement_flags_adp
_atom_site_refinement_flags_occupancy
_atom_site_disorder_assembly
_atom_site_disorder_group
K K 0.2202(3) 0.2500 0.45727(18) 0.0713(12) Uani 1 2 d S T P . .
Ge1 Ge 0.30819(9) 0.2500 0.15689(5) 0.01194(19) Uani 1 2 d S T P . .
Ge2 Ge 0.41421(9) 0.2500 0.75660(5) 0.01276(19) Uani 1 2 d S T P . .
Ge3 Ge 0.52037(10) 0.2500 0.63181(5) 0.0165(2) Uani 1 2 d S T P . .
As1 As 0.04405(8) 0.2500 0.63048(4) 0.01128(18) Uani 1 2 d S T P . .
As2 As 0.11350(9) 0.2500 0.07913(5) 0.01413(19) Uani 1 2 d S T P . .
As3 As 0.23867(9) 0.2500 0.28121(5) 0.01278(19) Uani 1 2 d S T P . .
loop_
_atom_site_aniso_label
_atom_site_aniso_U_11
_atom_site_aniso_U_22
_atom_site_aniso_U_33
_atom_site_aniso_U_23
_atom_site_aniso_U_13
_atom_site_aniso_U_12
K 0.0478(19) 0.133(4) 0.0337(16) 0.000 -0.0042(14) 0.000
Ge1 0.0113(4) 0.0099(4) 0.0146(4) 0.000 0.0002(3) 0.000
Ge2 0.0138(4) 0.0092(4) 0.0152(4) 0.000 -0.0026(3) 0.000
Ge3 0.0177(4) 0.0111(4) 0.0208(5) 0.000 -0.0011(4) 0.000
As1 0.0117(4) 0.0093(3) 0.0128(4) 0.000 -0.0012(3) 0.000
As2 0.0142(4) 0.0125(4) 0.0156(4) 0.000 -0.0008(3) 0.000
As3 0.0138(4) 0.0097(4) 0.0148(4) 0.000 -0.0006(3) 0.000
loop_
_atom_type_symbol
_atom_type_description
_atom_type_scat_dispersion_real
_atom_type_scat_dispersion_imag
_atom_type_scat_source
K K 0.2009 0.2494 'International Tables Vol C Tables 4.2.6.8 and 6.1.1.4'
Ge Ge 0.1547 1.8001 'International Tables Vol C Tables 4.2.6.8 and 6.1.1.4'
As As 0.0499 2.0058 'International Tables Vol C Tables 4.2.6.8 and 6.1.1.4'
loop_
_geom_angle_atom_site_label_1
_geom_angle_atom_site_label_2
_geom_angle_atom_site_label_3
_geom_angle
_geom_angle_site_symmetry_1
_geom_angle_site_symmetry_3
As3 K As2 129.91(8) . 2_565
As3 K As2 129.91(8) . 2
As2 K As2 67.64(6) 2_565 2
As3 K Ge3 60.06(6) . 5_666
As2 K Ge3 70.40(5) 2_565 5_666
As2 K Ge3 104.22(9) 2 5_666
As3 K Ge3 60.06(6) . 5_656
As2 K Ge3 104.22(9) 2_565 5_656
As2 K Ge3 70.40(5) 2 5_656
Ge3 K Ge3 62.94(6) 5_666 5_656
As3 K As1 65.91(6) . 5_556
As2 K As1 161.27(11) 2_565 5_556
As2 K As1 111.70(3) 2 5_556
Ge3 K As1 125.93(10) 5_666 5_556
Ge3 K As1 92.60(5) 5_656 5_556
As3 K As1 65.91(6) . 5_566
As2 K As1 111.70(3) 2_565 5_566
As2 K As1 161.27(11) 2 5_566
Ge3 K As1 92.60(5) 5_666 5_566
Ge3 K As1 125.93(10) 5_656 5_566
As1 K As1 62.47(6) 5_556 5_566
As3 K As1 154.57(11) . .
As2 K As1 69.35(6) 2_565 .
As2 K As1 69.35(6) 2 .
Ge3 K As1 138.39(7) 5_666 .
Ge3 K As1 138.39(7) 5_656 .
As1 K As1 92.63(8) 5_556 .
As1 K As1 92.63(8) 5_566 .
As3 K K 90.0 . 1_565
As2 K K 56.18(3) 2_565 1_565
As2 K K 123.82(3) 2 1_565
Ge3 K K 58.53(3) 5_666 1_565
Ge3 K K 121.47(3) 5_656 1_565
As1 K K 121.24(3) 5_556 1_565
As1 K K 58.76(3) 5_566 1_565
As1 K K 90.0 . 1_565
As3 K K 90.0 . 1_545
As2 K K 123.82(3) 2_565 1_545
As2 K K 56.18(3) 2 1_545
Ge3 K K 121.47(3) 5_666 1_545
Ge3 K K 58.53(3) 5_656 1_545
As1 K K 58.76(3) 5_556 1_545
As1 K K 121.24(3) 5_566 1_545
As1 K K 90.0 . 1_545
K K K 180.0 1_565 1_545
As3 Ge1 As2 109.92(5) . .
As3 Ge1 As1 111.50(3) . 2_564
As2 Ge1 As1 111.40(3) . 2_564
As3 Ge1 As1 111.50(3) . 2_554
As2 Ge1 As1 111.40(3) . 2_554
As1 Ge1 As1 100.86(5) 2_564 2_554
As3 Ge2 As3 99.48(4) 2 2_565
As3 Ge2 As1 99.64(4) 2 6_657
As3 Ge2 As1 99.64(4) 2_565 6_657
As3 Ge2 Ge3 115.22(3) 2 .
As3 Ge2 Ge3 115.22(3) 2_565 .
As1 Ge2 Ge3 123.75(5) 6_657 .
As2 Ge3 As2 97.26(5) 2 2_565
As2 Ge3 Ge2 97.69(4) 2 .
As2 Ge3 Ge2 97.69(4) 2_565 .
As2 Ge3 K 126.54(6) 2 5_666
As2 Ge3 K 79.15(5) 2_565 5_666
Ge2 Ge3 K 135.77(5) . 5_666
As2 Ge3 K 79.15(5) 2 5_656
As2 Ge3 K 126.54(6) 2_565 5_656
Ge2 Ge3 K 135.77(5) . 5_656
K Ge3 K 62.94(6) 5_666 5_656
Ge1 As1 Ge1 100.86(5) 2_565 2
Ge1 As1 Ge2 98.42(3) 2_565 6_557
Ge1 As1 Ge2 98.42(3) 2 6_557
Ge1 As1 K 158.40(4) 2_565 5_556
Ge1 As1 K 97.49(4) 2 5_556
Ge2 As1 K 90.03(6) 6_557 5_556
Ge1 As1 K 97.49(4) 2_565 5_566
Ge1 As1 K 158.40(4) 2 5_566
Ge2 As1 K 90.03(6) 6_557 5_566
K As1 K 62.47(6) 5_556 5_566
Ge1 As1 K 83.50(4) 2_565 .
Ge1 As1 K 83.50(4) 2 .
Ge2 As1 K 176.95(7) 6_557 .
K As1 K 87.37(8) 5_556 .
K As1 K 87.37(8) 5_566 .
Ge1 As2 Ge3 101.23(4) . 2_554
Ge1 As2 Ge3 101.23(4) . 2_564
Ge3 As2 Ge3 97.26(5) 2_554 2_564
Ge1 As2 K 90.34(7) . 2_554
Ge3 As2 K 96.07(4) 2_554 2_554
Ge3 As2 K 160.26(5) 2_564 2_554
Ge1 As2 K 90.34(7) . 2_564
Ge3 As2 K 160.26(5) 2_554 2_564
Ge3 As2 K 96.07(4) 2_564 2_564
K As2 K 67.64(6) 2_554 2_564
Ge1 As3 Ge2 90.02(4) . 2_554
Ge1 As3 Ge2 90.02(4) . 2_564
Ge2 As3 Ge2 99.48(4) 2_554 2_564
Ge1 As3 K 166.50(7) . .
Ge2 As3 K 98.66(5) 2_554 .
Ge2 As3 K 98.66(5) 2_564 .
loop_
_geom_bond_atom_site_label_1
_geom_bond_atom_site_label_2
_geom_bond_distance
_geom_bond_site_symmetry_2
K As3 3.281(3) .
K As2 3.384(3) 2_565
K As2 3.384(3) 2
K Ge3 3.607(3) 5_666
K Ge3 3.607(3) 5_656
K As1 3.632(3) 5_556
K As1 3.632(3) 5_566
K As1 3.673(4) .
K K 3.7664(4) 1_565
K K 3.7664(4) 1_545
Ge1 As3 2.4153(12) .
Ge1 As2 2.4246(13) .
Ge1 As1 2.4430(8) 2_564
Ge1 As1 2.4430(8) 2_554
Ge2 As3 2.4678(8) 2
Ge2 As3 2.4678(8) 2_565
Ge2 As1 2.4694(13) 6_657
Ge2 Ge3 2.5529(14) .
Ge3 As2 2.5093(9) 2
Ge3 As2 2.5093(9) 2_565
Ge3 K 3.607(3) 5_666
Ge3 K 3.607(3) 5_656
As1 Ge1 2.4430(8) 2_565
As1 Ge1 2.4430(8) 2
As1 Ge2 2.4694(13) 6_557
As1 K 3.632(3) 5_556
As1 K 3.632(3) 5_566
As2 Ge3 2.5093(9) 2_554
As2 Ge3 2.5093(9) 2_564
As2 K 3.384(3) 2_554
As2 K 3.384(3) 2_564
As3 Ge2 2.4678(8) 2_554
As3 Ge2 2.4678(8) 2_564
