#------------------------------------------------------------------------------
#$Date: 2021-04-14 12:21:13 +0300 (Wed, 14 Apr 2021) $
#$Revision: 264137 $
#$URL: file:///home/coder/svn-repositories/cod/cif/1/56/17/1561739.cif $
#------------------------------------------------------------------------------
#
# This file is available in the Crystallography Open Database (COD),
# http://www.crystallography.net/
#
# All data on this site have been placed in the public domain by the
# contributors.
#
data_1561739
loop_
_publ_author_name
'Prakash, Jai'
'Mesbah, Adel'
'Leb\`egue, S\'ebastien'
'Malliakas, Christos D.'
'Ibers, James A.'
_publ_section_title
;
 Synthesis, crystal structure, resistivity, and electronic structure of
 the U(V) quaternary polyselenide Ba8PdU2Se12(Se2)2
;
_journal_name_full               'Journal of Solid State Chemistry'
_journal_page_first              70
_journal_page_last               74
_journal_paper_doi               10.1016/j.jssc.2015.06.033
_journal_volume                  230
_journal_year                    2015
_chemical_formula_sum            'Ba8 Pd Se16 U2'
_chemical_formula_weight         2944.54
_chemical_name_common            Ba8PdU2Se16
_space_group_crystal_system      orthorhombic
_space_group_IT_number           58
_space_group_name_Hall           '-P 2 2n'
_space_group_name_H-M_alt        'P n n m'
_atom_sites_solution_hydrogens   .
_cell_angle_alpha                90
_cell_angle_beta                 90
_cell_angle_gamma                90
_cell_formula_units_Z            2
_cell_length_a                   9.4900(19)
_cell_length_b                   12.240(2)
_cell_length_c                   13.780(3)
_cell_measurement_reflns_used    9945
_cell_measurement_temperature    100(2)
_cell_measurement_theta_max      30.03
_cell_measurement_theta_min      2.72
_cell_volume                     1600.7(5)
_computing_cell_refinement       'Bruker SAINT'
_computing_data_collection       'Bruker APEX2'
_computing_data_reduction        'Bruker SAINT'
_computing_molecular_graphics    'Bruker SHELXTL'
_computing_publication_material  'Bruker SHELXTL'
_computing_structure_refinement  'SHELXL-2014 (Sheldrick 2014)'
_computing_structure_solution    'SHELXS-97 (Sheldrick 2008)'
_diffrn_ambient_temperature      100(2)
_diffrn_measured_fraction_theta_full 0.998
_diffrn_measured_fraction_theta_max 0.998
_diffrn_measurement_device_type  'Bruker APEX-II CCD'
_diffrn_measurement_method       '\f and \w scans'
_diffrn_radiation_type           MoK\a
_diffrn_radiation_wavelength     0.71073
_diffrn_reflns_av_R_equivalents  0.0836
_diffrn_reflns_av_unetI/netI     0.0447
_diffrn_reflns_Laue_measured_fraction_full 0.998
_diffrn_reflns_Laue_measured_fraction_max 0.998
_diffrn_reflns_limit_h_max       13
_diffrn_reflns_limit_h_min       -13
_diffrn_reflns_limit_k_max       17
_diffrn_reflns_limit_k_min       -17
_diffrn_reflns_limit_l_max       19
_diffrn_reflns_limit_l_min       -19
_diffrn_reflns_number            24872
_diffrn_reflns_point_group_measured_fraction_full 0.998
_diffrn_reflns_point_group_measured_fraction_max 0.998
_diffrn_reflns_theta_full        25.242
_diffrn_reflns_theta_max         30.043
_diffrn_reflns_theta_min         2.606
_diffrn_source                   'fine-focus sealed tube'
_exptl_absorpt_coefficient_mu    38.474
_exptl_absorpt_correction_T_max  0.37996
_exptl_absorpt_correction_T_min  0.20215
_exptl_absorpt_correction_type   numerical
_exptl_absorpt_process_details   'face indexed, SADABS (Sheldrick, 2008b)'
_exptl_crystal_colour            Black
_exptl_crystal_density_diffrn    6.109
_exptl_crystal_density_method    'not measured'
_exptl_crystal_description       Block
_exptl_crystal_F_000             2444
_exptl_crystal_size_max          0.076
_exptl_crystal_size_mid          0.040
_exptl_crystal_size_min          0.037
_refine_diff_density_max         2.736
_refine_diff_density_min         -2.236
_refine_diff_density_rms         0.565
_refine_ls_extinction_coef       0.00163(8)
_refine_ls_extinction_expression Fc^*^=kFc[1+0.001xFc^2^\l^3^/sin(2\q)]^-1/4^
_refine_ls_extinction_method     SHELXL
_refine_ls_goodness_of_fit_ref   1.330
_refine_ls_hydrogen_treatment    undef
_refine_ls_matrix_type           full
_refine_ls_number_parameters     71
_refine_ls_number_reflns         2430
_refine_ls_number_restraints     0
_refine_ls_restrained_S_all      1.330
_refine_ls_R_factor_all          0.0311
_refine_ls_R_factor_gt           0.0293
_refine_ls_shift/su_max          0.001
_refine_ls_shift/su_mean         0.000
_refine_ls_structure_factor_coef Fsqd
_refine_ls_weighting_details
'w=1/[\s^2^(Fo^2^)+(0.0202P)^2^] where P=(1.0000Fo^2^+0.0000Fc^2^)'
_refine_ls_weighting_scheme      calc
_refine_ls_wR_factor_gt          0.0669
_refine_ls_wR_factor_ref         0.0677
_reflns_Friedel_coverage         0.000
_reflns_Friedel_fraction_full    .
_reflns_Friedel_fraction_max     .
_reflns_number_gt                2300
_reflns_number_total             2430
_reflns_threshold_expression     'I > 2\s(I)'
_cod_data_source_file            JSSC-2015-230-70.cif
_cod_data_source_block           Ba8PdU2Se16
_cod_depositor_comments
;
The following automatic conversions were performed:

data item '_exptl_crystal_density_meas' value 'not measured' was
changed to '?' -- the value is perceived as not measured.

Automatic conversion script
Id: cif_fix_values 8369 2020-08-20 11:38:08Z andrius 
;
_cod_original_cell_volume        1600.7(6)
_cod_database_code               1561739
_shelx_space_group_comment
;
The symmetry employed for this shelxl refinement is uniquely defined
by the following loop, which should always be used as a source of
symmetry information in preference to the above space-group names.
They are only intended as comments.
;
_shelxl_version_number           2014-1
_shelx_res_file
;
TITL sad in Pnnm
CELL 0.71073 9.49 12.24 13.78 90 90 90
ZERR 2 0.0019 0.00245 0.00276 0 0 0
LATT 1
SYMM -X,-Y,+Z
SYMM 0.5-X,0.5+Y,0.5-Z
SYMM 0.5+X,0.5-Y,0.5-Z

SFAC Se Pd Ba U
UNIT 32 2 16 4

L.S. 10
PLAN  20
BOND
ACTA
OMIT 0 1 1
OMIT 1 1 1

WGHT    0.020200    0.000000    0.000000    0.000000    0.000000    1.000000
EXTI    0.001629
FVAR       0.08539
U1    4    0.000000    0.000000    0.244504    10.50000    0.00430    0.00392 =
         0.00400    0.00000    0.00000    0.00016
BA1   3    0.391417    0.161387    0.244892    11.00000    0.00499    0.00497 =
         0.00794   -0.00025    0.00056   -0.00020
BA2   3    0.291294    0.413273    0.000000    10.50000    0.00643    0.01363 =
         0.00608    0.00000    0.00000    0.00289
BA3   3    0.737085    0.157708    0.000000    10.50000    0.00511    0.00632 =
         0.00686    0.00000    0.00000    0.00084
PD1   2    0.000000    0.000000    0.000000    10.25000    0.00497    0.00464 =
         0.00456    0.00000    0.00000    0.00035
SE1   1    0.078332    0.149945    0.111116    11.00000    0.00690    0.00513 =
         0.00504    0.00015    0.00025   -0.00027
SE2   1    0.086476    0.149329    0.374469    11.00000    0.00691    0.00661 =
         0.00661   -0.00070   -0.00031   -0.00062
SE3   1    0.229704    0.407973    0.250662    11.00000    0.00461    0.00496 =
         0.00755    0.00002   -0.00002   -0.00046
SE4   1    0.041876    0.592149    0.000000    10.50000    0.00828    0.00691 =
         0.01564    0.00000    0.00000   -0.00077
SE5   1    0.415547    0.073347    0.000000    10.50000    0.00623    0.00694 =
         0.01007    0.00000    0.00000    0.00038
HKLF 4

REM  sad in Pnnm
REM R1 =  0.0293 for    2300 Fo > 4sig(Fo)  and  0.0311 for all    2430 data
REM     71 parameters refined using      0 restraints

END

WGHT      0.0218      4.1178

REM Highest difference peak  2.736,  deepest hole -2.236,  1-sigma level  0.565
Q1    1   0.7449  0.1144  0.0000  10.50000  0.05    2.74
Q2    1   0.4290  0.1177  0.2514  11.00000  0.05    2.71
Q3    1   0.5000  0.5000  0.0000  10.25000  0.05    2.56
Q4    1   0.2367  0.3877  0.0000  10.50000  0.05    2.37
Q5    1   0.2743  0.3954  0.2530  11.00000  0.05    2.32
Q6    1   0.3722  0.1961  0.0000  10.50000  0.05    2.30
Q7    1   0.4825  0.1910  0.0000  10.50000  0.05    2.16
Q8    1   0.0839  0.6797  0.0000  10.50000  0.05    2.14
Q9    1   0.4945  0.0764  0.0000  10.50000  0.05    2.09
Q10   1   0.2497  0.3221  0.0000  10.50000  0.05    2.04
Q11   1   0.4379  0.1783  0.2470  11.00000  0.05    2.04
Q12   1   0.1736  0.4210  0.2771  11.00000  0.05    1.83
Q13   1   0.0527  0.1723  0.1270  11.00000  0.05    1.80
Q14   1   0.3170  0.3012  0.0000  10.50000  0.05    1.80
Q15   1   0.0589  0.0066  0.2499  11.00000  0.05    1.80
Q16   1   0.4135  0.1263  0.0000  10.50000  0.05    1.79
Q17   1   0.1795  0.2616  0.2470  11.00000  0.05    1.77
Q18   1   0.0868  0.6273  0.0000  10.50000  0.05    1.77
Q19   1   0.3399  0.2411  0.3762  11.00000  0.05    1.75
Q20   1   0.1167  0.1170  0.3767  11.00000  0.05    1.72
;
_shelx_res_checksum              3212
_shelx_hkl_file
;
   1   0   0 -1.2978 0.52170   4
   2   0   0 502.042 59.3538   4
   3   0   0 0.58338 1.49775   4
   4   0   0 469.566 55.9518   4
   5   0   0 0.00367 1.81906   4
   6   0   0 1434.30 169.660   4
   7   0   0 0.09356 2.72172   4
   8   0   0 565.511 68.1773   4
   9   0   0 -3.0567 2.41623   4
  10   0   0 1272.55 151.625   4
  11   0   0 -4.7265 3.40756   4
  12   0   0 602.749 73.7387   4
   0  -1   0 -1.4564 0.22615   7
   0   1   0 -0.8400 0.23291   7
   1   1   0 493.559 58.2593   4
   2  -1   0 21.9411 3.64578   4
   3  -1   0 707.917 83.8959   4
   4   1   0 24.6703 4.53279   4
   4  -1   0 39.0382 5.13565   4
   5   1   0 571.448 68.0009   4
   6  -1   0 287.451 36.6383   4
   6   1   0 314.297 36.5642   4
  -7   1   0 248.350 27.6297   6
   7   1   0 292.006 34.3839   4
   7  -1   0 339.217 34.7620   4
  -8   1   0 95.4732 10.5864   1
   8  -1   0 126.753 13.9782   4
   8   1   0 81.7321 13.1766   4
  -8   1   0 99.0265 9.83697   6
   9   1   0 29.6053 6.58208   4
  -9   1   0 23.5575 2.83429   6
   9  -1   0 23.8804 5.91070   4
 -10   1   0 153.754 15.2823   6
  10   1   0 120.491 20.0665   4
  10  -1   0 192.451 21.0129   4
  11   1   0 715.558 96.9643   4
  11  -1   0 902.236 97.4126   4
 -12   1   0 436.517 44.8483   3
  12   1   0 475.359 58.0950   4
 -12   1   0 497.019 44.8111   3
 -13   1   0 233.178 22.3950   3
 -13   1   0 229.947 22.4249   3
   0  -2   0 632.355 73.5675   7
   0   2   0 716.297 73.5646   7
   1  -2   0 10.8212 1.90443   7
  -1   2   0 17.3653 2.15020   7
   1   2   0 8.52834 2.29072   4
  -1   2   0 15.0085 1.92778   7
   1  -2   0 12.0964 1.91187   7
   2   2   0 449.819 44.8112   2
   2   2   0 384.111 49.2948   4
   2  -2   0 404.323 44.9087   2
   3   2   0 7736.44 834.479   4
  -3  -2   0 6470.12 696.713   6
  -4  -2   0 1847.16 179.462   6
   4   2   0 1769.39 215.445   4
  -4   2   0 1756.48 173.968   3
  -4   2   0 1939.55 179.544   6
  -5   2   0 41.8574 4.52573   3
   5  -2   0 56.5380 7.06322   4
  -5   2   0 43.8623 4.54714   3
  -5   2   0 47.7881 4.88625   6
  -5  -2   0 46.6202 4.76489   6
  -5   2   0 52.1277 5.38684   1
   5   2   0 51.0047 6.75719   4
   6   2   0 1075.84 117.032   4
  -6   2   0 852.253 96.9855   6
  -6   2   0 998.813 105.264   1
  -6  -2   0 977.760 96.9013   6
   6  -2   0 1058.93 117.196   4
   7   2   0 177.437 22.8448   4
  -7   2   0 171.183 18.2059   6
   7  -2   0 233.930 23.4735   4
  -7   2   0 163.155 19.7739   1
  -7  -2   0 193.122 18.0772   6
   8   2   0 150.128 18.1037   4
  -8   2   0 133.143 15.0327   1
  -8   2   0 132.046 13.2128   3
  -8  -2   0 136.107 13.6384   6
  -8   2   0 131.943 13.1994   3
  -8   2   0 151.292 13.8377   6
   8  -2   0 135.494 18.0808   4
  -9  -2   0 729.695 71.9364   6
  -9   2   0 714.411 69.7922   3
   9   2   0 734.625 87.9727   4
  -9   2   0 751.071 69.8183   3
 -10   2   0 153.044 14.4929   3
 -10   2   0 144.687 15.0462   6
 -10   2   0 156.552 16.3747   1
 -10   2   0 143.831 14.5404   3
  10   2   0 141.389 20.1846   4
 -11   2   0 15.2753 2.24007   6
  11   2   0 17.7886 5.60417   4
 -11   2   0 10.6212 1.93733   3
 -11   2   0 11.2466 1.82471   3
  12   2   0 62.3594 11.5881   4
 -12   2   0 65.9504 6.75902   3
 -12   2   0 61.7513 6.68391   3
 -13   2   0 261.641 25.1786   3
 -13   2   0 256.301 25.1842   3
   0  -3   0 15.9233 2.66766   7
  -1  -3   0 607.621 67.7268   7
   1  -3   0 596.153 67.3501   2
  -1   3   0 668.546 67.8274   7
  -1   3   0 605.809 67.7172   7
   1  -3   0 625.957 67.7433   7
   2   3   0 75.7081 8.30619   4
   2   3   0 53.7063 7.01036   2
  -2   3   0 64.4669 7.04857   7
   2  -3   0 53.4785 7.03364   2
   2   3   0 56.2363 6.97157   2
  -2   3   0 66.0061 6.96798   7
   3   3   0 138.188 17.3421   4
  -3   3   0 132.062 15.3109   7
  -3   3   0 146.241 15.3749   7
   3  -3   0 156.259 14.2651   8
   3   3   0 139.507 14.0400   8
   3   3   0 151.664 15.2426   2
  -3  -3   0 131.456 14.0633   6
   3  -3   0 123.048 15.4125   2
  -4   3   0 14.2033 2.00876   3
  -4   3   0 17.2013 2.33546   1
  -4  -3   0 11.2591 1.83177   6
   4  -3   0 11.8934 1.62459   2
  -4   3   0 5.90991 1.77353   6
   4  -3   0 13.2458 1.61763   2
   4   3   0 11.8837 2.95814   4
   4  -3   0 10.3573 1.70555   8
   5   3   0 732.084 101.016   4
  -5  -3   0 748.948 90.9323   1
  -5   3   0 878.964 83.9648   6
   5  -3   0 863.153 84.6079   8
  -5  -3   0 939.223 90.9826   1
  -5   3   0 932.978 81.3706   3
  -6  -3   0 31.2595 3.40925   1
  -6  -3   0 22.6671 3.06186   6
  -6   3   0 20.6875 3.52963   1
  -6   3   0 22.9120 3.21581   6
  -6  -3   0 29.3630 3.43702   1
   6   3   0 22.2668 4.83395   4
  -6   3   0 27.8269 3.03089   3
  -6   3   0 23.4355 3.12562   3
  -7  -3   0 1325.41 138.074   1
  -7  -3   0 1139.81 138.045   1
  -7   3   0 1300.59 123.473   3
  -7   3   0 1194.45 123.526   3
  -7  -3   0 1210.56 127.288   6
  -7   3   0 1453.91 127.453   6
  -7   3   0 1407.20 138.305   1
   7   3   0 1349.69 153.490   4
  -8   3   0 57.6997 5.67159   3
  -8  -3   0 49.1635 5.58637   6
  -8   3   0 49.5474 5.78852   6
   8   3   0 58.7771 8.88838   4
  -8   3   0 42.3476 5.44824   3
  -8   3   0 57.5814 6.39986   1
  -8  -3   0 61.7123 6.13503   1
  -9  -3   0 1987.86 197.289   1
  -9   3   0 2023.16 176.420   3
  -9   3   0 1850.36 197.464   1
  -9  -3   0 1656.42 181.776   6
  -9   3   0 1743.27 182.030   6
 -10   3   0 4.51798 1.57061   6
 -10   3   0 6.59999 1.45301   3
 -10  -3   0 1.50291 1.12479   6
  10   3   0 11.6528 4.45998   4
 -10   3   0 9.37426 1.70473   3
 -10   3   0 12.3388 2.21562   1
 -11   3   0 1.81870 1.33348   3
  11  -3   0 1.66712 0.93637   8
  11  -3   0 2.54874 0.94997   8
  11   3   0 1.35015 3.76370   4
 -11   3   0 4.18474 1.63087   3
 -11   3   0 2.83180 1.96008   1
 -11   3   0 3.43419 1.53046   6
 -12   3   0 138.097 12.5116   3
 -12   3   0 136.702 12.4416   3
  12  -3   0 114.292 12.5717   8
  12   3   0 137.798 18.3574   4
 -12  -3   0 118.007 11.9735   3
 -12   3   0 109.916 12.7353   6
  13  -3   0 14.2954 2.56565   8
 -13   3   0 16.0240 2.59558   3
 -13   3   0 13.8943 2.51804   3
 -13  -3   0 15.5321 2.01957   3
   0   4   0 2923.34 305.752   7
   0   4   0 2524.99 303.997   2
   0  -4   0 3247.80 304.118   2
   0  -4   0 2609.12 305.726   7
  -1  -4   0 977.640 112.639   7
  -1   4   0 1076.60 112.728   7
   1  -4   0 947.967 112.685   7
   1   4   0 906.834 112.050   2
   1  -4   0 1152.10 112.647   7
   1  -4   0 1164.15 112.118   2
   2  -4   0 850.743 101.236   7
   2   4   0 896.849 110.514   4
   2  -4   0 1066.97 101.303   7
   2  -4   0 878.617 100.853   2
  -2   4   0 898.129 101.477   7
  -2   4   0 1004.57 101.363   7
  -3  -4   0 235.243 26.9725   6
  -3   4   0 256.980 29.6894   7
   3   4   0 251.415 32.7393   4
   3  -4   0 300.197 27.3911   8
  -3   4   0 292.353 29.4115   1
   3   4   0 283.158 29.4750   2
  -3   4   0 270.268 29.6256   7
  -4  -4   0 712.672 83.2732   1
  -4   4   0 873.119 76.8725   6
   4   4   0 798.943 92.4388   4
  -4   4   0 757.933 83.3506   1
   4  -4   0 702.590 77.6237   8
   4   4   0 785.467 77.4191   8
   4   4   0 789.000 77.4443   8
   4  -4   0 834.453 84.0987   2
  -4   4   0 807.532 84.4642   7
  -4   4   0 721.749 74.5097   3
  -5   4   0 3.85905 0.95609   7
  -5   4   0 5.45875 1.35233   3
  -5   4   0 3.80637 0.89659   7
   5   4   0 4.39211 0.73420   8
  -5   4   0 3.60184 1.21421   6
   5  -4   0 2.96060 1.18741   8
   5  -4   0 8.37663 1.38630   8
  -5   4   0 5.31560 1.59678   1
   5   4   0 3.39487 2.08363   4
   5   4   0 3.85805 0.74488   8
  -5   4   0 2.81353 1.05668   3
  -5  -4   0 6.88941 1.54174   1
  -5  -4   0 5.12957 1.30148   6
   6  -4   0 4401.63 425.442   8
  -6   4   0 3582.65 408.102   3
  -6   4   0 4392.90 420.919   6
  -6   4   0 4181.15 456.683   1
   6   4   0 4366.08 504.780   4
  -6   4   0 4814.35 408.127   3
  -7  -4   0 352.293 41.3408   6
   7  -4   0 475.929 41.7844   8
   7  -4   0 369.894 41.7095   8
   7   4   0 394.802 50.5410   4
  -7   4   0 416.869 40.2968   3
  -7   4   0 504.437 41.6135   6
  -7   4   0 442.832 45.0811   1
  -7  -4   0 388.730 44.8870   1
   8   4   0 251.607 33.1303   4
  -8  -4   0 245.534 28.9714   1
  -8   4   0 283.826 26.1204   3
  -8  -4   0 258.456 26.6332   6
  -8   4   0 269.127 25.9475   3
  -8   4   0 255.795 26.8865   6
   8  -4   0 278.471 26.9240   8
   8  -4   0 288.088 26.9128   8
  -9   4   0 308.784 34.6584   1
   9   4   0 373.656 39.9255   4
  -9   4   0 358.490 30.9566   3
  -9   4   0 313.881 31.0086   3
  -9  -4   0 334.963 31.7326   6
  -9   4   0 262.510 31.8710   6
   9  -4   0 324.805 32.0452   8
   9  -4   0 334.760 32.0370   8
  -9  -4   0 281.984 34.3952   1
  10   4   0 17.9936 5.71320   4
 -10   4   0 30.3519 3.94420   3
 -10  -4   0 31.6889 3.60118   6
  10  -4   0 27.5776 3.74071   8
 -10   4   0 31.8903 4.53451   1
 -10  -4   0 31.5109 4.08856   1
 -10   4   0 24.6552 3.69159   3
 -11  -4   0 255.057 24.2091   3
  11   4   0 251.847 32.4413   4
 -11   4   0 239.212 27.4702   1
 -11   4   0 265.448 24.5938   3
 -11   4   0 249.640 24.4780   3
  11  -4   0 237.579 25.3741   8
 -12   4   0 48.7080 6.96167   1
 -12   4   0 40.2286 5.86588   3
 -12   4   0 55.5319 6.09848   3
  12  -4   0 62.1174 6.38688   8
 -12  -4   0 53.8875 5.58806   3
  13  -4   0 3.43774 1.94880   8
   0  -5   0 4.51268 1.50572   7
   0  -5   0 4.23263 1.65650   2
   0   5   0 0.86495 1.51045   2
   0   5   0 0.56794 1.26219   7
  -1   5   0 1164.37 110.887   2
   1   5   0 881.233 110.755   2
  -1   5   0 1031.57 111.411   7
   1  -5   0 1040.32 110.781   2
  -1  -5   0 904.839 111.293   7
   1  -5   0 1179.88 111.535   7
   1  -5   0 853.544 111.218   7
  -1  -5   0 1168.30 110.886   2
  -2   5   0 165.290 18.8426   1
   2  -5   0 193.104 18.9358   7
   2   5   0 196.187 19.0842   2
  -2  -5   0 146.130 17.2289   6
  -2   5   0 132.058 18.8489   7
  -2  -5   0 161.028 18.7734   1
  -2   5   0 188.456 19.0749   2
   2  -5   0 142.925 18.8714   2
   2  -5   0 182.897 18.9311   7
  -3  -5   0 1359.49 143.596   1
  -3   5   0 1284.46 145.743   7
   3   5   0 1577.86 145.065   2
   3   5   0 1458.30 144.983   2
  -3  -5   0 1178.58 132.323   6
   3   5   0 1327.34 133.722   8
   3  -5   0 1185.26 145.003   2
  -3   5   0 1196.21 143.596   1
   3  -5   0 1513.46 133.991   8
   4  -5   0 238.969 27.6522   2
  -4  -5   0 254.651 27.4551   1
  -4   5   0 228.275 27.7181   7
  -4   5   0 287.685 24.6739   3
   4   5   0 229.645 25.3434   8
  -4   5   0 248.907 27.5056   1
   4   5   0 277.009 27.5035   2
   4  -5   0 231.209 25.5566   8
  -4  -5   0 257.666 24.4914   3
   4   5   0 261.557 30.8671   4
  -4   5   0 258.801 27.6656   7
   4   5   0 248.080 27.4295   2
  -5   5   0 637.950 57.8491   3
  -5  -5   0 497.668 64.4820   1
  -5   5   0 548.829 57.6868   3
   5  -5   0 653.001 60.2588   8
   5   5   0 570.505 71.7919   4
   5  -5   0 581.427 65.0174   2
   5   5   0 686.379 59.9894   8
  -5  -5   0 616.437 57.6714   3
  -5   5   0 639.697 65.3826   7
  -5   5   0 622.262 64.6785   1
   5   5   0 555.126 59.8675   8
   6   5   0 725.223 73.6693   4
  -6   5   0 626.295 65.9111   1
  -6   5   0 604.330 58.9278   3
  -6   5   0 612.158 58.8383   3
   6   5   0 654.236 61.0673   8
  -6   5   0 523.749 60.6093   6
  -6  -5   0 650.450 60.6847   6
   6   5   0 677.221 61.0238   8
  -6   5   0 588.007 66.5459   7
   6  -5   0 517.402 61.2695   8
  -6  -5   0 577.183 58.7175   3
  -7  -5   0 251.493 25.7433   1
  -7   5   0 232.026 25.8164   7
   7  -5   0 200.668 23.9149   8
  -7   5   0 232.695 23.1208   3
   7   5   0 245.187 23.5280   8
  -7  -5   0 233.214 22.8942   3
   7   5   0 237.220 29.4905   4
  -7  -5   0 255.754 23.6601   6
  -7   5   0 228.959 25.8015   1
  -7   5   0 224.387 22.9802   3
  -8  -5   0 221.951 20.3916   1
  -8   5   0 151.698 18.0797   3
  -8   5   0 167.791 18.2386   3
  -8   5   0 185.231 20.4718   1
  -8  -5   0 208.887 18.6415   6
   8   5   0 172.857 18.4090   8
   8   5   0 150.320 23.3109   4
  -8  -5   0 183.665 18.0595   3
   8   5   0 198.125 18.4893   8
   8  -5   0 179.205 18.9514   8
  -9   5   0 129.542 11.5202   3
  -9   5   0 129.697 11.4283   3
  -9  -5   0 98.7305 11.3344   6
  -9  -5   0 97.5458 12.4096   1
   9  -5   0 88.3957 11.6175   8
   9   5   0 130.375 15.7897   4
   9   5   0 105.351 11.0693   8
   9   5   0 110.648 11.1435   8
  -9   5   0 105.194 12.7261   1
  -9  -5   0 120.099 11.1132   3
 -10  -5   0 390.992 41.2859   3
 -10   5   0 409.722 46.5390   1
  10  -5   0 389.481 43.2509   8
  10   5   0 453.047 42.7558   8
 -10   5   0 462.918 41.6577   3
 -10  -5   0 439.180 42.5973   6
  10   5   0 455.862 52.9064   4
  10   5   0 430.696 42.6906   8
 -11  -5   0 42.2346 5.21575   3
  11   5   0 46.3708 5.00805   8
  11   5   0 45.5957 9.49297   4
  11  -5   0 46.9802 6.01214   8
  11   5   0 48.1293 5.14193   8
 -11  -5   0 47.7810 5.98768   1
 -11  -5   0 47.1403 5.32665   3
 -11   5   0 41.7076 6.43932   1
 -11   5   0 41.5891 5.65268   3
 -12   5   0 327.318 30.0752   1
  12  -5   0 290.895 27.8118   8
 -12   5   0 244.180 26.5151   3
  12   5   0 258.892 27.1681   8
 -12  -5   0 251.910 26.2165   3
 -12  -5   0 262.224 26.2500   3
   0   6   0 1445.41 180.872   2
   0  -6   0 1565.32 181.816   7
   0   6   0 1912.29 181.942   7
   0  -6   0 1758.10 180.987   2
  -1  -6   0 1.36277 1.53068   1
  -1   6   0 5.32552 1.68671   7
  -1  -6   0 1.62431 1.41689   7
   1  -6   0 3.45359 1.62072   2
   1   6   0 3.34990 1.77244   2
  -1  -6   0 3.37130 1.58384   2
  -1   6   0 1.60795 1.60476   2
   1  -6   0 8.36884 1.90648   7
   1  -6   0 4.09942 1.44609   7
   2  -6   0 1895.42 227.818   7
   2   6   0 1817.64 226.624   2
   2  -6   0 2176.93 226.735   2
   2  -6   0 2227.35 227.841   7
  -2   6   0 2241.37 226.767   2
  -2  -6   0 2153.13 206.799   6
   2   6   0 2187.75 209.044   8
  -2  -6   0 1884.29 227.853   7
  -2   6   0 2353.30 224.563   1
   3  -6   0 764.288 95.2693   2
  -3  -6   0 923.567 87.0015   6
   3  -6   0 789.256 88.0053   8
  -3  -6   0 1027.11 84.4286   3
   3   6   0 756.210 104.450   4
  -3   6   0 1028.86 95.8801   7
   3  -6   0 919.688 95.4958   7
   3   6   0 757.419 95.1599   2
   3   6   0 1038.81 95.4587   2
   3  -6   0 906.468 95.4083   7
  -3   6   0 765.316 94.3713   1
  -4  -6   0 268.303 25.1665   6
   4   6   0 265.685 27.2836   2
  -4   6   0 231.903 24.4005   3
  -4  -6   0 277.686 27.3664   1
   4  -6   0 255.932 25.5758   8
   4   6   0 255.807 25.3006   8
  -4   6   0 267.335 27.4313   1
   4   6   0 210.724 30.4603   4
  -4   6   0 259.490 27.4942   7
   4  -6   0 211.180 27.4084   2
  -4  -6   0 216.627 24.2499   3
  -5  -6   0 3.05052 1.43746   6
   5   6   0 3.01582 0.81020   2
   5   6   0 3.98312 2.75887   4
   5   6   0 1.40227 0.69381   2
  -5  -6   0 3.73535 1.31352   3
   5  -6   0 2.38109 1.50258   2
  -5  -6   0 3.23588 1.66577   1
  -5   6   0 1.49441 1.16703   3
  -5   6   0 0.84180 1.23399   7
  -5   6   0 2.09966 1.68607   1
   5   6   0 0.24072 1.11570   8
   5  -6   0 1.24601 1.57059   8
  -5  -6   0 1.66132 1.19555   3
   6   6   0 36.3884 6.20345   4
  -6  -6   0 30.7682 4.20702   6
   6  -6   0 30.9073 4.46091   8
   6  -6   0 31.0028 3.93864   2
  -6   6   0 31.6082 4.33720   3
  -6  -6   0 34.3763 4.07540   3
  -6  -6   0 30.2054 4.05271   3
  -6  -6   0 38.3342 4.86565   1
   6   6   0 28.2707 3.95627   8
  -6   6   0 30.8839 4.89088   1
  -7  -6   0 3.94273 1.58507   3
  -7   6   0 3.41149 2.14529   1
  -7  -6   0 8.13499 1.86616   6
   7   6   0 4.79121 3.01044   4
  -7  -6   0 5.65677 2.22634   1
  -7  -6   0 7.78275 1.82559   3
   7  -6   0 7.53677 2.09751   8
  -7   6   0 4.23050 1.78281   3
   7   6   0 4.55663 1.46625   8
  -8  -6   0 937.625 93.4472   3
   8   6   0 941.550 97.2097   8
  -8  -6   0 920.734 93.4546   3
  -8  -6   0 930.225 96.3381   6
  -8   6   0 1027.70 104.871   1
   8   6   0 997.025 116.763   4
   8  -6   0 1082.08 97.7174   8
  -8   6   0 985.802 93.7029   3
  -9  -6   0 175.860 16.2088   3
   9   6   0 144.504 16.5204   8
  -9  -6   0 174.490 16.2291   3
   9   6   0 171.829 21.7118   4
  -9  -6   0 160.464 18.1197   1
  -9  -6   0 164.036 16.6354   6
  -9   6   0 133.810 18.2270   1
   9  -6   0 172.728 17.1374   8
 -10  -6   0 700.145 68.3809   3
 -10   6   0 821.121 76.9979   1
  10   6   0 740.232 71.0844   8
 -10  -6   0 733.382 70.4925   6
  10  -6   0 685.465 71.4996   8
 -10  -6   0 732.169 76.4817   1
 -10   6   0 660.013 68.5915   3
  10   6   0 595.673 85.6520   4
 -11   6   0 3.03254 2.26609   1
 -11  -6   0 1.05242 1.29234   3
 -11  -6   0 2.60623 2.09954   1
  11   6   0 -0.1011 3.83257   4
  11  -6   0 2.42751 2.13133   8
  11   6   0 1.85564 1.61665   8
 -11  -6   0 2.92134 1.73399   3
 -11   6   0 0.35482 1.61903   3
 -12   6   0 935.782 85.3343   3
  12  -6   0 968.661 89.0834   8
 -12   6   0 809.232 95.3735   1
 -12  -6   0 916.437 84.9985   3
  12   6   0 882.541 88.4462   8
 -12  -6   0 809.843 84.9172   3
   0  -7   0 2.83111 1.83356   2
   0   7   0 1.75058 1.59487   7
   0   7   0 2.11642 1.61891   2
   0  -7   0 0.01464 1.52552   7
   0  -7   0 2.27813 1.88850   1
   1  -7   0 2133.44 230.452   2
  -1  -7   0 2134.13 228.098   1
   1   7   0 2147.05 230.611   2
  -1   7   0 2130.66 228.167   1
   2   7   0 31.9345 3.98928   8
  -2   7   0 18.1000 4.06004   2
  -2  -7   0 30.9451 4.55854   2
  -2  -7   0 33.4015 4.44220   7
   2  -7   0 23.5189 4.03279   7
  -2  -7   0 29.1550 4.37265   1
   2   7   0 35.2722 4.70709   2
   2  -7   0 29.4133 4.08956   7
   2   7   0 18.8094 4.81056   4
  -2   7   0 23.8743 4.24210   1
   2  -7   0 34.4203 4.69227   2
  -2   7   0 26.9741 4.27329   7
  -3   7   0 1534.89 156.587   7
   3  -7   0 1306.01 143.693   8
  -3  -7   0 1454.28 137.738   3
   3  -7   0 1450.11 156.192   7
  -3  -7   0 1583.25 142.102   6
  -3  -7   0 1444.81 154.178   1
   3   7   0 1524.02 143.570   8
  -3  -7   0 1382.53 156.455   7
   3   7   0 1514.57 170.730   4
   3  -7   0 1233.19 156.231   7
  -4  -7   0 11.1993 2.69026   1
   4   7   0 9.29286 3.31717   4
   4  -7   0 15.7987 2.92170   2
   4   7   0 14.0318 2.51544   2
  -4  -7   0 11.4424 2.35216   3
  -4   7   0 23.1559 3.46750   7
  -4   7   0 7.24449 2.09663   3
  -4   7   0 9.68097 2.64702   1
   4  -7   0 10.2450 2.53249   8
  -4  -7   0 10.1020 2.34454   6
   4   7   0 10.1236 2.20707   8
   5   7   0 25.3372 3.10530   2
  -5   7   0 17.6075 3.62017   1
  -5   7   0 16.1936 2.99246   3
   5   7   0 12.4921 2.79209   8
   5   7   0 14.9246 4.25879   4
  -5  -7   0 19.6096 3.00204   3
  -5  -7   0 16.5709 3.06182   6
   5  -7   0 19.7417 3.50937   8
   5  -7   0 18.5024 3.49464   2
  -5  -7   0 21.0512 3.62041   1
  -6  -7   0 322.859 34.2220   3
   6  -7   0 348.515 38.4934   2
   6   7   0 380.317 35.6945   8
  -6  -7   0 391.619 35.3959   6
   6   7   0 328.843 43.0186   4
   6  -7   0 307.929 35.8511   8
  -6  -7   0 366.165 38.4946   1
  -6   7   0 313.923 38.4704   1
  -6   7   0 399.673 34.5649   3
  -7  -7   0 2.29901 1.79566   1
  -7  -7   0 4.18298 1.69573   6
   7   7   0 0.08529 2.80826   4
  -7  -7   0 13.4775 2.28603   3
  -7   7   0 -1.6196 1.17835   3
  -7   7   0 2.35814 2.14306   1
   7  -7   0 1.11367 1.70730   8
   7   7   0 3.47483 1.64855   8
   8   7   0 47.3597 9.01621   4
  -8  -7   0 54.3558 6.78947   1
  -8   7   0 62.1865 7.11906   1
   8   7   0 39.6762 5.80787   8
   8  -7   0 52.3712 6.74638   8
  -8   7   0 53.3987 6.16778   3
  -8  -7   0 42.3389 5.68936   3
  -8  -7   0 45.5941 5.99638   6
   9   7   0 3.64237 1.74059   8
   9  -7   0 8.09851 2.55393   8
  -9  -7   0 7.11288 2.45837   1
  -9   7   0 5.60692 2.29926   3
  -9  -7   0 3.14514 1.85375   6
  -9  -7   0 3.78554 1.81386   3
   9   7   0 -4.6220 3.12446   4
  -9   7   0 13.2842 3.10786   1
 -10  -7   0 116.982 10.4354   3
 -10  -7   0 98.2447 10.5517   6
  10  -7   0 75.9369 10.9289   8
  10   7   0 96.8330 14.6259   4
  10   7   0 95.9669 10.5952   8
 -10   7   0 89.9894 11.8690   1
 -10   7   0 93.5308 10.5032   3
 -10  -7   0 97.9158 11.5402   1
  11  -7   0 535.764 61.8081   8
 -11  -7   0 554.728 65.9592   1
 -11  -7   0 584.536 59.0001   3
  11   7   0 618.651 61.4596   8
 -11   7   0 716.685 66.6078   1
 -11   7   0 671.011 59.4088   3
 -12  -7   0 51.2893 6.42154   3
  12   7   0 49.7494 6.82337   8
 -12  -7   0 63.7445 7.53836   1
  12  -7   0 46.6613 7.39196   8
 -12   7   0 61.2071 8.25722   1
 -12   7   0 51.1817 6.94268   3
   0   8   0 195.970 22.2613   1
   0  -8   0 210.911 22.6602   7
   0  -8   0 165.563 22.3383   2
   0   8   0 183.903 22.4561   7
   0  -8   0 217.889 22.4401   1
   0   8   0 214.609 22.7005   2
  -1   8   0 995.200 109.337   1
   1  -8   0 1092.72 111.129   7
  -1  -8   0 972.833 110.437   2
  -1  -8   0 1107.42 109.369   1
  -1   8   0 903.729 110.422   2
   1   8   0 1033.29 110.579   2
  -2  -8   0 815.616 87.3826   2
  -2  -8   0 855.710 86.4283   1
  -2  -8   0 919.925 87.8999   7
   2   8   0 650.463 95.5671   4
  -2   8   0 921.070 87.5740   2
   2  -8   0 750.398 87.5666   7
  -2   8   0 879.355 87.7806   7
  -2   8   0 918.092 86.6363   1
   2   8   0 684.525 87.2066   2
   2   8   0 655.127 80.2534   8
   3   8   0 787.123 72.6030   8
   3  -8   0 813.763 78.9569   2
  -3  -8   0 744.864 78.0032   1
   3   8   0 724.714 78.8529   2
  -3   8   0 618.191 77.9373   1
  -3  -8   0 840.823 79.2312   7
  -3   8   0 627.079 78.9828   2
  -3  -8   0 664.086 71.8002   6
  -3  -8   0 687.362 69.6613   3
   4   8   0 505.483 49.6144   2
   4   8   0 385.886 54.6492   4
   4  -8   0 405.592 49.6092   2
  -4   8   0 450.800 49.4126   1
  -4  -8   0 459.578 49.2824   1
  -4  -8   0 406.173 45.2814   6
   4  -8   0 519.647 46.2526   8
   4   8   0 488.772 45.8081   8
  -5   8   0 12.2595 2.99514   1
  -5  -8   0 9.31696 2.25826   3
  -5  -8   0 10.7028 2.44591   6
   5  -8   0 3.28694 2.05228   8
   5   8   0 9.27554 3.45164   4
   5   8   0 5.78055 2.15373   8
   5  -8   0 8.03641 2.41272   2
  -5  -8   0 10.8941 2.69399   1
   5   8   0 8.25068 2.19489   2
  -6  -8   0 411.112 45.1540   6
   6  -8   0 433.447 46.0156   8
   6   8   0 403.299 54.7174   4
  -6   8   0 502.456 49.4653   1
  -6   8   0 464.188 44.0450   3
   6  -8   0 441.746 49.3271   2
   6   8   0 496.220 45.7476   8
  -6  -8   0 452.680 43.8477   3
   7  -8   0 733.499 83.8944   2
  -7  -8   0 850.432 77.3727   6
   7   8   0 660.209 77.9238   8
  -7   8   0 872.021 84.2425   1
   7   8   0 677.336 93.1242   4
  -7   8   0 721.615 75.0149   3
   7  -8   0 874.758 78.6419   8
  -7  -8   0 782.552 83.8856   1
  -7  -8   0 850.867 75.0062   3
  -8  -8   0 199.961 20.2392   6
  -8  -8   0 195.518 21.9487   1
   8   8   0 221.105 20.5306   8
   8  -8   0 199.167 20.8955   8
  -8   8   0 154.803 21.9474   1
  -8   8   0 211.824 19.9180   3
  -8  -8   0 183.162 19.5284   3
   8   8   0 187.790 25.4215   4
  -9  -8   0 757.947 72.1485   6
  -9   8   0 785.853 70.2353   3
  -9  -8   0 645.728 69.8152   3
   9   8   0 721.277 72.8670   8
   9  -8   0 721.985 73.3376   8
  -9   8   0 677.069 78.4390   1
  -9  -8   0 768.821 78.2523   1
   9   8   0 718.200 87.8043   4
  10  -8   0 145.011 14.0654   8
  10   8   0 113.757 13.1235   8
 -10   8   0 104.316 12.8078   3
 -10  -8   0 94.8701 13.9810   1
 -10   8   0 122.119 14.6182   1
 -10  -8   0 124.543 13.0037   6
 -10  -8   0 136.397 12.8485   3
  10   8   0 131.714 18.1076   4
 -11   8   0 170.491 20.3604   1
  11  -8   0 226.102 19.6656   8
 -11   8   0 151.447 17.9567   3
  11   8   0 168.118 18.4902   8
 -11  -8   0 155.294 17.7320   3
 -11  -8   0 194.527 20.1921   1
   0  -9   0 0.84968 2.04396   2
   0  -9   0 1.88196 2.09941   1
   0   9   0 -1.0319 1.65460   2
   0  -9   0 0.22443 1.99222   7
   0   9   0 4.00693 2.13372   1
  -1   9   0 570.103 58.9061   1
   1  -9   0 516.113 59.2815   2
   1  -9   0 577.883 58.9234   1
  -1  -9   0 462.324 59.2476   2
  -1   9   0 570.802 59.5839   2
  -1   9   0 456.179 59.3650   7
   1  -9   0 552.682 59.6777   7
   1   9   0 649.176 59.7711   2
   2   9   0 543.694 53.8104   8
  -2   9   0 527.418 57.9304   1
  -2   9   0 496.866 58.4899   2
   2  -9   0 500.946 58.4039   2
  -2  -9   0 592.062 57.9461   1
   3   9   0 84.8215 8.95128   8
  -3  -9   0 76.5679 9.74966   7
   3  -9   0 83.2627 9.92937   2
  -3  -9   0 81.1961 9.68155   1
  -3   9   0 85.3016 10.0625   1
   3   9   0 72.4402 11.3491   4
  -3  -9   0 69.8157 8.94159   6
   3   9   0 64.7557 9.72538   2
   3   9   0 74.5609 9.70266   2
  -4  -9   0 442.826 39.7310   6
   4  -9   0 320.061 39.9142   8
  -4  -9   0 433.943 42.9825   1
   4  -9   0 387.824 43.3000   2
   4   9   0 436.860 39.9130   8
   4   9   0 390.636 43.1180   2
  -4   9   0 379.636 43.0337   1
   4   9   0 336.381 47.6359   4
   5   9   0 114.818 12.6744   8
   5  -9   0 110.428 13.8244   2
  -5  -9   0 112.195 13.7437   1
   5   9   0 97.7562 15.7046   4
   5   9   0 111.980 13.4199   2
  -5  -9   0 133.134 12.9426   6
  -5   9   0 117.326 14.0707   1
  -5  -9   0 116.642 12.3781   3
   5  -9   0 127.403 13.2143   8
  -6   9   0 161.541 19.0583   1
  -6  -9   0 146.241 16.7241   3
   6  -9   0 174.787 17.9577   8
   6   9   0 132.798 21.1592   4
   6  -9   0 167.618 18.8204   2
  -6  -9   0 151.855 17.2833   6
  -6  -9   0 169.634 18.8549   1
   6   9   0 167.063 18.1127   2
   6   9   0 189.175 17.5222   8
   7   9   0 598.859 59.4519   8
  -7  -9   0 574.666 57.1244   3
  -7   9   0 537.591 64.0176   1
  -7  -9   0 676.649 64.0492   1
  -7  -9   0 638.864 59.0046   6
   7   9   0 572.078 71.2855   4
   7  -9   0 528.961 63.9383   2
  -8  -9   0 131.980 14.8123   1
  -8  -9   0 120.896 13.1697   3
  -8   9   0 102.340 14.7768   1
   8   9   0 122.562 17.7096   4
   8  -9   0 121.033 14.1642   8
   8   9   0 134.703 13.6907   8
  -8  -9   0 125.293 13.6004   6
  -9  -9   0 998.758 106.304   3
   9  -9   0 1159.20 111.435   8
  -9   9   0 1223.00 119.400   1
   9   9   0 1142.17 110.847   8
   9   9   0 1027.30 132.497   4
  -9  -9   0 1084.89 109.638   6
 -10  -9   0 226.814 25.1016   1
 -10  -9   0 231.529 22.4580   3
 -10   9   0 177.801 25.0907   1
  10   9   0 204.982 23.1286   8
 -10  -9   0 264.720 23.2308   6
 -11  -9   0 175.357 19.7726   1
 -11  -9   0 173.703 17.5719   3
  11  -9   0 140.603 18.5863   8
  11   9   0 173.389 18.2273   8
 -11   9   0 179.660 20.2375   1
   0 -10   0 57.8470 8.31960   1
   0 -10   0 60.1102 8.23376   7
   0  10   0 47.5161 8.20597   2
   0 -10   0 67.0701 8.31049   2
  -1  10   0 21.1797 4.66472   1
  -1  10   0 32.7955 5.31302   2
   1  10   0 27.0013 5.20279   2
   1 -10   0 27.3966 5.03723   2
  -1  10   0 28.4998 4.89795   7
  -1 -10   0 29.2250 5.05254   2
  -1 -10   0 25.9170 4.89839   1
   2  10   0 2.26106 3.29878   4
   2  10   0 6.85103 2.79196   2
  -2  10   0 11.9678 3.25522   1
  -2  10   0 1.33376 1.91228   2
  -2 -10   0 4.61349 2.73016   1
   2 -10   0 6.58689 2.94568   2
   3  10   0 902.188 94.0038   2
  -3 -10   0 815.958 93.0170   1
   3  10   0 892.267 94.1792   2
   3 -10   0 838.571 94.0629   2
   4  10   0 1875.59 215.634   8
   4  10   0 2109.33 233.837   2
  -4 -10   0 2383.70 231.844   1
   4 -10   0 2312.40 234.151   2
  -4  10   0 2162.12 231.867   1
   5 -10   0 55.1121 8.82889   2
  -5 -10   0 64.3580 8.39917   6
   5  10   0 71.5984 8.12638   8
  -5 -10   0 64.3300 8.77355   1
  -5  10   0 80.3543 9.43481   1
   5  10   0 53.3626 8.17500   2
   5  10   0 77.6517 11.5063   4
   6  10   0 1836.74 228.468   4
  -6 -10   0 1887.47 206.480   1
   6  10   0 2037.63 192.377   8
   6  10   0 2096.85 207.974   2
   6 -10   0 1761.23 192.601   8
  -7 -10   0 50.7652 7.33311   1
  -7 -10   0 42.6237 6.37977   6
   7  10   0 48.0173 9.23196   4
   7 -10   0 41.5056 6.89221   8
  -7  10   0 50.5029 7.44372   1
   7 -10   0 45.2827 6.63274   2
   7  10   0 39.2811 6.29983   8
  -8  10   0 168.071 19.0210   1
   8 -10   0 204.919 18.2517   8
  -8 -10   0 131.373 16.9344   6
  -8 -10   0 151.074 16.6120   3
   8  10   0 141.857 17.0737   8
   8  10   0 180.955 22.0274   4
   9 -10   0 19.5719 4.69899   8
  -9  10   0 19.5138 4.84709   1
   9  10   0 20.2124 4.06710   8
  -9 -10   0 16.3062 4.04975   6
   9  10   0 27.2742 6.88964   4
  -9 -10   0 21.6276 4.58834   1
  -9 -10   0 22.5780 4.17309   3
 -10 -10   0 5.89235 2.56469   3
  10 -10   0 0.68926 2.92255   8
 -10 -10   0 6.04581 2.22857   6
 -10  10   0 -2.5904 2.80263   1
  10  10   0 0.58275 2.33869   8
 -10 -10   0 0.70136 2.67374   1
   0 -11   0 -1.7700 2.24433   1
   0  11   0 1.61339 2.68111   2
   0 -11   0 -1.1120 2.05518   2
   1 -11   0 7.94885 3.18399   2
   1  11   0 2.76152 2.50118   2
  -1 -11   0 7.26276 3.04901   2
  -1  11   0 7.30477 3.19818   2
  -1 -11   0 3.98456 2.88576   1
  -1  11   0 3.25762 3.10673   1
   2 -11   0 54.7690 8.49911   2
  -2  11   0 59.3173 8.85433   2
   2  11   0 68.5071 8.49589   2
  -2  11   0 49.9345 8.33474   1
  -2 -11   0 45.8568 8.03081   1
   2  11   0 69.2556 10.5139   4
  -3 -11   0 185.024 20.8620   1
   3  11   0 148.862 23.1174   4
   3  11   0 146.495 20.6996   2
  -3  11   0 176.872 20.9197   1
   3  11   0 215.935 21.1251   2
   3 -11   0 205.366 21.2931   2
  -4  11   0 16.4462 4.32462   1
   4 -11   0 17.1324 4.14513   2
   4  11   0 11.0493 4.95999   4
  -4 -11   0 15.4526 4.11102   1
   4  11   0 11.8176 3.54825   2
  -5  11   0 787.148 91.9802   1
   5  11   0 792.308 101.895   4
  -5 -11   0 1001.50 92.2249   1
   5  11   0 817.683 85.3916   8
   6  11   0 253.282 27.5395   8
   6  11   0 282.130 33.8492   4
   6  11   0 289.718 29.3866   2
  -6  11   0 258.004 30.0429   1
  -6 -11   0 255.773 29.8138   1
   6 -11   0 237.818 29.7156   2
  -7  11   0 694.437 75.0459   1
   7 -11   0 667.481 75.0605   2
   7  11   0 808.103 69.7214   8
   7  11   0 635.826 83.0821   4
  -7 -11   0 625.460 68.8124   6
   8  11   0 0.53355 3.75340   4
   8  11   0 3.33527 2.75402   8
  -8  11   0 3.79342 3.32499   1
  -8 -11   0 3.46426 3.06382   1
  -8 -11   0 7.43648 3.06313   6
  -9  11   0 133.852 18.6603   1
  -9 -11   0 162.732 17.1913   6
   9  11   0 148.905 17.1300   8
  -9 -11   0 150.079 18.6877   1
   9 -11   0 186.562 18.2638   8
 -10 -11   0 120.586 12.4410   6
 -10 -11   0 106.717 13.3747   1
 -10  11   0 81.7754 13.4824   1
  10 -11   0 103.180 12.9991   8
  10  11   0 98.9328 12.1452   8
   0 -12   0 4151.76 514.195   2
   0  12   0 5412.20 514.811   2
  -1 -12   0 413.815 42.1709   1
  -1 -12   0 391.848 42.4109   2
   1 -12   0 368.191 42.3184   2
   1  12   0 361.893 42.2792   2
  -1  12   0 348.299 42.3556   2
   2  12   0 86.8388 10.5292   2
  -2  12   0 86.1073 10.6147   1
   2 -12   0 70.4143 10.7177   2
  -2  12   0 93.0164 11.0289   2
   2  12   0 60.2296 11.7108   4
  -2 -12   0 55.9439 10.1665   1
   3 -12   0 599.321 62.3001   2
  -3  12   0 599.632 61.8034   1
   3  12   0 510.955 61.8006   2
   3  12   0 469.340 68.0666   4
  -3 -12   0 635.839 61.8639   1
   4 -12   0 281.471 30.7807   2
   4  12   0 325.299 34.6464   4
   4  12   0 274.321 30.4736   2
  -4  12   0 270.813 30.7095   1
  -4 -12   0 207.150 30.1839   1
   5 -12   0 43.8035 7.52103   2
   5  12   0 50.9048 9.52172   4
  -5  12   0 45.7819 8.02519   1
   5  12   0 55.6557 7.33251   2
  -5 -12   0 43.2838 7.84084   1
   6  12   0 139.766 20.9745   4
   6 -12   0 168.162 18.4121   2
  -6 -12   0 129.914 18.2031   1
   6  12   0 162.320 17.7426   2
   7  12   0 275.534 28.1069   8
  -7 -12   0 241.472 30.2381   1
  -7  12   0 230.157 30.3176   1
   7 -12   0 305.621 30.3022   2
   7  12   0 267.296 34.0705   4
   8  12   0 567.032 54.8305   8
  -8 -12   0 549.610 59.0972   1
  -8  12   0 485.951 59.0032   1
  -9  12   0 353.241 44.6844   1
   9  12   0 437.449 41.6063   8
  -9 -12   0 408.370 44.8235   1
   0  13   0 3.01036 2.94026   2
   0 -13   0 0.76968 3.10896   2
  -1  13   0 294.574 34.5590   2
  -1 -13   0 296.407 34.2653   1
   1 -13   0 320.522 34.6688   2
   1  13   0 291.678 34.3458   2
  -2 -13   0 303.974 31.5787   1
   2 -13   0 321.967 32.0039   2
  -2  13   0 269.887 31.8182   2
   2  13   0 274.737 35.2158   4
   2  13   0 213.619 31.2499   2
   3  13   0 533.073 57.1535   2
   3  13   0 459.400 62.9972   4
  -3  13   0 578.195 57.1839   1
   3 -13   0 520.141 57.3830   2
   3  13   0 511.610 57.2158   2
  -3 -13   0 483.349 56.7885   1
   4  13   0 115.803 20.9540   4
   4  13   0 185.536 19.1366   2
  -4 -13   0 146.045 19.1823   1
  -4  13   0 151.809 19.2421   1
   4 -13   0 190.228 19.5493   2
  -5 -13   0 281.758 32.2427   1
   5 -13   0 302.036 32.3522   2
  -5  13   0 259.065 32.1410   1
   5  13   0 262.685 35.8381   4
   5  13   0 289.055 31.7045   2
   6  13   0 29.4851 7.90528   4
  -6  13   0 24.1211 6.39443   1
   6  13   0 32.6604 5.60105   2
  -6 -13   0 45.8162 7.48436   1
   6 -13   0 41.2935 6.78226   2
  -7  13   0 28.8859 6.94849   1
  -7 -13   0 47.4906 7.74271   1
   7 -13   0 35.5759 6.31148   2
  -8  13   0 13.2521 4.49607   1
  -8 -13   0 3.09606 3.77680   1
   0  14   0 863.343 94.9636   2
  -1  14   0 36.3701 6.77649   2
   1  14   0 33.8138 7.91487   4
   1  14   0 33.5313 6.54035   2
   1 -14   0 29.8821 6.56042   2
   2  14   0 434.445 54.1325   2
   2  14   0 519.073 60.3661   4
   2 -14   0 607.932 55.1066   2
   2  14   0 412.267 54.2689   2
   3  14   0 1831.64 225.720   4
   3  14   0 2239.19 206.202   2
  -3 -14   0 1728.14 204.082   1
   3  14   0 1797.22 205.898   2
  -4  14   0 48.8729 8.74292   1
   4  14   0 50.7754 8.05964   2
   4 -14   0 51.4796 8.34188   2
   4  14   0 48.5422 9.72675   4
  -4 -14   0 45.1782 8.54563   1
   5 -14   0 76.6630 12.0706   2
   5  14   0 105.158 15.5584   4
   5  14   0 73.1057 11.1617   2
  -5  14   0 90.9515 12.8625   1
  -5 -14   0 104.806 12.7843   1
  -6 -14   0 1.77890 3.59726   1
  -6  14   0 0.91212 4.06755   1
   6 -14   0 2.43122 3.10814   2
   6  14   0 4.46077 2.85642   2
  -7 -14   0 20.8722 5.68021   1
   7 -14   0 33.3667 5.89736   2
  -7  14   0 24.0006 6.36719   1
   0 -15   0 2.75518 3.65396   2
   0  15   0 -3.0844 2.82267   2
   1  15   0 521.932 61.7499   4
  -1  15   0 461.171 55.8105   2
   1  15   0 502.527 55.8073   2
   1  15   0 508.961 56.1730   2
   2 -15   0 14.3652 5.08205   2
   2  15   0 20.7159 5.56950   2
   2  15   0 13.1749 4.37318   2
   2  15   0 10.9017 6.42989   4
  -3 -15   0 64.2698 11.6220   1
   3 -15   0 84.6810 12.0321   2
   3  15   0 80.2137 13.6836   4
   3  15   0 84.6655 11.6847   2
   4 -15   0 37.7004 8.38212   2
  -4 -15   0 54.0846 9.31519   1
   4  15   0 63.9640 8.79577   2
  -5  15   0 52.5973 10.7129   1
  -5 -15   0 98.4225 12.8556   1
   5 -15   0 74.6808 11.4354   2
   5  15   0 84.6175 10.6874   2
   6  15   0 23.0626 4.64753   2
  -6 -15   0 26.4284 6.27427   1
  -6  15   0 8.62462 4.78250   1
   6 -15   0 14.3289 4.46434   2
   0  16   0 1033.42 128.364   4
   0 -16   0 1173.49 117.951   2
   0  16   0 1002.89 116.857   2
   1  16   0 0.42786 5.07399   4
   1 -16   0 4.19086 3.91696   2
  -1  16   0 6.57605 4.29324   2
   1  16   0 1.47648 3.56078   2
   1  16   0 4.81773 3.48635   2
   2  16   0 434.493 44.6162   2
   2 -16   0 387.899 44.6610   2
   2  16   0 350.692 44.2303   2
  -3 -16   0 86.1198 14.4353   1
   3 -16   0 88.3829 13.4916   2
   3  16   0 102.614 13.0711   2
  -4 -16   0 157.848 19.3894   1
   4  16   0 122.966 17.8365   2
   4 -16   0 170.795 19.1170   2
   0  17   0 -2.9891 3.38589   2
   0  17   0 5.04229 3.93530   2
   1  17   0 31.1929 7.33982   2
   1 -17   0 30.8599 7.23819   2
   1  17   0 21.5691 5.98395   2
  -1  17   0 25.2409 6.87884   2
   2  17   0 21.6676 6.25651   2
   2 -17   0 23.6089 6.16444   2
   0   0  -1 -0.2738 0.22243   7
   0   0   1 -0.4833 0.15987   7
   1   0  -1 19.9293 2.49070   4
   1   0   1 15.6142 2.73432   4
   2   0  -1 -0.0016 1.00785   4
   2   0   1 -2.7495 1.04120   4
   4   0  -1 -1.4896 1.25796   4
   4   0   1 -0.6144 1.70056   4
   5   0  -1 3.73820 1.91682   4
   5   0   1 2.88837 2.26686   4
   6   0  -1 -1.0365 1.73129   4
   6   0   1 0.39502 2.35947   4
   7   0  -1 385.694 54.2108   4
   7   0   1 473.637 54.7148   4
  -7   0  -1 482.364 44.3925   6
   8   0   1 -2.1005 2.68616   4
   8   0  -1 1.53908 2.78456   4
  -8   0  -1 1.46786 0.69840   6
   9   0  -1 317.169 39.1249   4
   9   0   1 312.663 39.1741   4
  10   0   1 -1.8970 2.84793   4
  10   0  -1 3.35350 3.31846   4
  11   0  -1 4.48093 3.50700   4
  11   0   1 8.99797 4.24640   4
  12   0   1 8.12711 4.35270   4
   0  -1  -1 2.72357 0.61236   7
  -1   1  -1 6.65731 0.92482   7
   2   1  -1 101.172 10.6069   4
   2  -1  -1 72.3799 10.4168   4
   2   1   1 80.1743 10.5578   4
  -3  -1  -1 93.7725 8.99066   6
   3   1  -1 91.2828 11.3239   4
   3  -1   1 95.5469 11.5462   4
   3   1   1 88.5562 11.3566   4
   3  -1  -1 79.9424 11.2863   4
  -4  -1  -1 0.82968 0.44053   6
   4  -1   1 2.18729 1.86435   4
   4   1  -1 3.19056 1.76418   4
  -4   1  -1 3.42022 0.65462   6
   4   1   1 2.75530 1.69682   4
   4  -1  -1 -0.0905 1.58302   4
   5   1  -1 71.4992 9.21596   4
   5  -1   1 67.1202 9.56631   4
   5  -1  -1 76.4499 9.50628   4
  -5   1  -1 68.7169 7.03623   6
   5   1   1 66.3071 9.33526   4
   6  -1   1 68.7224 8.48794   4
   6   1  -1 67.7825 7.89406   4
   6  -1  -1 60.2453 8.02408   4
   6   1   1 68.6174 8.17630   4
  -6   1  -1 47.6042 5.86132   1
  -6   1  -1 50.1087 5.53432   6
   7  -1   1 34.9753 5.95277   4
   7   1  -1 23.4918 5.13652   4
   7  -1  -1 31.1012 5.68659   4
  -7   1  -1 34.6989 3.52352   1
   7   1   1 29.8577 5.75922   4
  -7   1  -1 26.5402 3.33494   6
  -8   1   1 142.607 13.9230   1
   8   1  -1 150.502 17.2893   4
   8  -1   1 140.482 17.2758   4
   8   1   1 128.672 17.2062   4
  -8   1  -1 120.130 12.9084   6
   8  -1  -1 131.337 17.0379   4
  -8   1  -1 112.120 13.9221   1
   9   1  -1 204.074 23.1591   4
   9  -1   1 201.928 23.1780   4
  -9   1   1 166.016 17.5618   6
  -9   1  -1 176.800 17.6659   6
   9  -1  -1 151.963 22.5246   4
   9   1   1 212.948 23.4563   4
  -9   1  -1 168.218 19.0890   1
 -10   1   1 4.01602 1.02738   6
  10   1  -1 2.34259 2.83963   4
  10  -1   1 9.51617 3.95969   4
  10   1   1 -3.5256 3.54284   4
  10  -1  -1 1.65323 3.05706   4
 -11   1   1 19.8995 2.48850   6
  11   1  -1 14.8072 5.82382   4
  11  -1  -1 22.8607 6.04431   4
 -11   1  -1 17.8197 2.30374   3
  11   1   1 15.0112 5.73541   4
 -11   1  -1 23.3133 2.38406   3
  12   1  -1 404.045 42.7353   4
 -12   1   1 300.256 31.5876   3
 -12   1   1 318.855 31.6372   3
 -12   1  -1 341.895 31.6801   3
 -12   1  -1 318.312 31.6635   3
  12   1   1 381.102 42.2768   4
 -13   1   1 41.1817 4.76311   3
 -13   1   1 45.0534 4.79061   3
 -13   1  -1 44.2992 4.96692   3
 -13   1  -1 49.8373 4.98527   3
   0  -2   1 -0.4118 0.80969   7
   0  -2   1 1.48418 0.89564   7
   0   2   1 -0.6306 0.69369   7
   0  -2  -1 2.11796 0.80868   7
   0   2  -1 0.62655 0.84347   7
   1  -2   1 15.7415 2.71384   7
  -1   2   1 18.8003 2.75079   7
   1  -2   1 15.4811 2.66622   7
  -1  -2  -1 26.7631 2.73164   7
   1  -2  -1 22.1256 2.78618   7
  -1   2  -1 20.0217 2.76792   7
   1   2   1 22.2692 3.24259   4
   1  -2  -1 25.4728 2.70986   7
  -1   2  -1 27.1400 2.84291   7
  -2   2   1 35.7331 4.91453   7
   2  -2   1 46.2334 5.20129   2
  -2   2   1 43.6184 4.92099   7
   2   2  -1 44.4472 6.13883   4
  -2   2  -1 44.7580 4.95009   7
   2   2   1 38.6955 5.03615   2
   2   2   1 52.0944 6.02558   4
  -2   2  -1 39.4324 4.91559   7
   2  -2  -1 47.4622 5.08549   2
   3  -2   1 117.538 13.2452   2
   3   2   1 113.201 15.0541   4
   3  -2  -1 129.235 13.2267   2
  -4  -2  -1 146.793 13.9184   6
  -4   2   1 147.947 13.5176   3
  -4   2  -1 125.643 14.0021   6
   4  -2  -1 145.040 17.3123   4
   4   2   1 112.865 17.1942   4
  -4   2  -1 150.854 13.5090   3
   5   2  -1 43.2210 6.29805   4
  -5   2   1 43.6487 4.85036   1
  -5  -2  -1 46.2762 4.36735   6
  -5   2   1 48.2114 4.15871   3
  -5   2   1 34.5599 4.18829   3
   5  -2  -1 53.9831 6.50594   4
  -5   2  -1 35.9520 4.48729   6
   5   2   1 39.1968 6.40865   4
  -5   2  -1 41.1251 4.19735   3
  -5   2  -1 42.2814 4.21126   3
  -5   2  -1 37.1782 4.89396   1
  -6   2   1 692.102 69.7951   1
  -6   2   1 664.465 62.2221   3
  -6   2   1 655.871 62.2452   3
  -6  -2  -1 624.784 69.6016   1
   6   2  -1 683.514 77.8648   4
  -6  -2  -1 598.806 64.2239   6
   6   2   1 658.714 77.9016   4
  -6   2  -1 650.990 62.2610   3
  -6   2  -1 662.425 62.2836   3
  -7  -2  -1 112.267 12.3784   1
   7   2  -1 101.054 14.7801   4
  -7  -2  -1 106.688 11.4923   6
  -7   2   1 109.891 12.5849   1
   7  -2   1 101.921 15.2017   4
  -7   2   1 115.303 11.1086   3
  -7   2   1 120.182 11.0725   3
  -7   2  -1 133.278 11.7505   6
   7   2   1 99.1086 14.9099   4
  -7   2  -1 127.040 12.6859   1
  -7   2  -1 118.117 11.1300   3
  -7   2  -1 106.796 11.1315   3
   7  -2  -1 145.207 15.4712   4
  -8  -2  -1 8.92546 1.38928   1
  -8   2   1 10.5556 1.39066   3
  -8   2   1 9.24798 1.69726   1
   8   2  -1 9.91850 3.44382   4
  -8   2   1 9.15637 1.64440   6
  -8   2   1 10.6831 1.26379   3
  -8   2  -1 10.3233 1.86531   1
  -8   2  -1 8.12585 1.63942   6
   8  -2  -1 10.7398 3.46390   4
   8   2   1 9.48630 3.59701   4
  -8   2  -1 8.34587 1.28493   3
  -8   2  -1 8.08983 1.28771   3
   9   2  -1 14.3472 4.17259   4
  -9   2   1 10.4414 1.52164   3
  -9   2   1 10.3468 1.83055   6
  -9   2   1 12.0219 1.62317   3
  -9   2   1 11.3396 2.09336   1
  -9   2  -1 11.2159 1.95621   6
  -9   2  -1 9.20207 1.50588   3
  -9   2  -1 9.93223 1.53509   3
  -9   2  -1 11.9694 2.24474   1
   9   2   1 14.2347 4.23486   4
  -9  -2   1 13.4254 1.61590   6
   9  -2  -1 14.4826 4.14480   4
  10   2  -1 161.298 20.9241   4
 -10   2   1 154.833 17.1392   1
 -10   2   1 160.173 15.2237   3
 -10   2   1 164.066 15.7592   6
 -10   2   1 162.222 15.1428   3
 -10  -2   1 157.595 15.4943   6
 -10   2  -1 164.042 15.2079   3
 -10   2  -1 142.199 15.8209   6
 -10   2  -1 139.891 15.1729   3
 -10   2  -1 142.179 17.1797   1
  10   2   1 199.802 22.0707   4
 -11   2   1 4.01561 1.21896   3
  11   2  -1 -1.2523 4.61253   4
 -11   2   1 3.99287 1.37482   6
 -11   2   1 4.47844 1.27803   3
 -11   2  -1 2.00734 1.19101   3
 -11   2  -1 6.15469 1.43560   3
  11   2   1 6.13519 4.17267   4
  12   2  -1 134.266 17.6318   4
 -12   2   1 79.4164 9.78145   3
 -12   2   1 107.040 9.87126   3
 -12   2   1 87.9775 10.0889   6
  12   2   1 115.759 15.6591   4
 -12   2  -1 104.256 9.90116   3
 -12   2  -1 106.188 10.0426   3
 -13   2   1 6.58638 1.62781   3
 -13   2   1 5.82985 1.48043   3
 -13   2  -1 5.26817 1.73777   3
 -13   2  -1 8.54355 1.75634   3
   0  -3  -1 51.6202 5.93279   7
   0   3   1 47.6529 5.97439   7
   0  -3   1 45.7098 5.98187   7
   1  -3   1 237.810 23.4810   7
   1  -3   1 237.499 23.5291   7
  -1   3   1 215.971 23.4619   7
   1   3  -1 203.601 23.3884   2
   1   3  -1 171.333 23.3667   2
  -1   3  -1 202.035 23.4767   7
   1  -3  -1 190.435 23.3752   2
   1  -3  -1 240.717 23.5186   7
   1   3   1 214.183 23.4398   7
   1   3   1 193.522 25.6851   4
   2  -3   1 445.723 45.8365   7
   2   3  -1 480.323 45.8300   2
   2  -3   1 433.004 45.8348   7
   2  -3   1 389.379 45.8664   2
  -2  -3   1 401.468 41.8594   6
   2  -3  -1 470.759 45.8764   2
   2  -3  -1 412.213 45.7913   7
   2  -3  -1 410.406 45.8066   7
  -2   3  -1 398.643 46.0266   7
   2   3   1 375.700 50.2461   4
  -3   3   1 28.8491 3.03156   7
   3  -3   1 28.2155 3.01701   8
   3   3  -1 23.5756 2.74628   8
   3  -3   1 21.1991 3.29470   2
  -3  -3  -1 31.1142 3.03653   6
   3   3  -1 26.1528 3.01712   2
   3   3  -1 16.2523 3.91710   4
  -3   3   1 21.2534 3.06083   7
   3  -3  -1 25.6519 3.02629   8
   3  -3  -1 25.8068 3.33207   2
  -3   3  -1 22.3116 3.02263   7
  -3  -3   1 19.9739 3.02564   6
   3   3   1 23.0091 2.76905   8
   3   3   1 26.3290 3.09740   2
  -3   3  -1 26.9051 3.12994   7
   3   3   1 27.5338 4.27386   4
  -4   3   1 37.9024 4.80954   3
   4  -3   1 47.3472 5.19091   2
   4  -3   1 47.9281 5.19040   2
  -4   3   1 48.8957 5.52641   1
  -4   3   1 38.6101 4.98834   6
  -4  -3  -1 51.0688 4.95831   6
  -4  -3  -1 41.1169 4.68148   3
  -4  -3  -1 53.6749 5.41974   1
   4   3  -1 39.0127 6.52757   4
   4  -3   1 48.2861 4.89625   8
   4  -3  -1 53.2154 4.98747   8
   4  -3  -1 43.3780 5.14942   2
   4   3   1 51.9077 6.81019   4
  -4   3  -1 47.9622 5.08438   6
  -4  -3   1 50.6063 5.41901   1
  -4   3  -1 44.2191 4.92538   3
   4  -3  -1 40.6617 5.11749   2
  -4   3  -1 53.2673 5.71078   1
  -4  -3   1 44.7277 5.00396   6
   5  -3   1 0.93328 0.76197   8
  -5   3   1 -0.3145 1.05408   1
  -5  -3  -1 3.46852 1.04098   6
  -5  -3  -1 3.39615 1.16861   1
  -5   3   1 2.76405 0.97150   3
  -5   3   1 2.42665 1.12680   6
   5  -3   1 -0.1219 0.72214   8
  -5   3   1 3.14121 1.12205   3
   5   3  -1 4.01802 2.27089   4
  -5   3  -1 1.97054 0.95894   3
  -5  -3   1 2.45225 1.04876   6
   5  -3  -1 1.67718 0.75661   8
  -5  -3   1 3.60619 1.20288   1
  -5   3  -1 1.73280 1.00054   3
  -5   3  -1 0.02173 1.30646   1
  -5   3  -1 1.27305 1.08727   6
   5   3   1 1.22762 1.97928   4
  -6   3   1 229.808 23.5428   1
   6  -3   1 227.482 21.5744   8
  -6  -3  -1 198.962 23.3551   1
   6  -3   1 230.599 21.5757   8
  -6  -3  -1 182.302 21.4998   6
  -6   3   1 223.898 20.9085   3
   6   3  -1 213.070 26.7870   4
  -6   3   1 204.563 20.9704   3
  -6  -3   1 214.722 21.6004   6
  -6  -3   1 215.578 23.3745   1
  -6   3  -1 223.631 20.9935   3
  -6   3  -1 171.831 23.5265   1
   6   3   1 250.145 26.9109   4
  -6   3  -1 237.827 20.9491   3
  -6   3  -1 230.668 21.7605   6
  -7   3   1 20.4521 2.69416   3
  -7  -3  -1 22.2264 2.89689   1
   7   3  -1 24.3687 4.87170   4
  -7   3   1 22.9548 3.17154   1
  -7  -3  -1 20.6331 2.64066   6
  -7   3   1 19.2788 2.80530   6
  -7   3   1 19.9888 2.57533   3
  -7  -3   1 20.6634 2.70814   6
  -7  -3   1 20.3416 2.87387   1
  -7   3  -1 21.6098 3.26303   1
  -7   3  -1 22.0426 2.71238   3
  -7   3  -1 26.7770 3.08624   6
   7   3   1 21.6063 4.52019   4
  -7   3  -1 21.2326 2.60783   3
  -8   3   1 2.13683 1.25330   6
  -8  -3  -1 3.74529 1.23843   1
  -8  -3  -1 3.06153 1.06405   6
  -8   3   1 1.53578 1.14847   3
  -8   3   1 3.90265 1.49322   1
   8   3  -1 1.89916 2.56687   4
  -8   3   1 5.07106 1.11076   3
  -8  -3   1 4.00306 1.27545   1
  -8   3  -1 4.93076 1.29228   3
  -8   3  -1 3.66984 1.28477   6
  -8   3  -1 5.42730 1.20169   3
  -8  -3   1 2.99862 1.09779   6
   8   3   1 -0.1405 2.25411   4
  -8   3  -1 3.40119 1.59457   1
  -9   3   1 290.406 27.6767   1
  -9   3   1 215.101 24.5290   3
  -9  -3  -1 245.975 27.2904   1
  -9   3   1 219.140 25.3023   6
   9   3  -1 255.041 31.8444   4
  -9   3   1 296.756 24.5630   3
  -9  -3   1 244.036 25.1746   6
  -9   3  -1 264.338 24.6603   3
  -9   3  -1 258.953 27.6499   1
  -9   3  -1 227.834 25.3694   6
  -9  -3   1 258.408 27.3260   1
   9   3   1 294.530 32.2476   4
  10  -3   1 149.282 14.3046   8
  10   3  -1 168.622 19.6841   4
  10  -3   1 147.025 14.3174   8
 -10   3   1 144.642 14.0742   3
 -10   3   1 150.091 14.1338   3
 -10   3   1 164.437 15.9645   1
 -10   3   1 126.248 14.5207   6
 -10   3  -1 136.506 14.0446   3
 -10  -3   1 122.739 14.2322   6
 -10   3  -1 135.733 15.8571   1
  10   3   1 106.532 18.8170   4
 -10   3  -1 152.696 14.2337   3
 -10   3  -1 144.582 14.6529   6
 -11  -3  -1 20.0124 2.26977   3
 -11   3   1 20.7830 3.28245   1
  11  -3   1 21.5594 2.50694   8
 -11   3   1 14.8451 2.54898   3
 -11   3   1 18.0604 2.84707   6
 -11   3   1 16.0872 2.62328   3
  11  -3   1 14.1014 2.36838   8
  11   3  -1 24.8811 6.15220   4
 -11  -3   1 19.5083 2.33300   6
  11  -3  -1 17.1737 2.31254   8
 -11   3  -1 15.3497 2.73239   3
 -11   3  -1 18.1916 2.65812   3
 -11   3  -1 17.3905 2.91131   6
 -11   3  -1 18.9262 3.25525   1
  11  -3  -1 18.8674 2.29131   8
  11   3   1 17.7542 6.85921   4
 -12  -3  -1 1.70849 0.97162   3
  12  -3   1 3.13896 1.31966   8
 -12   3   1 3.90359 1.53140   3
  12   3  -1 -3.1752 4.67399   4
 -12   3   1 2.58956 1.51294   6
 -12   3   1 2.21785 1.36981   3
 -12   3  -1 1.73060 1.50947   3
 -12   3  -1 2.70037 1.51148   3
 -12  -3   1 2.54492 0.98515   3
  12  -3  -1 2.38325 1.33942   8
 -13  -3  -1 19.4016 2.55245   3
 -13   3   1 20.2251 3.03956   3
 -13   3   1 27.9026 3.32493   6
  13  -3   1 21.5340 3.08950   8
 -13   3   1 19.8383 3.10444   3
 -13   3  -1 16.9401 3.13615   3
  13  -3  -1 18.3780 3.06277   8
 -13  -3   1 25.4322 2.66811   3
 -13   3  -1 17.5199 3.09452   3
   0  -4   1 -0.7179 1.09231   2
   0   4   1 -1.1906 1.03473   7
   0  -4  -1 0.97114 1.06800   7
   0   4  -1 1.52780 1.47310   2
   0   4  -1 0.35079 1.26529   7
   0  -4   1 1.42024 1.18793   7
   0   4   1 1.26607 1.26002   2
   0  -4  -1 -2.2763 1.00465   2
   0  -4   1 -0.5760 1.13413   7
  -1  -4  -1 36.9079 4.47226   7
   1  -4   1 25.3839 4.35790   2
   1   4  -1 33.4422 4.50192   2
   1  -4   1 37.6885 4.35477   7
   1  -4   1 34.1282 4.47399   7
  -1   4  -1 22.1560 4.44799   2
  -1   4  -1 35.3539 4.64020   7
  -1  -4   1 42.0589 4.63536   7
   1  -4  -1 45.0857 4.58659   7
   1   4   1 39.1588 4.52350   2
   1  -4  -1 24.8567 4.21622   7
   1   4   1 31.6859 5.19293   4
  -1   4  -1 34.4885 4.38788   7
   1  -4  -1 32.2851 4.56000   2
   2   4  -1 1.41702 1.26852   2
   2  -4   1 0.52425 1.23648   2
   2  -4   1 0.79392 0.93553   7
  -2  -4  -1 2.73909 1.18967   6
  -2   4   1 0.17908 0.98325   7
   2  -4   1 1.25419 1.08536   7
  -2  -4  -1 2.27606 1.15811   7
  -2  -4   1 2.15701 1.08841   6
   2  -4  -1 -0.1489 1.17165   2
   2   4   1 2.46781 1.24106   2
  -2   4  -1 3.36635 1.39972   7
  -2   4  -1 -0.4595 1.02393   7
   2  -4  -1 0.10169 0.95625   7
   2   4   1 1.69857 1.75787   4
   2  -4  -1 1.21278 0.91176   7
  -3   4   1 48.0040 5.96422   1
  -3   4   1 43.2471 5.92929   7
   3  -4   1 36.2001 5.48088   8
  -3  -4  -1 52.6997 5.91110   1
   3   4  -1 38.3784 5.78869   2
   3   4  -1 48.6231 5.36344   8
   3  -4   1 46.9602 6.03132   2
  -3  -4  -1 47.0827 5.39064   6
   3   4  -1 66.3166 7.51536   4
  -3   4   1 57.4726 5.89260   7
   3  -4  -1 45.6748 5.53464   8
  -3  -4   1 50.2327 5.45674   6
   3  -4  -1 44.1044 5.93522   2
  -3   4  -1 58.0229 6.11866   1
   3   4   1 44.3723 6.93614   4
   3   4   1 42.1557 5.32113   8
  -3   4  -1 58.0305 5.96134   7
   3   4   1 50.5499 5.85014   2
  -3  -4   1 52.6947 6.03013   1
  -3   4  -1 59.2144 5.85670   7
  -4   4   1 74.5828 7.57518   6
  -4   4   1 62.8314 7.99798   7
   4  -4   1 76.3659 7.65548   8
  -4  -4  -1 72.4078 7.48750   6
   4  -4   1 72.3074 8.23239   2
  -4   4   1 54.3680 7.22539   3
   4   4  -1 62.6773 7.34526   8
  -4   4   1 71.5437 8.28501   1
   4   4  -1 71.2479 9.74170   4
  -4  -4  -1 73.8249 8.18250   1
  -4   4   1 75.0837 8.15092   7
  -4  -4  -1 87.7118 7.30526   3
  -4  -4   1 67.9294 8.16227   1
  -4   4  -1 72.7722 7.43986   3
   4   4   1 67.1607 9.57532   4
  -4  -4   1 82.5286 7.37549   3
   4  -4  -1 84.1557 7.70231   8
  -4   4  -1 64.7792 8.01591   7
   4   4   1 74.9640 7.38874   8
  -4   4  -1 74.3266 8.33070   1
  -4   4  -1 67.4432 8.09867   7
   4  -4  -1 57.7733 8.09875   2
  -4  -4   1 78.0630 7.58932   6
   5   4  -1 130.655 15.4926   4
  -5   4   1 106.843 13.3365   1
  -5  -4  -1 102.278 13.2017   1
   5  -4   1 135.480 12.3458   8
   5  -4   1 123.196 12.3577   8
   5   4  -1 131.685 12.0148   8
  -5   4   1 125.080 13.1454   7
  -5  -4  -1 109.692 12.1629   6
  -5   4   1 106.887 12.2371   6
  -5  -4  -1 115.332 11.7717   3
   5   4  -1 112.927 11.9976   8
  -5   4   1 122.367 13.1689   7
  -5   4   1 138.910 12.0104   3
  -5  -4   1 130.148 12.3001   6
  -5   4  -1 115.575 13.1972   7
  -5  -4   1 101.926 13.2259   1
  -5   4  -1 106.174 11.9560   3
   5   4   1 117.471 12.0296   8
  -5   4  -1 138.662 12.4689   6
   5   4   1 113.586 12.0645   8
  -5   4  -1 107.905 13.1498   7
   5  -4  -1 135.422 12.3427   8
   5   4   1 102.014 15.2382   4
  -5   4  -1 133.744 11.9280   3
   5  -4  -1 132.319 12.4236   8
  -5   4  -1 105.968 13.3865   1
  -5  -4   1 127.663 13.3080   1
   6  -4   1 66.8181 7.12386   8
   6   4  -1 82.5764 9.95244   4
  -6  -4  -1 60.2924 7.08387   6
  -6   4   1 74.9619 7.10834   3
  -6   4   1 57.5859 7.88862   1
  -6   4   1 58.7046 6.93143   3
  -6   4   1 65.9615 7.24418   6
   6  -4   1 81.5453 7.26923   8
  -6  -4  -1 75.0872 6.86828   3
  -6  -4   1 67.5220 7.16543   6
  -6   4  -1 56.1786 7.91761   1
   6  -4  -1 55.0509 7.16341   8
  -6  -4   1 65.0850 7.82342   1
   6  -4  -1 79.8312 7.21209   8
   6   4   1 66.3095 9.67389   4
  -6  -4   1 69.6971 7.81634   1
  -6   4  -1 58.5630 7.23460   6
  -6   4  -1 76.3894 7.05526   3
  -6   4  -1 62.7765 7.07732   3
  -7  -4  -1 13.5632 1.93978   3
   7  -4   1 12.8493 2.15461   8
  -7   4   1 14.2133 2.29959   6
   7   4  -1 7.59541 3.45684   4
  -7   4   1 11.3190 2.55593   1
   7  -4   1 14.2622 2.03969   8
  -7  -4  -1 13.4526 2.36646   1
  -7   4   1 14.5299 2.16955   3
  -7  -4  -1 13.0649 2.14477   6
  -7   4   1 18.7311 2.37667   3
   7  -4  -1 13.4980 2.16947   8
  -7   4  -1 13.4612 2.30958   3
  -7  -4   1 12.0865 2.41366   1
   7  -4  -1 14.3709 2.08285   8
   7   4   1 12.9811 3.94924   4
  -7   4  -1 14.7042 2.36487   6
  -7   4  -1 11.3947 2.47673   1
  -7  -4   1 16.4339 2.51317   1
  -7   4  -1 16.2832 2.23080   3
  -7  -4   1 11.5958 2.09992   6
  -8   4   1 25.8906 3.47661   3
   8  -4   1 26.9063 3.46020   8
  -8   4   1 29.5820 4.21428   1
  -8  -4  -1 22.5427 3.62744   1
   8   4  -1 27.3968 5.94730   4
  -8   4   1 30.8513 3.48250   3
  -8  -4  -1 27.7944 3.20850   3
  -8  -4  -1 23.7892 3.35707   6
  -8   4   1 27.9263 3.68057   6
   8  -4   1 24.5297 3.30853   8
  -8   4  -1 28.8108 3.77437   6
   8  -4  -1 28.3003 3.36240   8
  -8   4  -1 26.0860 4.02372   1
  -8  -4   1 28.5320 3.83898   1
   8  -4  -1 27.5249 3.47180   8
  -8   4  -1 25.6772 3.55819   3
   8   4   1 22.1038 5.26361   4
  -8   4  -1 29.3525 3.49222   3
  -8  -4   1 28.3386 3.47933   6
  -9   4   1 279.855 33.6700   1
  -9  -4  -1 332.113 33.4586   1
  -9  -4  -1 287.001 29.8227   3
  -9   4   1 313.136 31.0112   6
  -9   4   1 368.724 30.1261   3
  -9  -4  -1 273.950 30.8007   6
   9  -4   1 296.573 31.1993   8
  -9   4   1 312.103 30.1001   3
   9  -4   1 289.701 31.0922   8
   9  -4  -1 329.033 31.1595   8
  -9   4  -1 332.917 30.0958   3
  -9  -4   1 299.671 33.5262   1
  -9  -4   1 330.083 30.9063   6
  -9   4  -1 293.601 30.1480   3
   9  -4  -1 309.579 31.1949   8
   9   4   1 312.236 38.5967   4
  -9   4  -1 294.942 33.6739   1
  -9   4  -1 325.444 31.0989   6
  10  -4   1 34.8063 4.40547   8
 -10   4   1 37.9573 5.29834   1
 -10   4   1 30.5841 4.41080   3
 -10  -4  -1 36.7905 4.79330   1
 -10   4   1 36.3095 4.39285   3
 -10  -4  -1 33.4239 4.10875   3
  10   4  -1 32.4544 7.35018   4
 -10  -4   1 44.1088 4.97896   1
 -10   4  -1 35.5394 4.64679   3
  10  -4  -1 38.5761 4.59287   8
  10   4   1 49.1731 8.71017   4
 -10   4  -1 39.0037 5.28283   1
 -10   4  -1 35.3900 4.51055   3
 -10  -4   1 37.1408 4.27989   6
 -11   4   1 6.93530 1.96029   3
 -11   4   1 11.2876 2.14435   3
 -11   4   1 4.96953 2.37298   1
 -11  -4  -1 9.01905 1.66415   3
  11  -4   1 11.0479 2.06884   8
  11   4  -1 3.54123 4.61471   4
 -11   4  -1 12.3955 2.75307   1
 -11  -4   1 8.18592 1.68221   6
 -11   4  -1 7.73232 2.02224   3
 -11   4  -1 9.00944 2.17968   3
 -11  -4   1 7.40666 1.58817   3
  11   4   1 11.8550 4.79885   4
  11  -4  -1 8.98724 2.11406   8
 -12   4   1 31.2787 4.61333   3
 -12  -4  -1 38.3045 4.28785   3
  12  -4   1 32.9707 4.74575   8
 -12   4   1 40.8443 4.83630   3
 -12   4   1 41.4625 5.61802   1
 -12   4  -1 35.5257 4.72074   3
 -12   4  -1 40.8863 5.71264   1
  12  -4  -1 39.5203 4.92562   8
 -12   4  -1 36.0360 4.80633   3
 -12  -4   1 35.0776 4.19954   3
   0  -5  -1 673.616 72.5601   7
   0  -5   1 716.484 72.2509   2
   0   5   1 661.508 72.2466   2
   0  -5   1 629.556 72.6176   7
   0   5  -1 657.681 72.6570   7
   0  -5  -1 621.139 72.2084   2
   0  -5   1 705.200 72.7225   7
   1   5  -1 381.210 46.9726   2
   1  -5   1 426.707 47.1487   7
   1  -5   1 470.767 47.0957   2
   1  -5   1 484.517 47.2865   7
  -1   5   1 418.470 46.9448   2
  -1  -5  -1 436.980 46.9948   2
  -1  -5  -1 474.878 47.2990   7
  -1   5   1 501.550 47.3088   7
   1  -5  -1 379.954 47.0880   7
   1   5   1 367.977 47.1007   7
  -1   5  -1 477.331 47.2834   7
   1   5   1 379.893 46.9508   2
  -1  -5   1 479.644 47.2856   7
  -1  -5   1 462.937 47.0664   2
   1  -5  -1 387.119 47.1977   7
  -1   5  -1 385.596 47.0432   2
   2   5  -1 11.4963 2.17063   8
  -2  -5  -1 11.8100 2.35341   1
   2   5  -1 11.0076 2.46430   2
   2  -5   1 10.2471 2.09338   7
  -2   5   1 9.93766 2.16840   7
  -2  -5  -1 11.5838 2.24724   7
   2  -5   1 10.5895 2.23280   7
  -2   5   1 14.7039 2.58964   1
  -2  -5  -1 10.3969 2.15387   6
   2  -5   1 12.2716 2.50096   2
   2   5  -1 13.4205 2.46299   2
  -2   5   1 14.4048 2.63459   2
   2  -5  -1 7.20797 1.98605   7
   2  -5  -1 7.33574 2.28984   2
   2   5   1 7.97000 2.88096   4
   2   5   1 13.8744 2.18336   8
  -2   5  -1 11.4386 2.46769   1
  -2   5  -1 11.8948 2.54293   7
  -2  -5   1 6.98416 2.27452   1
  -2   5  -1 9.49782 2.26316   7
  -2   5  -1 12.6837 2.57864   2
  -2  -5   1 4.90600 1.98706   6
   2   5   1 15.2985 2.63001   2
   2  -5  -1 6.11425 1.96822   7
   3  -5   1 162.148 19.6980   2
  -3  -5  -1 208.817 19.5505   1
  -3  -5  -1 173.891 17.3416   3
  -3   5   1 167.923 19.6014   7
  -3  -5  -1 162.261 19.5837   7
   3   5  -1 193.046 18.0700   8
  -3   5   1 207.579 19.6802   1
   3   5  -1 191.083 19.5837   2
  -3  -5  -1 166.775 17.9099   6
   3  -5   1 156.184 18.1480   8
   3   5   1 162.172 17.9886   8
   3  -5  -1 168.294 19.6397   2
  -3  -5   1 189.067 19.6030   1
  -3  -5   1 147.913 17.3284   3
  -3   5  -1 201.650 19.8671   7
   3   5   1 179.687 19.6075   2
  -3  -5   1 181.702 17.9914   6
  -3   5  -1 180.782 19.5818   1
   3  -5  -1 217.835 18.3903   8
   3   5   1 158.489 21.7985   4
  -3   5  -1 152.007 19.5822   7
  -4   5   1 299.921 33.7591   3
  -4   5   1 402.284 38.3382   7
  -4   5   1 337.440 37.9050   1
  -4  -5  -1 341.809 33.7331   3
  -4   5   1 284.939 38.3245   7
  -4  -5  -1 371.292 34.8919   6
   4  -5   1 282.253 38.0972   2
   4  -5   1 403.289 35.4589   8
   4   5  -1 330.329 37.9645   2
   4   5  -1 325.734 42.2740   4
  -4   5  -1 371.177 38.4143   7
   4   5   1 404.362 37.9908   2
  -4   5  -1 380.095 37.9770   1
  -4   5  -1 391.567 38.2967   7
   4   5   1 344.470 42.1955   4
   4  -5  -1 366.947 38.1916   2
   4  -5  -1 335.218 35.3279   8
   4   5   1 305.686 35.0815   8
  -4  -5   1 370.823 34.9251   6
  -4   5  -1 338.027 33.9471   3
   5  -5   1 88.4554 10.0876   2
   5  -5   1 87.8934 9.59253   8
   5   5  -1 77.8739 9.18762   8
  -5   5   1 76.7103 10.0287   7
  -5  -5  -1 81.3158 10.1610   1
   5   5  -1 101.722 9.36411   8
  -5   5   1 110.529 9.22458   3
   5   5  -1 95.3758 12.1822   4
  -5   5   1 74.3336 10.2365   1
  -5  -5  -1 88.5321 9.03949   3
  -5   5   1 78.2703 9.09274   3
  -5  -5  -1 86.6552 9.35583   6
  -5   5   1 78.1668 9.37473   6
   5   5   1 83.1510 9.25247   8
   5  -5  -1 101.283 9.65956   8
  -5   5  -1 92.3848 10.3446   1
  -5   5  -1 89.5675 9.12377   3
  -5  -5   1 80.7960 9.36512   6
   5   5   1 102.806 9.30019   8
  -5  -5   1 107.070 9.07508   3
   5   5   1 77.9587 11.7671   4
   5  -5  -1 90.2699 10.0797   2
  -5   5  -1 101.381 9.39964   3
  -5  -5   1 83.7049 10.2308   1
  -5   5  -1 87.7074 10.0716   7
  -5   5  -1 88.7392 9.54169   6
  -6  -5  -1 46.5691 4.95229   6
  -6  -5  -1 35.9947 4.59547   3
   6   5  -1 40.7233 6.95826   4
   6  -5   1 42.1012 5.05524   8
  -6   5   1 44.3090 5.03215   6
  -6   5   1 43.0705 4.78900   3
  -6  -5  -1 38.7418 5.34606   1
  -6   5   1 36.7601 4.81856   3
  -6   5   1 28.2560 5.38858   1
   6   5  -1 41.8470 4.63841   8
  -6   5   1 41.7272 5.02112   7
   6   5  -1 40.1254 4.56218   8
  -6   5  -1 41.9226 4.78569   3
   6   5   1 31.9534 6.64657   4
  -6   5  -1 44.6881 5.62264   1
   6   5   1 49.8703 4.62161   8
   6   5   1 37.7816 4.59400   8
  -6   5  -1 49.6765 5.25074   6
  -6   5  -1 38.0685 4.94838   3
  -6  -5   1 49.7003 5.05455   6
  -6  -5   1 43.1985 4.60911   3
   6  -5  -1 35.2643 4.95111   8
  -6   5  -1 42.2736 5.01387   7
  -6  -5   1 44.2253 5.49878   1
   7  -5   1 160.431 16.1567   8
  -7  -5  -1 178.761 15.9633   6
   7   5  -1 160.911 20.2421   4
  -7  -5  -1 137.476 15.3063   3
  -7  -5  -1 119.890 17.1012   1
  -7   5   1 157.803 17.1763   7
   7   5  -1 161.865 15.7048   8
   7   5  -1 166.426 15.7491   8
  -7   5   1 130.846 17.3367   1
  -7   5   1 187.821 15.5794   3
   7   5   1 166.237 15.7785   8
  -7   5  -1 153.783 15.6498   3
  -7  -5   1 141.701 17.2784   1
  -7  -5   1 139.167 15.8690   6
  -7   5  -1 162.005 15.5134   3
   7  -5  -1 178.988 16.2508   8
  -7  -5   1 164.937 15.3488   3
   7   5   1 148.239 15.7019   8
  -7   5  -1 143.034 17.3780   1
  -7   5  -1 149.650 17.1686   7
  -8  -5  -1 2.34052 1.18257   3
  -8   5   1 0.16303 1.60907   1
  -8   5   1 3.74471 1.50947   3
   8   5  -1 2.69996 0.97024   8
  -8   5   1 2.35359 1.40622   3
   8   5  -1 2.06326 3.00374   4
  -8  -5  -1 5.93768 1.83254   1
   8  -5   1 0.02455 1.38467   8
  -8  -5  -1 2.30370 1.37074   6
   8   5  -1 2.75985 0.95585   8
  -8  -5   1 3.19441 1.75188   1
   8  -5  -1 4.88301 1.73486   8
  -8  -5   1 2.57090 1.24663   3
  -8   5  -1 3.69291 1.73878   3
   8   5   1 2.49237 1.06384   8
  -8  -5   1 6.08870 1.78630   6
  -8   5  -1 2.82065 1.77558   1
   8   5   1 3.97469 1.03596   8
  -8   5  -1 -0.0506 1.19103   3
   8   5   1 4.53127 3.15878   4
   9   5  -1 0.09057 3.04838   4
  -9  -5  -1 3.11486 1.62140   1
   9   5  -1 1.02786 0.80662   8
  -9  -5  -1 0.65503 1.12903   3
   9   5  -1 0.25460 0.84168   8
  -9   5   1 -1.1833 1.02388   3
  -9   5   1 3.00479 2.01600   1
   9  -5   1 0.67714 1.51291   8
  -9  -5  -1 -1.1641 1.00326   6
  -9   5   1 0.80298 1.37968   3
  -9   5  -1 -0.6281 1.21682   3
  -9  -5   1 -0.3049 1.14610   6
   9  -5  -1 0.25809 1.53041   8
  -9   5  -1 0.96326 1.73902   1
   9   5   1 0.68736 1.03382   8
  -9  -5   1 1.01102 1.16670   3
   9   5   1 0.70325 0.94053   8
   9   5   1 1.40183 2.97876   4
  -9   5  -1 1.65903 1.58184   3
  -9  -5   1 -0.2202 1.59027   1
 -10   5   1 7.88775 2.08791   3
  10  -5   1 8.24749 2.20822   8
 -10  -5  -1 8.25905 2.30921   1
  10   5  -1 5.30306 4.21575   4
 -10  -5  -1 8.57252 1.80712   3
  10   5  -1 9.86042 1.52163   8
  10   5  -1 8.77166 1.48132   8
 -10   5   1 11.0555 2.78430   1
 -10  -5   1 5.52060 1.66173   3
 -10  -5   1 4.93399 2.13780   1
 -10   5  -1 8.16824 2.67706   1
 -10  -5   1 9.00706 1.90015   6
 -10   5  -1 8.85136 2.34945   3
  10  -5  -1 5.49798 2.20843   8
  10   5   1 8.27114 1.54425   8
  10   5   1 11.9102 4.55904   4
  10   5   1 10.8196 1.59741   8
 -11   5   1 0.11647 2.19060   1
 -11  -5  -1 3.49114 1.89451   1
 -11  -5  -1 1.01132 1.23690   3
  11   5  -1 5.47571 3.83802   4
  11   5  -1 0.66771 1.07530   8
  11   5  -1 1.57583 1.06057   8
 -11   5   1 4.07514 1.81187   3
  11  -5   1 -0.5978 1.80622   8
 -11   5  -1 1.43128 1.70149   3
  11  -5  -1 1.18770 1.74078   8
 -11  -5   1 -0.8889 1.21194   3
  11   5   1 -4.5636 3.46308   4
 -11  -5   1 1.10169 1.30113   3
 -11  -5   1 1.11720 1.37372   6
 -11   5  -1 1.20545 2.23558   1
  11   5   1 0.45857 1.13478   8
 -11  -5   1 1.14122 1.77320   1
 -12   5   1 72.6289 8.64431   1
  12  -5   1 55.1533 7.74996   8
  12   5  -1 72.8239 7.19900   8
 -12   5   1 62.7523 7.38931   3
 -12  -5  -1 67.7768 7.13546   3
  12  -5  -1 55.0506 7.73904   8
 -12   5  -1 60.1578 7.59043   3
  12   5   1 67.4810 7.17583   8
 -12  -5   1 59.3152 7.07911   3
 -12  -5   1 71.5433 7.17238   3
 -12   5  -1 66.4140 8.54860   1
   0  -6  -1 1.48053 1.58328   2
   0  -6   1 2.23847 1.45986   2
   0  -6  -1 -0.8410 1.20203   7
   0  -6   1 3.04032 1.49748   7
   0  -6   1 0.76676 1.31013   7
   0   6   1 1.00967 1.45662   2
   0   6  -1 1.26593 1.67971   2
   0   6   1 -0.4164 1.05748   7
  -1  -6  -1 75.5161 8.19347   2
   1   6  -1 75.0510 8.28385   2
  -1   6   1 59.9479 8.04921   2
  -1  -6  -1 79.5651 8.19872   7
   1  -6   1 47.8022 7.77597   7
  -1   6   1 51.3803 7.93756   7
   1  -6   1 64.8970 8.10658   2
   1  -6   1 74.5668 8.16169   7
  -1   6  -1 60.3463 7.98053   7
   1  -6  -1 88.4272 8.40336   7
   1  -6  -1 68.1935 7.98061   7
  -1  -6   1 53.0115 7.97142   2
   1  -6  -1 58.5094 8.07351   2
  -1  -6   1 64.6385 8.08164   1
  -1  -6   1 65.2743 8.05566   7
   1   6   1 70.2178 8.10659   7
   1   6   1 82.5300 8.36009   2
  -1   6  -1 74.2691 8.33753   2
   2   6  -1 26.1454 4.20365   2
  -2   6   1 23.0194 3.81655   7
  -2   6   1 29.1649 4.17402   2
   2  -6   1 35.5934 4.50958   2
   2  -6   1 28.6125 3.78011   7
  -2  -6  -1 28.9790 4.10035   7
   2  -6   1 29.6364 3.93004   7
  -2   6   1 31.4190 4.40635   1
  -2  -6  -1 35.3168 4.03246   6
  -2  -6  -1 29.0275 4.08488   1
   2   6  -1 22.4074 3.94428   2
  -2  -6  -1 25.1860 3.97413   2
   2   6  -1 26.2543 3.77217   8
  -2  -6   1 23.2816 3.94728   2
   2  -6  -1 22.4290 3.73551   7
  -2   6  -1 24.3597 4.11721   1
  -2   6  -1 32.3721 4.05584   7
  -2   6  -1 19.0645 3.94136   2
   2  -6  -1 23.9689 3.79447   7
  -2  -6   1 30.0968 4.18300   1
   2   6   1 15.8099 3.73058   2
   2   6   1 29.4556 3.67147   8
  -2  -6   1 30.3884 4.18488   7
   2   6   1 30.2957 5.08808   4
   2  -6  -1 22.4819 3.94496   2
  -2  -6   1 38.7294 4.32163   6
   3  -6   1 15.0721 2.64246   2
   3  -6   1 13.5951 2.00844   7
  -3   6   1 10.5475 2.54980   1
  -3  -6  -1 13.3282 2.41189   7
  -3  -6  -1 13.8759 2.51079   1
  -3   6   1 11.7209 2.32127   7
  -3   6   1 15.1367 2.63438   2
   3   6  -1 10.1061 2.13170   8
  -3  -6  -1 9.62951 2.22075   6
   3   6  -1 12.9065 2.46409   2
   3  -6   1 13.1430 2.02033   7
   3   6  -1 11.0463 3.32730   4
   3  -6   1 12.4869 2.45269   8
  -3  -6   1 11.8815 2.29963   6
  -3   6  -1 12.7308 2.75023   1
   3   6   1 11.5330 2.14088   8
   3  -6  -1 9.83509 2.37439   2
   3  -6  -1 10.0975 1.87350   7
   3  -6  -1 11.9267 1.90761   7
   3   6   1 15.4602 2.68799   2
  -3   6  -1 10.1362 2.56516   7
   3   6   1 8.22415 3.06255   4
   3  -6  -1 9.03223 2.21739   8
  -3   6  -1 16.2633 3.03805   2
  -3  -6   1 8.83592 2.37205   1
  -3  -6   1 8.02597 1.88552   3
  -3   6  -1 12.6368 2.39345   7
   4   6  -1 7.14994 3.04490   4
  -4   6   1 9.52409 2.33947   1
   4  -6   1 11.2371 2.31550   8
   4   6  -1 5.68373 1.94756   2
  -4  -6  -1 9.42651 2.25628   1
   4  -6   1 7.32669 2.14174   2
  -4  -6  -1 11.1508 2.14637   6
  -4  -6  -1 7.55223 1.79666   3
  -4   6   1 5.87630 1.77514   3
  -4   6   1 9.37914 2.30142   7
  -4   6   1 7.83477 1.92188   7
   4   6  -1 6.64463 1.79346   8
  -4   6  -1 8.06059 2.06681   7
  -4   6  -1 6.29479 1.73073   7
   4   6   1 4.24792 2.79430   4
   4  -6  -1 5.47660 2.04764   8
  -4   6  -1 5.65218 2.22424   1
   4  -6  -1 10.9097 2.39207   2
  -4   6  -1 9.19725 2.12914   3
  -4  -6   1 6.49023 2.04998   6
   4   6   1 12.2810 2.23867   2
  -4  -6   1 7.15785 2.22918   1
   4   6   1 7.45550 1.78858   8
  -4  -6   1 8.10924 1.90962   3
  -5  -6  -1 21.3965 3.84345   1
  -5   6   1 25.3420 3.77662   7
  -5   6   1 20.9341 3.98972   1
   5   6  -1 29.1064 3.12137   2
  -5   6   1 29.6231 3.74864   3
   5   6  -1 21.7486 3.06259   2
   5  -6   1 25.7753 3.85515   8
   5   6  -1 24.2241 5.33667   4
  -5  -6  -1 30.0408 3.58771   3
   5   6  -1 21.6704 3.39783   8
   5  -6   1 24.4135 3.98288   2
  -5  -6  -1 28.7736 3.79946   6
  -5  -6   1 23.8864 3.40833   3
   5   6   1 28.5436 3.28829   2
   5  -6  -1 27.4662 3.91849   2
   5   6   1 27.6962 5.48208   4
  -5   6  -1 23.4817 3.68170   3
  -5  -6   1 28.0110 3.66090   3
  -5  -6   1 26.2766 4.13598   1
  -5  -6   1 31.7086 3.98068   6
  -5   6  -1 29.0487 3.74662   7
  -5   6  -1 26.3478 4.22948   1
   5  -6  -1 29.9942 4.13961   8
   5   6   1 29.3567 3.74128   8
   6  -6   1 51.7134 5.58516   2
   6   6  -1 40.8734 7.73722   4
  -6  -6  -1 44.8446 6.09134   1
   6   6  -1 45.7924 5.39479   8
  -6  -6  -1 51.9413 5.39896   3
  -6   6   1 37.6911 5.46662   3
   6  -6   1 53.5391 5.93751   8
  -6  -6  -1 40.4120 5.51985   6
  -6   6   1 53.0199 6.42589   1
  -6  -6   1 46.4790 5.70615   6
  -6  -6   1 47.1892 6.54279   1
   6   6   1 41.8712 5.42707   8
  -6   6  -1 44.3654 6.30886   1
   6  -6  -1 47.1733 5.91497   8
  -6  -6   1 53.5608 5.40830   3
   6  -6  -1 48.6343 5.60277   2
  -6   6  -1 46.0419 5.86937   3
   6   6   1 42.6984 7.61984   4
  -6  -6   1 45.9986 5.45258   3
  -7   6   1 20.7983 3.80761   1
  -7  -6  -1 21.3266 3.67988   1
   7   6  -1 22.4865 5.33600   4
  -7  -6  -1 25.8577 3.54596   6
  -7  -6  -1 22.1602 3.21566   3
  -7   6   1 22.2496 3.42343   3
   7   6  -1 23.9289 3.30513   8
   7  -6   1 19.5005 3.64876   8
  -7  -6   1 25.5859 3.42155   3
   7   6   1 27.1219 3.36088   8
  -7  -6   1 25.4236 3.28859   3
  -7  -6   1 20.2324 3.91141   1
  -7  -6   1 25.1624 3.62487   6
   7  -6  -1 16.9662 3.53438   8
  -7   6  -1 21.6559 3.96065   1
   7   6   1 19.2877 5.14953   4
  -7   6  -1 25.0438 3.70326   3
  -8   6   1 2.62111 1.57241   3
   8   6  -1 1.27982 1.44658   8
  -8  -6  -1 7.52347 2.21425   1
   8   6  -1 1.76569 3.35975   4
  -8   6   1 6.96916 2.52757   1
   8  -6   1 7.24592 2.15692   8
  -8  -6  -1 5.56117 1.87050   6
  -8  -6  -1 6.26527 1.76906   3
  -8  -6   1 6.99614 2.25911   1
   8   6   1 4.59949 3.57590   4
  -8  -6   1 6.29511 1.79584   3
  -8   6  -1 6.65725 2.17661   3
  -8  -6   1 10.0708 2.09316   6
  -8  -6   1 6.08295 1.70792   3
   8   6   1 6.66608 1.73015   8
   8  -6  -1 6.36636 2.20128   8
  -8   6  -1 12.0972 2.68828   1
   9  -6   1 13.5596 3.25602   8
  -9  -6  -1 23.0738 3.07260   3
  -9   6   1 16.0562 3.69482   1
  -9  -6  -1 17.0643 3.02680   6
  -9  -6  -1 16.2001 3.37074   1
   9   6  -1 19.2130 2.96209   8
   9   6  -1 24.5635 5.90877   4
  -9   6   1 21.0641 3.27538   3
  -9   6  -1 15.6894 3.26614   3
  -9  -6   1 26.8837 3.89930   1
   9   6   1 19.5836 5.63021   4
   9   6   1 21.3459 3.02397   8
  -9  -6   1 21.9486 3.07200   3
  -9  -6   1 20.2793 3.09963   6
  -9   6  -1 12.8737 3.51390   1
   9  -6  -1 20.1770 3.52389   8
  -9  -6   1 20.4614 3.12569   3
 -10  -6  -1 1.34935 1.48330   3
 -10  -6  -1 0.99189 1.90721   1
  10  -6   1 2.28305 1.96592   8
  10   6  -1 -0.7223 3.86618   4
  10   6  -1 1.56686 1.40213   8
 -10   6   1 4.19912 2.56237   1
 -10   6   1 4.22899 2.05424   3
  10   6   1 1.09647 1.53406   8
 -10  -6   1 0.86801 1.37951   3
 -10  -6   1 1.17028 2.00230   1
  10   6   1 -4.5089 3.59121   4
 -10   6  -1 4.14649 2.50505   1
  10  -6  -1 -0.8034 1.66789   8
 -10   6  -1 3.26354 2.14737   3
 -10  -6   1 3.37728 1.73927   6
 -10  -6   1 1.22082 1.53353   3
 -11   6   1 156.443 17.0044   1
 -11  -6  -1 139.563 16.5065   1
 -11  -6  -1 173.949 14.8118   3
 -11   6   1 115.905 14.7863   3
  11   6  -1 147.427 20.1846   4
  11  -6   1 160.357 15.7975   8
  11   6  -1 133.769 15.1049   8
 -11   6  -1 132.628 16.8160   1
 -11  -6   1 157.196 14.7246   3
 -11  -6   1 153.056 14.8103   3
  11  -6  -1 157.387 15.8445   8
 -11  -6   1 132.575 16.4519   1
  11   6   1 117.980 19.8358   4
 -11   6  -1 159.237 15.2271   3
  11   6   1 151.854 15.2157   8
 -11  -6   1 131.704 15.0056   6
 -12  -6  -1 18.8111 3.12065   3
  12  -6   1 18.0696 3.78288   8
 -12  -6  -1 13.4406 2.79277   3
  12   6  -1 19.0794 3.02505   8
 -12   6   1 18.5155 3.38763   3
 -12   6   1 18.5800 4.04788   1
 -12  -6   1 15.1331 2.83833   3
 -12  -6   1 18.8967 2.98542   3
  12  -6  -1 22.9193 4.09348   8
 -12   6  -1 16.5735 3.23561   3
 -12   6  -1 16.5445 4.08335   1
  12   6   1 17.1711 3.12295   8
   0  -7  -1 607.682 63.4192   1
   0  -7   1 557.141 64.2360   7
   0  -7  -1 583.098 64.1463   7
   0   7   1 626.266 64.2646   7
   0  -7   1 680.198 64.5171   7
   0  -7   1 547.443 63.8716   2
   0  -7   1 560.986 63.2811   1
   0   7  -1 536.374 64.0388   2
  -1   7   1 147.814 18.1122   7
  -1   7   1 160.802 18.0151   1
  -1  -7  -1 161.601 18.2008   2
   1   7  -1 183.865 18.4135   2
   1  -7   1 147.458 18.1098   2
   1  -7   1 131.264 17.8931   7
  -1   7   1 131.633 18.0109   2
  -1  -7  -1 197.511 18.2413   1
   1  -7   1 192.479 18.3321   7
  -1  -7  -1 160.808 18.1238   7
   1  -7  -1 140.369 18.1298   2
  -1  -7   1 170.194 18.1938   2
   1  -7  -1 178.528 18.1148   7
   1   7   1 143.038 18.1295   2
  -1  -7   1 153.614 18.0004   1
  -1  -7   1 159.817 18.1845   7
  -1   7  -1 149.114 18.2167   2
  -1   7  -1 142.869 18.0492   7
  -1   7  -1 191.303 18.2389   1
   1  -7  -1 167.908 18.2752   7
  -2  -7  -1 109.109 12.0446   2
   2   7  -1 94.9460 12.1024   2
  -2   7   1 85.4560 11.8525   7
  -2  -7  -1 127.535 12.2533   7
   2  -7   1 116.382 11.9669   7
   2   7  -1 74.6137 10.7520   8
  -2  -7  -1 101.580 10.9781   6
   2  -7   1 95.6783 11.7054   7
   2   7  -1 113.213 12.1171   2
   2  -7   1 77.9209 11.8356   2
  -2  -7  -1 114.513 12.0167   1
  -2   7   1 108.621 12.0368   1
   2  -7  -1 107.416 11.8895   7
  -2   7  -1 115.486 12.0640   7
  -2  -7   1 101.741 11.9615   1
   2  -7  -1 93.2908 11.9122   2
   2   7   1 109.276 10.9606   8
  -2   7  -1 91.8801 11.9295   1
  -2  -7   1 82.8655 11.8827   2
   2   7   1 97.9031 13.4741   4
   2   7   1 120.435 12.2600   2
  -2  -7   1 99.4330 10.9941   6
  -2  -7   1 107.794 12.0237   7
   2  -7  -1 112.721 11.9553   7
  -3  -7  -1 278.685 29.8099   1
   3  -7   1 267.792 29.8684   7
  -3  -7  -1 302.038 27.6008   6
   3   7  -1 216.185 33.2668   4
   3   7  -1 277.087 30.0553   2
  -3   7   1 293.755 29.9646   1
  -3  -7  -1 282.472 30.1562   7
   3  -7   1 251.970 27.9144   8
   3   7  -1 233.285 27.6243   8
   3  -7   1 226.467 30.0004   2
  -3   7   1 284.463 30.1910   7
  -3  -7   1 272.689 26.6780   3
   3  -7  -1 277.016 29.8009   7
  -3   7  -1 271.025 29.9694   1
  -3   7  -1 296.149 30.3974   2
   3   7   1 337.863 33.6192   4
  -3  -7   1 294.293 29.9465   1
   3   7   1 283.462 30.1496   2
   3  -7  -1 292.955 27.9375   8
   3   7   1 268.870 27.6292   8
   3  -7  -1 214.590 29.9399   2
  -3  -7   1 259.574 30.1684   7
  -4  -7  -1 567.125 54.2265   3
   4   7  -1 592.450 56.5105   8
   4   7  -1 565.619 61.0571   2
  -4   7   1 600.964 60.8429   1
  -4  -7  -1 597.648 60.6599   1
   4  -7   1 530.668 56.6726   8
   4  -7   1 593.196 61.3740   2
  -4   7   1 539.163 54.2826   3
  -4   7  -1 533.801 61.7037   7
   4  -7  -1 450.759 61.0981   2
   4  -7  -1 558.866 56.6525   8
  -4  -7   1 487.447 55.9131   6
   4   7   1 642.596 61.1671   2
  -4   7  -1 474.572 60.6613   1
  -4  -7   1 603.932 60.7928   1
  -4  -7   1 659.580 54.3895   3
   4   7   1 504.489 67.3198   4
   4   7   1 607.289 61.1967   2
  -5   7   1 8.54757 2.59332   1
   5   7  -1 6.26853 3.27401   4
  -5  -7  -1 9.41125 2.26097   6
   5   7  -1 3.77419 1.71471   8
   5  -7   1 6.10997 2.16067   8
   5  -7   1 7.85627 2.35429   2
  -5   7   1 4.02824 1.70505   3
   5   7  -1 9.15290 2.03225   2
  -5  -7  -1 9.67401 2.43704   1
  -5  -7  -1 4.00397 1.83011   3
  -5  -7   1 11.3279 2.71076   1
  -5   7  -1 7.75408 2.24237   3
   5  -7  -1 7.01198 2.22056   2
   5   7   1 6.84554 1.79239   2
   5   7   1 7.55042 3.33175   4
   5  -7  -1 11.7551 2.53319   8
  -5   7  -1 7.66661 2.60823   1
   5   7   1 7.49402 1.84780   8
  -5  -7   1 8.80781 2.08652   3
  -5  -7   1 8.79879 2.27260   6
  -6  -7  -1 8.07558 2.03007   3
  -6  -7  -1 11.7456 2.54166   1
   6  -7   1 9.73436 2.33944   2
  -6  -7  -1 8.14795 2.33248   6
  -6   7   1 5.22741 2.39387   1
   6   7  -1 10.7268 3.62331   4
   6  -7   1 7.82203 2.32308   8
  -6   7   1 7.10747 2.02180   3
   6   7  -1 9.77963 2.15580   8
  -6  -7   1 4.45439 2.11878   6
  -6  -7   1 7.76723 2.36296   1
  -6  -7   1 7.92065 2.15604   3
   6   7   1 7.02206 1.92639   8
  -6   7  -1 6.79542 2.69360   1
  -6   7  -1 10.2932 2.48809   3
   6  -7  -1 5.18736 2.15530   8
   6   7   1 7.57541 3.43881   4
   6  -7  -1 8.87799 2.24224   2
  -7   7   1 71.7678 9.14754   1
  -7  -7  -1 84.2171 8.02898   3
  -7   7   1 84.1305 8.24348   3
   7   7  -1 73.2751 8.08907   8
   7  -7   1 56.4684 8.32312   8
  -7  -7  -1 77.0002 8.27185   6
  -7  -7  -1 73.8078 8.88519   1
   7   7  -1 82.2117 11.2151   4
   7   7   1 58.5578 10.8697   4
  -7  -7   1 53.8002 8.00662   6
  -7  -7   1 84.0758 9.13774   1
  -7   7  -1 75.8192 8.26558   3
   7  -7  -1 59.4355 8.47009   8
  -7  -7   1 73.6207 8.00260   3
   7   7   1 71.0561 8.11622   8
  -7   7  -1 73.0511 9.25415   1
  -8   7   1 17.7810 3.83127   1
  -8  -7  -1 14.0360 2.76971   3
   8   7  -1 25.9157 5.75853   4
  -8  -7  -1 18.0570 3.21086   6
  -8  -7  -1 16.5547 3.45553   1
   8   7  -1 15.4484 2.87271   8
   8  -7   1 22.7390 3.65919   8
  -8   7   1 14.5857 3.00005   3
  -8   7  -1 18.7614 3.37178   3
  -8   7  -1 16.8685 3.77986   1
  -8  -7   1 17.3794 3.12639   3
  -8  -7   1 15.4209 3.49730   1
   8   7   1 19.3949 5.41441   4
   8  -7  -1 18.8159 3.62302   8
  -8  -7   1 16.9687 3.06143   6
   8   7   1 14.6893 2.93993   8
   9   7  -1 5.32690 4.58361   4
  -9   7   1 3.88121 2.07349   3
  -9   7   1 6.28823 2.78230   1
   9  -7   1 5.90830 2.28039   8
  -9  -7  -1 6.09626 2.01276   6
   9   7  -1 3.55721 1.78788   8
  -9  -7  -1 3.83203 1.75647   3
  -9  -7  -1 5.96036 2.18718   1
  -9   7  -1 1.81582 2.42555   1
  -9  -7   1 3.92517 2.18959   1
   9   7   1 6.46571 4.68993   4
   9  -7  -1 5.22883 2.52520   8
  -9  -7   1 5.63356 1.99156   6
   9   7   1 2.07050 1.79886   8
  -9   7  -1 3.18645 2.25326   3
  -9  -7   1 4.99328 1.95844   3
 -10   7   1 7.26573 2.36200   3
  10   7  -1 12.4760 2.53604   8
  10  -7   1 6.74138 2.70225   8
 -10  -7  -1 3.10109 2.52557   1
 -10   7   1 7.25669 3.00688   1
  10   7  -1 8.41422 5.08790   4
 -10  -7  -1 8.07155 2.20997   3
 -10  -7   1 10.1416 3.03900   1
 -10   7  -1 6.42365 2.96533   1
 -10  -7   1 7.74206 2.30356   6
  10   7   1 8.24861 2.30306   8
  10  -7  -1 12.2419 3.16903   8
 -10   7  -1 8.94181 2.46236   3
 -10  -7   1 9.83757 2.47718   3
  10   7   1 4.94292 3.47027   4
 -11   7   1 -0.7019 2.22875   1
  11  -7   1 -0.9079 2.08034   8
 -11   7   1 -1.0238 1.74237   3
 -11  -7  -1 -1.2534 1.54619   3
 -11  -7  -1 3.18310 2.32749   1
  11   7  -1 1.74583 1.76861   8
 -11  -7   1 2.86862 1.83759   6
 -11  -7   1 0.27529 2.28167   1
  11   7   1 3.63289 1.83052   8
 -11   7  -1 -1.3725 1.69407   3
 -11  -7   1 0.10733 1.68161   3
  11  -7  -1 2.24826 2.33119   8
 -11   7  -1 0.05805 2.34895   1
 -12  -7  -1 24.7604 4.40264   1
  12  -7   1 15.9873 4.09434   8
 -12   7   1 17.3127 3.68408   3
  12   7  -1 14.9985 3.23518   8
 -12   7   1 18.7978 4.57142   1
 -12  -7  -1 16.6928 3.32929   3
  12  -7  -1 25.2100 4.53936   8
  12   7   1 22.4932 3.58237   8
 -12  -7   1 18.4007 3.34484   3
 -12   7  -1 21.5794 4.47317   1
 -12   7  -1 18.6080 3.69376   3
 -12  -7   1 29.9111 4.39701   1
   0   8  -1 2.75050 1.85365   1
   0   8   1 3.03925 2.09390   2
   0  -8   1 -2.5076 1.50334   1
   0   8   1 0.14919 1.51657   1
   0   8   1 1.89688 1.29366   7
   0  -8   1 -0.6075 1.51832   2
   0   8  -1 1.36425 1.94116   2
   0  -8   1 1.77724 1.82629   7
   0  -8  -1 0.38590 1.69999   2
   0  -8  -1 0.62392 1.63227   1
   1  -8   1 125.535 15.4413   2
  -1  -8  -1 127.146 15.4739   2
  -1   8   1 108.364 15.3100   2
   1  -8   1 161.314 15.6290   1
   1  -8   1 153.787 15.5727   7
  -1   8   1 130.297 15.3816   7
  -1  -8  -1 140.506 15.4546   7
  -1   8   1 127.426 15.2703   1
   1   8  -1 124.416 15.5074   2
  -1   8  -1 122.068 15.3234   1
  -1  -8   1 133.900 15.4457   2
  -1   8  -1 165.710 15.9245   2
  -1  -8   1 116.212 15.2139   1
   1  -8  -1 104.569 15.3341   2
  -1   8  -1 156.504 15.6117   7
  -1  -8   1 120.385 15.3577   7
   1  -8  -1 155.078 15.7022   7
   2  -8   1 15.2599 2.87399   7
  -2  -8  -1 14.9093 3.29865   1
   2  -8   1 18.2941 3.55377   2
  -2  -8  -1 18.4688 3.13596   6
  -2  -8  -1 17.3892 3.34194   7
   2   8  -1 10.8827 2.54031   8
  -2   8   1 12.3986 3.05347   2
  -2   8   1 8.17761 2.88724   1
   2   8  -1 12.0264 3.23962   2
  -2   8   1 15.2775 3.04376   7
   2   8  -1 10.6329 2.97823   2
  -2  -8  -1 14.6001 3.23357   2
  -2   8  -1 18.8025 3.52364   1
   2   8   1 13.2106 3.85358   4
   2  -8  -1 12.8775 3.16326   2
  -2   8  -1 13.6055 3.07086   7
  -2   8  -1 8.55658 3.00183   2
   2   8   1 14.0029 2.75954   8
  -2  -8   1 14.3872 2.81001   6
  -2  -8   1 13.8867 3.24184   1
   2  -8  -1 16.6116 3.17650   7
  -2  -8   1 18.8969 3.46907   7
  -2  -8   1 17.0217 3.32763   2
   2   8   1 12.4670 3.11585   2
  -3  -8  -1 3.81877 1.95645   7
  -3  -8  -1 3.10320 2.11492   1
  -3  -8  -1 4.19957 1.61277   3
  -3  -8  -1 9.69178 2.42854   6
   3   8  -1 3.68880 3.17904   4
  -3   8   1 5.75867 2.33478   1
   3   8  -1 5.97585 1.81160   8
   3  -8   1 6.32898 2.09136   8
   3  -8   1 3.24102 1.98365   2
   3   8  -1 6.29379 2.31480   2
   3  -8  -1 8.57193 2.38309   8
   3   8   1 6.98705 2.35577   2
  -3  -8   1 9.68702 2.24849   7
   3   8   1 9.42630 3.35280   4
   3   8   1 2.98082 1.63817   8
  -3   8  -1 7.43720 2.33508   2
   3  -8  -1 7.85737 2.36921   2
  -3   8  -1 -0.1911 1.98456   1
  -3  -8   1 6.19891 2.45341   1
  -3  -8   1 2.65801 1.74907   6
  -3  -8   1 4.16425 1.69850   3
  -4   8   1 10.4963 3.03207   1
   4   8  -1 14.6206 2.88012   2
   4   8  -1 15.9016 2.88444   8
  -4  -8  -1 10.0198 2.44252   3
  -4  -8  -1 14.8597 2.94851   6
   4  -8   1 13.2349 3.04279   2
  -4  -8  -1 17.6056 3.35498   1
   4  -8   1 16.6338 3.37592   8
   4   8  -1 15.9380 4.55301   4
   4   8   1 13.4493 3.81649   4
  -4   8  -1 12.4870 3.30413   1
   4  -8  -1 15.9438 3.11070   8
   4  -8  -1 9.72974 2.85066   2
  -4  -8   1 9.67710 3.02298   1
   4   8   1 17.2699 3.28212   2
  -4  -8   1 12.8394 2.54512   3
  -4  -8   1 11.1854 2.72753   6
   4   8   1 11.9197 2.76511   2
   4   8   1 14.9273 2.72033   8
   5  -8   1 11.4506 3.02271   8
  -5  -8  -1 15.9388 3.23251   1
   5   8  -1 11.4737 4.24009   4
   5   8  -1 15.3165 2.85367   2
  -5  -8  -1 11.9162 2.74820   6
   5   8  -1 10.5805 2.60864   8
  -5  -8  -1 11.7552 2.41884   3
   5  -8   1 9.07881 2.75970   2
  -5   8   1 24.8027 3.92827   1
   5   8   1 12.6865 4.25771   4
  -5  -8   1 13.7676 2.79537   3
   5   8   1 13.3197 2.59649   2
   5   8   1 12.5657 2.54939   8
   5  -8  -1 15.1872 3.21764   8
  -5  -8   1 9.87008 2.66525   6
  -5  -8   1 9.05593 2.88320   1
  -5   8  -1 20.6594 3.87209   1
   5  -8  -1 13.9676 3.06517   2
  -6  -8  -1 50.7534 6.44643   1
   6  -8   1 44.8402 6.32374   2
  -6  -8  -1 50.2735 6.10682   6
  -6  -8  -1 35.7663 5.41056   3
   6  -8   1 55.4038 6.80193   8
   6   8  -1 52.5767 8.56922   4
  -6   8   1 40.2474 6.48948   1
  -6   8   1 42.4294 5.84467   3
   6   8  -1 42.5780 5.78378   8
  -6   8  -1 47.0995 6.85841   1
   6   8   1 44.1967 7.94652   4
  -6  -8   1 47.5427 6.71583   1
   6   8   1 37.4728 5.55899   8
  -6   8  -1 40.3439 5.89487   3
   6  -8  -1 48.7883 6.47217   8
  -6  -8   1 41.9271 5.73337   3
  -6  -8   1 48.4733 6.05156   6
   6  -8  -1 38.6767 6.05815   2
   7  -8   1 10.6254 1.98985   2
  -7   8   1 8.72522 2.38856   3
  -7  -8  -1 4.37227 2.50526   1
  -7   8   1 11.8779 3.16957   1
   7   8  -1 10.7613 4.58408   4
   7   8  -1 8.67507 2.45143   8
  -7  -8  -1 8.24945 2.29800   6
  -7  -8  -1 6.18879 2.17660   3
   7  -8   1 2.56339 2.40722   8
  -7  -8   1 11.4768 2.54752   6
  -7  -8   1 5.43543 2.76689   1
   7  -8  -1 7.72740 2.64339   8
  -7   8  -1 7.94151 2.65970   3
   7  -8  -1 9.79358 1.89712   2
  -7  -8   1 14.0026 2.65354   3
   7   8   1 4.54318 1.98862   8
   7   8   1 7.48690 4.25556   4
  -7   8  -1 8.13250 3.08420   1
  -8  -8  -1 12.8926 2.97488   6
  -8   8   1 11.1482 2.89173   3
  -8   8   1 12.5141 3.58147   1
   8   8  -1 12.3513 5.47267   4
   8  -8   1 12.7063 3.26384   8
  -8  -8  -1 16.8258 3.51095   1
   8   8  -1 12.5816 2.94360   8
  -8  -8  -1 12.5058 2.70400   3
  -8  -8   1 15.7697 3.15241   6
  -8   8  -1 16.4088 3.86484   1
  -8  -8   1 13.2254 2.86231   3
   8   8   1 11.9729 2.72756   8
   8  -8  -1 17.3619 3.58659   8
   8   8   1 10.1805 4.86374   4
  -8   8  -1 14.0962 3.19092   3
  -8  -8   1 14.4276 3.63280   1
  -9   8   1 28.5650 5.19765   1
  -9  -8  -1 20.1476 3.81171   6
   9   8  -1 27.6805 4.10157   8
   9  -8   1 15.8606 4.27278   8
  -9  -8  -1 23.3973 3.80064   3
   9   8  -1 19.2444 6.38652   4
  -9  -8  -1 24.4389 4.57917   1
  -9   8   1 19.7488 3.79337   3
  -9   8  -1 27.3890 4.32416   3
  -9  -8   1 30.8867 4.87497   1
   9   8   1 21.9925 3.89261   8
  -9   8  -1 25.8589 4.98962   1
  -9  -8   1 23.5920 4.10412   6
   9  -8  -1 33.0288 5.16350   8
  -9  -8   1 24.2145 3.95780   3
   9   8   1 20.9204 6.51429   4
 -10  -8  -1 15.1702 3.69511   1
  10   8  -1 14.0564 5.68384   4
 -10  -8  -1 17.0960 3.27582   3
 -10   8   1 14.7417 3.34203   3
  10  -8   1 9.96655 3.58412   8
  10   8  -1 15.5108 3.23549   8
 -10   8   1 16.1776 4.11528   1
 -10  -8   1 14.0107 3.68107   1
 -10  -8   1 19.3100 3.37645   3
  10   8   1 18.2277 3.29303   8
  10  -8  -1 10.8616 3.49512   8
  10   8   1 17.4666 6.10948   4
 -10   8  -1 15.5748 3.55463   3
 -10  -8   1 15.3119 3.18700   6
 -10   8  -1 15.4003 4.02026   1
 -11   8   1 31.6659 5.09024   3
 -11   8   1 27.7909 5.67200   1
  11   8  -1 57.0595 5.67854   8
 -11  -8  -1 29.0240 5.53105   1
  11  -8   1 43.3620 6.32883   8
 -11  -8  -1 31.8419 4.96609   3
 -11   8  -1 31.3402 5.07628   3
 -11  -8   1 34.2012 5.50460   1
 -11  -8   1 30.5215 4.75430   3
 -11   8  -1 33.5196 5.92776   1
  11  -8  -1 23.0876 5.14441   8
 -11  -8   1 29.5928 4.84992   6
  11   8   1 31.9351 4.97487   8
   0  -9   1 201.406 25.4587   2
   0   9  -1 232.706 25.7822   2
   0  -9   1 272.166 25.9849   7
   0  -9  -1 192.791 25.4942   2
   0   9  -1 208.805 25.3164   1
   0   9   1 224.149 25.2664   1
   0   9   1 260.357 25.6928   7
   0  -9   1 189.380 25.1133   1
   0  -9  -1 265.808 25.6670   1
   1  -9   1 282.393 29.0548   7
  -1   9   1 241.354 28.6075   1
  -1   9   1 271.329 29.0332   7
   1  -9   1 223.274 28.5873   1
   1  -9   1 291.591 29.1898   2
   1   9  -1 225.025 28.8964   2
  -1   9   1 275.327 29.1469   2
  -1  -9  -1 241.752 28.6613   1
  -1  -9  -1 297.181 29.2468   2
  -1  -9   1 285.738 28.7426   1
  -1  -9   1 299.443 29.0711   2
   1  -9  -1 229.117 28.8608   2
  -1   9  -1 205.504 28.8794   2
   1  -9  -1 290.628 29.0328   1
   1   9   1 312.479 29.3485   2
   1  -9  -1 232.976 28.9516   7
  -1   9  -1 208.029 28.7992   7
   2   9  -1 106.079 12.9357   2
   2   9  -1 120.203 12.1280   8
  -2   9   1 94.1969 12.7946   2
  -2   9   1 108.990 12.9286   1
   2  -9   1 107.432 13.0308   2
  -2  -9  -1 107.404 12.9409   1
   2   9  -1 105.974 13.1278   2
   2  -9  -1 107.698 12.9537   2
  -2   9  -1 99.3356 12.9774   2
   2   9   1 113.752 14.7662   4
   2   9   1 115.286 13.1853   2
  -2  -9   1 115.777 12.9696   1
  -2   9  -1 93.3229 12.7841   1
  -3  -9  -1 126.220 14.0250   7
   3  -9   1 137.146 14.2330   2
   3   9  -1 125.467 12.8033   8
   3   9  -1 141.680 14.1701   2
  -3  -9  -1 142.660 13.1092   6
   3   9  -1 143.085 16.5457   4
   3   9  -1 112.946 13.7607   2
  -3  -9  -1 97.1148 13.6740   1
  -3   9   1 100.222 13.8217   1
  -3  -9   1 131.944 12.8749   6
   3   9   1 83.3964 15.2250   4
   3  -9  -1 143.315 14.3127   2
  -3   9  -1 95.6242 13.7903   1
  -3  -9   1 84.5032 13.5929   1
   3   9   1 106.884 13.8223   2
   3   9   1 125.203 12.7348   8
  -4  -9  -1 26.9723 4.54580   1
  -4   9   1 19.2792 4.35464   1
  -4  -9  -1 22.3682 4.05398   6
   4  -9   1 23.1785 4.31267   8
   4   9  -1 19.6879 5.07880   4
   4   9  -1 20.7599 3.93369   2
   4   9  -1 20.9013 3.77894   8
   4  -9   1 20.1960 4.18710   2
   4   9   1 31.1245 4.62578   2
   4  -9  -1 21.5003 3.94692   8
  -4  -9   1 26.6038 4.05930   6
  -4   9  -1 20.1763 4.40022   1
  -4  -9   1 22.8327 4.37626   1
   4   9   1 17.8383 3.83760   2
   4   9   1 21.7823 5.19182   4
   4  -9  -1 23.9565 4.34911   2
   4   9   1 22.7860 3.77599   8
   5   9  -1 10.4933 3.63733   4
   5   9  -1 4.24917 2.12100   8
  -5  -9  -1 5.47375 2.13334   3
   5   9  -1 4.24698 2.08162   2
  -5  -9  -1 8.93274 2.68751   6
  -5   9   1 3.29649 2.58290   1
   5  -9   1 4.85723 2.35792   8
  -5  -9  -1 8.87269 2.79259   1
   5  -9   1 6.34280 2.53095   2
   5  -9  -1 6.17639 2.61467   8
  -5  -9   1 9.58195 2.87050   1
   5   9   1 10.0120 3.71597   4
   5   9   1 8.29964 2.30278   2
   5  -9  -1 8.19747 2.62341   2
   5   9   1 4.26652 2.08388   8
  -5  -9   1 6.91915 2.41215   3
  -5  -9   1 7.03886 2.48178   6
  -5   9  -1 2.04333 2.50972   1
   6   9  -1 226.509 24.1534   2
   6   9  -1 266.518 23.2695   8
   6  -9   1 207.402 23.4276   8
  -6  -9  -1 194.718 22.7738   6
   6  -9   1 189.749 24.7462   2
  -6  -9  -1 250.642 22.3554   3
   6   9  -1 179.868 27.8212   4
  -6  -9  -1 262.072 25.0961   1
  -6   9   1 210.862 25.0185   1
   6   9   1 200.707 22.8334   8
  -6   9  -1 212.769 25.0448   1
  -6  -9   1 201.795 22.0805   3
   6  -9  -1 215.826 24.8359   2
  -6  -9   1 270.031 23.0894   6
   6   9   1 202.922 27.8813   4
   6   9   1 249.872 24.2707   2
   6  -9  -1 201.447 23.2610   8
  -6  -9   1 202.786 24.8598   1
   7   9  -1 87.6474 10.6042   8
  -7  -9  -1 98.8175 10.7357   6
   7  -9   1 103.156 11.0691   2
  -7  -9  -1 79.4132 11.3900   1
  -7  -9  -1 102.901 10.4372   3
   7   9  -1 82.0571 13.2902   4
  -7   9   1 102.677 11.9765   1
   7  -9   1 96.1954 11.2367   8
  -7   9  -1 92.0403 11.8265   1
  -7  -9   1 81.5059 10.4796   6
   7  -9  -1 98.9734 11.1424   2
   7   9   1 88.4464 10.5196   8
  -7  -9   1 95.9036 10.3007   3
  -7  -9   1 83.7328 11.5994   1
   7   9   1 67.0525 13.3389   4
   7  -9  -1 122.450 11.5424   8
   8   9  -1 4.73145 3.70301   4
  -8  -9  -1 -0.0375 1.76448   3
  -8   9   1 -0.3448 2.26047   1
  -8  -9  -1 1.65165 2.27675   1
   8  -9   1 3.24198 2.90027   8
   8   9  -1 1.57782 2.16605   8
  -8  -9  -1 -0.5954 2.01975   6
   8  -9  -1 2.64609 2.57064   8
  -8  -9   1 4.49976 2.29508   6
  -8   9  -1 5.81630 2.92807   1
   8   9   1 2.83699 3.75032   4
   8   9   1 5.36345 2.20760   8
  -8  -9   1 2.97827 2.48069   1
  -8  -9   1 0.85965 1.99196   3
  -9  -9  -1 67.9502 8.96246   1
  -9  -9  -1 68.6063 7.87806   3
   9  -9   1 61.0754 8.86959   8
   9   9  -1 82.3271 12.4959   4
   9   9  -1 65.0523 8.24358   8
  -9  -9  -1 66.9161 8.11216   6
  -9   9   1 58.3513 9.21257   1
  -9  -9   1 72.9078 7.97872   3
   9   9   1 45.8658 10.4871   4
  -9  -9   1 60.4326 7.96750   6
   9   9   1 54.8225 8.00253   8
   9  -9  -1 77.4403 8.94945   8
  -9   9  -1 57.0566 9.21171   1
  -9  -9   1 71.9277 9.05196   1
  10   9  -1 63.2257 8.39906   8
  10  -9   1 82.5575 9.82803   8
 -10  -9  -1 56.9053 9.01083   1
 -10  -9  -1 80.3662 8.44762   3
 -10   9   1 54.6613 9.37128   1
 -10   9  -1 63.7195 9.71676   1
 -10  -9   1 65.0810 8.07868   3
 -10  -9   1 81.5863 9.42624   1
 -10  -9   1 69.0698 8.38697   6
  10   9   1 65.5781 8.27112   8
  10  -9  -1 62.6383 9.02532   8
 -11  -9  -1 19.4258 4.23705   1
 -11  -9  -1 12.0756 3.08340   3
  11   9  -1 11.5849 3.22618   8
  11  -9   1 9.57888 4.04685   8
 -11   9   1 17.8457 4.37222   1
 -11  -9   1 11.8006 3.21155   6
 -11  -9   1 13.3627 3.32175   3
  11  -9  -1 10.1588 3.57354   8
 -11  -9   1 13.6174 3.90411   1
  11   9   1 16.6696 3.46765   8
 -11   9  -1 12.2227 4.14542   1
   0 -10  -1 1.66703 2.55024   2
   0 -10   1 0.68866 2.27232   1
   0 -10  -1 5.20704 2.37018   1
   0 -10   1 2.21131 2.27476   2
   0 -10  -1 1.66908 2.24634   7
   0  10  -1 -0.4222 2.03644   2
   0 -10   1 0.48407 2.34833   7
   0  10   1 -0.0296 2.01879   2
   1  10  -1 69.0655 10.0595   2
  -1  10   1 95.6830 10.2320   7
  -1  10   1 92.2157 10.4282   2
  -1  10   1 53.9968 9.78848   1
   1 -10   1 74.9808 10.2156   2
  -1 -10  -1 73.5426 9.91191   1
  -1 -10  -1 66.9597 9.94462   2
  -1  10  -1 76.6740 10.3038   2
  -1  10  -1 66.2291 9.98505   1
  -1  10  -1 78.4080 9.97491   7
  -1 -10   1 72.8096 10.0370   2
  -1 -10   1 95.7720 10.2915   1
   1  10   1 101.530 10.6099   2
   1 -10  -1 81.7557 10.1133   2
   2  10  -1 -0.2668 2.03099   2
   2 -10   1 -0.0465 2.00058   2
  -2 -10  -1 0.34850 2.29663   1
  -2  10   1 -0.2742 2.31472   1
   2  10  -1 3.91166 2.51847   2
  -2  10   1 -0.6255 2.33740   2
   2  10   1 1.09086 2.78792   4
   2 -10  -1 1.99382 2.31102   2
  -2  10  -1 -0.8056 2.20147   2
  -2  10  -1 4.96756 2.91792   1
  -2 -10   1 1.32488 2.35245   1
   2  10   1 -0.7389 2.02757   2
   3  10  -1 62.6839 11.2178   4
  -3 -10  -1 71.3488 9.49035   1
   3  10  -1 90.0023 9.75824   2
   3  10  -1 75.4642 9.38602   2
   3 -10   1 81.2093 9.77913   2
  -3  10   1 80.0702 9.74827   1
   3 -10  -1 67.1433 9.57228   2
  -3  10  -1 71.7533 9.65575   1
   3  10   1 46.3755 10.3370   4
  -3 -10   1 68.8342 9.36125   1
   3  10   1 76.4283 9.50995   2
   4  10  -1 81.1467 9.27732   8
  -4  10   1 78.8949 10.2012   1
  -4 -10  -1 64.8870 9.93948   1
   4  10  -1 80.3209 9.89792   2
   4  10  -1 74.1396 11.6329   4
   4 -10   1 95.7023 10.4172   2
   4  10   1 75.4994 9.11918   8
  -4 -10   1 87.9976 10.3689   1
   4  10   1 99.6763 10.4532   2
  -4  10  -1 74.5407 10.3289   1
   4  10   1 66.7184 9.77258   2
   4  10   1 72.2188 11.4089   4
   4 -10  -1 65.7512 9.96373   2
  -5 -10  -1 4.34634 2.46555   6
   5  10  -1 6.01947 2.43629   2
   5 -10   1 4.65182 2.60567   2
   5  10  -1 2.16959 2.14646   8
   5  10  -1 6.71356 3.42594   4
  -5 -10  -1 0.52777 2.40665   1
  -5  10   1 1.31060 2.55849   1
  -5 -10   1 6.01430 2.88616   1
   5  10   1 4.02664 2.22863   8
  -5  10  -1 5.79396 3.14537   1
  -5 -10   1 3.83396 2.28502   6
   5  10   1 -0.3882 3.32897   4
   5  10   1 0.79466 2.12741   2
   5 -10  -1 4.42755 2.60037   2
   6 -10   1 124.196 13.3116   8
   6  10  -1 124.741 16.3075   4
   6  10  -1 106.598 12.5244   8
   6  10  -1 116.085 13.0456   2
  -6 -10  -1 122.236 12.7995   6
   6 -10   1 133.665 13.8681   2
  -6 -10  -1 82.3720 13.4212   1
  -6  10   1 114.114 14.0280   1
  -6 -10   1 96.4980 12.4217   6
   6 -10  -1 139.504 13.9015   2
   6  10   1 103.850 15.5818   4
  -6 -10   1 110.214 13.7904   1
  -6  10  -1 113.549 14.0228   1
   6 -10  -1 133.026 13.3483   8
   6  10   1 93.8020 12.3569   8
   6  10   1 100.047 12.8883   2
   7  10  -1 28.2632 4.57060   8
   7 -10   1 26.0199 4.88243   8
  -7 -10  -1 32.7971 4.87052   6
   7  10  -1 15.4616 5.58330   4
  -7 -10  -1 24.7136 4.97705   1
   7 -10   1 19.6933 4.16991   2
  -7  10   1 22.5723 4.97890   1
   7 -10  -1 18.7798 4.56357   8
   7 -10  -1 19.8091 4.08566   2
  -7 -10   1 23.2732 5.02037   1
  -7  10  -1 24.0817 5.23131   1
   7  10   1 21.7322 5.92997   4
  -7 -10   1 28.0177 4.70351   6
   7  10   1 29.4886 4.57213   8
  -8 -10  -1 -1.3072 2.50992   1
   8  10  -1 0.48537 2.27346   8
  -8 -10  -1 0.34840 2.24993   3
   8  10  -1 0.73331 3.08307   4
   8 -10   1 4.81172 3.20898   8
  -8 -10  -1 0.51496 2.22533   6
  -8  10   1 2.53892 2.68639   1
  -8 -10   1 0.27037 2.78628   1
   8  10   1 -1.1742 2.14384   8
  -8 -10   1 -0.5264 2.26879   3
   8  10   1 4.30982 3.60784   4
   8 -10  -1 3.91632 2.87106   8
  -8  10  -1 2.30298 2.88497   1
  -8 -10   1 0.25986 2.14766   6
  -9  10   1 20.4864 5.03651   1
  -9 -10  -1 29.6186 4.96584   6
   9  10  -1 25.5384 4.62984   8
   9 -10   1 24.8255 5.20211   8
  -9 -10  -1 23.9947 5.03651   1
  -9 -10  -1 22.0459 4.53074   3
   9  10  -1 23.6929 6.82859   4
  -9 -10   1 25.9535 4.78131   6
   9  10   1 21.3311 4.34539   8
  -9 -10   1 31.8220 5.46003   1
  -9 -10   1 20.7741 4.44106   3
   9  10   1 24.3766 7.72265   4
  -9  10  -1 28.6764 5.62419   1
   9 -10  -1 24.6548 5.06642   8
 -10 -10  -1 72.2315 9.47752   1
 -10 -10  -1 59.7329 7.97590   3
 -10  10   1 79.1730 9.94726   1
  10 -10   1 75.8137 9.42995   8
  10  10  -1 51.8728 8.03390   8
 -10  10  -1 59.1331 9.23698   1
 -10 -10   1 57.4958 7.94093   3
 -10 -10   1 50.0667 8.64809   1
  10 -10  -1 88.3311 9.42766   8
  10  10   1 44.5210 7.73132   8
 -10 -10   1 65.2838 8.29069   6
   0 -11   1 76.1547 10.4755   2
   0 -11  -1 80.4958 10.6696   1
   0  11   1 68.8166 10.3914   2
   0 -11   1 92.5601 10.7035   1
   0  11  -1 80.7148 10.7314   2
   0 -11  -1 80.0772 10.5265   2
  -1 -11  -1 15.2859 4.03831   2
  -1  11   1 6.01609 3.11436   2
   1 -11   1 14.3256 4.02039   2
  -1 -11  -1 18.7685 4.25009   1
   1  11  -1 15.4003 3.86733   2
  -1  11   1 13.4647 3.90103   1
  -1 -11   1 18.6792 4.19719   2
  -1  11  -1 19.4705 4.65195   2
   1 -11  -1 15.3697 3.98216   2
   1  11   1 17.7685 4.11887   2
  -1 -11   1 26.1418 4.75099   1
  -1  11  -1 20.4971 4.46141   1
   2  11  -1 55.7696 8.51866   2
  -2  11   1 50.9909 8.76265   2
   2 -11   1 71.7031 8.95450   2
   2  11  -1 56.9456 8.90865   2
  -2  11   1 77.2523 8.86695   1
  -2 -11  -1 68.1723 8.78426   1
  -2  11  -1 58.0804 8.82925   1
  -2 -11   1 59.4974 8.63699   1
   2  11   1 50.4155 9.95949   4
   2  11   1 51.2062 8.58385   2
   2 -11  -1 59.2082 8.63243   2
  -2  11  -1 59.3753 8.98998   2
   3  11  -1 232.887 24.1271   2
   3 -11   1 191.827 23.9650   2
  -3  11   1 235.868 24.1084   1
   3  11  -1 186.998 26.8805   4
  -3 -11  -1 209.764 23.9072   1
  -3  11  -1 218.258 24.0792   1
   3  11   1 200.707 23.8800   2
  -3 -11   1 208.239 23.7778   1
   3 -11  -1 183.194 23.9219   2
   4  11  -1 29.2398 5.09030   2
   4  11  -1 17.9919 5.50713   4
  -4 -11  -1 24.9801 5.28654   1
   4 -11   1 31.8445 5.38468   2
  -4  11   1 27.6042 5.37638   1
  -4 -11   1 23.1530 4.98401   1
  -4  11  -1 28.6658 5.48972   1
   4 -11  -1 26.8222 5.25043   2
   4  11   1 31.2819 5.43521   2
   4  11   1 23.4313 4.74548   2
   4  11   1 24.4793 5.86659   4
  -5 -11  -1 14.3716 4.06389   1
  -5  11   1 9.45925 3.79865   1
   5  11  -1 15.9154 5.01758   4
   5 -11   1 16.1257 4.05661   2
   5  11  -1 17.6939 3.83710   2
   5  11  -1 14.6932 3.45487   8
   5 -11  -1 12.8604 3.74850   2
  -5 -11   1 20.2804 4.39229   1
   5  11   1 16.5625 5.09046   4
   5  11   1 10.1749 3.24024   2
   5  11   1 12.9863 3.26732   8
  -5  11  -1 15.5832 4.35865   1
   6 -11   1 11.4631 3.44851   2
   6  11  -1 9.84159 2.80615   2
   6  11  -1 10.8925 3.18551   8
  -6 -11  -1 12.5687 3.82494   1
  -6  11   1 11.5642 3.93113   1
   6  11  -1 16.5784 5.02451   4
  -6  11  -1 10.1002 4.00435   1
  -6 -11   1 10.6950 3.73281   1
   6  11   1 10.0347 4.77936   4
   6  11   1 8.57776 2.70568   2
   6  11   1 10.3674 2.97059   8
   6 -11  -1 11.6390 3.41221   2
   7 -11   1 44.2163 6.71083   2
   7  11  -1 38.0999 6.07339   8
  -7 -11  -1 39.9825 6.35541   6
  -7  11   1 35.8107 6.95215   1
   7  11  -1 47.3168 9.11629   4
  -7 -11  -1 36.5909 6.83751   1
   7  11   1 48.4204 6.43884   8
   7  11   1 35.2735 8.10697   4
  -7 -11   1 36.9408 6.23495   6
  -7 -11   1 45.9366 7.09789   1
   7 -11  -1 41.0327 6.48944   2
  -7  11  -1 49.5948 7.60989   1
   8  11  -1 69.4036 12.6415   4
  -8  11   1 72.8035 10.7204   1
   8  11  -1 68.8663 9.38984   8
  -8 -11  -1 67.5037 10.2983   1
  -8 -11  -1 66.8645 9.33599   6
   8  11   1 77.4919 9.32339   8
  -8 -11   1 75.0999 9.59353   6
  -8 -11   1 77.9822 10.4978   1
   8  11   1 83.2371 13.3677   4
  -8  11  -1 66.4672 10.2559   1
  -9 -11  -1 118.281 12.9294   6
   9  11  -1 118.671 12.9723   8
  -9 -11  -1 110.037 14.0739   1
   9 -11   1 132.399 14.1351   8
  -9  11   1 93.0420 13.9461   1
   9  11   1 110.723 12.8647   8
  -9 -11   1 79.9631 13.5654   1
  -9  11  -1 134.188 14.6587   1
   9 -11  -1 102.536 13.2925   8
  -9 -11   1 119.153 13.0239   6
  10 -11   1 17.7065 4.77674   8
 -10 -11  -1 20.3144 4.83249   1
 -10  11   1 13.4662 4.65199   1
  10  11  -1 15.1314 3.85625   8
 -10 -11   1 6.72421 3.33834   6
  10  11   1 14.4006 3.84868   8
 -10  11  -1 14.3453 4.47310   1
 -10 -11   1 15.2716 4.14772   1
  10 -11  -1 8.18509 3.92165   8
   0 -12   1 -2.2177 2.56687   2
   0 -12  -1 -0.9874 2.64879   2
   0  12  -1 6.04625 3.18002   2
   0  12   1 3.07122 2.92108   2
  -1  12   1 9.93092 3.44364   2
  -1 -12  -1 5.18280 3.11772   2
   1  12  -1 2.51173 2.87405   2
   1 -12   1 5.81446 3.06669   2
  -1 -12  -1 1.74226 2.85002   1
   1 -12  -1 3.95568 2.77893   2
   1  12   1 3.11646 2.98908   2
  -1 -12   1 2.56249 2.59736   1
  -1  12  -1 8.35665 3.41464   2
  -1 -12   1 4.17667 3.52479   2
   1  12   1 8.11987 4.02119   4
   2  12  -1 28.4771 6.63935   4
   2  12  -1 23.5940 4.91137   2
   2  12  -1 10.5780 4.11634   2
  -2 -12  -1 20.0841 4.81830   1
  -2  12   1 17.5667 4.54028   2
  -2  12   1 13.2071 4.19185   1
   2 -12   1 22.4713 5.01690   2
  -2  12  -1 15.0150 4.66767   1
  -2  12  -1 22.6106 5.18373   2
  -2 -12   1 22.4898 4.86685   1
   2  12   1 23.5523 5.78128   4
   2 -12  -1 26.8343 5.06329   2
   2  12   1 20.2006 4.78017   2
  -3  12   1 231.607 23.8800   1
   3  12  -1 169.708 26.2473   4
  -3 -12  -1 159.514 23.1428   1
   3  12  -1 200.376 23.5449   2
   3 -12   1 214.250 23.7913   2
   3  12   1 205.837 26.3523   4
   3 -12  -1 190.733 23.6699   2
  -3  12  -1 252.040 24.2370   1
   3  12   1 211.081 23.6435   2
   4  12  -1 22.9888 4.57706   2
  -4 -12  -1 21.4982 5.03043   1
   4 -12   1 24.6896 4.97793   2
  -4  12   1 23.3744 5.17959   1
   4  12  -1 16.0533 5.11918   4
   4  12   1 26.4989 4.82182   2
   4  12   1 14.6230 4.18750   2
   4 -12  -1 21.6932 4.94987   2
   4  12   1 31.6189 6.38349   4
  -4 -12   1 13.6659 4.52968   1
  -4  12  -1 22.9591 5.26593   1
   5  12  -1 2.25486 2.78229   2
   5  12  -1 3.28249 3.49006   4
   5 -12   1 -1.2740 2.49761   2
  -5 -12  -1 5.83493 3.25436   1
  -5  12   1 7.85569 3.52538   1
   5  12   1 0.89029 2.37103   2
   5  12   1 1.17816 3.29786   4
  -5  12  -1 3.92151 2.79922   1
  -5 -12   1 0.84901 2.95765   1
   5 -12  -1 3.64872 2.73435   2
   6  12  -1 2.29990 2.42221   2
  -6 -12  -1 0.02468 2.89993   1
   6  12  -1 4.02742 4.07839   4
   6 -12   1 0.30422 2.40690   2
  -6  12   1 7.04351 3.51313   1
  -6 -12   1 0.47729 2.97179   1
   6  12   1 1.36929 2.15862   2
   6  12   1 3.84286 3.86855   4
   6 -12  -1 -0.0424 2.42502   2
  -6  12  -1 0.47294 2.77051   1
  -7 -12  -1 176.724 21.1120   1
   7 -12   1 178.164 20.7448   2
   7  12  -1 186.128 24.0572   4
  -7  12   1 185.113 21.2529   1
   7  12  -1 171.101 19.3311   8
  -7  12  -1 152.594 20.9820   1
  -7 -12   1 147.393 20.6782   1
   7 -12  -1 203.265 20.8067   2
   7  12   1 196.324 19.4510   8
   7  12   1 163.351 23.7174   4
  -8 -12  -1 3.49637 3.22494   1
   8  12  -1 0.65807 2.65112   8
  -8  12   1 1.63728 3.33409   1
  -8  12  -1 2.01788 3.16685   1
  -8 -12   1 0.43255 3.10472   1
   8  12   1 -1.0288 2.47198   8
  -9  12   1 55.3077 8.83188   1
   9  12  -1 55.2242 7.77174   8
  -9 -12  -1 42.5856 8.15806   1
  -9 -12   1 60.6837 8.09281   6
   9  12   1 51.4650 7.50805   8
  -9  12  -1 51.8693 8.81570   1
  -9 -12   1 44.3069 8.17346   1
   0  13   1 126.462 16.2893   2
   0 -13   1 133.483 16.3535   2
   0  13  -1 133.361 16.2831   2
   0 -13  -1 122.662 15.9958   2
  -1  13   1 2.66993 3.19906   2
   1  13  -1 0.68800 2.70900   2
  -1 -13  -1 3.12415 3.23308   1
   1  13  -1 3.21958 2.65413   2
   1 -13   1 -1.3413 2.64793   2
  -1 -13   1 0.63836 3.05277   1
   1  13   1 -2.6279 2.16385   2
  -1  13  -1 1.66336 2.94475   2
   1 -13  -1 2.29678 3.10135   2
   1  13   1 4.61510 3.69719   4
  -2 -13  -1 3.46229 3.40385   1
   2  13  -1 9.55153 5.26493   4
   2  13  -1 3.86768 3.61139   2
  -2  13   1 2.65613 2.65902   2
   2  13  -1 5.36258 3.04238   2
   2 -13   1 3.09459 3.61584   2
   2  13   1 6.67618 3.45919   2
  -2  13  -1 9.10653 3.62456   2
   2  13   1 8.83480 5.19226   4
   2 -13  -1 7.75629 3.55757   2
  -2 -13   1 7.16142 3.88299   1
  -3  13   1 29.6815 5.87285   1
  -3 -13  -1 29.0967 5.90089   1
   3 -13   1 26.6144 5.71705   2
   3  13  -1 22.8195 7.05303   4
   3  13  -1 20.9301 5.02801   2
   3  13   1 26.9223 6.98821   4
  -3 -13   1 29.3554 6.09816   1
   3  13   1 29.9869 5.55512   2
   3  13   1 30.4989 5.86497   2
   3 -13  -1 27.5036 5.76096   2
  -3  13  -1 13.1172 5.27802   1
   4 -13   1 43.0611 6.79294   2
   4  13  -1 24.3487 5.40692   2
  -4 -13  -1 35.7635 6.74026   1
  -4  13   1 26.5727 6.13279   1
   4  13  -1 30.1973 7.93584   4
  -4 -13   1 29.6386 6.30393   1
   4  13   1 25.5489 6.65896   4
  -4  13  -1 31.4094 6.59592   1
   4  13   1 38.7305 6.32080   2
   4  13   1 32.8718 5.99710   2
   4 -13  -1 40.8073 6.79774   2
   5 -13   1 31.1082 6.43432   2
   5  13  -1 39.1649 6.25831   2
  -5  13   1 31.3658 6.89572   1
  -5 -13  -1 38.6718 7.20195   1
   5  13  -1 31.7819 7.57849   4
  -5 -13   1 36.6464 6.93540   1
   5  13   1 41.2561 6.32381   2
   5  13   1 35.1184 7.60514   4
   5 -13  -1 30.3807 6.24860   2
  -5  13  -1 36.1598 7.29572   1
  -6 -13  -1 73.4360 10.5637   1
  -6  13   1 60.3927 10.2718   1
   6 -13   1 68.1253 9.73722   2
   6  13  -1 58.8447 11.5297   4
   6  13  -1 64.1946 8.89518   2
   6 -13  -1 70.6188 9.89281   2
  -6 -13   1 59.9407 10.0689   1
  -6  13  -1 75.0475 10.7605   1
   6  13   1 60.0742 11.5410   4
   6  13   1 62.5134 8.94736   2
   7 -13   1 5.01582 3.14216   2
  -7 -13  -1 -0.2536 3.45942   1
  -7  13   1 -1.3006 3.48267   1
  -7 -13   1 3.99773 3.30298   1
  -7  13  -1 2.64843 3.79101   1
   7 -13  -1 3.62617 3.03828   2
  -8  13   1 73.0604 10.3960   1
  -8 -13  -1 64.7436 10.0214   1
  -8 -13   1 53.6002 9.45593   1
  -8  13  -1 52.8215 9.69571   1
   0  14  -1 4.29585 3.12347   2
   0  14   1 1.52939 3.19321   2
   0 -14   1 -1.2565 3.24053   2
   0 -14  -1 -1.2057 2.95582   2
   1  14  -1 5.96378 3.43765   2
  -1  14   1 -0.5081 2.99543   2
   1 -14   1 4.05523 3.30045   2
   1  14  -1 1.94286 2.97797   2
  -1  14  -1 -1.4373 3.06681   2
   1  14   1 1.18494 2.99968   2
   1  14   1 -1.8591 4.06746   4
   1 -14  -1 6.17689 3.63185   2
   2  14  -1 31.8100 6.50862   2
   2  14  -1 44.8823 7.25400   2
   2 -14   1 37.0154 7.18511   2
   2  14  -1 30.7204 7.72500   4
  -2 -14  -1 37.1593 7.31653   1
  -2 -14   1 41.6083 7.59175   1
   2  14   1 30.8982 6.56130   2
   2  14   1 31.0883 6.97772   4
   2 -14  -1 32.4151 6.86506   2
   3 -14   1 22.4706 5.84137   2
   3  14  -1 26.7734 5.78982   2
   3  14  -1 34.9418 7.36745   4
  -3 -14  -1 28.4991 6.40041   1
   3  14   1 16.9937 5.07889   2
   3 -14  -1 29.6680 6.03921   2
   3  14   1 24.8300 5.61162   2
   3  14   1 34.4421 8.09270   4
  -3 -14   1 37.6708 6.92777   1
   4  14  -1 14.3861 4.08596   2
  -4 -14  -1 8.71611 4.66102   1
   4 -14   1 21.4590 5.37997   2
   4  14  -1 11.1146 6.24200   4
  -4  14   1 21.2740 5.51742   1
   4 -14  -1 11.7054 4.00446   2
   4  14   1 13.9441 4.32788   2
   4  14   1 17.7105 5.56046   4
  -4 -14   1 18.0817 5.24557   1
  -4  14  -1 13.0985 4.82276   1
   5 -14   1 23.1450 5.29725   2
  -5 -14  -1 16.8921 5.45462   1
  -5  14   1 11.4688 4.45611   1
   5  14  -1 17.1413 5.65216   4
   5  14  -1 26.7586 4.96589   2
  -5 -14   1 19.5968 5.60740   1
   5  14   1 12.5646 5.48415   4
   5 -14  -1 18.9022 4.73641   2
   5  14   1 14.0092 4.10353   2
  -5  14  -1 9.75629 4.55893   1
  -6 -14  -1 225.308 23.2197   1
  -6  14   1 140.257 21.9317   1
   6  14  -1 200.680 21.7033   2
   6 -14   1 181.360 22.0514   2
   6  14   1 165.789 21.4126   2
  -6  14  -1 182.685 22.6604   1
  -6 -14   1 194.112 22.7745   1
   6 -14  -1 211.338 22.4782   2
  -7  14   1 33.5189 8.36663   1
   7 -14   1 66.0193 8.97068   2
  -7 -14  -1 52.8036 9.54021   1
  -7 -14   1 48.7740 9.16576   1
   7 -14  -1 63.4441 8.68256   2
  -7  14  -1 67.7309 10.2494   1
   0  15  -1 35.2927 7.18441   2
   0 -15   1 28.7916 6.52202   2
   0  15   1 30.9757 6.65562   2
   0  15   1 18.4879 6.71133   4
   0 -15  -1 34.5121 6.92769   2
   0  15  -1 38.9834 7.09276   2
   1  15  -1 -3.3230 3.41912   2
   1 -15   1 -3.3963 3.37024   2
  -1  15   1 -2.1077 3.13833   2
   1  15  -1 1.15468 2.77409   2
   1 -15  -1 1.19882 3.46693   2
   1  15   1 2.39070 3.61416   2
  -1  15  -1 2.81173 3.48786   2
   1  15   1 3.44438 4.50036   4
   2  15  -1 122.653 17.9342   4
   2  15  -1 117.213 14.0575   2
   2  15  -1 126.500 14.5675   2
   2 -15   1 89.4722 14.2430   2
   2  15   1 100.602 15.7450   4
   2  15   1 86.2889 14.4525   2
   2  15   1 88.3357 13.6509   2
   2 -15  -1 118.954 14.7395   2
   3  15  -1 6.13336 3.55232   2
   3  15  -1 10.3994 5.65535   4
  -3 -15  -1 9.39416 4.87675   1
   3 -15   1 2.44221 3.66281   2
   3  15   1 4.41192 4.61835   4
   3  15   1 3.23481 3.33342   2
   3 -15  -1 14.8973 5.10054   2
  -3 -15   1 5.47191 4.36672   1
   3  15   1 9.70466 4.27163   2
   4 -15   1 2.81763 3.56124   2
  -4 -15  -1 3.49850 4.16373   1
   4  15  -1 4.15428 3.41596   2
   4 -15  -1 0.49310 3.40029   2
   4  15   1 3.72031 3.21997   2
  -4 -15   1 -0.0581 3.59825   1
  -5 -15  -1 4.54918 4.30602   1
   5 -15   1 9.23688 4.21232   2
  -5  15   1 7.49565 4.78963   1
   5  15  -1 5.50162 3.57401   2
   5 -15  -1 6.31740 3.93974   2
   5  15   1 15.1298 4.04041   2
  -5  15  -1 6.38458 4.89284   1
  -5 -15   1 5.19982 4.45791   1
   6  15  -1 21.9785 4.73930   2
  -6 -15  -1 16.0093 5.53287   1
  -6  15   1 25.1227 6.46719   1
   6 -15   1 11.7069 4.34952   2
   6  15   1 20.7180 4.36822   2
  -6  15  -1 16.6916 5.95679   1
   6 -15  -1 12.9006 4.56642   2
  -6 -15   1 19.9927 5.83600   1
   0  16   1 -1.8632 2.98579   2
   0 -16  -1 2.43528 4.19585   2
   0  16  -1 -0.1027 3.37178   2
   0  16  -1 7.66039 3.24521   2
   1  16  -1 6.15567 3.44563   2
  -1  16   1 0.73911 3.55072   2
   1  16  -1 -1.4967 3.70536   2
   1 -16   1 1.99125 4.23552   2
   1 -16  -1 -3.7621 3.31214   2
  -1  16  -1 5.74569 3.62588   2
   1  16   1 6.35335 3.72464   2
  -1  16  -1 1.83491 2.99123   2
   2 -16   1 -0.4270 3.84457   2
   2  16  -1 0.51594 3.20669   2
   2  16   1 2.59201 3.68785   2
   2  16   1 3.13546 3.24628   2
   2 -16  -1 3.57011 3.58520   2
   3 -16   1 33.2129 6.68498   2
   3  16  -1 27.7601 5.69654   2
  -3 -16  -1 33.9413 8.23556   1
   3  16   1 14.3482 4.93801   2
   3  16   1 21.6312 5.70034   2
  -3 -16   1 23.2111 6.83617   1
   3 -16  -1 20.0684 6.18636   2
   4 -16   1 18.1508 5.47765   2
   4  16  -1 18.8896 5.21858   2
  -4 -16  -1 23.4805 6.51977   1
   4 -16  -1 22.9372 5.79224   2
   4  16   1 20.9614 5.35604   2
  -4 -16   1 25.8312 6.72611   1
   0  17   1 57.8321 10.7647   2
   0  17  -1 77.3788 11.7602   2
   0  17  -1 72.8886 11.3605   2
   1  17  -1 72.1768 11.5719   2
  -1  17   1 66.5082 11.4658   2
   1 -17   1 80.0182 12.0183   2
   1 -17  -1 61.4285 11.4153   2
   1  17   1 78.3045 12.0000   2
   1  17   1 74.8494 12.0587   2
  -1  17  -1 69.3812 11.5966   2
  -1  17  -1 74.2617 11.7412   2
   2 -17   1 18.1703 5.53093   2
   2  17  -1 11.9022 4.94296   2
   2 -17  -1 12.4047 5.56697   2
   2  17   1 5.57703 5.01216   2
   2  17   1 15.7786 5.40312   2
   0   0  -2 178.235 24.0036   7
   0   0   2 248.367 24.0699   7
   1   0  -2 0.95612 0.63480   7
  -1   0  -2 2.16736 0.70170   7
  -1   0   2 3.06464 0.68887   7
   2   0  -2 396.878 46.1052   4
   2   0   2 413.606 42.1367   2
   2   0   2 347.360 43.7096   5
   3   0   2 0.85147 1.88723   4
   3   0  -2 2.99581 1.36766   4
   4   0   2 188.353 24.6091   4
   4   0  -2 204.372 24.1707   4
   5   0  -2 -0.1487 1.38573   4
   5   0   2 2.95532 2.24343   4
   6   0  -2 106.149 13.5227   4
   6   0   2 94.6991 13.9437   4
  -6   0  -2 108.451 11.4044   1
  -7   0  -2 1.33410 0.71523   1
   7   0  -2 1.39711 2.14747   4
   7   0   2 1.36337 2.61009   4
   8   0   2 1108.82 141.232   4
   8   0  -2 1173.73 140.993   4
  -8   0   2 1341.18 126.488   1
  -8   0  -2 1104.78 126.544   1
  -9   0  -2 -0.2509 0.91186   1
   9   0   2 -2.0481 3.34979   4
   9   0  -2 6.55295 3.06066   4
  10   0  -2 447.503 58.1884   4
  10   0   2 512.112 58.7331   4
 -11   0  -2 0.30528 0.77854   3
 -11   0   2 1.25727 0.79412   6
  11   0   2 -2.4892 3.86355   4
 -11   0  -2 0.06979 0.69118   3
 -12   0  -2 40.1520 4.41216   3
  12   0   2 48.5901 9.60503   4
 -13   0  -2 0.01504 1.09393   3
 -13   0   2 1.04930 0.89607   3
   0  -1   2 1.79087 1.00693   7
   0   1   2 0.33932 0.69065   4
   0   1   2 -1.9162 0.79471   7
   0   1  -2 0.28564 0.91188   7
   0  -1  -2 2.30078 0.90082   7
  -1   1   2 220.428 22.3375   7
   1  -1   2 208.851 22.2991   7
   1  -1   2 213.326 22.3018   7
  -1  -1  -2 219.728 22.2949   7
   1  -1   2 221.006 23.1193   5
   1  -1  -2 171.705 22.2674   7
   1   1   2 170.378 24.2877   4
   2   1  -2 295.387 30.4079   2
   2  -1  -2 301.510 30.4672   2
   2   1   2 310.216 30.4430   2
   2   1   2 293.879 33.5841   4
   2   1   2 234.851 31.6206   5
   2  -1  -2 240.549 33.2764   4
   3   1  -2 1582.19 185.122   4
   3  -1   2 1524.57 185.379   4
   3   1   2 1610.88 185.296   4
   4  -1   2 97.6130 15.1134   4
   4   1  -2 104.078 14.8641   4
  -4   1   2 129.064 11.5464   3
  -4   1   2 123.501 11.5442   3
   4  -1  -2 117.260 14.8784   4
  -4   1  -2 133.681 11.6061   3
  -4   1  -2 116.172 12.1250   6
  -4   1  -2 119.365 11.5993   3
   5   1  -2 79.7265 11.0636   4
  -5   1   2 77.6236 9.37764   1
   5  -1   2 89.6646 11.5904   4
   5  -1  -2 88.8371 11.2164   4
  -5   1  -2 80.7791 8.27087   3
  -5   1  -2 91.0130 8.27965   3
  -5   1  -2 86.3064 8.79583   6
  -5   1  -2 93.9749 9.46192   1
  -6  -1  -2 594.157 61.9461   1
  -6   1   2 572.661 61.9944   1
  -6   1  -2 569.034 62.0320   1
  -6   1  -2 544.215 57.2639   6
   6  -1  -2 634.361 69.4054   4
   7  -1   2 451.293 54.5248   4
   7   1  -2 457.657 54.0996   4
  -7   1   2 430.793 48.1017   1
  -7  -1  -2 474.099 48.0701   1
  -7   1  -2 463.874 44.5023   6
   7  -1  -2 417.736 54.1215   4
   7   1   2 419.514 54.4319   4
  -7   1  -2 467.535 48.1810   1
   8  -1   2 79.2356 11.7138   4
  -8  -1  -2 85.3617 8.88701   1
   8   1  -2 87.7260 11.4798   4
  -8   1   2 75.4687 8.95661   1
   8  -1  -2 80.2585 11.3510   4
  -8   1  -2 82.3282 9.05122   1
   8   1   2 73.6217 11.6228   4
   9  -1   2 102.730 18.3955   4
  -9  -1  -2 139.377 15.2084   1
   9   1  -2 117.151 18.1957   4
  -9   1   2 143.557 15.3165   1
  -9   1  -2 137.267 13.5181   3
  -9   1  -2 132.012 15.3570   1
  -9   1  -2 151.481 13.5584   3
   9   1   2 160.091 19.3610   4
   9  -1  -2 189.308 19.2212   4
 -10   1   2 20.2964 2.29188   3
  10  -1   2 26.3165 6.19793   4
  10   1  -2 14.8272 5.82830   4
  10   1   2 26.6867 6.30149   4
 -10   1  -2 20.9707 2.41959   3
 -10   1  -2 16.0974 2.31366   3
 -10   1  -2 20.5634 3.06780   1
  10  -1  -2 27.4818 5.67996   4
 -11   1   2 156.939 15.2074   3
  11   1  -2 175.625 21.8012   4
 -11   1   2 155.134 15.7709   6
 -11   1   2 159.550 15.2387   3
  11   1   2 185.305 22.0917   4
 -11   1  -2 146.856 15.3251   3
 -11   1  -2 154.252 15.3289   3
 -12   1   2 105.931 11.0632   3
 -12   1   2 108.864 11.3419   6
 -12  -1  -2 114.367 10.9933   3
 -12   1   2 127.160 11.1168   3
 -12   1  -2 102.608 11.1649   3
  12   1   2 120.723 16.8061   4
 -13   1   2 135.741 13.0368   3
 -13  -1  -2 127.408 12.8980   3
 -13   1  -2 134.006 13.1716   3
   0  -2  -2 9.17503 1.49977   7
   0   2  -2 7.95099 1.63906   7
   0   2   2 10.4441 1.54580   4
   0  -2   2 6.84793 1.58805   7
   0   2   2 7.87932 1.48895   7
   1  -2   2 405.319 47.3706   7
  -1   2   2 439.588 47.4072   7
   1  -2   2 402.059 48.7918   5
  -1  -2  -2 468.778 47.3814   7
   1  -2   2 484.369 47.2665   2
   1  -2  -2 430.988 47.3776   7
   1   2   2 380.751 47.3325   7
  -1  -2   2 423.469 47.4028   7
  -1   2  -2 391.586 47.4174   7
   1   2   2 498.411 51.5636   4
  -2   2   2 7.19875 1.35980   7
  -2  -2  -2 9.12823 1.23321   7
   2   2  -2 6.18245 1.40768   2
   2   2  -2 10.9420 2.43696   4
   2  -2   2 6.06680 1.54265   2
  -2   2  -2 10.0635 1.46785   7
   2   2   2 5.58080 1.90684   4
   2   2   2 7.69580 1.37267   2
   2  -2  -2 7.80957 1.47858   2
  -2   2  -2 9.04416 1.42320   7
   3  -2   2 0.47026 0.82012   2
   3   2  -2 2.21876 1.73938   4
   3   2   2 2.21782 1.75078   4
   3   2   2 2.82134 0.67682   2
   3  -2  -2 -0.4982 0.72946   2
   3   2   2 -0.3450 1.26647   5
   4  -2   2 1082.78 118.950   8
  -4  -2  -2 1237.62 114.141   3
  -4   2   2 1316.75 114.241   3
   4  -2   2 1177.71 118.970   8
  -4   2  -2 1140.82 117.900   6
   4  -2  -2 1244.36 141.420   4
  -4  -2   2 1230.26 114.098   3
   4   2   2 1213.36 141.577   4
  -4   2  -2 1001.01 127.881   1
  -4   2  -2 1354.74 114.294   3
  -5  -2  -2 194.311 20.5388   3
   5   2  -2 235.530 26.3555   4
  -5   2   2 219.603 20.6853   3
  -5  -2  -2 203.903 23.1167   1
  -5   2   2 182.841 23.1800   1
  -5   2   2 222.730 20.6557   3
   5  -2  -2 198.795 26.0910   4
  -5  -2   2 230.979 23.0755   1
  -5   2  -2 256.690 23.3856   1
  -5   2  -2 206.866 21.4643   6
  -5   2  -2 206.363 20.6879   3
  -5   2  -2 215.714 20.7348   3
   5   2   2 233.142 26.4348   4
  -6   2   2 225.460 20.1691   3
   6   2  -2 223.346 25.8621   4
  -6  -2  -2 193.479 22.5019   1
  -6   2   2 191.332 20.0903   3
   6   2   2 208.922 25.9251   4
  -6   2  -2 233.550 20.2254   3
  -6   2  -2 215.836 20.1648   3
  -6   2  -2 212.412 22.7257   1
  -6   2  -2 171.273 20.8776   6
  -6  -2   2 209.591 22.4565   1
   6  -2  -2 211.870 25.7335   4
  -7   2   2 408.990 36.9811   3
  -7  -2  -2 379.558 41.3941   1
  -7   2   2 398.482 37.0341   3
   7   2  -2 417.029 46.7758   4
  -7   2   2 332.829 41.4800   1
  -7   2  -2 411.791 38.4004   6
  -7   2  -2 370.960 37.0534   3
   7  -2  -2 372.545 46.6898   4
  -7  -2   2 375.772 41.3247   1
   7   2   2 437.078 47.1517   4
  -7   2  -2 377.301 37.0251   3
  -8   2   2 249.509 25.2623   3
  -8   2   2 265.413 25.2110   3
  -8  -2  -2 247.836 28.2570   1
   8   2  -2 297.161 32.6573   4
  -8   2   2 251.307 28.3849   1
  -8   2  -2 237.055 26.2531   6
  -8   2  -2 283.064 25.3130   3
  -8   2  -2 258.541 25.3115   3
   8  -2  -2 306.124 32.7207   4
  -8  -2   2 284.626 28.1707   1
  -8   2  -2 240.296 28.4401   1
  -9  -2  -2 11.9302 2.02667   1
  -9   2   2 14.7365 1.87690   3
  -9   2   2 10.5011 1.69472   3
  -9   2   2 11.9430 2.27555   1
   9   2  -2 12.2909 4.25703   4
   9   2   2 15.1004 5.06924   4
   9  -2  -2 9.79544 4.07769   4
  -9   2  -2 11.0637 1.83814   3
  -9   2  -2 15.9742 2.37480   6
  -9   2  -2 12.9480 1.86272   3
  -9   2  -2 17.2476 2.56100   1
 -10   2   2 12.8835 1.91528   3
 -10   2   2 15.3762 2.24411   6
  10   2  -2 11.4814 4.85499   4
 -10   2   2 17.0934 2.62584   1
 -10   2   2 12.8197 1.93942   3
 -10   2  -2 13.8820 2.69564   1
 -10   2  -2 12.8218 2.04875   3
 -10   2  -2 19.5166 2.26070   3
  10   2   2 7.80211 4.32348   4
 -10  -2   2 12.2376 1.94372   6
  11   2  -2 431.630 42.6500   4
 -11  -2  -2 331.578 31.7485   3
 -11   2   2 334.298 31.9205   3
 -11   2   2 279.841 31.9065   3
 -11   2   2 342.746 32.9728   6
  11   2   2 297.076 41.6592   4
 -11  -2   2 310.125 32.7063   6
 -11   2  -2 342.869 36.0359   1
 -11   2  -2 322.308 31.9975   3
 -11   2  -2 378.033 32.1122   3
 -12   2   2 252.814 24.4564   6
 -12   2   2 241.644 23.7235   3
 -12   2   2 259.845 23.7299   3
  12  -2   2 238.423 24.4374   8
  12  -2   2 244.488 24.4996   8
 -12  -2  -2 241.014 23.5181   3
 -12   2  -2 220.324 23.8132   3
  12   2   2 262.537 32.7850   4
 -12   2  -2 249.446 23.8647   3
 -13   2   2 13.7602 2.32613   3
 -13   2   2 13.3357 2.16838   6
  13  -2   2 15.2573 2.28604   8
 -13  -2  -2 16.2896 2.06097   3
 -13   2  -2 13.2058 2.52369   3
  13  -2  -2 12.0894 2.09419   8
   0   3   2 2.25068 1.27249   4
   0  -3   2 0.91051 1.19761   7
   0  -3  -2 2.72390 1.11853   7
   0   3  -2 0.78231 1.22657   2
   0  -3   2 1.73591 1.16594   7
   0   3  -2 2.74686 1.25886   2
   0   3   2 0.86887 1.03124   7
   0   3  -2 0.15213 1.25503   7
   0   3   2 3.03958 1.22775   2
  -1   3   2 1831.20 187.151   7
   1  -3   2 1936.30 187.224   7
   1   3  -2 1906.50 186.127   2
   1  -3   2 1523.30 187.092   7
   1  -3   2 1850.66 186.200   2
  -1   3  -2 1684.05 187.194   7
   1  -3  -2 1795.42 186.120   2
  -1   3  -2 1481.95 187.116   7
   1  -3  -2 1623.29 187.090   7
   1   3   2 1731.56 186.053   2
   1   3   2 1892.36 187.095   7
   1   3   2 1483.87 203.223   4
  -2   3   2 421.686 44.5172   7
   2  -3   2 427.861 44.3485   7
  -2  -3  -2 408.524 40.4533   6
   2   3  -2 413.799 44.3370   2
   2  -3  -2 426.211 44.3279   7
   2  -3  -2 381.201 44.3291   7
  -2   3  -2 471.453 44.5845   7
   2  -3  -2 350.240 44.2734   2
  -2   3  -2 445.046 44.5819   7
   2   3   2 383.810 48.5328   4
  -2  -3   2 361.293 40.4338   6
  -3   3   2 20.9943 3.08904   7
   3   3  -2 19.7687 4.18034   4
   3  -3   2 17.9045 3.19089   2
  -3  -3  -2 15.4414 2.82419   6
  -3   3   2 22.8656 2.98401   7
   3   3  -2 18.3798 2.92234   2
   3   3  -2 29.4908 2.75724   8
   3  -3   2 21.4448 2.89333   8
   3  -3  -2 29.5517 3.02718   8
  -3   3  -2 17.3779 2.91398   7
   3   3   2 22.6666 3.42909   5
   3   3   2 20.5607 3.95509   4
  -3   3  -2 24.6265 3.07848   7
   3  -3  -2 24.0684 3.18349   2
   3   3   2 22.2717 2.71223   8
   3   3   2 23.0611 3.07491   2
   4  -3   2 35.2747 4.83219   8
   4  -3   2 34.2493 5.16284   2
  -4   3   2 47.7179 4.76980   3
   4   3  -2 41.2741 6.57369   4
  -4  -3  -2 31.2606 4.80402   6
   4   3  -2 42.3258 4.56225   8
  -4  -3  -2 43.0971 4.65300   3
   4   3  -2 41.1994 4.56239   8
  -4  -3  -2 35.9395 5.24903   1
  -4   3   2 57.3379 5.52669   1
  -4   3   2 41.9553 4.97722   7
  -4   3   2 42.5950 4.98616   7
   4  -3  -2 42.9425 5.15867   2
  -4  -3   2 45.5339 4.61127   3
   4  -3  -2 51.5319 5.18004   2
   4   3   2 41.8192 4.65173   8
  -4   3  -2 39.6261 5.03126   7
   4   3   2 40.9573 4.62354   8
   4   3   2 55.7371 5.69480   5
  -4   3  -2 36.8008 5.04719   7
  -4  -3   2 31.3837 5.23637   1
  -4   3  -2 47.0858 5.54207   1
  -4   3  -2 36.3766 4.77178   3
   4   3   2 53.4704 6.68530   4
   4  -3  -2 45.0809 4.91889   8
  -5   3   2 273.388 23.1761   3
   5  -3   2 257.588 24.0274   8
   5  -3   2 220.577 24.0124   8
  -5   3   2 220.146 25.9170   1
  -5  -3  -2 195.690 25.7668   1
  -5   3   2 201.374 23.0515   3
  -5  -3  -2 272.214 23.0433   3
   5   3  -2 260.105 29.3025   4
  -5   3  -2 261.232 23.1807   3
  -5  -3   2 204.277 25.7622   1
   5   3   2 255.290 29.2926   4
  -5  -3   2 266.260 22.9973   3
   5  -3  -2 248.663 23.9541   8
  -5   3  -2 243.254 23.1634   3
   5  -3  -2 221.773 23.9893   8
  -5   3  -2 274.462 26.0489   1
  -5   3  -2 205.573 23.8781   6
  -6  -3  -2 725.451 75.6999   1
  -6  -3  -2 653.710 69.7860   6
   6  -3   2 760.257 70.4714   8
   6   3  -2 578.983 84.1793   4
  -6   3   2 645.146 67.6958   3
  -6   3   2 668.911 75.8131   1
   6  -3   2 766.330 70.4683   8
  -6   3   2 727.824 67.6951   3
  -6  -3  -2 675.457 67.5613   3
  -6   3  -2 765.561 69.9766   6
   6   3   2 587.198 84.1882   4
  -6   3  -2 670.874 67.7078   3
  -6   3  -2 766.041 75.8948   1
   6  -3  -2 717.810 70.4169   8
  -6  -3   2 765.279 75.6936   1
   6  -3  -2 779.505 70.4025   8
  -6   3  -2 742.693 67.7491   3
  -7  -3  -2 193.209 21.7290   1
  -7  -3  -2 184.012 19.3093   3
   7  -3   2 190.802 20.1003   8
  -7   3   2 190.184 19.4490   3
   7   3  -2 152.085 24.7643   4
   7  -3   2 223.667 20.1659   8
  -7   3   2 219.833 21.9755   1
  -7   3  -2 201.221 20.2535   6
   7  -3  -2 204.449 20.0438   8
   7   3   2 183.762 25.0506   4
  -7   3  -2 206.556 21.9748   1
  -7  -3   2 217.517 21.7312   1
  -7   3  -2 219.793 19.5560   3
   7  -3  -2 207.022 20.0497   8
  -7   3  -2 190.495 19.5014   3
   8   3  -2 251.735 30.9391   4
  -8   3   2 250.721 24.0932   3
  -8  -3  -2 239.999 23.9245   3
   8  -3   2 258.658 24.9521   8
  -8  -3  -2 265.683 26.9488   1
  -8   3   2 263.565 25.0153   6
   8  -3   2 242.873 24.9130   8
  -8   3   2 218.660 24.1062   3
  -8   3   2 245.872 27.0986   1
  -8   3  -2 198.722 27.0752   1
  -8  -3   2 243.660 24.8501   6
  -8   3  -2 255.565 24.1707   3
  -8  -3   2 254.761 26.9109   1
  -8   3  -2 260.449 24.1814   3
   8   3   2 264.449 31.2700   4
  -8   3  -2 280.463 25.1297   6
  -9  -3  -2 626.729 57.5737   3
  -9   3   2 600.377 59.6494   6
  -9  -3  -2 552.172 64.5459   1
  -9   3   2 688.580 57.8413   3
   9  -3   2 637.618 60.0073   8
  -9   3   2 657.898 57.7587   3
   9  -3   2 652.100 60.0550   8
  -9   3   2 584.910 64.7451   1
  -9  -3   2 537.956 59.4829   6
  -9   3  -2 554.056 57.7801   3
   9  -3  -2 602.337 59.9173   8
  -9   3  -2 616.121 57.7993   3
   9   3   2 593.130 72.9520   4
   9  -3  -2 625.239 59.9192   8
  -9   3  -2 497.444 59.6618   6
 -10  -3  -2 104.271 10.8177   3
 -10   3   2 104.630 12.5557   1
  10  -3   2 104.358 11.3266   8
  10   3  -2 131.962 15.9737   4
 -10   3   2 107.482 11.4859   6
 -10   3   2 108.341 11.0467   3
 -10  -3  -2 102.091 12.2870   1
  10  -3   2 110.022 11.3529   8
 -10   3   2 121.794 11.1423   3
  10  -3  -2 119.158 11.2930   8
  10   3   2 106.372 15.9471   4
 -10   3  -2 120.429 11.1665   3
  10  -3  -2 106.436 11.2042   8
 -10   3  -2 108.379 11.1968   3
 -10  -3   2 113.616 10.7699   3
 -10   3  -2 124.100 11.7368   6
 -10  -3   2 96.3617 11.2139   6
 -10   3  -2 112.927 12.7047   1
 -11   3   2 485.709 42.3075   3
  11   3  -2 507.110 54.6413   4
  11  -3   2 447.830 43.8955   8
 -11   3   2 458.439 43.6142   6
 -11  -3  -2 436.595 42.0294   3
 -11   3  -2 379.953 42.3408   3
  11  -3  -2 365.128 43.8220   8
 -11   3  -2 414.372 47.3946   1
  11   3   2 370.558 54.1054   4
 -11   3  -2 498.009 42.4271   3
  11  -3  -2 440.036 43.7528   8
 -11  -3   2 417.036 43.3247   6
 -11  -3   2 488.959 42.0093   3
 -12   3   2 77.6320 7.78105   3
 -12   3   2 78.8041 8.03638   6
 -12   3   2 75.3624 7.73900   3
  12   3  -2 73.3064 13.7303   4
 -12  -3  -2 70.2372 7.41508   3
  12  -3   2 72.3992 7.85595   8
 -12  -3   2 85.0786 7.47645   3
 -12   3  -2 78.4691 7.94563   3
  12  -3  -2 66.1942 7.87990   8
 -12   3  -2 75.0563 8.96519   1
 -12   3  -2 59.7006 7.82737   3
 -12  -3   2 65.0104 7.39039   6
  13  -3   2 29.3022 4.05666   8
 -13  -3  -2 27.2481 3.66104   3
 -13   3   2 33.6765 4.16580   6
 -13   3   2 31.7120 4.13708   3
 -13   3   2 35.9190 4.25721   3
  13  -3  -2 34.4559 4.29914   8
 -13  -3   2 31.3030 3.80617   3
 -13   3  -2 29.6577 4.35314   3
   0  -4  -2 201.381 23.8077   2
   0   4   2 233.036 23.8147   2
   0   4  -2 214.486 23.9692   2
   0  -4   2 203.310 23.9336   7
   0  -4  -2 240.410 23.9201   7
   0  -4   2 225.038 23.9070   2
   0  -4   2 196.149 23.8894   7
  -1  -4  -2 1164.68 110.435   7
   1  -4   2 1058.00 110.467   7
   1  -4   2 1089.09 109.906   2
   1   4  -2 990.118 109.828   2
   1  -4   2 936.678 110.366   7
  -1   4   2 1057.05 110.393   7
  -1   4  -2 1044.79 110.582   7
  -1   4  -2 919.292 109.861   2
   1  -4  -2 836.278 110.336   7
   1   4   2 1122.15 109.812   2
  -1   4  -2 862.526 110.377   7
   1  -4  -2 1130.64 109.896   2
   2  -4   2 237.711 22.8977   7
   2  -4   2 232.195 23.0059   7
   2   4  -2 223.902 22.9818   2
  -2  -4  -2 183.109 22.9463   7
  -2   4   2 217.479 23.0217   7
   2   4   2 189.453 22.8658   2
  -2   4  -2 235.476 23.0777   7
   2   4   2 203.271 25.2301   4
  -2   4  -2 194.838 23.0716   7
  -2  -4   2 191.574 20.9571   6
   2  -4  -2 175.036 22.9106   2
   2  -4  -2 208.590 22.9339   7
   2  -4  -2 195.617 22.8480   7
   3  -4   2 234.708 26.8484   8
   3   4  -2 266.787 32.4259   4
   3   4  -2 230.724 29.0131   2
  -3  -4  -2 243.539 26.5273   6
   3  -4   2 300.281 29.2617   2
  -3   4   2 243.725 28.8478   1
  -3  -4  -2 282.332 28.8680   1
   3   4  -2 262.014 26.7775   8
  -3  -4  -2 224.803 29.0285   7
   3  -4  -2 275.486 29.1095   2
  -3  -4   2 237.822 26.5887   6
   3   4   2 314.575 29.9899   5
   3   4   2 277.743 32.1408   4
  -3   4  -2 295.916 29.2368   7
   3  -4  -2 300.392 26.9419   8
  -3   4  -2 278.208 29.2252   7
  -3  -4   2 289.702 28.9248   1
  -3   4  -2 243.847 28.9232   1
   3   4   2 254.061 26.7086   8
  -3  -4   2 241.710 28.7880   1
   4   4  -2 1064.44 105.696   2
  -4   4   2 1068.59 106.652   7
   4   4  -2 943.019 105.687   2
  -4   4   2 1050.93 106.476   7
  -4  -4  -2 875.015 93.7461   3
   4   4  -2 852.939 116.315   4
  -4  -4  -2 1056.80 96.8079   6
  -4   4   2 1028.42 105.076   1
   4  -4   2 1072.70 97.8469   8
  -4  -4  -2 892.470 104.929   1
   4   4   2 979.222 105.748   2
  -4   4  -2 1036.10 106.620   7
   4  -4  -2 1046.40 97.9292   8
  -4   4  -2 1001.48 106.497   7
   4  -4  -2 896.438 105.939   2
  -4  -4   2 1076.03 96.8970   6
  -4   4  -2 970.349 93.9815   3
   4   4   2 929.508 109.334   5
   4   4   2 836.269 97.6391   8
   4   4   2 1043.97 105.773   2
  -4  -4   2 1013.10 105.018   1
  -4   4  -2 856.455 105.079   1
  -5   4   2 253.209 29.1660   7
  -5   4   2 306.405 26.9070   6
  -5   4   2 304.420 26.0113   3
   5  -4   2 242.842 26.9239   8
   5  -4   2 276.815 28.9875   2
  -5   4   2 250.179 29.2167   7
   5   4  -2 272.300 26.7289   8
  -5   4   2 239.992 29.0304   1
  -5  -4  -2 245.769 28.9320   1
  -5  -4  -2 263.809 25.8381   3
   5   4  -2 300.640 32.8405   4
  -5   4   2 310.868 25.9688   3
   5  -4   2 255.323 28.9509   2
  -5  -4  -2 262.947 26.7155   6
   5  -4  -2 283.364 27.0756   8
  -5  -4   2 253.874 28.9823   1
   5  -4  -2 270.058 28.8533   2
  -5   4  -2 270.497 25.9441   3
   5   4   2 279.578 26.7774   8
  -5   4  -2 240.781 29.2356   7
   5  -4  -2 253.663 28.8669   2
  -5  -4   2 274.055 25.8209   3
  -5   4  -2 259.724 29.1851   7
   5   4   2 281.231 26.8134   8
   5   4   2 227.092 32.5134   4
  -5  -4   2 280.405 26.8262   6
   5  -4  -2 262.707 26.9624   8
  -5   4  -2 286.738 26.8580   6
  -6   4   2 281.751 31.7616   7
   6   4  -2 288.722 29.0926   8
   6  -4   2 307.982 29.4679   8
  -6   4   2 277.673 28.2724   3
  -6   4   2 312.815 29.3418   6
  -6  -4  -2 305.563 31.6542   1
  -6   4   2 277.611 28.3157   3
   6  -4   2 301.072 29.4438   8
   6   4  -2 323.184 35.8952   4
  -6   4   2 252.598 31.7031   1
   6   4  -2 296.699 29.1051   8
  -6  -4  -2 282.521 28.1920   3
   6   4   2 317.611 29.1774   8
  -6   4  -2 249.938 31.7953   7
  -6   4  -2 339.897 32.0555   1
   6   4   2 264.798 29.1728   8
  -6  -4   2 301.536 31.6949   1
   6   4   2 277.084 35.6685   4
  -6   4  -2 297.780 29.3175   6
  -6  -4   2 331.749 28.2116   3
   6  -4  -2 326.020 29.4782   8
   6  -4  -2 281.183 29.4704   8
  -6   4  -2 322.958 28.3962   3
  -6  -4   2 280.371 29.2347   6
  -6   4  -2 237.326 28.3752   3
  -7   4   2 939.937 79.8361   3
   7  -4   2 876.969 83.1395   8
  -7   4   2 711.098 79.7462   3
  -7   4   2 857.977 89.4136   1
   7   4  -2 878.733 99.6292   4
   7  -4   2 814.421 83.0776   8
  -7  -4  -2 730.423 89.1650   1
  -7   4   2 904.348 82.4226   6
  -7  -4  -2 791.523 79.6472   3
  -7  -4   2 803.391 89.2325   1
  -7  -4   2 732.422 79.5849   3
   7   4   2 963.030 99.6834   4
  -7   4  -2 761.382 89.4332   1
  -7   4  -2 839.074 82.4287   6
  -7   4  -2 941.741 79.9007   3
  -7  -4   2 834.243 82.3262   6
   7  -4  -2 854.269 83.1582   8
  -8   4   2 5.61066 1.56478   3
   8  -4   2 5.35144 1.52431   8
  -8  -4  -2 4.49193 1.70866   1
  -8   4   2 7.01138 1.61064   3
  -8  -4  -2 7.85179 1.46387   3
   8   4  -2 7.25568 3.34042   4
  -8   4   2 9.09665 1.84359   6
  -8   4   2 14.6894 2.55217   1
   8  -4   2 8.66617 1.66826   8
  -8   4  -2 4.70285 1.78459   6
  -8  -4   2 6.23036 1.36242   3
  -8   4  -2 6.40529 1.62302   3
  -8  -4   2 7.22302 1.90225   1
   8  -4  -2 8.15773 1.58431   8
  -8  -4   2 4.58655 1.55590   6
   8  -4  -2 9.20325 1.74908   8
   8   4   2 0.77303 2.50813   4
  -8   4  -2 6.59356 1.83202   3
  -8   4  -2 8.26122 2.30462   1
  -9   4   2 106.153 9.74524   3
  -9  -4  -2 88.3325 10.6697   1
  -9   4   2 97.4252 9.63229   3
  -9   4   2 85.9269 10.9160   1
   9  -4   2 90.6860 9.84590   8
  -9  -4  -2 91.9752 9.42301   3
   9   4  -2 100.707 13.6290   4
   9   4   2 101.928 13.7637   4
  -9  -4   2 85.7432 10.6886   1
  -9  -4   2 81.0338 9.73138   6
  -9  -4   2 84.0555 10.6501   1
  -9   4  -2 97.7522 9.88349   3
   9  -4  -2 100.739 9.99395   8
  -9   4  -2 95.8849 11.0837   1
  -9  -4   2 97.8448 9.37034   3
  -9   4  -2 103.258 9.71188   3
  10  -4   2 6.68242 1.70289   8
 -10   4   2 7.82189 2.41544   1
  10   4  -2 2.52634 3.55910   4
 -10  -4  -2 10.0129 2.21555   1
 -10   4   2 3.95135 1.46547   3
 -10  -4  -2 9.39906 1.62053   3
 -10   4   2 6.30975 1.73464   3
 -10   4  -2 9.02752 2.47816   1
  10   4   2 6.62701 4.23416   4
 -10   4  -2 6.10253 1.74807   3
 -10  -4   2 11.2933 2.30357   1
 -10  -4   2 9.04296 1.81083   6
 -10   4  -2 4.83982 1.86773   3
 -10  -4   2 7.67182 1.51307   3
  10  -4  -2 3.83235 1.72851   8
 -11   4   2 1.57568 2.06400   1
  11  -4   2 0.65727 1.40167   8
 -11  -4  -2 2.13425 1.19670   3
 -11   4   2 1.43528 1.42061   3
 -11   4   2 -0.1214 1.39948   3
  11   4  -2 -5.0120 3.96579   4
  11  -4  -2 1.50124 1.48758   8
 -11   4  -2 2.60880 1.72379   3
 -11  -4   2 1.49486 1.24270   6
 -11  -4   2 1.20060 1.15431   3
 -11   4  -2 1.29558 1.89602   1
 -11   4  -2 0.40471 1.67077   3
  11   4   2 -4.2291 3.35256   4
 -12  -4  -2 90.4675 9.51301   3
 -12   4   2 68.3551 9.66692   3
 -12   4   2 92.9474 11.1416   1
  12  -4   2 94.2346 10.1536   8
 -12   4   2 87.1637 9.83818   3
  12   4  -2 71.3945 14.1989   4
  12  -4  -2 105.556 10.3740   8
  12   4   2 93.5250 9.64691   8
 -12  -4   2 97.3825 9.70403   6
 -12   4  -2 94.3198 11.2741   1
 -12   4  -2 97.4307 10.1301   3
  12   4   2 101.640 9.63484   8
 -12  -4   2 101.911 9.63418   3
   0  -5  -2 0.78181 1.54756   2
   0   5   2 0.50945 1.48631   2
   0   5  -2 -2.3535 1.45559   2
   0  -5   2 -3.1383 1.18401   7
   0  -5   2 0.49571 1.29034   7
   0   5   2 4.07451 1.70151   7
   0  -5  -2 0.57776 1.30658   7
   0  -5   2 -0.5494 1.46477   2
   1   5  -2 4.94825 1.92795   2
   1  -5   2 9.06023 2.18976   2
   1  -5   2 3.30088 1.67144   7
  -1   5   2 5.67970 1.68469   7
  -1  -5  -2 5.41591 1.81612   2
   1   5  -2 7.23893 1.93545   2
   1  -5   2 8.09446 1.82888   7
  -1  -5  -2 2.30108 1.44636   7
  -1   5   2 5.16123 1.77327   2
  -1  -5   2 2.63815 1.44595   7
   1   5   2 7.82162 1.80795   7
  -1   5  -2 7.78700 2.08996   2
  -1  -5   2 5.36879 2.02377   7
   1   5   2 1.85968 1.47401   2
   1  -5  -2 7.20247 1.78479   7
   1   5   2 4.11101 2.13180   4
   1  -5  -2 5.74957 1.89925   2
  -1   5  -2 6.89232 2.10409   7
  -1   5  -2 6.17240 1.76025   7
  -1  -5   2 4.72596 1.73471   2
   2  -5   2 1380.00 147.809   7
  -2   5   2 1461.84 145.590   1
   2   5  -2 1471.01 147.021   2
   2   5  -2 1427.58 135.568   8
  -2   5   2 1412.09 147.764   7
   2  -5   2 1437.96 147.138   2
  -2   5   2 1471.75 147.036   2
  -2  -5  -2 1279.14 147.775   7
   2  -5   2 1393.57 147.662   7
  -2  -5   2 1166.94 145.500   1
  -2   5  -2 1250.83 147.891   7
  -2   5  -2 1502.81 145.643   1
   2  -5  -2 1533.27 147.688   7
   2  -5  -2 1136.42 146.941   2
   2  -5  -2 1319.78 147.743   7
   2   5   2 1253.69 146.938   2
  -2   5  -2 1223.96 147.090   2
   2   5   2 1517.28 135.541   8
  -2  -5   2 1222.06 134.090   6
  -3   5   2 4.93864 1.33748   7
   3   5  -2 2.30085 1.46987   2
   3  -5   2 5.12796 0.86122   7
  -3  -5  -2 4.73766 1.46740   7
   3  -5   2 5.81352 0.85767   7
   3   5  -2 5.25690 2.54902   4
  -3  -5  -2 5.54815 1.77019   1
   3  -5   2 3.72406 1.49069   8
  -3  -5  -2 7.83941 1.68689   6
  -3   5   2 1.52803 1.46294   1
   3   5  -2 3.36943 1.33926   8
   3  -5   2 3.50349 1.63964   2
  -3  -5  -2 8.97885 1.57233   3
  -3  -5   2 0.57503 1.47913   1
  -3  -5   2 2.91342 1.39001   6
   3   5   2 2.27758 1.13355   8
  -3   5  -2 5.87587 1.53172   7
   3  -5  -2 5.77343 1.66475   2
   3  -5  -2 5.91784 1.58903   8
  -3   5  -2 3.14876 1.49894   7
   3   5   2 2.83091 2.21632   4
  -3   5  -2 4.53577 1.75656   1
   3   5   2 3.91643 1.46786   2
  -4  -5  -2 59.5750 6.97239   6
  -4  -5  -2 52.3439 7.50230   1
   4   5  -2 64.4540 7.45030   2
  -4   5   2 67.4598 6.84938   3
   4  -5   2 81.5945 7.37759   8
  -4  -5  -2 65.2060 7.47961   7
  -4   5   2 64.7375 7.57507   7
  -4   5   2 62.4154 7.72631   1
  -4  -5  -2 73.9782 6.81012   3
   4   5  -2 82.1216 9.52533   4
   4   5  -2 60.7687 6.94943   8
   4  -5   2 67.0422 7.84003   2
   4   5   2 60.6994 6.88155   8
  -4  -5   2 60.3670 7.05051   6
   4   5   2 62.5895 8.87292   4
  -4  -5   2 65.0248 7.69993   1
   4   5   2 48.7356 7.33662   2
   4  -5  -2 72.7384 7.25590   8
  -4   5  -2 48.9436 7.42329   7
  -4   5  -2 69.7308 7.86753   1
   4  -5  -2 62.7404 7.63851   2
  -4   5  -2 73.2700 7.09601   3
  -4   5  -2 72.2352 7.70114   7
   5   5  -2 1483.83 185.969   4
   5   5  -2 1621.46 156.370   8
   5  -5   2 1713.19 156.639   8
  -5  -5  -2 1543.01 150.061   3
  -5  -5  -2 1685.10 154.847   6
  -5   5   2 1545.37 150.122   3
  -5   5   2 1505.63 170.456   7
   5  -5   2 1706.94 169.515   2
  -5   5   2 1495.35 154.843   6
   5  -5  -2 1468.38 169.457   2
  -5  -5   2 1679.07 168.059   1
   5   5   2 1825.73 156.357   8
  -5  -5   2 1465.93 154.835   6
  -5  -5   2 1558.85 150.037   3
   5   5   2 1564.12 185.950   4
  -5   5  -2 1388.81 170.398   7
   5   5   2 1631.63 156.373   8
   5  -5  -2 1449.89 156.565   8
  -5   5  -2 1545.04 150.272   3
  -6  -5  -2 11.5463 2.01840   3
   6   5  -2 17.4001 2.11927   8
  -6   5   2 17.3701 2.43370   3
  -6   5   2 17.1667 2.93752   1
   6   5  -2 11.9831 1.95264   8
  -6   5   2 11.5517 2.04661   7
  -6   5   2 12.6365 2.21727   3
   6  -5   2 13.9492 2.45486   8
   6   5  -2 11.8642 3.46404   4
  -6  -5  -2 17.0390 2.47775   6
  -6  -5  -2 10.9937 2.36749   1
  -6   5  -2 15.4385 2.18776   7
   6   5   2 12.3862 2.06552   8
  -6  -5   2 10.0681 2.45740   1
  -6  -5   2 12.5997 2.30689   6
  -6  -5   2 10.9472 1.96685   3
  -6   5  -2 16.2819 2.55837   3
  -6   5  -2 10.1262 2.52251   1
   6   5   2 10.8607 3.66373   4
  -6   5  -2 14.0663 2.31043   3
   6  -5  -2 6.38861 2.10911   8
   6   5   2 12.6161 1.96710   8
  -6  -5   2 12.6580 2.58081   1
   7   5  -2 11.8865 1.87869   8
  -7  -5  -2 11.8626 2.10235   3
   7   5  -2 8.82376 3.90904   4
  -7  -5  -2 7.87478 2.27661   1
  -7  -5  -2 9.77173 2.25295   6
   7  -5   2 14.6390 2.52520   8
  -7   5   2 10.7648 2.22204   3
  -7   5   2 18.2841 3.01254   1
  -7   5   2 10.7668 2.06102   7
  -7   5   2 11.8526 2.27730   3
   7   5  -2 13.5475 1.92052   8
   7   5   2 12.2667 2.01677   8
  -7  -5   2 12.3798 2.32842   6
  -7   5  -2 12.9217 2.81910   1
  -7  -5   2 13.7865 2.65518   1
  -7   5  -2 16.5755 2.44349   3
   7   5   2 11.8986 1.90915   8
  -7   5  -2 14.4587 2.64237   3
   7  -5  -2 13.1600 2.43485   8
  -7  -5   2 16.7634 2.20307   3
  -7  -5   2 10.0640 2.47260   1
   7   5   2 18.6773 4.54926   4
   8  -5   2 606.434 70.4229   8
  -8  -5  -2 676.346 75.5952   1
   8   5  -2 816.505 70.1603   8
   8   5  -2 821.178 85.0373   4
  -8   5   2 579.718 75.6662   1
  -8   5   2 677.348 67.6338   3
  -8  -5  -2 717.824 67.5528   3
   8   5  -2 657.824 70.1133   8
  -8   5   2 666.610 67.6773   3
   8  -5  -2 622.190 70.5002   8
  -8   5  -2 794.605 67.7651   3
  -8  -5   2 803.156 69.7811   6
   8   5   2 676.549 70.1525   8
  -8   5  -2 785.600 75.9453   1
  -8  -5   2 807.331 67.5954   3
  -8   5  -2 619.956 67.7414   3
  -8  -5   2 683.796 75.6663   1
   8   5   2 650.114 84.4537   4
   8   5   2 741.846 70.2330   8
   9   5  -2 523.657 65.4076   4
  -9   5   2 533.863 58.3417   1
  -9   5   2 437.944 51.9294   3
  -9   5   2 564.049 52.0498   3
   9   5  -2 595.432 53.7609   8
   9   5  -2 525.879 53.7481   8
   9  -5   2 552.196 54.2211   8
  -9  -5  -2 590.090 51.8990   3
  -9  -5  -2 564.517 58.1409   1
   9   5   2 476.830 65.2836   4
  -9  -5   2 530.536 58.1715   1
   9   5   2 539.815 53.8233   8
  -9   5  -2 595.106 58.4023   1
   9   5   2 544.399 53.8510   8
   9  -5  -2 484.967 54.1787   8
  10   5  -2 177.347 16.9060   8
 -10  -5  -2 139.612 18.5314   1
  10   5  -2 158.381 16.9018   8
 -10  -5  -2 162.616 16.5229   3
  10   5  -2 147.223 22.0296   4
 -10   5   2 137.123 16.6534   3
 -10   5   2 145.163 18.7900   1
  10  -5   2 163.237 17.4262   8
 -10  -5   2 171.931 17.1516   6
  10  -5  -2 170.937 17.5469   8
  10   5   2 174.331 17.0472   8
 -10   5  -2 188.687 19.0181   1
  10   5   2 201.109 22.9728   4
 -10  -5   2 200.335 18.8744   1
 -10   5  -2 180.431 17.0461   3
 -11   5   2 14.1090 2.67336   3
  11   5  -2 14.5203 2.11498   8
 -11  -5  -2 14.8652 2.88370   1
 -11   5   2 12.8012 3.17113   1
 -11  -5  -2 8.84580 2.11701   3
  11  -5   2 12.5115 2.72459   8
  11   5  -2 11.1301 5.40938   4
  11   5   2 11.3135 2.24851   8
  11  -5  -2 12.4967 2.73456   8
 -11   5  -2 11.9741 2.89688   3
  11   5   2 14.4130 6.33870   4
 -11  -5   2 12.4175 2.35106   6
 -11   5  -2 13.3399 3.30909   1
 -11  -5   2 11.1687 2.88554   1
 -11  -5   2 15.2986 2.39032   3
  12   5  -2 22.8533 3.23778   8
 -12   5   2 23.1288 3.69938   3
  12  -5   2 20.2236 3.80980   8
 -12  -5  -2 29.6306 3.49967   3
 -12   5   2 23.1226 4.34966   1
 -12  -5   2 26.1723 3.35726   6
  12  -5  -2 24.2810 3.99785   8
 -12  -5   2 24.3687 3.48641   3
 -12   5  -2 23.0430 4.37248   1
  12   5   2 19.6619 3.20995   8
 -12   5  -2 19.8449 3.79438   3
   0   6   2 1537.79 151.162   2
   0  -6  -2 1506.70 151.191   2
   0  -6   2 1188.83 151.905   7
   0  -6  -2 1352.99 151.824   7
  -1   6   2 23.2745 3.53140   1
   1  -6   2 15.6580 3.22898   2
  -1   6   2 18.6439 3.23676   2
  -1   6   2 16.5688 3.17348   7
   1  -6   2 18.3339 3.19266   7
  -1  -6  -2 20.6715 3.39378   2
  -1  -6  -2 19.4770 3.15754   7
   1  -6   2 19.5492 3.32760   7
  -1  -6  -2 15.6356 3.33884   1
   1   6  -2 17.9567 3.43904   2
   1   6  -2 13.9976 3.23780   2
  -1  -6   2 23.8900 3.49464   7
   1  -6  -2 21.9502 3.32371   7
   1   6   2 24.4655 3.26045   7
  -1  -6   2 16.7740 3.24059   2
  -1   6  -2 23.5218 3.42946   7
   1   6   2 23.9526 4.13880   4
  -1  -6   2 18.5015 3.15647   7
  -1  -6   2 18.3866 3.49969   1
   1  -6  -2 23.0031 3.51641   2
   1   6   2 19.7095 3.38199   2
  -1   6  -2 23.8288 3.74982   2
   2  -6   2 1955.11 202.443   2
  -2   6   2 2147.49 200.455   1
  -2   6   2 1551.21 202.241   2
  -2  -6  -2 2009.05 200.416   1
  -2  -6  -2 1616.22 202.278   2
  -2   6   2 1892.44 203.422   7
   2   6  -2 1983.37 202.393   2
   2   6  -2 1804.33 186.621   8
   2  -6   2 2030.16 203.468   7
  -2  -6   2 2157.52 184.792   6
   2   6   2 1807.07 202.348   2
   2  -6  -2 1840.11 203.346   7
  -2  -6   2 1733.95 200.382   1
  -2   6  -2 1803.80 203.451   7
   2   6   2 1922.39 186.568   8
  -2  -6   2 2017.41 202.367   2
  -2   6  -2 1635.31 200.296   1
   3   6  -2 15.8270 2.60682   2
   3  -6   2 11.3315 2.28668   8
   3   6  -2 12.6326 2.18426   8
  -3   6   2 13.5777 2.59345   2
  -3  -6  -2 11.5649 2.52631   1
  -3   6   2 9.28297 2.55067   1
   3  -6   2 12.1299 1.97926   7
   3   6  -2 7.13232 2.92795   4
  -3  -6  -2 7.37580 1.91149   3
  -3  -6  -2 12.9616 2.44701   7
  -3  -6  -2 15.4447 2.51448   6
   3  -6   2 5.51664 2.23218   2
  -3   6   2 13.4303 2.35053   7
  -3   6  -2 14.7285 2.47193   7
   3   6   2 13.3778 2.20837   8
   3   6   2 10.6276 2.34440   2
  -3  -6   2 11.4807 2.15636   3
   3  -6  -2 9.42655 1.85036   7
   3  -6  -2 9.33683 2.10563   8
  -3  -6   2 17.4265 2.93503   1
  -3   6  -2 9.48408 2.54142   1
  -3   6  -2 13.1268 2.79611   2
   3  -6  -2 11.9540 1.91150   7
  -3  -6   2 11.2633 2.30853   6
   3   6   2 10.9852 3.10627   4
  -3   6  -2 10.3091 2.41600   7
   3  -6  -2 11.2326 2.51931   2
   4  -6   2 614.211 59.2528   2
  -4  -6  -2 474.142 52.1830   3
  -4   6   2 619.289 52.4050   3
  -4   6   2 440.683 59.1594   7
   4  -6   2 606.888 54.7331   8
  -4  -6  -2 546.443 53.9555   6
   4   6  -2 575.709 59.0182   2
  -4   6   2 475.720 58.5268   1
   4   6  -2 562.969 54.4182   8
  -4   6  -2 533.835 58.6140   1
  -4   6  -2 550.576 59.4574   7
  -4  -6   2 462.753 58.4969   1
   4   6   2 544.972 54.3783   8
   4   6   2 544.757 58.9244   2
   4   6   2 558.310 65.0124   4
   4  -6  -2 539.835 59.0817   2
  -4  -6   2 579.677 54.0149   6
   5   6  -2 7.93239 3.09917   4
   5  -6   2 10.0545 2.37100   2
  -5  -6  -2 7.55568 1.89434   6
  -5   6   2 13.0518 2.26338   3
  -5   6   2 6.35702 2.26132   1
  -5  -6  -2 6.27610 2.11746   1
   5   6  -2 8.00970 1.34407   2
  -5  -6  -2 8.11832 1.81390   3
   5  -6   2 4.27708 1.78564   8
   5   6  -2 5.39927 1.68280   8
  -5   6  -2 8.36532 2.13689   3
   5  -6  -2 7.32793 1.99172   2
   5  -6  -2 15.3488 2.53512   8
   5   6   2 3.37320 2.14366   4
  -5  -6   2 7.10583 1.73074   3
   5   6   2 6.07021 1.46999   2
   5   6   2 7.58678 1.74564   8
  -5   6  -2 15.6485 2.84019   1
  -5  -6   2 9.08507 2.16712   6
  -5  -6   2 12.7464 2.71581   1
  -6  -6  -2 171.276 18.4974   6
  -6   6   2 173.280 20.2472   1
   6   6  -2 199.458 23.2852   4
  -6  -6  -2 179.590 20.1254   1
   6  -6   2 163.669 19.8208   2
  -6  -6  -2 161.646 17.8528   3
   6   6  -2 200.430 18.6564   8
  -6   6   2 164.209 18.0028   3
   6  -6   2 177.356 18.9273   8
   6   6   2 153.062 18.4580   8
  -6  -6   2 176.346 18.5488   6
  -6  -6   2 222.478 18.0469   3
   6  -6  -2 197.430 19.8763   2
  -6  -6   2 208.056 20.4232   1
  -6   6  -2 199.505 18.3238   3
   6   6   2 156.495 22.8808   4
  -6   6  -2 181.293 20.3026   1
   7   6  -2 39.0490 7.63049   4
   7  -6   2 49.8513 5.83905   8
   7   6  -2 45.4554 5.26262   8
  -7  -6  -2 40.8249 5.81221   1
  -7   6   2 43.1825 5.30796   3
  -7  -6  -2 41.7779 5.30025   6
  -7   6   2 46.2997 6.32305   1
  -7  -6  -2 38.3160 5.00634   3
  -7  -6   2 43.0838 6.18257   1
  -7  -6   2 43.8362 5.12016   3
   7   6   2 43.8544 5.17615   8
  -7   6  -2 36.6924 5.45825   3
  -7   6  -2 51.7016 6.28418   1
   7  -6  -2 41.7760 5.80136   8
   7   6   2 45.0130 7.92119   4
  -7  -6   2 47.9601 5.57864   6
   8   6  -2 11.9673 4.59816   4
  -8   6   2 9.25521 2.46566   3
   8   6  -2 5.23480 1.96332   8
   8  -6   2 18.4496 3.08793   8
  -8  -6  -2 14.3415 2.83182   1
  -8   6   2 14.7578 3.27718   1
  -8  -6  -2 14.5206 2.39159   3
  -8   6  -2 11.8460 3.08720   1
  -8  -6   2 18.8988 2.59360   3
   8   6   2 15.2268 4.48733   4
   8   6   2 9.59508 2.15834   8
   8  -6  -2 12.9366 2.97838   8
  -8  -6   2 9.01530 2.36201   6
  -8   6  -2 12.7050 2.78974   3
  -8  -6   2 20.6018 3.47251   1
   9   6  -2 5.37779 3.84080   4
  -9   6   2 5.04224 2.44560   1
   9   6  -2 6.39399 1.76847   8
  -9  -6  -2 7.48549 2.29852   1
  -9  -6  -2 7.83309 1.87738   3
  -9   6   2 6.35079 1.84844   3
   9  -6   2 7.80947 2.50531   8
   9   6   2 4.76118 3.32597   4
  -9  -6   2 9.02758 2.57499   1
  -9   6  -2 4.50388 2.48964   1
  -9   6  -2 8.87838 2.51447   3
   9   6   2 3.97331 1.58453   8
  -9  -6   2 2.52349 2.04355   6
   9  -6  -2 7.06945 2.43272   8
  -9  -6   2 4.79946 1.86298   3
 -10   6   2 1270.53 124.805   1
  10   6  -2 1048.02 138.520   4
 -10   6   2 1189.94 111.374   3
  10  -6   2 1071.29 116.103   8
 -10  -6  -2 1315.56 111.267   3
 -10  -6  -2 1149.71 124.491   1
 -10   6  -2 1297.61 124.812   1
  10  -6  -2 1117.70 116.176   8
  10   6   2 1206.66 139.035   4
  10   6   2 1201.52 115.765   8
 -10  -6   2 979.006 114.515   6
 -10   6  -2 1093.14 111.478   3
  11   6  -2 2.41423 1.89965   8
 -11   6   2 9.06087 3.05777   1
  11   6  -2 8.26680 5.24537   4
 -11   6   2 7.40154 2.25744   3
 -11  -6  -2 3.02120 2.29333   1
 -11  -6  -2 3.73177 1.74030   3
  11  -6   2 2.82088 2.20458   8
 -11   6  -2 3.12518 2.80136   1
  11   6   2 6.09450 1.86547   8
 -11   6  -2 8.28055 2.57022   3
  11  -6  -2 7.31634 2.53855   8
 -11  -6   2 5.50013 1.77853   6
 -11  -6   2 4.46914 2.51441   1
 -11  -6   2 4.01529 1.91160   3
 -11  -6   2 5.18922 1.76346   3
  12  -6   2 54.9002 7.16433   8
 -12  -6  -2 52.5360 7.11024   1
  12   6  -2 47.1748 6.27930   8
 -12   6   2 60.1817 7.89456   1
 -12   6   2 57.6746 6.60974   3
 -12  -6  -2 51.1472 6.14201   3
 -12  -6   2 57.9002 6.49512   3
 -12  -6   2 46.5020 6.12301   6
  12  -6  -2 42.1042 6.76494   8
 -12   6  -2 55.0735 7.82131   1
 -12   6  -2 54.6303 6.84074   3
 -12  -6   2 52.8093 6.27829   3
  12   6   2 53.2321 6.26073   8
   0  -7   2 0.29077 1.35650   7
   0  -7  -2 0.37059 1.47395   1
   0   7   2 0.38032 1.49048   2
   0  -7  -2 1.23936 1.62844   2
   0  -7   2 0.32022 1.62004   1
   0   7  -2 0.27447 1.60803   2
   0   7   2 0.00998 1.31655   7
   0  -7   2 2.58046 1.69228   7
   0  -7   2 -1.3241 1.49180   2
   0  -7  -2 0.89782 1.38168   7
   1  -7   2 44.8821 7.04670   7
   1   7  -2 61.3424 7.56686   2
  -1   7   2 52.8436 7.31544   7
  -1  -7  -2 50.8460 7.22046   2
   1  -7   2 56.2717 7.48531   2
  -1   7   2 60.6213 7.33467   1
  -1  -7  -2 50.7758 7.13094   7
   1   7  -2 55.1410 7.62052   2
  -1  -7  -2 66.8611 7.59828   1
  -1   7   2 72.2950 7.62732   2
   1  -7   2 63.4758 7.45208   7
  -1   7  -2 65.3364 7.72711   2
  -1   7  -2 67.1474 7.64422   7
  -1  -7   2 49.2955 7.12568   7
   1   7   2 64.7147 7.35300   7
  -1   7  -2 61.1739 7.57539   1
   1   7   2 62.1925 7.46815   2
   1  -7  -2 54.3203 7.46266   2
   1  -7  -2 54.0635 7.19854   7
  -1  -7   2 75.4667 7.69998   1
  -1  -7   2 59.8798 7.47181   7
   1   7   2 37.2531 7.97227   4
  -1  -7   2 65.4893 7.54247   2
   2  -7   2 805.922 86.3551   7
  -2   7   2 904.387 86.1088   2
   2  -7   2 755.722 86.0478   2
  -2  -7  -2 848.801 85.3017   1
  -2  -7  -2 768.535 86.0144   2
  -2   7   2 703.838 85.0970   1
  -2   7   2 689.804 86.3383   7
   2   7  -2 798.556 86.0565   2
   2  -7   2 728.874 86.2602   7
  -2   7  -2 911.574 85.4396   1
   2   7   2 803.034 79.2642   8
  -2  -7   2 860.665 86.0739   2
  -2   7  -2 836.740 86.3280   2
  -2   7  -2 893.721 86.5667   7
   2  -7  -2 661.814 86.3110   7
  -2  -7   2 794.297 85.3021   1
  -2  -7   2 750.094 78.5484   6
   2  -7  -2 746.790 86.3181   7
   2   7   2 811.418 86.1135   2
   3  -7   2 52.4396 6.07443   8
   3  -7   2 44.4882 5.65789   7
  -3   7   2 44.0119 6.22373   1
  -3  -7  -2 53.1628 6.25143   7
  -3  -7  -2 56.7913 5.91198   6
  -3   7   2 43.7698 6.25235   2
   3   7  -2 55.9688 6.26078   2
  -3  -7  -2 41.6599 6.19306   1
   3   7  -2 38.8960 7.69084   4
   3  -7   2 50.5099 6.44308   2
  -3   7   2 42.8517 5.99531   7
   3   7  -2 45.0496 5.68914   8
  -3   7  -2 38.7595 6.34120   7
  -3  -7   2 49.5531 5.58461   3
   3   7   2 49.1503 7.29307   4
   3  -7  -2 42.8703 5.65764   7
   3  -7  -2 50.3217 6.28478   2
  -3  -7   2 38.6478 6.41915   1
  -3   7  -2 57.1151 6.81379   2
   3   7   2 49.1207 6.29349   2
  -3  -7   2 43.8443 5.76262   6
  -3   7  -2 42.1531 6.04332   7
   3   7   2 35.8584 5.43596   8
  -3   7  -2 34.3492 6.28167   1
   4   7  -2 2.59471 1.67251   2
   4  -7   2 1.93549 1.67814   2
   4   7  -2 6.45071 1.80667   8
   4   7  -2 -0.0396 2.58544   4
   4  -7   2 4.12398 1.93980   8
  -4  -7  -2 -0.0984 1.27099   3
  -4  -7  -2 1.64937 1.52792   6
  -4   7   2 1.71374 1.85099   1
  -4   7   2 0.76237 1.09409   3
  -4  -7  -2 0.46897 1.54490   1
   4   7   2 1.42989 2.35776   4
   4   7   2 8.45834 1.79789   8
  -4  -7   2 1.37648 1.35563   3
   4  -7  -2 -0.1004 1.61179   2
  -4  -7   2 0.74241 1.52029   6
  -4  -7   2 2.27860 1.68549   1
  -4   7  -2 -0.6207 1.69210   1
   4  -7  -2 0.49910 1.54929   8
   4   7   2 3.39962 1.81203   2
  -4   7  -2 3.25469 1.60072   3
  -4   7  -2 3.73121 1.53443   7
   5   7  -2 1907.52 226.802   2
  -5   7   2 1893.79 225.012   1
  -5   7   2 2398.19 201.205   3
   5   7  -2 1747.23 248.724   4
   5   7  -2 2324.97 209.574   8
   5  -7   2 1758.59 227.120   2
  -5  -7  -2 2006.54 224.956   1
   5  -7   2 2067.65 209.770   8
  -5  -7  -2 2248.68 201.090   3
  -5  -7  -2 2397.48 207.482   6
  -5  -7   2 2278.38 225.237   1
  -5   7  -2 1866.01 201.155   3
  -5  -7   2 1807.43 200.993   3
   5   7   2 2276.66 248.854   4
   5   7   2 2269.59 226.865   2
   5  -7  -2 2155.32 227.156   2
  -5  -7   2 2274.63 207.524   6
   5   7   2 2250.29 209.521   8
  -6  -7  -2 68.3694 8.24221   1
   6  -7   2 83.3761 8.02069   8
  -6   7   2 50.1668 7.10203   3
  -6   7   2 65.7104 8.41322   1
   6  -7   2 80.8979 7.99968   2
  -6  -7  -2 71.4178 7.58999   6
   6   7  -2 64.6400 7.37699   8
   6   7  -2 57.5111 10.1250   4
  -6  -7  -2 56.8539 7.08449   3
  -6   7  -2 69.4484 7.61857   3
   6  -7  -2 61.8126 7.85523   2
   6   7   2 81.2344 10.3385   4
   6   7   2 56.2381 7.25001   8
  -6  -7   2 66.5540 7.33615   3
   6  -7  -2 62.0156 7.75506   8
  -6  -7   2 64.0495 7.61065   6
  -6   7  -2 42.2199 8.14894   1
  -6  -7   2 70.2182 8.46618   1
  -7  -7  -2 7.49697 2.55089   1
  -7   7   2 4.14686 1.89979   3
  -7  -7  -2 7.02530 2.09629   6
   7   7  -2 10.1123 2.16163   8
   7  -7   2 10.2154 2.84832   8
   7   7  -2 7.49910 4.12584   4
  -7   7   2 6.27699 2.62132   1
  -7  -7  -2 6.18004 1.94074   3
   7  -7  -2 12.5410 2.89400   8
   7   7   2 6.05928 3.50028   4
   7   7   2 9.57233 2.18469   8
  -7  -7   2 9.32574 2.25168   3
  -7   7  -2 13.7070 2.89863   3
  -7  -7   2 6.30342 2.56595   1
  -7  -7   2 8.25963 2.34362   6
  -7   7  -2 7.65371 2.65908   1
  -8  -7  -2 465.403 49.3288   1
   8  -7   2 430.138 46.0886   8
  -8   7   2 479.965 44.2352   3
   8   7  -2 520.159 55.9603   4
  -8  -7  -2 460.077 44.0259   3
  -8   7   2 382.033 49.3404   1
  -8  -7  -2 436.832 45.3892   6
   8   7  -2 485.568 45.7790   8
   8  -7  -2 435.054 46.1345   8
   8   7   2 462.895 45.7394   8
   8   7   2 470.103 55.6170   4
  -8  -7   2 417.016 44.0490   3
  -8   7  -2 440.487 44.3249   3
  -8   7  -2 492.075 49.6169   1
  -8  -7   2 522.099 45.6751   6
  -8  -7   2 381.860 49.3018   1
  -9   7   2 218.208 25.7517   1
   9   7  -2 233.827 29.8114   4
   9   7  -2 245.405 23.6200   8
  -9   7   2 275.731 23.1474   3
  -9  -7  -2 261.503 22.9050   3
  -9  -7  -2 239.676 25.6060   1
   9  -7   2 209.004 23.9377   8
  -9  -7   2 197.297 22.7170   3
  -9   7  -2 234.913 25.8342   1
  -9   7  -2 209.446 23.0242   3
   9  -7  -2 194.401 23.9017   8
   9   7   2 234.484 23.5784   8
  -9  -7   2 217.469 25.6173   1
  -9  -7   2 230.970 23.5550   6
   9   7   2 234.318 29.5655   4
  10   7  -2 350.600 45.5574   4
  10   7  -2 407.187 37.1139   8
 -10  -7  -2 367.383 40.0714   1
  10  -7   2 364.829 37.4980   8
 -10   7   2 346.172 35.8244   3
 -10   7   2 364.243 40.2294   1
 -10  -7  -2 293.896 35.5263   3
 -10  -7   2 395.055 35.8480   3
  10   7   2 388.511 45.9476   4
 -10   7  -2 395.875 36.1367   3
  10  -7  -2 370.661 37.5688   8
  10   7   2 297.848 36.8769   8
 -10  -7   2 390.255 40.0969   1
 -10   7  -2 396.006 40.4056   1
 -10  -7   2 372.953 36.7127   6
 -11   7   2 54.0518 8.28146   1
 -11   7   2 58.9557 7.29645   3
 -11  -7  -2 65.6513 7.12669   3
  11   7  -2 53.8392 7.12282   8
  11  -7   2 65.0511 8.00316   8
 -11  -7  -2 73.0212 8.40646   1
 -11  -7   2 49.4218 7.04765   3
 -11  -7   2 55.2604 7.07800   6
  11  -7  -2 61.6213 8.09070   8
 -11   7  -2 68.9301 9.03991   1
  11   7   2 61.5315 7.15605   8
 -11  -7   2 59.1157 8.10511   1
 -11   7  -2 57.1181 7.65722   3
 -12   7   2 1.51704 2.10536   3
  12  -7   2 -3.1363 2.01257   8
 -12  -7  -2 2.57003 2.50085   1
 -12  -7  -2 1.04632 1.87688   3
 -12   7   2 0.47023 2.72138   1
  12   7  -2 0.57765 1.89055   8
  12   7   2 1.19751 1.83562   8
 -12  -7   2 -1.5765 1.50727   6
 -12  -7   2 0.91259 1.62762   3
 -12   7  -2 -1.6484 2.45409   1
 -12  -7   2 3.90099 2.62234   1
 -12   7  -2 2.84642 2.09757   3
  12  -7  -2 4.41708 2.35452   8
   0   8   2 298.995 31.8651   1
   0   8  -2 287.732 32.0091   1
   0   8   2 272.914 32.1627   2
   0  -8   2 275.249 32.2666   2
   0  -8  -2 351.227 32.5648   2
   0   8  -2 266.389 32.2705   2
   0   8   2 323.093 32.3786   7
   0  -8   2 228.507 32.2008   7
   0  -8   2 316.562 32.1224   1
  -1  -8  -2 1157.52 112.561   2
  -1  -8  -2 1002.74 112.857   7
   1   8  -2 1013.90 112.614   2
  -1   8   2 1151.18 111.394   1
   1  -8   2 899.610 112.351   2
   1   8  -2 1160.66 112.607   2
  -1   8   2 983.778 112.973   7
  -1   8   2 832.267 112.230   2
   1  -8   2 1078.06 113.016   7
   1  -8   2 1154.54 111.386   1
  -1  -8  -2 1066.25 111.469   1
  -1  -8   2 1111.37 113.175   7
  -1   8  -2 957.493 111.322   1
   1   8   2 892.287 122.828   4
   1  -8  -2 904.003 111.317   1
  -1  -8   2 1082.51 113.039   7
   1  -8  -2 1124.52 112.627   2
  -1  -8   2 1081.45 112.490   2
   2   8  -2 188.532 18.6467   2
   2  -8   2 158.967 18.2499   7
  -2  -8  -2 163.239 16.8658   6
  -2  -8  -2 203.207 18.7432   2
  -2  -8  -2 135.027 18.2050   7
  -2   8   2 147.038 18.3444   7
  -2   8   2 178.874 18.3847   1
   2   8  -2 160.286 16.9246   8
   2  -8   2 148.894 18.4083   2
   2   8  -2 171.006 18.4311   2
  -2  -8  -2 155.410 18.2991   1
  -2   8  -2 179.698 18.5369   7
   2  -8  -2 134.671 18.3575   2
  -2   8  -2 188.741 18.6315   1
  -2   8  -2 170.016 18.7319   2
   2   8   2 165.549 16.9010   8
  -2  -8   2 180.758 18.4813   1
   2   8   2 136.438 18.3182   2
   2  -8  -2 156.999 18.3720   7
   2   8   2 132.104 20.1908   4
  -2  -8   2 159.274 18.4135   7
  -2  -8   2 137.444 16.7954   6
  -3  -8  -2 79.7216 9.78522   1
  -3   8   2 86.1276 9.81309   1
  -3  -8  -2 87.7701 9.78330   7
   3  -8   2 61.9494 9.63730   2
   3   8  -2 57.3654 8.71952   8
  -3  -8  -2 86.5750 9.06879   6
   3   8  -2 63.6977 11.1065   4
   3   8  -2 81.7546 9.69431   2
  -3   8  -2 62.1579 9.69967   1
  -3  -8   2 91.9996 9.92104   7
   3  -8  -2 90.5382 9.22642   8
  -3  -8   2 87.3443 9.91704   1
   3   8   2 73.3862 9.73610   2
   3   8   2 89.8747 8.92710   8
   3   8   2 63.9516 10.7361   4
   3  -8  -2 87.5007 9.84461   2
  -3  -8   2 91.5912 9.28380   6
  -4  -8  -2 261.547 26.1421   6
   4   8  -2 211.155 31.7215   4
  -4   8   2 242.585 28.3807   1
   4   8  -2 235.341 26.2535   8
   4   8  -2 295.267 28.5689   2
   4  -8   2 263.455 28.6799   2
   4  -8   2 254.434 26.6030   8
  -4  -8  -2 226.806 28.2562   1
  -4  -8   2 284.595 26.3875   6
  -4   8  -2 297.088 28.7155   1
  -4  -8   2 269.100 25.4255   3
   4  -8  -2 244.197 26.4271   8
   4   8   2 219.890 26.0735   8
   4  -8  -2 288.142 28.7307   2
  -4  -8   2 197.978 28.1894   1
   4   8   2 323.144 32.0976   4
   5  -8   2 266.081 30.0389   8
   5   8  -2 233.681 31.9735   2
   5   8  -2 321.259 29.9352   8
  -5   8   2 246.486 32.1014   1
   5  -8   2 349.377 32.6111   2
  -5  -8  -2 300.291 32.2268   1
  -5  -8  -2 346.833 28.9016   3
   5   8  -2 333.367 36.5316   4
  -5  -8  -2 286.159 29.6068   6
   5  -8  -2 321.834 30.1910   8
  -5  -8   2 246.838 28.6232   3
   5   8   2 262.072 31.9627   2
  -5   8  -2 275.417 32.2735   1
  -5  -8   2 320.676 29.8919   6
   5  -8  -2 253.813 32.2106   2
   5   8   2 312.502 29.8066   8
  -5  -8   2 324.206 32.4512   1
  -6  -8  -2 120.387 13.7670   1
   6  -8   2 135.572 13.1903   8
   6   8  -2 97.0174 15.7112   4
  -6  -8  -2 128.453 12.2798   3
   6   8  -2 89.1535 12.3760   8
   6  -8   2 107.593 13.6007   2
  -6   8   2 118.986 13.8849   1
  -6  -8  -2 127.530 12.7120   6
  -6   8   2 100.347 12.1386   3
  -6   8  -2 128.000 14.0756   1
   6  -8  -2 125.767 13.6087   2
  -6  -8   2 123.116 13.9456   1
   6   8   2 120.523 12.5702   8
  -6  -8   2 122.828 12.8312   6
  -6   8  -2 151.103 13.1422   3
  -6  -8   2 98.6693 12.1283   3
   6   8   2 103.605 12.6859   2
   6  -8  -2 128.316 13.0475   8
  -7  -8  -2 867.163 81.5178   6
   7  -8   2 779.678 82.4859   8
   7   8  -2 938.292 82.3209   8
  -7   8   2 929.026 79.2163   3
  -7  -8  -2 887.382 88.5024   1
   7   8  -2 816.310 98.4153   4
   7  -8   2 762.605 88.5102   2
  -7   8   2 827.015 88.6048   1
   7   8   2 872.761 82.2036   8
  -7  -8   2 792.570 88.4836   1
  -7  -8   2 831.613 79.0944   3
  -7   8  -2 915.631 79.3759   3
  -7  -8   2 700.744 81.4202   6
  -7   8  -2 754.325 88.4864   1
   7   8   2 692.143 98.1309   4
   7  -8  -2 766.038 88.5161   2
  -8  -8  -2 23.1229 3.71326   3
   8  -8   2 25.2761 4.33674   8
   8   8  -2 14.6081 4.65883   4
   8   8  -2 19.0496 3.61793   8
  -8  -8  -2 23.0715 3.89054   6
  -8   8   2 21.4967 3.82311   3
  -8  -8  -2 21.7404 4.24766   1
  -8   8   2 19.7892 4.39938   1
  -8   8  -2 26.7833 4.31752   3
   8   8   2 21.2734 3.57108   8
  -8  -8   2 21.5338 3.81892   3
   8   8   2 23.2256 6.38212   4
  -8  -8   2 31.6973 4.89745   1
  -8  -8   2 18.6713 3.70001   6
  -8   8  -2 18.1877 4.44193   1
   8  -8  -2 16.3195 3.87480   8
  -9  -8  -2 165.734 19.2811   3
   9  -8   2 217.251 20.7334   8
  -9  -8  -2 168.300 21.6475   1
   9   8  -2 202.085 25.7480   4
  -9   8   2 191.105 19.5474   3
   9   8  -2 175.581 19.9999   8
  -9   8   2 191.897 22.0396   1
  -9  -8   2 206.000 20.0013   6
   9  -8  -2 202.505 20.6251   8
  -9   8  -2 190.724 22.0718   1
  -9  -8   2 176.337 19.4165   3
   9   8   2 178.921 19.9711   8
  -9   8  -2 197.567 19.8358   3
  -9  -8   2 221.117 22.0618   1
   9   8   2 210.864 25.5691   4
  10   8  -2 101.325 10.2288   8
  10  -8   2 97.5463 10.7869   8
 -10  -8  -2 79.5349 9.67574   3
 -10  -8  -2 90.7730 11.1782   1
 -10   8   2 83.9125 9.91366   3
 -10   8   2 97.8865 11.5453   1
  10   8  -2 91.9183 13.4580   4
  10   8   2 98.1165 10.1256   8
  10   8   2 71.0621 13.4359   4
  10  -8  -2 67.6190 10.2818   8
 -10  -8   2 75.7896 10.9960   1
 -10   8  -2 75.0302 9.88301   3
 -10  -8   2 108.908 10.1925   3
 -10  -8   2 80.5188 9.85797   6
 -10   8  -2 99.4794 11.6737   1
 -11   8   2 4.41492 2.86665   1
  11  -8   2 6.43177 3.32337   8
 -11  -8  -2 6.53070 3.19705   1
 -11   8   2 5.07410 2.50805   3
 -11  -8  -2 3.37451 2.10697   3
  11   8  -2 6.70203 2.65882   8
 -11  -8   2 5.57331 2.47408   6
  11   8   2 4.12602 2.28865   8
  11  -8  -2 12.4127 3.56794   8
 -11  -8   2 6.89987 2.88584   1
 -11   8  -2 7.60233 2.49151   3
 -11  -8   2 6.52181 2.53705   3
 -11   8  -2 10.5185 3.44958   1
   0  -9  -2 2.23156 2.05048   2
   0  -9   2 -1.8405 1.67475   2
   0   9   2 1.46115 1.91133   1
   0  -9  -2 -0.1383 1.75168   1
   0  -9   2 -1.7052 2.04985   1
   0   9   2 3.05308 1.86207   7
   0  -9   2 -3.3360 1.68914   7
   0   9  -2 2.49237 2.24763   2
   0   9  -2 1.28468 2.02140   1
   0   9   2 1.49607 1.78759   2
  -1  -9  -2 693.267 82.2371   1
   1   9  -2 808.565 83.3568   2
  -1   9   2 740.704 82.1305   1
   1  -9   2 753.507 82.1600   1
   1  -9   2 898.866 83.5663   7
  -1   9   2 768.747 83.3624   7
  -1   9   2 803.848 83.0837   2
   1  -9   2 792.837 83.1660   2
   1   9   2 751.337 83.0836   2
   1  -9  -2 681.512 83.3335   7
  -1   9  -2 814.958 83.3073   2
  -1  -9   2 638.537 82.8565   2
   1  -9  -2 756.016 83.1433   2
  -1   9  -2 819.364 82.4223   1
   1  -9  -2 737.748 82.3607   1
  -1  -9   2 821.289 82.3719   1
   1   9   2 677.844 90.7465   4
  -2  -9  -2 640.621 66.5988   1
   2  -9   2 649.943 67.2293   2
   2   9  -2 606.214 67.0377   2
  -2   9   2 617.947 67.1214   2
  -2  -9   2 595.219 66.5298   1
  -2   9  -2 604.675 67.3214   2
   2   9   2 595.255 73.5681   4
   2   9   2 642.520 67.2369   2
  -2   9  -2 562.199 66.4922   1
  -3   9   2 130.887 14.5952   1
  -3  -9  -2 132.072 14.6059   7
   3   9  -2 105.091 14.2618   2
   3  -9   2 112.436 14.5326   2
   3   9  -2 138.259 13.4257   8
   3   9  -2 131.672 17.0234   4
  -3  -9  -2 108.060 14.3541   1
  -3  -9  -2 143.323 13.5520   6
   3   9   2 144.725 16.5928   4
   3   9   2 137.444 14.7716   2
   3  -9  -2 92.7426 14.2549   2
  -3  -9   2 106.531 13.2605   6
  -3   9  -2 114.683 14.5607   1
   3   9   2 139.856 13.3845   8
  -3  -9   2 111.411 14.4730   1
  -4  -9  -2 5.19533 2.65654   1
   4   9  -2 4.34239 1.95029   8
  -4   9   2 8.77856 2.84032   1
   4   9  -2 3.89556 2.16672   2
   4   9  -2 6.05260 2.66169   4
   4  -9   2 1.54673 2.06627   8
   4  -9   2 8.49847 2.64140   2
  -4  -9  -2 2.59701 2.07512   6
   4   9   2 4.48455 1.98952   8
   4   9   2 6.79558 3.14244   4
  -4  -9   2 5.62359 2.79856   1
  -4   9  -2 3.42978 2.70926   1
   4  -9  -2 15.4954 3.15252   8
  -4  -9   2 1.39068 2.06006   6
   4  -9  -2 5.28639 2.49530   2
   4   9   2 2.87835 2.30621   2
  -5  -9  -2 139.616 16.1886   1
   5   9  -2 141.550 15.0073   8
  -5   9   2 115.306 16.0964   1
   5  -9   2 139.527 15.3771   8
   5  -9   2 127.147 16.1148   2
  -5  -9  -2 162.030 15.1016   6
   5   9  -2 144.846 18.6694   4
   5   9  -2 138.315 15.9166   2
  -5   9  -2 141.550 16.4865   1
   5   9   2 143.353 18.3788   4
  -5  -9   2 116.870 14.4400   3
   5   9   2 156.830 16.0008   2
   5  -9  -2 128.177 15.0651   8
   5  -9  -2 106.843 15.9317   2
  -5  -9   2 153.372 16.4220   1
  -5  -9   2 165.855 15.2700   6
   5   9   2 132.066 14.7385   8
   6  -9   2 271.336 31.8885   2
  -6   9   2 290.568 31.9567   1
  -6  -9  -2 250.200 29.0863   6
  -6  -9  -2 257.350 28.2749   3
   6  -9   2 280.099 29.8588   8
  -6  -9  -2 296.399 31.8313   1
   6   9  -2 340.433 36.3428   4
   6   9  -2 283.324 31.0843   2
   6   9  -2 254.888 29.3809   8
  -6   9  -2 265.587 31.9239   1
   6  -9  -2 314.009 31.9210   2
   6   9   2 347.195 36.0646   4
   6   9   2 313.066 29.4389   8
  -6  -9   2 266.009 28.3724   3
  -6  -9   2 260.381 29.2442   6
   6  -9  -2 276.364 29.6891   8
   6   9   2 268.173 31.1750   2
  -6  -9   2 344.830 32.1390   1
   7   9  -2 482.319 48.9787   8
   7   9  -2 448.811 58.8131   4
  -7  -9  -2 535.479 48.6763   6
   7  -9   2 428.524 49.2278   8
   7  -9   2 451.530 52.5102   2
  -7  -9  -2 542.068 52.8507   1
  -7   9   2 429.267 52.6772   1
  -7   9  -2 479.365 52.9038   1
   7   9   2 486.676 48.8541   8
  -7  -9   2 388.693 46.9012   3
   7  -9  -2 547.011 49.4884   8
   7   9   2 554.492 59.3227   4
   7  -9  -2 476.303 52.5592   2
  -7  -9   2 494.060 48.5990   6
  -7  -9   2 517.675 52.8659   1
  -8   9   2 446.310 45.3342   1
   8   9  -2 441.844 41.9253   8
   8  -9   2 501.610 42.6496   8
  -8  -9  -2 366.273 40.1249   3
   8   9  -2 467.397 51.0662   4
  -8  -9  -2 433.815 45.1429   1
  -8  -9   2 358.375 44.9497   1
  -8   9  -2 479.202 45.5447   1
  -8  -9   2 389.266 40.2316   3
   8  -9  -2 344.627 41.9715   8
   8   9   2 352.536 41.5784   8
  -8  -9   2 455.669 41.5231   6
   8   9   2 329.730 50.2475   4
  -9  -9  -2 173.957 17.3751   3
  -9   9   2 190.189 19.8035   1
   9   9  -2 164.624 17.9450   8
  -9  -9  -2 177.335 19.5383   1
   9   9  -2 124.981 22.1493   4
   9  -9   2 207.660 18.8223   8
   9   9   2 153.238 17.7303   8
  -9  -9   2 175.895 17.7697   6
  -9  -9   2 164.164 17.3391   3
  -9  -9   2 175.750 19.5869   1
   9   9   2 145.460 22.2371   4
   9  -9  -2 151.444 18.2270   8
  -9   9  -2 151.778 19.5569   1
  10   9  -2 167.077 17.3938   8
 -10  -9  -2 137.398 18.6321   1
  10  -9   2 151.237 17.8546   8
 -10   9   2 182.815 19.1828   1
 -10  -9  -2 196.535 16.9062   3
  10   9   2 141.770 17.0504   8
 -10  -9   2 147.735 16.5878   3
  10  -9  -2 143.619 17.6519   8
 -10  -9   2 175.256 17.2410   6
 -10   9  -2 149.687 18.9077   1
 -10  -9   2 165.188 18.8230   1
 -11  -9  -2 350.540 31.3588   3
  11  -9   2 304.394 33.1273   8
 -11   9   2 290.285 35.1802   1
  11   9  -2 270.563 32.4464   8
  11  -9  -2 320.435 33.0338   8
 -11  -9   2 305.518 34.9612   1
  11   9   2 327.802 32.4832   8
 -11  -9   2 381.973 31.5812   3
 -11   9  -2 264.742 35.1330   1
 -11  -9   2 330.005 32.2388   6
   0  10  -2 64.9569 10.1078   2
   0 -10   2 86.0144 10.3186   1
   0 -10  -2 58.7452 9.99125   2
   0 -10   2 92.0049 10.7602   7
   0  10   2 104.649 10.8020   2
   0 -10  -2 84.8151 10.6219   1
   0 -10   2 77.1264 10.3091   2
  -1  10   2 128.477 13.3380   7
   1  10  -2 98.7981 12.9682   2
  -1  10   2 73.1011 12.4827   2
   1  10  -2 98.7938 13.1353   2
  -1 -10  -2 121.651 13.2548   2
   1 -10   2 112.713 13.1287   2
  -1 -10  -2 108.022 13.0460   1
  -1  10   2 128.003 13.0800   1
  -1  10  -2 128.271 13.2530   1
   1  10   2 79.5611 13.8977   4
   1  10   2 93.3001 12.9050   2
  -1 -10   2 117.751 13.0527   1
  -1 -10   2 114.077 13.1943   2
  -1  10  -2 110.609 13.1722   2
   1 -10  -2 87.8334 12.8537   2
   2  10  -2 73.4764 9.36137   2
   2 -10   2 73.8109 9.60861   2
  -2  10   2 94.5494 9.81691   2
  -2 -10  -2 76.6723 9.62910   1
  -2  10   2 65.9428 9.17245   1
   2  10  -2 55.6959 9.25343   2
   2 -10  -2 76.6236 9.50001   2
   2  10   2 66.9378 9.41762   2
  -2 -10   2 50.4034 9.08065   1
  -2  10  -2 79.0300 9.73744   1
  -2  10  -2 75.8067 9.69581   2
   2  10   2 65.3623 10.9073   4
  -3  10   2 1.54502 2.31949   1
   3  10  -2 0.93654 3.60066   4
  -3 -10  -2 -2.5301 2.04183   1
   3 -10   2 2.17607 2.36517   2
   3  10  -2 6.47124 2.65746   2
  -3 -10   2 -0.7373 2.05178   1
  -3  10  -2 0.92623 2.51049   1
   3 -10  -2 3.38937 2.43427   2
   3  10   2 1.07403 2.64262   4
   3  10   2 3.08787 2.27781   2
   4  10  -2 1259.81 108.889   8
  -4  10   2 1047.45 116.822   1
   4  10  -2 1241.02 117.841   2
   4 -10   2 1111.47 118.026   2
  -4  10  -2 1067.75 117.009   1
   4 -10  -2 1104.75 118.008   2
   4  10   2 1087.03 129.262   4
  -4 -10   2 931.530 116.734   1
   4  10   2 920.209 108.453   8
  -5  10   2 64.2265 8.35105   1
   5  10  -2 59.4169 7.45980   2
  -5 -10  -2 45.3955 6.97120   6
   5 -10   2 64.8231 7.92764   2
  -5 -10  -2 42.6011 7.53344   1
   5  10  -2 54.6039 7.13455   8
   5  10  -2 42.7758 9.25720   4
  -5  10  -2 43.3528 7.89131   1
  -5 -10   2 58.2652 8.16586   1
   5  10   2 69.0483 7.63294   2
   5 -10  -2 36.3405 7.18600   2
  -5 -10   2 53.6358 7.26942   6
   5  10   2 56.6005 9.41403   4
   5  10   2 54.6249 6.88368   8
  -6  10   2 11.6748 3.77039   1
   6  10  -2 12.9125 3.14928   8
   6  10  -2 8.29794 4.51877   4
  -6 -10  -2 15.0005 3.61985   6
   6 -10   2 19.0880 4.50088   8
  -6 -10  -2 13.0406 3.61417   1
   6  10  -2 17.3701 3.12660   2
   6 -10   2 13.3120 3.55023   2
   6  10   2 14.5237 4.94593   4
   6 -10  -2 15.0465 3.61896   2
  -6 -10   2 14.7991 4.07656   1
   6  10   2 9.66018 2.94568   8
  -6  10  -2 11.9916 3.63292   1
   6 -10  -2 8.11344 3.34488   8
  -6 -10   2 13.8144 3.42894   6
   6  10   2 12.3643 2.81931   2
   7  10  -2 83.7990 10.2112   8
  -7  10   2 107.744 11.7289   1
  -7 -10  -2 67.2290 9.96218   6
  -7 -10  -2 99.0143 11.3630   1
   7  10  -2 73.5470 13.3421   4
   7 -10   2 113.935 11.4069   8
   7 -10   2 73.9735 10.4878   2
  -7 -10   2 73.9251 11.1641   1
  -7  10  -2 75.8174 11.3158   1
   7  10   2 96.7478 13.6101   4
   7 -10  -2 102.909 10.9199   8
   7  10   2 87.2279 10.0825   8
   7 -10  -2 72.4852 10.4682   2
  -7 -10   2 104.997 10.4795   6
   8 -10   2 180.362 20.6165   8
  -8 -10  -2 171.438 19.2964   3
  -8 -10  -2 144.425 21.3604   1
   8  10  -2 182.594 24.9760   4
   8  10  -2 197.847 20.1995   8
  -8  10   2 218.253 22.1244   1
  -8 -10   2 184.651 19.8708   6
  -8 -10   2 198.014 21.9238   1
  -8 -10   2 181.358 19.3024   3
   8  10   2 164.567 19.7556   8
  -8  10  -2 204.461 22.0758   1
   8 -10  -2 214.039 20.6725   8
   8  10   2 207.042 25.1047   4
   9 -10   2 -0.9833 2.53876   8
  -9 -10  -2 0.30166 2.67694   1
   9  10  -2 -4.1957 4.60796   4
   9  10  -2 3.00021 2.60545   8
  -9  10   2 0.94079 2.86936   1
  -9 -10  -2 4.28096 2.54770   3
  -9 -10   2 3.08248 2.35929   6
  -9  10  -2 0.23839 2.86424   1
  -9 -10   2 3.34301 2.85396   1
   9  10   2 4.78011 2.34574   8
   9 -10  -2 4.05997 2.89871   8
  -9 -10   2 -0.0351 2.35036   3
  10 -10   2 54.8987 8.00766   8
 -10 -10  -2 45.3823 6.60595   3
  10  10  -2 44.0548 6.90703   8
 -10 -10  -2 40.6517 7.43230   1
 -10  10   2 41.4351 7.60804   1
 -10 -10   2 56.6599 7.02964   3
  10 -10  -2 49.4517 7.51436   8
  10  10   2 45.1797 6.65054   8
 -10 -10   2 49.8583 7.62238   1
 -10  10  -2 54.9334 8.34888   1
 -10 -10   2 49.7713 7.09371   6
   0 -11  -2 0.45640 2.44599   1
   0 -11   2 0.93921 2.48686   2
   0  11  -2 -0.2140 2.39617   2
   0  11   2 1.16341 2.16748   2
   0 -11   2 -1.6376 1.93515   1
   0 -11  -2 2.14189 2.43186   2
   1 -11   2 173.273 22.4563   2
  -1  11   2 227.817 22.9208   2
   1  11  -2 219.206 22.7489   2
  -1 -11  -2 184.845 22.5156   1
   1  11  -2 168.604 22.4995   2
  -1 -11  -2 170.325 22.4932   2
  -1  11  -2 169.178 22.2796   1
  -1 -11   2 202.205 22.7187   2
  -1  11  -2 196.651 22.7002   2
  -1 -11   2 239.250 22.6461   1
   1  11   2 217.189 22.8402   2
   1  11   2 193.290 24.8779   4
   1 -11  -2 168.950 22.3874   2
  -2  11   2 272.600 28.1363   1
   2 -11   2 246.766 28.2859   2
   2  11  -2 231.657 28.1261   2
  -2 -11  -2 258.175 28.2414   1
  -2  11   2 203.337 27.9882   2
   2  11  -2 264.557 28.2070   2
   2  11   2 203.903 28.0281   2
   2  11   2 273.867 31.3894   4
  -2  11  -2 226.224 27.9991   1
  -2  11  -2 269.192 28.5828   2
   2 -11  -2 294.481 28.4532   2
  -2 -11   2 232.864 27.8451   1
  -3  11   2 572.692 72.8926   1
   3  11  -2 689.579 73.6703   2
   3 -11   2 664.627 73.8370   2
  -3 -11  -2 758.754 73.4792   1
   3  11  -2 568.603 81.0952   4
   3  11   2 715.653 81.0008   4
   3 -11  -2 768.047 74.0485   2
  -3 -11   2 680.979 73.1360   1
   3  11   2 667.073 73.7909   2
  -3  11  -2 639.092 73.2152   1
  -4 -11  -2 19.7352 4.36609   1
  -4  11   2 8.86817 3.58224   1
   4  11  -2 14.7072 4.62611   4
   4 -11   2 19.0177 4.25448   2
   4  11  -2 10.8092 3.28553   2
  -4  11  -2 19.9912 4.66444   1
   4  11   2 15.4024 4.87372   4
  -4 -11   2 14.0602 4.11552   1
   4 -11  -2 14.2264 3.94149   2
   4  11   2 15.8082 3.88262   2
   5  11  -2 4.84801 2.59497   2
   5  11  -2 1.54898 3.65043   4
  -5  11   2 9.00943 3.51322   1
   5  11  -2 2.34284 2.46407   8
   5 -11   2 5.55331 2.65969   2
  -5 -11  -2 10.0469 3.61443   1
   5 -11  -2 5.91824 2.95158   2
   5  11   2 1.46672 2.38982   8
   5  11   2 8.97378 4.27647   4
  -5 -11   2 11.7745 3.59594   1
  -5  11  -2 9.51686 3.56532   1
   5  11   2 3.79859 2.57918   2
   6  11  -2 121.270 16.8139   4
  -6 -11  -2 126.978 14.4719   1
   6  11  -2 95.9811 13.2582   2
   6  11  -2 125.268 13.1172   8
   6 -11   2 110.601 13.9783   2
  -6  11   2 112.434 14.2863   1
   6  11   2 111.767 12.8804   8
  -6  11  -2 105.070 14.3164   1
   6 -11  -2 103.165 13.8702   2
   6  11   2 131.159 13.4103   2
   6  11   2 105.526 16.1235   4
  -7 -11  -2 397.809 39.7877   6
  -7  11   2 396.243 43.2768   1
  -7 -11  -2 311.111 42.8488   1
   7 -11   2 468.128 43.3159   2
   7  11  -2 395.445 48.4841   4
   7  11   2 405.455 39.9229   8
   7 -11  -2 441.882 43.1178   2
   7  11   2 390.077 48.2372   4
  -7 -11   2 343.515 42.9723   1
  -7  11  -2 326.693 43.0561   1
  -7 -11   2 380.569 39.6594   6
   8  11  -2 117.077 18.9457   4
  -8 -11  -2 117.930 16.1859   1
   8  11  -2 130.479 14.9141   8
  -8  11   2 137.404 16.4544   1
   8  11   2 123.258 14.7160   8
  -8 -11   2 137.355 16.3655   1
  -8 -11   2 139.466 15.0421   6
   8  11   2 144.719 18.9793   4
  -8  11  -2 141.043 16.6332   1
  -9  11   2 50.6275 10.0510   1
  -9 -11  -2 85.5746 11.3666   1
   9  11  -2 74.8348 9.59634   8
  -9 -11   2 75.6910 9.89176   6
  -9 -11   2 81.8032 10.7259   1
   9  11   2 78.8113 9.60087   8
   9 -11  -2 80.2680 11.2814   8
  -9  11  -2 85.1839 10.9811   1
 -10 -11  -2 204.460 21.9637   1
  10  11  -2 144.145 19.5602   8
 -10  11   2 187.898 21.7991   1
  10 -11   2 160.548 20.3859   8
  10 -11  -2 200.051 20.6405   8
  10  11   2 195.087 19.9016   8
 -10  11  -2 181.261 21.8512   1
 -10 -11   2 182.007 19.8276   6
 -10 -11   2 194.240 21.6155   1
   0  12  -2 150.540 21.2728   2
   0  12   2 156.413 21.2523   2
   0  12  -2 180.500 21.4308   2
   0 -12   2 226.785 21.9116   2
   0 -12  -2 199.422 21.6612   2
  -1 -12  -2 155.828 20.4343   2
  -1 -12  -2 216.992 20.9145   1
  -1  12   2 159.624 20.3657   2
   1  12  -2 154.576 20.3923   2
   1  12  -2 146.028 20.0489   2
   1 -12   2 183.304 20.5755   2
  -1  12  -2 165.906 20.4134   2
   1  12   2 201.406 22.9331   4
  -1 -12   2 144.217 19.8452   1
   1 -12  -2 173.255 20.3267   2
   1  12   2 196.722 20.6910   2
  -2  12   2 162.987 20.5973   2
  -2 -12  -2 207.731 20.9612   1
  -2  12   2 196.113 20.5763   1
   2  12  -2 207.325 20.8728   2
   2 -12   2 168.483 20.5524   2
  -2  12  -2 131.790 20.2869   2
   2 -12  -2 143.372 20.2169   2
  -2 -12   2 190.695 20.5016   1
   2  12   2 152.472 22.4512   4
  -2  12  -2 168.013 20.5392   1
   2  12   2 186.746 20.7806   2
   3 -12   2 42.7614 7.43515   2
  -3  12   2 62.4455 8.14320   1
   3  12  -2 39.1486 7.10117   2
  -3 -12  -2 45.8767 7.95212   1
   3  12  -2 37.3894 8.83838   4
  -3  12  -2 57.4215 8.40923   1
   3  12   2 35.7112 6.99254   2
  -3 -12   2 52.0727 7.72084   1
   3  12   2 49.3584 8.81195   4
   3 -12  -2 44.4108 7.53035   2
   4  12  -2 54.8511 10.1192   4
   4  12  -2 51.2814 7.74178   2
   4 -12   2 47.3867 8.09305   2
  -4 -12  -2 41.5771 8.05684   1
  -4  12   2 54.7115 8.41813   1
  -4  12  -2 63.3816 9.06085   1
   4  12   2 58.1400 8.23232   2
   4 -12  -2 62.4554 8.57094   2
   4  12   2 42.6909 9.21437   4
  -4 -12   2 51.1274 8.21199   1
   4  12   2 51.0105 8.19099   2
   5  12  -2 42.5978 6.90902   2
  -5  12   2 43.0520 7.33720   1
  -5 -12  -2 58.1122 8.17418   1
   5 -12   2 34.7366 6.76017   2
   5  12  -2 33.1450 8.45406   4
  -5  12  -2 49.5246 7.76512   1
   5  12   2 49.1804 9.01632   4
  -5 -12   2 51.2666 7.68821   1
   5  12   2 31.9043 6.31607   2
   5 -12  -2 54.6225 7.58891   2
  -6 -12  -2 41.6375 6.89743   1
   6  12  -2 24.2175 7.28696   4
  -6  12   2 19.5142 5.47189   1
   6 -12   2 26.1267 5.46026   2
   6  12  -2 41.8454 5.74353   2
   6  12   2 28.4111 7.20150   4
   6 -12  -2 35.0751 5.96003   2
   6  12   2 33.4978 5.06630   2
  -6 -12   2 27.3593 5.87768   1
  -6  12  -2 23.5510 5.88884   1
  -7 -12  -2 66.2999 10.6983   1
   7 -12   2 82.9352 10.2844   2
  -7  12   2 55.4597 10.3883   1
   7  12  -2 85.2834 13.6543   4
   7  12  -2 75.3671 9.58928   8
  -7  12  -2 61.8020 10.7364   1
   7  12   2 60.5715 11.9477   4
  -7 -12   2 88.7767 10.8593   1
   7 -12  -2 71.1656 9.85882   2
   7  12   2 96.3031 9.99801   8
  -8 -12  -2 512.386 57.5458   1
  -8  12   2 441.418 57.1639   1
  -8  12  -2 566.934 57.7916   1
   8  12   2 519.846 53.2290   8
  -8 -12   2 565.000 57.4209   1
  -9 -12  -2 71.2069 13.0291   1
   9  12  -2 104.925 12.1218   8
  -9  12   2 88.7459 13.4535   1
   9  12   2 104.761 12.1002   8
  -9  12  -2 102.891 13.5801   1
  -9 -12   2 104.164 12.2077   6
  -9 -12   2 115.348 13.4637   1
   0  13   2 3.58808 3.08950   2
   0 -13  -2 0.09095 2.90129   2
   0 -13   2 2.24679 3.38296   2
   0  13  -2 -0.0063 2.85316   2
   0  13   2 7.21970 3.83887   4
   0  13  -2 0.07092 2.82519   2
  -1  13   2 11.1353 4.05147   2
   1 -13   2 25.7352 5.24759   2
   1  13  -2 13.9594 4.52198   2
  -1 -13  -2 16.1004 5.09832   1
   1  13  -2 16.1898 4.38746   2
   1  13   2 12.5261 4.68308   4
  -1  13  -2 15.7354 4.69085   2
  -1 -13   2 9.87430 3.95670   1
   1 -13  -2 12.9633 4.35694   2
   1  13   2 14.4873 4.45811   2
   2 -13   2 15.3109 4.58821   2
  -2  13   2 18.7210 5.16302   2
  -2 -13  -2 13.8881 4.43193   1
   2  13  -2 15.5623 4.28658   2
   2 -13  -2 13.4701 4.20371   2
   2  13   2 22.4339 5.62407   4
  -2  13  -2 11.2569 4.52227   2
   2  13   2 14.2919 4.30358   2
  -2 -13   2 20.9356 5.19246   1
  -3  13   2 432.608 45.1539   1
  -3 -13  -2 478.521 45.6814   1
   3  13  -2 438.363 50.8991   4
   3  13  -2 354.642 44.9242   2
   3 -13   2 424.586 45.5529   2
   3 -13  -2 395.748 45.4331   2
  -3 -13   2 326.478 44.6333   1
  -3  13  -2 313.624 44.8040   1
   3  13   2 458.305 45.4816   2
   3  13   2 455.745 50.1311   4
  -4 -13  -2 67.6643 10.3797   1
  -4  13   2 73.7405 10.5636   1
   4 -13   2 82.1498 10.2715   2
   4  13  -2 62.1193 9.39365   2
   4  13  -2 56.9368 11.7411   4
   4  13   2 67.8161 11.7805   4
  -4 -13   2 84.3035 10.7013   1
   4  13   2 51.3262 9.45711   2
   4 -13  -2 74.6397 10.3709   2
  -4  13  -2 62.8370 10.2958   1
   4  13   2 67.2253 9.80557   2
   5  13  -2 197.925 27.7540   2
   5 -13   2 229.052 28.2424   2
   5  13  -2 266.132 32.1370   4
  -5  13   2 286.967 28.8249   1
  -5 -13  -2 221.846 28.4097   1
   5 -13  -2 257.024 28.4194   2
  -5  13  -2 255.013 28.6628   1
   5  13   2 267.835 31.7977   4
   5  13   2 243.835 27.9724   2
  -5 -13   2 248.795 28.3651   1
   6  13  -2 333.855 42.7910   2
   6  13  -2 428.978 49.1333   4
  -6  13   2 425.645 43.7378   1
   6 -13   2 421.101 43.5870   2
  -6 -13  -2 352.632 43.4779   1
   6 -13  -2 305.841 43.1190   2
  -6 -13   2 362.182 43.2626   1
   6  13   2 394.601 48.2065   4
   6  13   2 421.196 42.8724   2
  -6  13  -2 470.825 44.1607   1
  -7 -13  -2 76.1327 11.3790   1
  -7  13   2 71.0671 11.0208   1
   7 -13   2 81.3497 10.5683   2
  -7 -13   2 71.1783 10.8991   1
   7 -13  -2 59.8073 9.73128   2
  -7  13  -2 77.4649 11.3808   1
  -8  13   2 1.76874 3.88480   1
  -8 -13  -2 3.05464 2.93478   1
  -8  13  -2 -3.4834 2.66963   1
  -8 -13   2 3.92512 3.20646   1
   0  14  -2 5.26509 3.59604   2
   0  14  -2 9.70942 3.60388   2
   0 -14   2 7.07383 4.29870   2
   0  14   2 13.8212 4.28174   2
   0 -14  -2 5.74916 4.10323   2
  -1  14   2 173.848 19.0580   2
   1  14  -2 172.822 18.6854   2
   1 -14   2 175.488 19.1134   2
   1  14  -2 122.589 18.1384   2
   1 -14  -2 160.670 18.6193   2
  -1  14  -2 113.080 18.2064   2
  -1  14  -2 119.188 18.0952   2
   1  14   2 145.627 20.7106   4
   1  14   2 179.705 19.0268   2
   2  14  -2 137.473 23.1592   4
  -2 -14  -2 228.150 21.6446   1
   2 -14   2 180.663 20.8750   2
   2  14  -2 178.569 20.6326   2
   2  14   2 168.089 20.6415   2
   2  14   2 172.895 22.8657   4
   2 -14  -2 172.698 20.8002   2
  -2 -14   2 130.096 20.2306   1
   3  14  -2 36.8591 8.35546   4
  -3 -14  -2 37.8621 7.37122   1
   3  14  -2 27.3709 6.07095   2
   3 -14   2 32.7043 6.66525   2
   3  14   2 21.9963 5.77883   2
  -3 -14   2 32.7971 6.65125   1
   3  14   2 40.4400 7.77254   4
   3 -14  -2 40.5728 7.16467   2
   4 -14   2 79.5641 12.4509   2
  -4  14   2 61.9471 12.0371   1
   4  14  -2 92.9344 11.9748   2
   4  14  -2 103.806 15.9670   4
  -4 -14  -2 71.8467 12.5946   1
  -4  14  -2 94.2782 13.3399   1
  -4 -14   2 113.852 13.1640   1
   4  14   2 86.5008 11.9547   2
   4  14   2 85.0851 14.3920   4
   4  14   2 103.106 12.5703   2
   4 -14  -2 104.222 12.7786   2
   5  14  -2 38.6986 7.35527   2
  -5 -14  -2 37.4193 8.09698   1
  -5  14   2 55.9424 9.01497   1
   5 -14   2 34.7006 7.43266   2
   5  14   2 55.4743 10.4644   4
   5 -14  -2 52.7125 8.25354   2
   5  14   2 63.1776 8.15102   2
  -5 -14   2 61.1142 9.23343   1
  -5  14  -2 50.7600 9.05217   1
   6  14  -2 275.171 32.9316   2
  -6  14   2 268.817 33.4951   1
   6 -14   2 300.325 33.5282   2
   6  14   2 279.388 32.7649   2
  -6  14  -2 351.743 34.5397   1
   6 -14  -2 276.800 33.4188   2
  -6 -14   2 319.071 34.0034   1
  -7  14   2 219.958 29.8420   1
  -7 -14  -2 267.089 30.5450   1
   7 -14   2 297.490 30.0341   2
  -7  14  -2 267.459 30.6227   1
   7 -14  -2 242.891 29.5496   2
  -7 -14   2 257.859 30.2454   1
   0  15   2 4.38702 3.78265   2
   0  15  -2 1.79494 3.05321   2
   0 -15   2 -1.3164 3.04358   2
   0  15  -2 -4.6127 3.57026   2
   0 -15  -2 1.06518 3.32905   2
   1 -15   2 418.012 44.2673   2
   1  15  -2 471.066 44.4577   2
   1  15  -2 399.528 43.8656   2
  -1  15   2 388.209 44.2514   2
   1  15   2 405.652 44.2038   2
  -1  15  -2 308.587 43.7660   2
  -1  15  -2 339.226 43.7597   2
   1 -15  -2 378.719 44.0198   2
   2  15  -2 5.25071 3.55403   2
   2 -15   2 -0.9034 3.46501   2
   2  15  -2 4.47109 3.59680   4
   2  15   2 4.79001 3.90980   2
   2 -15  -2 -2.4252 3.33543   2
   2  15   2 -7.3758 4.04976   4
   3 -15   2 4.23349 3.77417   2
  -3 -15  -2 6.01458 4.11058   1
   3  15  -2 5.32335 3.23358   2
   3  15   2 9.10246 3.84284   4
  -3 -15   2 14.4367 4.92803   1
   3  15   2 3.87031 3.78041   2
   3 -15  -2 3.54731 3.63449   2
   3  15   2 3.40580 3.50392   2
   4 -15   2 44.6066 7.44313   2
   4  15  -2 31.9115 6.20861   2
  -4 -15  -2 27.3622 7.23157   1
  -4 -15   2 28.8392 7.15176   1
   4  15   2 21.7719 5.91030   2
   4  15   2 32.2908 8.23771   4
   4 -15  -2 23.2730 5.98341   2
   4  15   2 35.0602 6.65743   2
   5 -15   2 16.9808 4.92367   2
  -5  15   2 16.2820 5.46923   1
   5  15  -2 23.0664 4.87153   2
  -5 -15  -2 16.1735 5.58983   1
  -5 -15   2 14.7667 5.22879   1
  -5  15  -2 20.5597 6.09689   1
   5  15   2 19.1111 4.67543   2
   5 -15  -2 18.0306 5.10299   2
  -6 -15  -2 182.942 21.3597   1
   6 -15   2 194.324 20.6882   2
  -6  15   2 131.464 20.0962   1
   6  15  -2 137.259 19.5560   2
  -6 -15   2 179.473 21.0919   1
  -6  15  -2 162.049 21.0189   1
   6 -15  -2 192.068 20.6998   2
   6  15   2 170.765 19.7087   2
   0 -16  -2 13.4048 5.34972   2
   0  16  -2 7.96033 3.83035   2
   0  16  -2 3.64858 4.09358   2
   0  16   2 6.00979 4.24255   2
   1 -16   2 44.3530 8.02952   2
  -1  16   2 37.0908 7.90510   2
   1  16  -2 29.7102 6.73585   2
  -1  16  -2 31.1023 7.61460   2
   1 -16  -2 42.0669 8.04604   2
   1  16   2 41.3853 7.56602   2
  -1  16  -2 23.9151 6.31628   2
   2  16  -2 46.1478 8.47338   2
   2 -16   2 58.4575 9.38719   2
   2  16   2 48.2874 8.58547   2
   2 -16  -2 35.9469 8.13475   2
   3  16  -2 110.485 14.7373   2
   3 -16   2 107.320 15.4344   2
   3 -16  -2 94.4075 15.3871   2
   3  16   2 131.545 15.7113   2
   3  16   2 126.186 15.1270   2
  -4 -16  -2 549.333 54.5832   1
   4  16  -2 426.885 53.2889   2
   4 -16   2 518.610 54.2005   2
   4 -16  -2 407.574 53.5302   2
   4  16   2 483.843 53.5934   2
  -4 -16   2 516.201 54.1297   1
   0  17   2 0.86032 3.44273   2
   0  17  -2 -0.1824 4.19901   2
  -1  17   2 76.8609 12.4356   2
   1  17  -2 75.5735 11.9587   2
   1 -17   2 80.6286 12.3651   2
  -1  17  -2 72.6592 12.1493   2
  -1  17  -2 76.7941 12.1102   2
   1  17   2 79.9261 12.2993   2
   1 -17  -2 77.8930 12.3684   2
   0   0  -3 -1.3534 0.82004   7
   0   0   3 0.93397 0.99160   7
   1   0   3 30.0750 3.90789   2
   1   0   3 30.0856 3.76391   7
  -1   0  -3 32.9458 3.79465   7
   1   0  -3 27.3408 3.72874   7
   1   0   3 35.2582 4.31769   5
   1   0  -3 29.4791 3.78159   2
  -1   0   3 27.0714 3.81506   7
  -2   0   3 1.42312 0.72052   7
  -2   0  -3 -0.3308 0.69238   7
   2   0   3 0.65296 1.55175   5
   2   0   3 0.25936 1.51279   4
   2   0  -3 -1.4923 0.88372   4
   2   0   3 -0.0393 0.95239   2
   2   0  -3 1.56072 0.96345   2
   3   0   3 391.501 49.9359   4
   3   0  -3 436.646 49.4938   4
   3   0  -3 420.194 45.0515   2
   3   0   3 418.951 45.1295   2
  -4   0   3 0.40912 0.71503   3
  -4   0  -3 -0.6152 0.57801   3
   4   0  -3 -0.8059 1.21541   4
   4   0   3 -0.0370 1.56502   4
  -5   0  -3 134.989 13.3464   3
  -5   0   3 140.487 13.3273   3
  -5   0  -3 134.533 15.0519   1
  -5   0   3 137.004 13.2827   3
   5   0  -3 117.412 16.9097   4
   5   0   3 130.657 17.6539   4
  -5   0   3 160.347 15.0634   1
  -6   0   3 0.83974 0.79453   1
  -6   0  -3 1.10073 0.82885   1
   6   0  -3 -1.1842 1.46800   4
  -6   0  -3 0.35219 0.51435   3
   6   0   3 0.76257 2.03426   4
   7   0   3 468.500 49.4291   4
  -7   0   3 359.940 43.1843   1
   7   0  -3 379.507 48.4822   4
  -7   0  -3 392.750 38.5644   3
  -7   0  -3 439.793 38.5519   3
   8   0   3 0.66180 2.96108   4
   8   0  -3 1.96169 1.96069   4
  -8   0  -3 0.07518 0.97210   1
  -8   0  -3 0.23068 0.63348   3
  -8   0   3 0.19552 1.01452   1
  -9   0  -3 101.466 10.0255   3
   9   0   3 119.136 14.9725   4
  -9   0  -3 105.858 11.3972   1
  -9   0   3 100.717 11.2993   1
   9   0  -3 86.9687 13.9684   4
 -10   0  -3 -3.0093 0.79407   3
  10   0   3 -1.4848 3.61433   4
 -10   0   3 0.11153 0.75102   3
  11   0   3 31.2435 7.52550   4
 -11   0   3 28.0080 3.40419   3
 -11   0  -3 33.0085 3.52485   3
 -12   0  -3 1.93414 1.27462   3
 -12   0   3 1.50821 0.95410   6
 -12   0   3 0.10459 0.99870   3
 -13   0  -3 95.0323 9.93390   3
 -13   0   3 99.7265 9.81795   3
   0  -1   3 1.48962 1.12836   7
   0   1   3 1.03976 0.81642   4
   0  -1  -3 1.54812 1.02019   7
   0   1   3 1.47379 0.88588   7
   0   1  -3 2.01042 1.04854   7
   0  -1   3 -1.3677 0.95238   5
   1  -1   3 15.7952 2.44589   7
   1   1  -3 16.7992 2.46593   2
   1  -1   3 16.8815 2.55223   2
  -1  -1  -3 20.5116 2.61298   7
   1   1  -3 15.3946 2.48744   7
   1  -1   3 13.3339 2.74592   5
  -1   1   3 17.7518 2.52043   7
   1   1   3 19.9712 2.51591   7
   1   1   3 20.0873 2.58888   2
   1  -1  -3 17.0679 2.54149   2
   1   1   3 18.1558 2.94662   4
  -1   1  -3 18.0299 2.53052   7
  -1  -1   3 21.8217 2.55745   7
   1  -1  -3 16.2991 2.47511   7
   2  -1   3 22.7097 3.50711   2
   2   1  -3 25.1583 4.12496   4
  -2   1   3 24.7809 3.34535   7
   2  -1   3 31.2927 4.22541   5
   2   1  -3 32.3895 3.40799   2
  -2  -1  -3 18.8395 3.19176   7
  -2   1  -3 29.9519 3.46076   7
  -2  -1   3 28.2247 3.25311   7
   2   1   3 33.1895 3.57350   2
  -2   1  -3 26.7836 3.32879   7
   2  -1  -3 25.5677 3.48679   2
   2   1   3 23.2506 3.94223   5
   2   1   3 21.9675 4.19718   4
   2  -1  -3 21.5216 3.42960   4
   3   1  -3 58.9847 8.19903   4
   3  -1   3 53.6128 7.92187   5
   3  -1   3 64.8765 6.58655   8
   3   1  -3 68.9990 6.46565   8
   3  -1   3 52.5120 7.14644   2
   3   1  -3 73.9769 7.03574   2
  -3   1  -3 59.4166 6.94681   7
   3  -1  -3 66.2931 7.12060   2
   3   1   3 66.2487 8.60011   4
   3   1   3 58.2290 7.81399   5
   3   1   3 73.5744 7.11516   2
   3   1   3 64.9165 6.54128   8
   3  -1  -3 59.6123 6.53312   8
   3  -1  -3 53.4209 7.85958   4
  -4   1   3 12.7767 1.77844   3
  -4  -1  -3 14.8968 2.18644   1
   4  -1   3 13.7247 3.42808   4
  -4   1   3 14.7088 2.11878   1
  -4  -1  -3 13.7156 1.77424   3
   4   1  -3 15.4979 2.81677   4
   4  -1   3 14.2370 1.68223   8
   4  -1   3 12.6277 1.68014   8
  -4   1  -3 14.9082 1.81828   3
   4   1   3 9.56677 2.97453   4
   4   1   3 11.2865 2.65785   5
  -4   1  -3 13.4770 2.13534   1
   4  -1  -3 16.4385 2.70273   4
  -4  -1   3 14.9925 1.77799   3
  -5   1   3 108.670 11.0829   1
  -5  -1  -3 100.409 11.0772   1
  -5   1   3 79.0465 9.75251   3
  -5   1   3 95.4007 9.83283   3
   5  -1   3 112.403 13.5039   4
  -5  -1  -3 98.6515 9.78148   3
   5   1  -3 100.494 12.8113   4
  -5  -1   3 100.155 9.73243   3
   5   1   3 76.2991 12.9112   4
  -5  -1   3 111.878 11.0131   1
  -5   1  -3 118.253 9.93423   3
  -5   1  -3 109.658 11.1754   1
   6   1  -3 106.822 12.8768   4
  -6   1   3 93.8386 9.69696   3
   6  -1   3 129.910 13.9163   4
  -6   1   3 87.1263 10.9191   1
  -6  -1  -3 100.067 10.9527   1
  -6  -1  -3 91.0870 9.63098   3
  -6   1   3 93.8677 9.66339   3
  -6  -1   3 105.234 10.8947   1
  -6   1  -3 96.9233 11.0238   1
  -6   1  -3 102.435 9.77914   3
  -6   1  -3 98.4043 9.73370   3
   6  -1  -3 132.445 13.2007   4
  -7   1   3 7.56836 1.22967   3
   7  -1   3 7.38290 3.57090   4
  -7  -1  -3 9.79893 1.63639   1
  -7   1   3 7.71874 1.53887   1
  -7  -1  -3 10.1667 1.20449   3
  -7   1   3 8.17745 1.19623   3
   7   1  -3 9.92396 2.95253   4
  -7   1  -3 6.44448 1.30856   3
  -7  -1   3 7.26189 1.49453   1
  -7   1  -3 9.72992 1.34889   3
  -7   1  -3 7.25591 1.71957   1
   7  -1  -3 9.62906 3.03844   4
   7   1   3 9.87848 3.42146   4
  -8  -1  -3 108.388 11.7335   1
   8   1  -3 90.2570 13.9104   4
   8  -1   3 109.037 14.7712   4
  -8   1   3 89.0197 10.3368   3
  -8  -1  -3 96.8984 10.3210   3
  -8   1   3 116.405 10.4031   3
  -8   1   3 117.468 11.7901   1
  -8   1  -3 115.207 10.4305   3
  -8   1  -3 99.2993 11.8419   1
   8  -1  -3 136.740 14.7175   4
  -8  -1   3 100.854 11.6249   1
  -8   1  -3 114.589 10.5157   3
   8   1   3 106.281 14.9040   4
  -9   1   3 241.601 21.1631   3
   9  -1   3 247.699 28.5019   4
  -9  -1  -3 216.202 23.7768   1
  -9  -1  -3 216.233 21.1057   3
  -9   1   3 226.606 21.1813   3
  -9   1   3 206.573 23.7739   1
   9   1  -3 226.177 27.7354   4
   9   1   3 201.961 28.0341   4
  -9   1  -3 206.996 23.8955   1
  -9   1  -3 233.183 21.2880   3
  -9   1  -3 196.233 21.1685   3
   9  -1  -3 208.750 27.5810   4
  -9  -1   3 227.381 23.6808   1
 -10  -1  -3 3.52040 0.95284   3
 -10  -1  -3 -0.1473 1.30930   1
 -10   1   3 -0.6424 0.90045   3
  10   1  -3 -0.6900 3.36533   4
 -10   1   3 -0.7914 0.74972   3
 -10   1   3 2.08734 1.43208   1
 -10  -1   3 2.19762 0.82386   3
 -10   1  -3 -0.3108 0.91660   3
  10   1   3 -6.1299 3.67790   4
 -10   1  -3 3.20261 1.62773   1
 -11  -1  -3 37.3986 4.40300   3
 -11   1   3 43.8869 4.44549   3
 -11   1  -3 41.8455 4.60823   3
 -11  -1   3 41.0231 4.37366   3
 -11   1  -3 38.1628 5.40364   1
  11   1   3 41.3982 8.95662   4
 -12   1   3 325.102 28.0934   3
 -12  -1  -3 281.278 27.9968   3
 -12   1   3 280.373 28.8443   6
 -12  -1   3 301.547 27.9666   3
 -12   1  -3 261.751 28.1174   3
 -13   1   3 8.36126 1.41744   6
 -13   1   3 3.97969 1.59102   3
 -13  -1  -3 6.23090 1.65548   3
 -13  -1   3 10.3575 1.64188   3
 -13   1  -3 8.13646 1.93928   3
   0   2  -3 1.43048 1.30920   2
   0  -2   3 0.21633 1.19149   5
   0   2   3 -0.9624 1.06468   2
   0  -2  -3 0.12124 1.00863   7
   0   2   3 1.14685 0.88937   4
   0   2   3 1.06997 1.10616   7
   0  -2   3 -1.2700 0.97945   7
   0   2  -3 0.27407 1.17221   7
  -1  -2  -3 1.06585 0.98723   7
   1   2  -3 -0.2956 0.94105   7
   1  -2   3 -0.5999 1.29104   5
  -1   2   3 1.84288 0.47619   4
   1   2  -3 1.45316 1.23370   2
   1  -2   3 0.61987 1.00882   7
   1  -2   3 3.99198 1.40898   2
  -1   2   3 2.08117 0.95713   7
   1  -2   3 0.11572 1.03625   7
   1  -2  -3 0.56404 1.00510   7
  -1  -2   3 -0.7768 0.96490   5
   1   2   3 0.55469 0.89308   7
   1   2   3 2.88603 1.30156   4
  -1  -2   3 1.41742 1.06335   7
  -1   2  -3 2.31337 1.20537   7
   1  -2  -3 0.72859 1.16337   2
   1   2   3 1.51834 1.19023   2
   2  -2   3 173.881 17.6813   2
   2  -2   3 157.624 17.4211   7
   2  -2   3 158.671 17.4134   7
  -2  -2  -3 132.947 17.5082   7
  -2   2   3 132.324 17.5664   7
   2   2  -3 176.946 17.5727   2
  -2   2  -3 152.534 17.6402   7
   2   2   3 149.166 19.3270   4
   2  -2  -3 171.945 17.6476   2
   2   2   3 190.037 17.6568   2
  -3   2   3 110.294 12.0151   7
   3   2  -3 112.353 11.0088   8
   3  -2   3 118.897 11.2237   8
   3  -2   3 128.115 12.1988   2
   3   2  -3 88.6029 11.8889   2
  -3  -2  -3 106.514 11.8833   7
   3  -2  -3 108.705 12.0575   2
  -3   2  -3 103.996 12.0407   7
   3   2   3 98.6283 12.7143   5
   3  -2  -3 107.073 11.1059   8
   3   2   3 120.304 11.9986   2
  -3   2  -3 105.282 12.0108   7
   3   2   3 105.185 11.0424   8
   3   2   3 101.578 13.5302   4
   4  -2   3 105.699 11.4780   2
   4   2  -3 85.4604 13.1599   4
  -4  -2  -3 93.0967 10.2456   3
  -4   2   3 112.751 11.6392   1
   4  -2   3 114.499 11.5134   2
  -4   2   3 115.870 10.3504   3
  -4  -2  -3 107.763 11.6057   1
   4  -2  -3 98.9812 10.6742   8
  -4   2  -3 102.297 10.3888   3
   4  -2  -3 90.0033 12.8820   4
   4   2   3 116.183 10.6154   8
  -4   2  -3 125.875 10.9104   6
   4   2   3 95.6522 13.3148   4
  -4  -2   3 109.455 10.2895   3
   4   2   3 124.326 12.4861   5
   4   2   3 102.509 10.5560   8
  -4  -2   3 99.0632 11.5068   1
   4  -2  -3 93.8138 11.3565   2
   4  -2  -3 107.088 11.3631   2
  -4   2  -3 98.2427 11.7057   1
  -5  -2  -3 35.9200 4.11646   3
  -5   2   3 43.3117 4.22614   3
   5  -2   3 36.2545 4.24004   8
  -5   2   3 38.5590 4.19200   3
   5   2  -3 41.0997 5.92015   4
   5  -2   3 43.1535 4.24671   8
  -5   2   3 38.3346 4.80853   1
  -5  -2  -3 31.5890 4.74200   1
   5  -2  -3 44.7077 4.21390   8
  -5   2  -3 42.1138 4.31441   3
   5  -2  -3 42.1595 5.78816   4
  -5  -2   3 30.3869 4.06100   3
  -5   2  -3 38.6429 4.31582   3
   5  -2  -3 40.6438 4.16921   8
  -5   2  -3 46.5098 4.67609   6
  -5   2  -3 48.1401 5.06434   1
  -5  -2   3 45.5630 4.71391   1
  -6  -2  -3 302.430 30.7836   1
  -6   2   3 246.579 30.7636   1
   6  -2   3 296.473 28.4558   8
   6  -2   3 300.247 28.4636   8
   6   2  -3 265.400 34.6256   4
  -6  -2  -3 284.316 27.3899   3
  -6   2   3 278.872 27.4531   3
  -6   2   3 259.726 27.4193   3
  -6   2  -3 246.068 30.8348   1
  -6  -2   3 305.291 30.6921   1
  -6   2  -3 267.134 27.5271   3
  -6   2  -3 313.661 28.5866   6
  -6  -2   3 333.624 27.3560   3
   6   2   3 240.621 34.7257   4
  -6   2  -3 314.016 27.5681   3
   6  -2  -3 283.544 34.5247   4
  -7  -2  -3 60.0082 6.71617   1
   7   2  -3 65.8440 8.71479   4
  -7   2   3 44.1319 5.89130   3
  -7   2   3 58.9605 5.93472   3
  -7  -2  -3 62.6514 5.87978   3
  -7   2  -3 54.0512 6.90395   1
  -7   2  -3 68.0489 6.13153   3
   7  -2  -3 57.5112 8.37509   4
  -7  -2   3 60.3072 6.63436   1
  -7  -2   3 61.5934 5.77181   3
   7   2   3 46.5435 8.99252   4
  -7   2  -3 55.4380 6.05657   3
  -8   2   3 82.5185 8.02592   3
  -8   2   3 67.5050 8.00978   3
  -8  -2  -3 87.1614 9.09467   1
   8   2  -3 69.9822 11.0088   4
  -8  -2  -3 80.8185 7.93294   3
  -8   2   3 82.0712 9.19743   1
  -8  -2   3 85.9289 7.86075   3
  -8   2  -3 81.2023 8.17348   3
   8   2   3 75.3272 11.8295   4
   8  -2  -3 90.6796 11.4528   4
  -8  -2   3 74.5437 8.93189   1
  -8   2  -3 78.6858 8.15750   3
  -8   2  -3 84.0029 9.32621   1
  -9   2   3 4.75185 1.50610   1
  -9  -2  -3 6.54979 1.54536   1
  -9   2   3 3.09137 1.11152   3
  -9  -2  -3 3.26987 0.98210   3
  -9   2   3 3.52141 1.15352   3
   9   2  -3 2.29762 3.04903   4
  -9  -2   3 4.30514 0.92210   3
  -9   2  -3 5.61831 1.76261   1
  -9   2  -3 3.02258 1.25176   3
  -9   2  -3 5.01507 1.27131   3
   9   2   3 3.90684 3.05678   4
  -9  -2   3 4.27056 1.31788   1
 -10  -2  -3 221.139 24.2385   1
  10   2  -3 263.743 28.9870   4
  10  -2   3 225.097 22.3426   8
  10  -2   3 240.873 22.3740   8
 -10   2   3 222.355 21.6924   3
 -10   2   3 211.653 21.6523   3
 -10  -2  -3 200.408 21.5553   3
 -10   2   3 239.018 24.3931   1
  10   2   3 282.712 29.9287   4
 -10   2  -3 233.594 24.4856   1
 -10   2  -3 205.810 21.7500   3
 -10  -2   3 207.602 21.4978   3
 -10   2  -3 213.242 21.7958   3
 -11  -2  -3 24.1700 3.24001   3
 -11   2   3 24.0487 3.41874   3
 -11   2   3 26.0123 3.97948   1
  11  -2   3 26.9250 3.35332   8
 -11   2   3 27.8887 3.68801   6
  11   2  -3 31.9120 7.38364   4
 -11   2   3 32.2565 3.59018   3
  11   2   3 35.5542 7.61955   4
 -11  -2   3 28.3340 3.44303   6
 -11   2  -3 29.0859 3.59904   3
 -11   2  -3 29.2073 4.40717   1
 -11  -2   3 28.4829 3.30146   3
  12  -2   3 7.33419 1.60068   8
 -12  -2  -3 1.92456 1.23850   3
 -12   2   3 4.73959 1.56686   3
 -12   2   3 4.71595 1.66043   6
 -12  -2   3 3.82055 1.38748   3
 -12   2  -3 6.53560 1.69898   3
  12  -2  -3 6.09908 1.45226   8
 -12  -2   3 5.91335 1.24683   6
  12  -2  -3 6.38576 1.49139   8
  13  -2   3 4.78941 1.68729   8
 -13  -2  -3 2.56108 1.38453   3
 -13   2   3 3.72862 1.59090   3
 -13   2   3 8.03281 1.57346   6
 -13  -2   3 3.68772 1.42760   3
  13  -2  -3 4.36925 1.56384   8
 -13   2  -3 2.32368 1.73240   3
   0   3  -3 69.7710 7.81631   2
   0  -3  -3 48.5872 7.65653   7
   0  -3   3 62.7506 7.73995   7
   0   3   3 61.9166 7.68019   7
   0   3   3 70.8697 7.82800   2
   0  -3   3 66.0318 7.94781   5
   0  -3   3 78.3175 7.96456   2
   0   3  -3 48.2585 7.76896   7
   0  -3  -3 62.0986 7.75814   2
   0   3   3 73.5685 8.20504   4
  -1   3   3 258.313 25.5275   7
   1  -3   3 240.777 25.4537   7
  -1  -3  -3 210.187 25.3650   7
   1   3  -3 214.250 25.4081   2
   1  -3   3 209.237 26.2404   5
   1  -3   3 241.821 25.4808   2
  -1   3  -3 197.738 25.4350   7
   1   3   3 244.503 25.4084   2
   1   3   3 225.553 27.5620   4
  -1  -3   3 245.190 26.0503   5
   1  -3  -3 181.689 25.2749   2
  -1  -3   3 256.905 25.5375   7
   1   3   3 250.358 25.4181   7
   1  -3  -3 226.230 25.3842   7
   2  -3   3 382.612 39.3387   7
   2  -3   3 379.743 39.4449   2
  -2   3   3 336.518 39.3791   7
   2  -3   3 341.660 39.2846   7
   2  -3  -3 329.913 39.2504   2
   2  -3  -3 370.212 39.2927   7
   2   3   3 335.173 39.1917   2
  -2   3  -3 409.914 39.5258   7
   3  -3   3 21.5807 3.10739   2
  -3  -3  -3 23.8059 3.24845   1
   3  -3   3 22.9251 2.85026   8
  -3   3   3 25.9037 3.20903   1
   3   3  -3 21.2606 2.62249   8
  -3   3   3 19.0837 2.87660   7
   3   3  -3 21.4589 4.19296   4
   3   3  -3 25.0587 2.91158   2
  -3  -3  -3 18.9869 2.77832   7
   3   3   3 22.1525 3.44940   5
   3   3   3 21.4373 2.67232   8
   3   3   3 19.4212 3.76779   4
   3  -3  -3 20.4403 2.78142   8
  -3   3  -3 22.4030 3.24377   1
   3   3   3 19.3240 2.92083   2
   3  -3  -3 17.0283 2.95334   2
  -3   3  -3 21.1638 2.96318   7
  -3   3  -3 21.8892 2.98090   7
  -3  -3   3 18.1746 3.01034   1
  -4   3   3 60.0920 6.88310   7
  -4   3   3 62.0181 6.95314   7
   4  -3   3 62.5488 7.04571   2
  -4   3   3 52.2268 7.04034   1
  -4   3   3 60.7370 6.27425   3
   4   3  -3 61.8541 6.31344   8
  -4  -3  -3 69.3119 6.26129   3
   4   3  -3 44.9323 8.16297   4
  -4  -3  -3 63.9346 7.13375   1
  -4   3  -3 67.9579 7.26043   1
  -4  -3   3 57.2579 6.99268   1
   4   3   3 64.1258 7.57340   5
   4  -3  -3 56.8583 6.91547   2
   4   3   3 73.1889 8.50402   4
  -4   3  -3 67.1868 6.74065   6
  -4   3  -3 53.0726 6.88215   7
   4  -3  -3 49.1372 6.43407   8
  -4   3  -3 63.6559 6.37761   3
   4   3   3 60.9418 6.36185   8
  -4   3  -3 70.7934 6.99806   7
   4   3   3 57.6136 6.74591   2
   4   3   3 62.8852 6.75323   2
  -5   3   3 2.58348 1.13285   3
  -5   3   3 5.35217 1.32749   3
   5   3  -3 3.40967 0.82264   8
  -5  -3  -3 6.22895 1.58301   1
   5  -3   3 4.10631 1.23005   8
  -5   3   3 4.21223 1.60453   1
   5  -3   3 5.75116 1.28454   8
  -5  -3  -3 2.15402 1.00621   3
   5   3  -3 4.00903 2.35145   4
   5   3  -3 3.45779 0.82696   8
  -5   3  -3 5.29149 1.39100   3
   5   3   3 7.04080 2.12216   5
  -5   3  -3 3.04906 0.99259   7
   5  -3  -3 2.41465 1.09378   8
  -5   3  -3 6.45138 1.83430   1
  -5   3  -3 2.35911 0.92851   7
  -5   3  -3 2.74677 1.23596   3
   5   3   3 2.02715 1.98312   4
   5   3   3 3.50037 0.98773   8
   5  -3  -3 3.74679 1.20840   8
   5   3   3 3.81063 0.96543   8
  -5  -3   3 1.81425 0.99503   3
  -5   3  -3 2.73139 1.33193   6
  -5  -3   3 3.31955 1.38863   1
  -6   3   3 155.403 15.3852   3
   6  -3   3 156.722 15.9167   8
   6  -3   3 177.813 16.0604   8
   6   3  -3 172.472 19.9035   4
  -6   3   3 187.128 17.4410   1
  -6  -3  -3 154.933 17.2627   1
  -6   3   3 143.015 15.3745   3
  -6   3  -3 165.311 16.1196   6
  -6   3  -3 149.131 15.4608   3
  -6  -3   3 172.757 15.2947   3
  -6   3  -3 178.976 15.5379   3
   6   3   3 140.695 19.7607   4
   6  -3  -3 142.648 15.8866   8
  -6   3  -3 145.655 17.3485   1
  -6  -3   3 143.987 17.1407   1
   6  -3  -3 151.481 15.9526   8
   6   3   3 148.677 15.6804   8
   6   3   3 153.958 15.6974   8
  -7   3   3 36.8740 4.45501   3
  -7  -3  -3 32.6434 4.31306   3
  -7   3   3 47.3323 5.31267   1
  -7  -3  -3 29.9378 5.06546   1
   7  -3   3 38.6851 4.55710   8
  -7   3   3 41.2734 4.49702   3
   7   3  -3 47.7933 7.31864   4
   7  -3   3 42.7196 4.53595   8
  -7   3  -3 41.4215 4.61552   3
   7  -3  -3 41.6424 4.52551   8
   7  -3  -3 41.7854 4.47476   8
  -7   3  -3 42.0649 5.28430   1
   7   3   3 35.0083 6.69007   4
  -7   3  -3 47.3709 4.99351   6
  -7  -3   3 41.5116 4.29737   3
  -7   3  -3 47.1470 4.68232   3
  -7  -3   3 40.9143 4.99239   1
  -8  -3  -3 32.2566 4.24491   3
   8  -3   3 42.1259 4.50034   8
  -8   3   3 38.3690 4.47031   3
  -8   3   3 41.0414 5.24988   1
   8   3  -3 48.4626 7.51711   4
   8  -3   3 41.9370 4.54305   8
  -8  -3  -3 38.2773 5.03473   1
  -8   3   3 42.3505 4.47719   3
   8  -3  -3 43.7849 4.44179   8
  -8   3  -3 41.7246 4.61405   3
  -8   3  -3 39.7384 4.62098   3
  -8   3  -3 37.0735 4.93640   6
   8  -3  -3 32.4008 4.41612   8
   8   3   3 47.3743 7.91085   4
  -8  -3   3 37.1332 4.95741   1
  -8   3  -3 36.4906 5.24371   1
  -8  -3   3 46.6268 4.30662   3
   9  -3   3 277.996 26.2437   8
  -9  -3  -3 242.897 28.2151   1
  -9   3   3 255.296 25.2995   3
   9  -3   3 251.439 26.2684   8
  -9   3   3 271.675 28.4775   1
   9   3  -3 235.363 32.3079   4
  -9   3   3 295.710 25.3964   3
  -9  -3  -3 265.515 25.1701   3
  -9   3  -3 249.702 25.4077   3
  -9   3  -3 279.218 25.4116   3
  -9  -3   3 270.846 28.2650   1
   9   3   3 202.428 32.5188   4
   9  -3  -3 246.115 26.2012   8
  -9   3  -3 254.482 28.5153   1
   9  -3  -3 274.817 26.1813   8
 -10   3   3 30.7189 4.41434   6
 -10  -3  -3 39.0164 4.68573   1
  10   3  -3 41.2655 7.50786   4
 -10   3   3 31.5428 4.10539   3
  10  -3   3 30.0153 4.13571   8
 -10   3   3 38.1779 4.13254   3
 -10   3   3 29.2758 4.69085   1
 -10  -3  -3 33.7821 3.89862   3
 -10   3  -3 29.9834 4.20725   3
  10   3   3 43.9510 8.84181   4
 -10   3  -3 29.2446 5.02022   1
  10  -3  -3 39.2185 4.16884   8
 -10  -3   3 37.6685 4.24110   6
 -10  -3   3 39.0239 3.99182   3
 -10   3  -3 41.2116 4.43550   3
  10  -3  -3 32.1038 3.98112   8
 -10  -3   3 25.9463 4.49171   1
  11   3  -3 37.6040 8.19876   4
  11  -3   3 25.1034 3.82888   8
 -11   3   3 34.7440 4.68562   1
 -11   3   3 26.5457 3.82087   3
 -11   3   3 33.6159 3.98658   3
 -11  -3  -3 31.7022 3.69134   3
 -11  -3   3 27.5013 3.76434   6
  11   3   3 38.0794 8.49051   4
 -11   3  -3 27.3764 4.66808   1
  11  -3  -3 32.7309 3.98926   8
 -11   3  -3 33.0281 4.15954   3
 -11  -3   3 31.5274 3.72481   3
 -12  -3  -3 23.4135 3.13001   3
  12  -3   3 23.2899 3.40790   8
 -12   3   3 27.4418 4.17111   1
 -12   3   3 20.4855 3.28262   3
 -12  -3   3 28.5063 3.17785   6
  12   3   3 21.7621 2.86667   8
  12  -3  -3 25.9865 3.57891   8
 -12  -3   3 27.5716 3.30184   3
 -12   3  -3 19.8257 3.99458   1
 -12   3  -3 22.9109 3.64700   3
  13  -3   3 5.35020 2.01582   8
  13   3   3 8.77418 1.59756   8
  13  -3  -3 7.06574 2.20632   8
   0  -4   3 0.36652 1.32726   2
   0  -4   3 1.69061 1.37379   7
   0  -4  -3 -0.0318 1.18685   7
   0   4   3 2.31921 1.49393   2
   0  -4  -3 1.89943 1.41876   2
   0  -4   3 -2.4244 1.11073   7
   0   4  -3 1.97983 1.46734   7
   0   4   3 0.61114 1.13953   7
   0   4   3 1.60698 1.33493   4
   0   4  -3 -0.5711 1.40678   2
   1  -4   3 1.35463 1.28273   7
  -1   4   3 1.22564 1.50380   2
   1   4  -3 0.32679 1.35503   2
   1  -4   3 5.88205 1.62414   7
  -1   4   3 1.53582 1.29032   7
  -1  -4  -3 2.27854 1.41739   2
   1  -4   3 3.80741 1.60322   2
  -1  -4  -3 3.50974 1.26328   7
   1  -4  -3 1.95284 1.40873   2
  -1   4  -3 1.68934 1.53374   2
  -1   4  -3 1.38820 1.44566   7
   1   4   3 1.62768 1.43157   4
  -1  -4   3 6.69039 1.48091   5
   1   4   3 0.89211 1.21281   2
  -1  -4   3 2.76937 1.45430   7
  -1   4  -3 -1.2810 1.29212   2
  -1  -4   3 8.03296 1.84606   2
   1  -4  -3 2.02738 1.24873   7
   1   4   3 2.74868 1.36886   7
  -2  -4  -3 19.0364 2.79559   7
   2  -4   3 19.5011 2.69575   7
  -2   4   3 19.8921 2.89450   7
  -2  -4  -3 16.5148 2.96620   1
   2  -4   3 22.0708 3.20089   2
   2  -4   3 14.3557 2.62464   7
   2   4  -3 18.1219 2.99164   2
   2  -4  -3 18.9828 2.77109   7
   2   4   3 12.6126 2.66227   2
  -2   4  -3 17.0431 2.89618   7
   2   4   3 19.8651 3.41091   4
  -2  -4   3 12.9637 2.76772   1
   2  -4  -3 25.6569 3.25244   2
  -2   4  -3 17.4865 2.82552   7
  -2  -4   3 19.0200 2.87966   6
   2  -4  -3 17.6444 2.64937   7
  -3  -4  -3 40.1302 4.70872   7
  -3  -4  -3 42.8072 4.95532   1
   3  -4   3 32.6445 4.49022   8
   3   4  -3 43.7659 4.88056   2
  -3   4   3 38.0034 4.69057   7
   3  -4   3 29.9355 4.98163   2
   3   4  -3 30.0345 4.27127   8
   3   4  -3 46.4748 6.28276   4
  -3   4   3 42.6393 4.88797   1
   3  -4  -3 37.9732 4.43673   8
   3   4   3 34.7248 4.27464   8
   3  -4  -3 46.9083 5.00136   2
  -3  -4   3 40.8761 4.89755   1
   3   4   3 35.0748 4.68970   2
   3   4   3 40.6390 5.71955   4
  -3  -4   3 31.3582 4.40934   6
  -3   4  -3 24.0306 4.88177   1
  -3   4  -3 39.8478 4.75494   7
  -3   4  -3 33.6193 4.74765   7
  -4  -4  -3 74.8285 9.00169   7
   4  -4   3 66.1767 9.16346   2
  -4   4   3 75.8463 9.07837   7
   4   4  -3 84.5971 8.94909   2
   4   4  -3 81.3550 8.94527   2
  -4  -4  -3 87.4402 9.34198   1
   4  -4   3 81.8038 8.54929   8
   4   4  -3 99.6980 11.1702   4
   4   4  -3 84.3967 8.38158   8
  -4  -4  -3 92.4364 8.22379   3
  -4   4   3 80.2380 9.29591   1
  -4  -4   3 76.7191 9.22604   1
  -4   4  -3 73.3254 9.20801   7
   4  -4  -3 64.4478 8.49045   8
  -4   4  -3 90.3391 8.48076   3
   4   4   3 70.7098 10.5513   4
   4  -4  -3 85.2878 9.19424   2
  -4   4  -3 77.3942 9.45771   1
  -4   4  -3 72.1189 9.14679   7
   4   4   3 84.4676 8.40990   8
   4   4   3 77.8477 9.05674   2
   4   4   3 87.2488 9.65942   5
   5   4  -3 190.140 18.9698   8
   5   4  -3 142.296 23.1722   4
  -5   4   3 201.470 18.4176   3
  -5  -4  -3 167.175 20.5875   1
   5  -4   3 172.293 19.1030   8
   5   4  -3 181.403 18.9112   8
  -5   4   3 211.034 20.7573   1
  -5  -4  -3 178.435 18.3511   3
   5  -4   3 187.737 20.5788   2
  -5   4   3 206.101 20.6931   7
   5   4   3 190.564 18.9806   8
   5  -4  -3 185.084 19.1922   8
  -5   4  -3 214.203 18.6309   3
   5  -4  -3 180.680 20.4709   2
  -5   4  -3 204.428 19.2047   6
  -5   4  -3 160.875 18.4009   3
  -5   4  -3 196.682 20.7070   7
  -5  -4   3 199.338 20.6775   1
   5   4   3 159.883 23.1637   4
   5   4   3 219.279 21.5631   5
  -5   4  -3 164.666 20.7418   1
   5   4   3 197.418 18.9865   8
  -6  -4  -3 129.070 15.6155   3
   6   4  -3 168.165 16.1121   8
  -6   4   3 174.421 15.8151   3
   6  -4   3 161.850 16.3557   8
   6   4  -3 180.038 20.4798   4
  -6   4   3 160.524 17.7564   1
  -6  -4  -3 152.542 17.6567   1
   6  -4   3 166.111 16.3811   8
  -6   4   3 169.244 15.7673   3
   6   4  -3 161.104 16.0935   8
  -6   4   3 161.364 17.5634   7
  -6   4  -3 142.462 17.8158   1
   6   4   3 146.758 16.1341   8
   6  -4  -3 193.955 16.4450   8
  -6   4  -3 178.751 15.9627   3
  -6   4  -3 152.321 17.5600   7
  -6   4  -3 168.831 16.4873   6
   6   4   3 162.581 16.1525   8
  -6   4  -3 156.921 15.8367   3
  -6  -4   3 152.019 17.6574   1
   6   4   3 161.941 20.2556   4
   6  -4  -3 125.534 16.3145   8
   7   4  -3 44.8929 4.76197   8
   7   4  -3 50.1657 7.95066   4
   7  -4   3 47.2657 5.22532   8
  -7  -4  -3 41.6797 5.66261   1
  -7   4   3 52.0803 5.16812   3
  -7   4   3 46.4917 5.06750   3
   7   4  -3 47.0137 4.79880   8
  -7   4   3 43.5285 5.90001   1
  -7  -4  -3 35.1567 4.85965   3
   7   4   3 37.5896 4.86312   8
   7   4   3 44.4445 7.65048   4
   7  -4  -3 45.6080 5.17653   8
  -7  -4   3 44.2727 5.28778   6
  -7   4  -3 43.2896 5.20517   3
   7  -4  -3 45.4426 5.33002   8
   7   4   3 47.4293 4.88314   8
  -7   4  -3 46.3273 6.10246   1
  -7  -4   3 46.8908 5.78680   1
  -7   4  -3 39.3913 5.42091   6
  -7   4  -3 54.3401 5.30841   3
  -7  -4   3 51.4518 4.96365   3
  -8  -4  -3 90.8717 9.53222   1
  -8   4   3 84.0016 8.42538   3
   8   4  -3 78.2035 8.13808   8
   8   4  -3 86.7774 11.9120   4
  -8   4   3 79.1049 9.58629   1
   8   4  -3 81.8587 8.14459   8
  -8   4   3 86.7348 8.39242   3
  -8  -4  -3 76.4719 8.24001   3
   8  -4   3 76.7065 8.63475   8
   8   4   3 81.4735 8.28763   8
  -8   4  -3 75.0077 9.68623   1
  -8  -4   3 68.8529 9.31587   1
  -8   4  -3 86.9401 8.60044   3
  -8  -4   3 84.5749 8.68541   6
   8  -4  -3 80.4039 8.74014   8
   8   4   3 81.9808 8.35213   8
   8   4   3 65.5104 11.3198   4
  -8  -4   3 71.5244 8.15657   3
  -8   4  -3 87.5106 8.56197   3
  -9   4   3 74.1374 7.92319   3
   9  -4   3 80.4729 8.14407   8
  -9  -4  -3 78.6977 7.73076   3
  -9   4   3 81.6965 7.90232   3
   9   4  -3 70.9352 11.1378   4
  -9  -4  -3 72.0697 8.77828   1
  -9   4  -3 77.5350 8.04876   3
  -9  -4   3 65.6858 8.74880   1
   9   4   3 74.3195 7.76964   8
  -9  -4   3 55.0336 7.58433   3
   9   4   3 60.1088 11.3365   4
   9   4   3 77.1733 7.75162   8
  -9   4  -3 85.2123 9.36479   1
   9  -4  -3 75.8572 8.23289   8
  -9   4  -3 75.7941 8.19413   3
  -9  -4   3 80.6290 8.17806   6
 -10   4   3 10.5437 2.33509   3
  10  -4   3 12.4957 2.38524   8
 -10   4   3 7.86558 2.62933   1
  10   4  -3 15.8646 5.29428   4
 -10  -4  -3 15.6851 2.80028   1
 -10   4   3 11.7907 2.41569   3
 -10  -4  -3 13.4947 2.22618   3
  10   4   3 13.3897 1.96062   8
 -10   4  -3 7.36944 2.43206   3
 -10  -4   3 16.6197 2.87812   1
 -10   4  -3 16.6508 3.34011   1
 -10   4  -3 16.3204 2.71101   3
  10   4   3 13.2176 1.96071   8
  10   4   3 11.1479 4.59803   4
 -10  -4   3 14.3719 2.29692   3
 -10  -4   3 14.9534 2.47116   6
  10  -4  -3 15.9445 2.65603   8
 -11  -4  -3 13.7730 2.60374   1
 -11  -4  -3 7.06522 1.82427   3
 -11   4   3 8.36043 2.07880   3
  11   4  -3 4.86711 3.52570   4
 -11   4   3 9.72405 2.19623   3
 -11   4   3 9.27684 2.60330   1
  11  -4   3 6.92321 1.99067   8
  11   4  -3 9.65604 1.44505   8
  11   4  -3 9.35604 1.41782   8
 -11   4  -3 12.2443 2.61783   3
 -11  -4   3 7.20924 1.99032   6
  11  -4  -3 7.87429 2.12306   8
 -11  -4   3 10.2411 1.97334   3
  11   4   3 7.05793 1.62659   8
 -11   4  -3 7.31511 2.66862   1
  11   4   3 -1.5568 5.22923   4
  12  -4   3 1.53290 1.74355   8
 -12  -4  -3 0.49183 1.18233   3
 -12   4   3 4.06640 2.22280   1
  12   4  -3 1.51515 5.05838   4
  12   4  -3 2.54147 1.12869   8
  12  -4  -3 1.70667 1.81459   8
  12   4   3 1.99972 1.29898   8
 -12   4  -3 3.48382 2.35456   1
 -12  -4   3 3.08220 1.71251   3
 -12  -4   3 1.35280 1.28517   6
 -12   4  -3 3.76267 2.01198   3
   0  -5   3 426.552 45.8713   7
   0   5  -3 466.266 45.7908   2
   0   5   3 373.139 45.5011   2
   0   5   3 458.883 49.8045   4
   0  -5  -3 418.912 45.6575   2
   0  -5   3 364.707 45.7802   7
   0  -5  -3 432.995 45.8074   7
   0   5  -3 445.521 45.6921   2
   0   5   3 382.647 45.7659   7
   1   5  -3 403.576 46.3726   2
   1  -5   3 425.641 46.6025   7
  -1   5   3 381.664 46.5075   7
  -1  -5  -3 473.431 46.5010   2
   1  -5   3 458.183 46.6376   7
  -1  -5  -3 452.664 46.5586   7
   1  -5  -3 477.906 46.6768   7
  -1  -5   3 341.073 46.5392   7
  -1   5  -3 385.786 46.5103   2
  -1  -5   3 400.753 46.4115   2
   1  -5  -3 420.389 46.3951   2
   1   5   3 442.275 46.5580   7
  -1   5  -3 454.030 46.5322   2
   1   5   3 436.527 50.6498   4
  -2  -5  -3 59.1569 6.17579   7
   2  -5   3 48.6106 5.98298   7
   2   5  -3 59.4155 6.40611   2
  -2  -5  -3 49.1562 6.26399   1
   2  -5   3 39.3694 6.19412   2
   2  -5   3 54.7092 6.25377   7
  -2   5   3 34.4421 6.07805   2
  -2   5   3 44.1506 6.03374   7
  -2  -5  -3 49.4986 6.51485   2
   2   5  -3 36.9758 5.49047   8
  -2   5  -3 49.9818 6.37057   2
  -2   5  -3 39.3868 6.12570   7
   2  -5  -3 50.5306 6.11565   7
  -2   5  -3 53.0096 6.22892   7
   2   5   3 42.6099 5.59528   8
  -2  -5   3 46.7322 6.20539   1
   2   5   3 51.0957 6.91051   4
   2  -5  -3 46.0469 5.94183   7
  -2   5  -3 40.6959 6.43452   1
   2  -5  -3 53.3034 6.26804   2
   2   5   3 46.8569 6.12543   2
   3  -5   3 151.895 16.5056   7
   3  -5   3 163.982 15.7825   8
  -3  -5  -3 160.750 16.9180   7
  -3  -5  -3 154.702 16.8753   1
   3   5  -3 120.889 15.4266   8
   3  -5   3 145.781 17.0085   2
   3   5  -3 157.085 16.9695   2
   3  -5   3 148.085 16.4816   7
  -3   5   3 161.422 16.8235   1
   3   5   3 157.809 18.7182   4
  -3   5  -3 137.111 16.9405   7
   3  -5  -3 141.110 16.3907   7
  -3  -5   3 130.358 16.7534   1
   3  -5  -3 155.079 16.3877   7
   3  -5  -3 167.334 15.6685   8
  -3  -5   3 147.557 15.5209   6
  -3   5  -3 148.277 16.9290   1
  -3  -5   3 149.959 16.7885   1
  -3   5  -3 131.026 16.8265   7
   3  -5  -3 160.183 17.0024   2
   3   5   3 172.700 15.5691   8
   4  -5   3 263.672 35.0889   2
   4   5  -3 326.275 34.9141   2
  -4   5   3 323.233 35.2303   7
   4   5  -3 313.729 32.3344   8
   4  -5   3 367.857 32.6053   8
  -4   5   3 325.972 34.8719   1
  -4  -5  -3 364.087 35.1836   7
   4   5  -3 261.984 38.8813   4
  -4  -5  -3 374.224 31.1586   3
  -4   5   3 343.409 31.1434   3
  -4  -5  -3 302.232 34.8295   1
   4   5   3 323.021 32.2668   8
  -4   5  -3 290.270 35.1953   7
  -4  -5   3 277.020 32.0800   6
  -4   5  -3 310.860 35.2298   7
  -4  -5   3 276.607 34.7175   1
   4   5   3 334.118 36.2026   5
   4   5   3 387.358 39.0393   4
   4  -5  -3 323.360 32.4448   8
  -4   5  -3 307.833 34.9541   1
  -4  -5   3 346.809 34.9315   1
   4  -5  -3 364.599 35.1082   2
  -4   5  -3 254.310 31.1281   3
  -5  -5  -3 125.396 15.0821   1
  -5   5   3 131.790 13.4593   3
   5   5  -3 113.002 13.7744   8
   5   5  -3 113.954 17.2347   4
  -5   5   3 147.491 15.2275   1
  -5  -5  -3 125.037 13.3945   3
   5   5  -3 131.166 13.8500   8
   5  -5   3 113.814 13.9896   8
  -5   5   3 130.117 15.0383   7
   5  -5   3 153.197 15.0951   2
  -5   5   3 150.271 13.5244   3
   5   5   3 128.629 13.8008   8
   5  -5  -3 145.240 14.1220   8
  -5  -5   3 105.467 13.8225   6
  -5   5  -3 137.687 15.1392   7
  -5  -5   3 166.654 13.5559   3
   5  -5  -3 146.981 15.0648   2
   5   5   3 133.170 14.5240   2
   5   5   3 116.536 13.7677   8
  -5   5  -3 146.260 13.7467   3
  -5  -5   3 135.783 15.0945   1
   5   5   3 118.794 17.0475   4
  -5   5  -3 132.466 15.2918   1
   5   5   3 152.728 14.5677   2
  -6   5   3 24.9190 3.68064   1
   6   5  -3 21.9638 4.67806   4
   6   5  -3 23.2532 2.90908   8
   6   5  -3 17.6103 2.73032   8
  -6   5   3 18.9734 2.99805   7
  -6  -5  -3 18.7955 3.37818   1
   6  -5   3 22.2067 3.17929   8
  -6  -5  -3 13.9504 2.70954   3
  -6   5   3 17.2468 2.94142   3
  -6   5   3 16.0496 2.79446   3
   6  -5   3 23.0977 2.50666   2
   6   5   3 24.2074 2.95654   8
  -6  -5   3 22.1207 2.91349   3
  -6   5  -3 22.2288 3.84135   1
   6  -5  -3 25.0240 3.32396   8
   6   5   3 11.4661 4.03022   4
  -6   5  -3 20.5004 3.22965   3
  -6   5  -3 21.5412 3.16797   7
  -6  -5   3 17.0535 3.12535   6
  -6  -5   3 17.3914 3.30709   1
  -6   5  -3 24.4664 3.33445   3
   6   5   3 25.2998 2.98551   8
  -7   5   3 93.6637 8.75900   3
   7   5  -3 80.7180 11.7068   4
   7   5  -3 66.7369 8.62550   8
  -7   5   3 85.7058 9.94626   1
   7   5  -3 88.5982 8.75787   8
  -7  -5  -3 79.1186 9.76641   1
  -7   5   3 76.1628 8.66564   3
   7  -5   3 87.5076 9.05883   8
   7  -5  -3 80.7883 9.09929   8
  -7  -5   3 86.6557 8.61469   3
   7   5   3 92.6778 8.80776   8
   7   5   3 79.6193 8.74580   8
  -7  -5   3 88.1173 9.09546   6
  -7   5  -3 77.9353 10.0048   1
  -7   5  -3 79.7281 8.94137   3
   7   5   3 70.7806 11.5608   4
  -7  -5   3 84.2906 9.76231   1
   8   5  -3 3.35041 1.24980   8
  -8  -5  -3 4.85897 2.02618   1
  -8  -5  -3 0.13604 1.21053   3
   8   5  -3 3.71472 1.21870   8
  -8   5   3 4.90204 2.14211   1
   8   5  -3 2.03906 2.94142   4
   8  -5   3 2.20317 1.59364   8
  -8   5   3 4.71047 1.67880   3
  -8  -5   3 0.50151 1.74670   1
  -8  -5   3 4.08325 1.29482   3
   8  -5  -3 3.23870 1.85698   8
  -8  -5   3 1.82707 1.82832   1
   8   5   3 3.23233 1.28347   8
  -8  -5   3 1.06027 1.41835   6
  -8   5  -3 2.19551 1.64845   3
   8   5   3 1.38017 3.07354   4
  -8   5  -3 1.39442 2.08462   1
  -9  -5  -3 3.92672 1.47960   3
  -9   5   3 2.37310 1.43070   3
  -9   5   3 2.79567 1.91829   1
  -9  -5  -3 3.54684 2.04078   1
   9   5  -3 1.35318 1.18958   8
   9  -5   3 1.97732 1.63134   8
   9   5  -3 5.46269 3.44884   4
   9   5  -3 1.18845 1.31817   8
   9   5   3 2.38508 1.31353   8
  -9   5  -3 1.53416 1.85502   3
  -9  -5   3 4.10653 1.63286   3
   9  -5  -3 1.92813 1.75110   8
   9   5   3 6.05258 3.11317   4
  -9  -5   3 2.79881 1.95593   1
  -9   5  -3 0.94651 2.12060   1
  -9  -5   3 1.38272 1.87707   1
  -9  -5   3 2.03917 1.59307   6
  10   5  -3 0.01899 3.45955   4
  10  -5   3 1.60290 1.60189   8
 -10   5   3 2.18066 2.23990   1
 -10  -5  -3 0.39070 1.27880   3
  10   5  -3 1.30175 1.18613   8
 -10   5   3 2.95847 1.71076   3
 -10  -5  -3 1.99240 1.85520   1
  10  -5  -3 -0.4445 1.55314   8
  10   5   3 2.09886 1.29977   8
 -10  -5   3 2.12213 1.56675   3
 -10   5  -3 -0.4708 2.08674   1
  10   5   3 -4.2538 3.52995   4
 -10  -5   3 0.05084 1.40737   6
 -10  -5   3 -0.2122 1.82671   1
 -10   5  -3 1.55459 1.81088   3
  11   5  -3 8.13048 4.73527   4
 -11   5   3 13.0522 3.13127   1
 -11  -5  -3 9.20402 2.20004   3
 -11   5   3 9.37683 2.46666   3
  11  -5   3 14.2174 2.89764   8
 -11  -5  -3 10.6379 2.86751   1
  11   5  -3 11.2251 2.12725   8
 -11  -5   3 16.2366 3.23325   1
 -11   5  -3 9.81114 2.83014   3
 -11  -5   3 9.53208 2.35944   3
  11   5   3 10.2086 2.13620   8
 -11  -5   3 13.3791 2.47897   6
  11  -5  -3 11.0087 2.77833   8
  11   5   3 11.7878 4.43817   4
 -11   5  -3 13.2700 3.35093   1
  12   5  -3 74.1596 8.83299   8
 -12   5   3 90.4538 10.3399   1
 -12  -5  -3 80.7581 8.75732   3
  12  -5   3 77.0456 9.48256   8
  12   5   3 85.2563 8.89279   8
 -12   5  -3 70.6214 10.1129   1
 -12   5  -3 89.6420 9.40916   3
 -12  -5   3 86.9713 8.83882   6
 -12  -5   3 91.2759 8.92656   3
  12  -5  -3 70.9965 9.34031   8
   0   6  -3 1.92290 1.65857   2
   0  -6   3 2.37015 1.47070   7
   0   6   3 -0.2193 1.24431   7
   0  -6   3 0.91564 1.49868   7
   0  -6  -3 -1.2591 1.21410   7
   0  -6  -3 -0.9942 1.24554   2
   0   6  -3 -1.5811 1.53702   2
   0   6   3 -0.7486 1.24279   2
   0  -6   3 2.79996 1.76100   2
   0   6   3 -0.7572 1.58076   4
  -1  -6  -3 66.7698 7.97024   7
   1  -6   3 74.7003 8.11503   7
   1  -6   3 68.6613 8.15189   7
  -1  -6  -3 67.1522 8.23097   1
  -1   6   3 51.8700 7.82276   7
  -1   6   3 76.3973 8.08022   1
   1   6  -3 66.3209 8.17410   2
   1  -6   3 66.0626 8.22602   2
  -1   6   3 64.3202 8.03547   2
  -1  -6  -3 81.7657 8.35235   2
  -1  -6   3 47.3328 7.90767   2
  -1  -6   3 57.5013 8.01447   7
   1   6   3 66.4677 8.89394   4
  -1  -6   3 52.0920 7.93988   7
   1  -6  -3 78.4519 8.25054   2
   1   6   3 71.4489 8.07568   2
  -1   6  -3 69.5108 8.33327   7
  -1   6  -3 67.6788 8.26164   2
  -1   6  -3 80.4152 8.29927   1
  -1  -6   3 52.4807 7.99460   1
   1   6   3 79.7808 8.07768   7
  -1   6  -3 54.4555 8.17114   2
   1  -6  -3 60.5021 7.92218   7
  -2   6   3 56.8193 6.83113   2
  -2  -6  -3 60.3802 6.99221   1
  -2   6   3 43.6343 6.51622   7
  -2  -6  -3 50.5745 6.80341   2
   2  -6   3 47.9214 6.42039   7
  -2   6   3 57.6265 6.83833   1
   2  -6   3 51.7788 6.90504   2
   2   6  -3 59.5066 6.84669   2
   2  -6   3 49.1894 6.65757   7
  -2  -6  -3 39.2322 6.43120   7
   2   6  -3 64.9800 6.33960   8
  -2  -6   3 43.0244 6.67642   2
  -2   6  -3 61.3450 6.99702   1
   2  -6  -3 56.8088 6.91568   2
  -2  -6   3 41.9625 6.57095   7
  -2  -6   3 48.5213 6.20933   6
  -2   6  -3 67.1262 7.18645   7
  -2   6  -3 50.6979 6.93274   2
   2  -6  -3 52.7251 6.50782   7
  -2  -6   3 48.2119 6.79155   1
   2   6   3 62.4421 6.85922   2
  -2   6  -3 57.9697 6.84830   7
   2  -6  -3 51.4890 6.65500   7
   2   6   3 58.9449 6.26492   8
   2   6   3 73.3692 7.89334   4
   3   6  -3 92.9761 9.68354   8
   3   6  -3 85.4709 10.5762   2
  -3   6   3 65.0315 10.3169   2
  -3   6   3 97.3552 10.5111   7
   3  -6   3 84.4069 10.0920   7
  -3  -6  -3 103.684 10.5995   7
   3  -6   3 100.657 10.7864   2
  -3   6   3 88.1863 10.5031   1
   3  -6   3 101.103 9.96078   8
  -3  -6  -3 81.5722 10.5213   1
  -3   6  -3 98.8062 10.9230   2
   3   6   3 90.5277 11.8281   4
  -3   6  -3 90.5987 10.6885   7
  -3   6  -3 95.7312 10.5651   7
   3  -6  -3 111.790 10.8692   2
  -3  -6   3 77.4009 10.5127   1
  -3   6  -3 75.1541 10.5368   1
  -3  -6   3 90.3535 9.74714   6
   3  -6  -3 85.6514 9.71610   8
   3  -6  -3 85.9981 10.0853   7
   3   6   3 86.3361 9.60588   8
   4   6  -3 5.36695 3.15527   4
  -4  -6  -3 8.65901 1.95734   3
   4  -6   3 7.36697 2.12307   8
  -4   6   3 9.51580 2.40549   1
   4  -6   3 11.0492 2.62547   2
  -4   6   3 5.89941 1.82193   3
   4   6  -3 12.4397 2.36693   2
  -4   6   3 11.4543 2.18758   7
   4   6  -3 7.26466 1.94246   8
  -4  -6  -3 7.29438 2.31260   1
  -4   6  -3 7.44293 2.11373   3
   4   6   3 4.28243 2.63216   4
   4  -6  -3 9.91261 2.36632   2
  -4   6  -3 9.32369 2.52764   1
   4   6   3 9.69389 1.98661   8
   4   6   3 11.7846 2.32378   2
   4  -6  -3 8.37908 2.08120   8
  -4   6  -3 8.55505 2.30426   7
  -4   6  -3 7.94173 2.03820   7
  -4  -6   3 8.34524 2.45752   1
  -4  -6   3 10.5975 2.34454   6
  -5  -6  -3 13.9008 2.76746   1
  -5  -6  -3 10.2999 1.97590   3
   5  -6   3 10.6277 2.44325   2
   5   6  -3 9.57305 1.73746   2
   5   6  -3 9.80874 2.09585   8
   5  -6   3 10.9553 2.48031   8
  -5   6   3 9.75635 2.12240   3
  -5   6   3 7.41151 2.42966   1
   5   6  -3 6.51688 3.52418   4
   5  -6  -3 10.5126 2.26235   8
   5   6   3 9.31481 1.91860   2
  -5  -6   3 9.49070 2.07008   3
   5   6   3 7.06377 3.01941   4
  -5   6  -3 7.95375 2.57303   1
  -5   6  -3 9.76484 2.38305   3
   5   6   3 11.2422 2.09543   8
   5   6   3 13.7963 2.08097   2
   5  -6  -3 10.8259 2.33658   2
  -5  -6   3 11.5490 2.67343   1
  -5  -6   3 14.4782 2.54083   6
   6  -6   3 11.9610 2.52623   8
  -6   6   3 11.2643 2.76893   1
   6   6  -3 11.9574 4.00867   4
   6   6  -3 9.23023 2.18167   8
  -6  -6  -3 9.19002 2.54486   1
  -6   6   3 11.8708 2.24006   3
   6  -6   3 7.21141 2.01623   2
  -6  -6  -3 6.27116 1.97436   3
  -6   6  -3 9.47670 2.68490   1
   6  -6  -3 10.7044 2.39499   8
  -6   6  -3 13.5437 2.62491   3
   6   6   3 7.10750 1.92397   8
   6   6   3 13.8662 4.18796   4
   6  -6  -3 10.6574 2.06403   2
  -6  -6   3 10.0529 2.63273   1
  -6  -6   3 11.3752 2.16428   3
  -6  -6   3 13.0126 2.48413   6
  -7   6   3 22.5123 3.75873   3
  -7  -6  -3 25.6219 4.42994   1
  -7   6   3 36.1866 4.96205   1
  -7  -6  -3 32.2417 3.98810   3
   7   6  -3 23.6534 3.78107   8
   7   6  -3 36.4790 6.79819   4
   7  -6   3 27.8987 4.25571   8
   7   6   3 26.8956 5.83333   4
  -7  -6   3 33.5836 4.74157   1
  -7  -6   3 24.3195 3.69531   3
   7  -6  -3 23.8841 4.07402   8
  -7   6  -3 34.5411 4.41509   3
  -7  -6   3 25.9576 4.08469   6
  -7   6  -3 33.7249 4.81830   1
   7   6   3 24.2766 3.70656   8
  -8   6   3 32.1142 4.25742   3
   8  -6   3 26.3915 4.37288   8
  -8   6   3 30.7947 4.95134   1
   8   6  -3 35.7958 7.16354   4
   8   6  -3 34.9433 4.20955   8
  -8  -6  -3 22.6106 3.84531   3
  -8  -6  -3 21.0143 4.35767   1
  -8  -6   3 30.4284 4.10782   3
  -8  -6   3 32.8063 4.39584   6
  -8   6  -3 26.5913 4.92289   1
   8   6   3 33.3340 6.72805   4
  -8  -6   3 26.8707 4.71803   1
   8   6   3 32.5165 4.11296   8
  -8   6  -3 34.7063 4.65677   3
   8  -6  -3 38.2009 4.74484   8
  -9  -6  -3 93.8082 10.4159   1
   9   6  -3 86.3846 9.27168   8
  -9  -6  -3 80.3968 8.96000   3
  -9   6   3 86.1168 9.23924   3
   9  -6   3 80.0975 9.63795   8
   9   6  -3 74.0487 12.9609   4
  -9   6  -3 90.8387 9.54818   3
   9   6   3 85.4527 12.7173   4
   9   6   3 75.7455 9.10757   8
  -9  -6   3 83.1352 9.34384   6
  -9   6  -3 90.0838 10.5858   1
  -9  -6   3 72.9810 10.2683   1
  -9  -6   3 102.288 9.26134   3
   9  -6  -3 77.4033 9.62689   8
 -10   6   3 4.44966 2.10796   3
 -10   6   3 9.24376 3.00221   1
 -10  -6  -3 3.13307 2.12271   1
  10   6  -3 -0.8543 4.42824   4
  10   6  -3 4.02418 1.86975   8
 -10  -6  -3 4.54845 1.76035   3
  10  -6   3 6.28163 2.31077   8
 -10   6  -3 7.42655 2.73786   1
 -10  -6   3 8.69480 2.84879   1
 -10   6  -3 4.42609 2.23514   3
 -10  -6   3 4.10127 2.10309   6
  10   6   3 2.19857 1.68284   8
  10   6   3 3.60814 4.41901   4
  10  -6  -3 4.39184 2.28049   8
 -10  -6   3 1.82393 1.88682   3
  11   6  -3 202.556 21.4780   8
  11   6  -3 177.741 26.8719   4
 -11   6   3 224.886 21.1076   3
 -11  -6  -3 226.923 23.2533   1
  11  -6   3 226.724 22.0168   8
 -11  -6  -3 178.918 20.5326   3
  11  -6  -3 210.484 21.8730   8
 -11  -6   3 215.053 21.3541   6
 -11   6  -3 219.933 21.2630   3
 -11   6  -3 175.528 23.3394   1
 -11  -6   3 224.411 23.4777   1
  11   6   3 209.724 21.3813   8
 -12   6   3 -1.3108 2.32794   1
 -12  -6  -3 -0.1778 2.24509   1
  12  -6   3 1.12056 2.26581   8
 -12  -6  -3 -0.7590 1.42454   3
  12   6  -3 0.26071 1.82687   8
 -12  -6   3 1.64282 2.40241   1
  12  -6  -3 -0.3850 2.06647   8
  12   6   3 2.92273 1.68571   8
 -12   6  -3 0.21829 2.63011   1
 -12   6  -3 -1.7718 1.87571   3
 -12  -6   3 2.29502 1.59373   6
   0  -7  -3 418.521 44.6375   7
   0  -7  -3 357.308 44.1124   1
   0   7  -3 362.087 44.5902   2
   0  -7   3 380.718 44.6399   7
   0   7   3 413.343 44.4634   2
   0  -7   3 490.717 44.3878   1
   0  -7   3 409.617 44.7115   7
   0   7   3 428.208 48.6631   4
   0  -7  -3 430.275 44.6010   2
   0  -7   3 439.633 44.6900   2
   0   7  -3 337.925 44.4328   2
  -1  -7  -3 189.173 22.0089   2
   1  -7   3 190.866 22.0576   2
   1  -7   3 200.275 22.0360   7
  -1   7   3 151.946 21.7895   2
   1   7  -3 171.144 21.9505   2
  -1  -7  -3 216.685 22.0347   7
  -1   7   3 207.512 21.7948   1
  -1   7   3 204.379 22.0947   7
  -1  -7   3 155.356 21.7900   1
  -1  -7   3 220.913 22.3064   7
   1  -7  -3 225.070 22.1985   2
   1   7   3 201.017 24.1786   4
  -1   7  -3 191.017 21.9029   1
  -1  -7   3 221.369 22.2407   2
  -1  -7   3 204.228 22.1172   7
   1   7   3 186.648 21.9188   7
  -1   7  -3 187.773 22.0787   2
  -2   7   3 172.004 20.2526   1
  -2  -7  -3 171.368 20.5092   2
  -2   7   3 190.184 20.4934   7
  -2   7   3 189.283 20.5381   2
  -2  -7  -3 139.441 20.2177   7
   2  -7   3 191.016 20.5462   7
  -2   7  -3 194.973 20.7345   2
  -2  -7   3 188.387 20.6773   7
  -2   7  -3 195.622 20.8547   7
   2  -7  -3 162.200 20.4878   2
   2   7   3 154.635 22.3299   4
  -2   7  -3 165.330 20.3549   1
   2   7   3 207.073 20.6035   2
  -2   7  -3 209.065 20.7980   7
  -2  -7   3 174.719 20.4692   1
  -2  -7   3 170.972 20.5477   7
   2  -7  -3 218.627 20.6698   7
  -2  -7   3 180.286 20.5607   2
   3   7  -3 211.428 22.0801   2
  -3  -7  -3 222.723 22.0970   7
   3   7  -3 218.297 20.3459   8
   3  -7   3 222.027 21.7416   7
  -3   7   3 155.377 21.8076   2
  -3  -7  -3 193.854 21.9618   1
   3  -7   3 169.267 22.0013   2
  -3   7   3 208.151 21.9301   1
  -3   7  -3 182.890 21.8615   1
   3   7   3 153.560 24.0122   4
  -3   7  -3 168.681 22.1162   7
   3  -7  -3 191.265 22.1052   2
   3   7   3 191.818 20.2150   8
  -3   7  -3 200.117 22.2818   2
  -3  -7   3 211.106 19.6482   3
  -3  -7   3 206.361 20.2103   6
  -3  -7   3 206.344 22.0451   1
  -3   7  -3 187.338 22.0734   7
   3  -7  -3 206.791 21.6962   7
   3   7   3 190.499 22.0101   2
   4   7  -3 388.688 39.4621   2
   4   7  -3 336.106 43.8800   4
   4  -7   3 389.415 39.5979   2
  -4  -7  -3 345.087 34.8434   3
   4  -7   3 356.748 36.5257   8
  -4   7   3 390.447 35.0598   3
   4   7  -3 387.588 36.3426   8
   4  -7  -3 363.241 39.3843   2
  -4   7  -3 298.897 34.9673   3
  -4   7  -3 377.902 39.7788   7
  -4  -7   3 380.229 39.2844   1
   4   7   3 298.584 43.2094   4
   4   7   3 371.331 36.2629   8
   4   7   3 341.637 39.3395   2
   4  -7  -3 307.999 36.3179   8
  -4  -7   3 383.703 36.1226   6
  -4   7  -3 362.020 39.2042   1
  -5   7   3 14.0461 2.66963   3
   5   7  -3 12.3865 3.85428   4
  -5  -7  -3 15.0948 2.61479   3
   5  -7   3 8.74653 2.59174   8
   5  -7   3 13.4939 3.07599   2
  -5   7   3 10.8510 2.91597   1
   5   7  -3 10.7429 2.34813   8
   5   7  -3 11.7154 2.31130   2
  -5  -7  -3 13.3491 3.00362   1
   5  -7  -3 11.7528 2.69250   2
   5  -7  -3 8.84964 2.50687   8
   5   7   3 10.8123 3.58148   4
   5   7   3 6.67173 2.12515   2
   5   7   3 14.7497 2.44876   8
  -5  -7   3 11.3466 2.65287   6
  -5   7  -3 9.61547 2.80143   1
  -5  -7   3 11.4044 2.90229   1
   5   7   3 10.3156 2.30386   2
  -5   7  -3 13.1318 2.84356   3
  -6   7   3 -0.2980 1.84767   1
  -6  -7  -3 0.09619 1.82875   1
   6   7  -3 0.19181 2.87407   4
   6  -7   3 -0.9417 1.61612   8
   6  -7   3 -1.4217 1.46645   2
  -6   7   3 1.37575 1.41911   3
  -6  -7  -3 0.00295 1.18582   3
   6   7  -3 -0.0829 1.31000   8
  -6   7  -3 0.45204 2.02175   1
   6  -7  -3 3.19788 1.62370   8
   6   7   3 0.95139 2.37660   4
  -6  -7   3 -1.3317 1.76188   1
  -6   7  -3 1.51380 1.87756   3
   6   7   3 -2.1704 1.28058   8
   6  -7  -3 1.53457 1.69368   2
  -6  -7   3 0.38384 1.76423   6
   7   7  -3 88.1444 11.5695   4
   7  -7   3 81.9207 8.89719   8
  -7   7   3 66.3846 8.15542   3
  -7  -7  -3 68.1447 9.10522   1
   7   7  -3 75.4049 8.35690   8
  -7   7   3 72.2050 9.39330   1
   7   7   3 83.9360 8.32202   8
   7   7   3 69.4705 10.7567   4
   7  -7  -3 65.3368 8.62277   8
  -7  -7   3 64.2515 8.32328   6
  -7   7  -3 76.7912 8.57118   3
  -7   7  -3 61.9084 9.15887   1
  -7  -7   3 75.9373 9.33992   1
  -8  -7  -3 23.6117 3.70270   3
  -8   7   3 23.4920 4.46027   1
  -8  -7  -3 27.7433 4.62310   1
   8   7  -3 29.5541 3.94217   8
   8   7  -3 20.2041 5.11775   4
  -8   7   3 18.7742 3.63573   3
   8  -7   3 16.3845 3.95032   8
  -8  -7   3 23.0114 3.99104   6
  -8   7  -3 22.0677 4.45337   1
   8  -7  -3 31.2495 4.46402   8
  -8   7  -3 27.2032 4.25679   3
   8   7   3 18.1364 3.41804   8
   8   7   3 22.1772 5.69969   4
  -8  -7   3 28.2954 4.62590   1
   9  -7   3 1.18261 2.07429   8
  -9   7   3 4.39908 2.22424   3
  -9  -7  -3 3.70776 1.85125   3
   9   7  -3 5.30071 2.08993   8
  -9  -7  -3 6.29718 2.55392   1
   9   7  -3 10.8921 4.59329   4
  -9   7   3 2.76227 2.19102   1
  -9  -7   3 3.91609 2.19766   6
   9   7   3 2.54722 1.77470   8
   9   7   3 6.25233 3.53224   4
  -9   7  -3 3.83761 2.56502   1
  -9  -7   3 5.95176 2.52062   1
   9  -7  -3 2.31714 2.20749   8
  -9   7  -3 4.02168 2.17565   3
 -10  -7  -3 -1.3002 1.87773   1
  10  -7   3 0.65763 1.93169   8
 -10   7   3 2.50414 1.83074   3
  10   7  -3 8.69911 4.15710   4
 -10  -7  -3 -2.3487 1.42926   3
  10   7  -3 -0.1831 1.89663   8
 -10   7   3 -2.6206 2.39100   1
  10   7   3 -5.0279 2.77786   4
 -10   7  -3 0.09244 1.91242   3
  10  -7  -3 3.02446 2.37755   8
 -10  -7   3 -2.0791 2.24541   1
  10   7   3 -1.4620 1.69381   8
 -10  -7   3 2.70656 1.97163   6
 -10   7  -3 3.37176 2.59113   1
 -11  -7  -3 -1.1569 1.47872   3
 -11   7   3 0.16195 1.84298   3
  11   7  -3 -0.9217 1.72466   8
 -11   7   3 1.70222 2.21471   1
 -11  -7  -3 1.03832 2.36075   1
  11  -7   3 1.90935 2.33272   8
 -11  -7   3 2.74760 2.39229   1
  11   7   3 0.05184 1.62175   8
 -11   7  -3 2.02804 2.84187   1
 -11   7  -3 0.84154 1.97081   3
 -11  -7   3 2.27207 1.78203   6
  11  -7  -3 2.30708 2.42817   8
 -11  -7   3 1.07703 1.79613   3
 -12   7   3 12.3980 4.05229   1
 -12  -7  -3 18.8253 3.36729   3
 -12  -7  -3 22.6906 4.22917   1
  12  -7   3 10.0521 3.58312   8
  12   7  -3 21.2318 3.60201   8
 -12  -7   3 17.1286 3.39960   3
 -12  -7   3 18.9665 3.42994   6
 -12  -7   3 21.5500 4.17278   1
  12  -7  -3 19.9066 4.04101   8
 -12   7  -3 17.7673 3.87812   3
  12   7   3 16.0905 3.24000   8
 -12   7  -3 16.4167 4.31768   1
   0  -8  -3 -0.8965 1.69574   2
   0   8  -3 1.27378 2.04214   1
   0   8   3 4.48918 2.05423   7
   0   8   3 -1.0830 1.76590   1
   0  -8   3 3.63669 2.01909   7
   0   8  -3 -1.9975 1.57230   2
   0  -8   3 2.49601 2.02810   2
   0   8  -3 0.61539 1.82699   2
   0   8   3 -0.1878 1.36730   2
   0  -8  -3 -0.4737 1.69409   1
   0  -8   3 -0.7776 1.72151   1
   1  -8   3 75.7442 9.36709   7
   1  -8   3 73.7481 9.65716   2
   1   8  -3 88.3249 9.91467   2
  -1  -8  -3 83.4424 9.67128   2
   1  -8   3 88.3046 9.78197   1
  -1   8   3 88.4985 9.58926   1
   1   8  -3 64.8343 9.36533   2
  -1   8   3 81.1925 9.58486   7
  -1  -8  -3 63.3468 9.55570   1
   1   8   3 62.2717 10.2095   4
   1   8   3 69.7203 9.22378   7
  -1  -8   3 74.9404 9.68780   2
  -1   8  -3 82.7250 9.76629   2
  -1  -8   3 71.6920 9.60743   7
   1  -8  -3 80.6837 9.68892   2
  -1  -8   3 79.8057 9.68091   1
  -1   8  -3 81.1815 9.75213   1
   1   8   3 75.8990 9.55287   2
  -2  -8  -3 0.83590 1.73905   1
  -2   8   3 2.79596 1.90607   1
  -2  -8  -3 3.82907 2.18148   2
  -2  -8  -3 1.82242 1.76396   7
  -2   8   3 2.11579 1.93047   2
   2  -8   3 2.59403 1.97218   2
   2   8  -3 4.03545 1.85212   8
  -2   8   3 6.02013 1.64577   7
   2   8  -3 2.16316 1.80480   2
   2  -8   3 -0.3479 1.43532   7
   2   8   3 1.42018 2.10111   4
  -2  -8   3 2.73223 1.83797   7
  -2   8  -3 4.63591 2.28133   1
  -2   8  -3 7.67840 2.15168   7
   2   8   3 5.41175 2.08105   2
  -2  -8   3 0.99077 1.93164   6
  -2  -8   3 4.20258 2.19146   2
   2   8   3 4.45538 1.85622   8
  -2  -8   3 1.61644 1.91699   1
  -2   8  -3 2.68762 2.24770   2
   2  -8  -3 1.13916 1.89012   2
   3  -8   3 -1.1530 1.77032   8
  -3   8   3 2.57686 2.03990   1
   3   8  -3 3.23630 1.68852   8
  -3  -8  -3 -1.8005 1.60214   7
  -3  -8  -3 0.86394 1.95726   1
   3  -8   3 2.33288 2.05152   2
   3   8  -3 3.70461 1.98785   2
   3  -8  -3 1.96688 1.95740   2
   3   8   3 3.11350 1.79715   2
  -3  -8   3 1.22120 1.69342   6
   3   8   3 0.50434 1.31065   8
  -3   8  -3 4.57715 2.56131   1
   3   8   3 0.39555 2.17837   4
  -3  -8   3 0.94370 2.02776   1
   3  -8  -3 1.81880 1.74562   8
  -3  -8   3 1.89489 1.79825   7
   4  -8   3 15.3492 3.20053   8
  -4  -8  -3 18.6172 3.05642   3
  -4  -8  -3 10.3853 3.16184   1
   4  -8   3 21.1598 3.72179   2
   4   8  -3 10.8559 2.92437   2
   4   8  -3 12.3376 4.10729   4
  -4   8   3 12.8337 3.22405   1
   4   8  -3 18.1629 3.18464   8
   4  -8  -3 11.2157 2.94702   2
   4   8   3 16.5051 2.88893   8
  -4  -8   3 8.20568 3.08179   1
   4   8   3 18.1896 3.39122   2
  -4   8  -3 11.0102 3.30692   1
   4  -8  -3 14.5875 3.01092   8
   4   8   3 17.3458 4.19883   4
  -4  -8   3 12.4434 3.01981   6
  -4  -8   3 16.4394 2.91441   3
   5  -8   3 0.87392 1.68393   8
   5   8  -3 2.83790 3.41704   4
  -5   8   3 2.87276 2.30654   1
  -5  -8  -3 2.76673 1.73842   3
  -5  -8  -3 2.70083 2.13728   1
   5   8  -3 3.91640 1.93978   2
   5   8  -3 4.04626 1.90545   8
   5  -8   3 -0.2218 1.98580   2
   5  -8  -3 1.88622 1.90675   2
  -5   8  -3 0.80522 2.14008   1
  -5  -8   3 -0.9938 1.96863   1
   5   8   3 2.72105 2.85058   4
   5   8   3 0.54054 1.76498   2
  -5  -8   3 2.33472 1.66034   3
   5  -8  -3 0.16701 1.55795   8
   5   8   3 1.42722 1.69956   2
   5   8   3 1.70750 1.60173   8
  -5  -8   3 0.84218 1.74569   6
   6  -8   3 149.411 17.1907   8
  -6  -8  -3 135.946 18.2973   1
   6  -8   3 146.177 18.1930   2
  -6   8   3 164.214 18.5455   1
  -6  -8  -3 178.548 16.4617   3
   6   8  -3 168.811 16.9557   8
   6   8  -3 183.445 21.5817   4
  -6  -8   3 177.458 17.1367   6
   6  -8  -3 145.324 17.1099   8
  -6  -8   3 157.262 16.4558   3
   6   8   3 163.243 16.8601   8
   6  -8  -3 166.572 18.2650   2
   6   8   3 131.388 20.6305   4
   6   8   3 167.791 17.5751   2
  -6  -8   3 157.145 18.5933   1
   7   8  -3 30.5957 6.70515   4
  -7  -8  -3 20.7331 3.80475   3
  -7   8   3 25.6796 4.86076   1
   7   8  -3 21.4195 3.85165   8
   7  -8   3 29.3347 3.94880   2
  -7  -8  -3 27.3863 4.89414   1
  -7   8   3 23.2408 4.00587   3
   7  -8   3 29.5803 4.80337   8
  -7  -8   3 26.5661 4.48761   6
  -7  -8   3 29.2574 4.33075   3
   7  -8  -3 29.1191 3.84850   2
  -7   8  -3 20.6785 4.57865   1
  -7  -8   3 26.7149 4.90674   1
   7   8   3 24.2083 3.97824   8
   7   8   3 21.0116 5.92252   4
   7  -8  -3 23.6860 4.34497   8
   8   8  -3 72.0139 12.2255   4
   8   8  -3 64.7298 8.44338   8
   8  -8   3 92.9390 9.39747   8
  -8   8   3 85.1768 8.65897   3
  -8  -8  -3 70.6443 9.47973   1
  -8   8   3 52.1355 9.33442   1
  -8  -8  -3 82.0558 8.39252   3
  -8  -8   3 73.4689 8.81435   6
  -8   8  -3 82.9184 9.87626   1
   8   8   3 57.1147 11.2870   4
  -8  -8   3 81.4014 9.85924   1
  -8  -8   3 65.0441 8.33176   3
  -8   8  -3 74.6164 8.74534   3
   8  -8  -3 79.0034 8.97981   8
   8   8   3 66.7706 8.44229   8
   9  -8   3 13.5854 3.95057   8
  -9  -8  -3 29.7393 4.84119   1
   9   8  -3 19.7899 3.57017   8
  -9  -8  -3 21.7295 3.68168   3
   9   8  -3 20.5070 5.84233   4
  -9   8   3 19.2019 3.74053   3
  -9   8   3 21.6864 4.46069   1
  -9   8  -3 16.8609 4.25174   1
   9   8   3 17.5903 5.97131   4
  -9  -8   3 19.6176 3.80672   6
  -9   8  -3 19.9749 4.03835   3
  -9  -8   3 16.5467 4.25652   1
   9   8   3 16.7405 3.34938   8
   9  -8  -3 20.0339 4.06673   8
  -9  -8   3 27.0255 4.01047   3
 -10  -8  -3 -0.4262 2.60660   1
 -10  -8  -3 2.01680 2.06626   3
  10  -8   3 0.32210 2.30986   8
 -10   8   3 3.82950 2.56598   3
 -10   8   3 3.57931 2.94251   1
  10   8  -3 -0.2837 1.84242   8
  10   8  -3 -1.5091 4.48717   4
  10   8   3 2.69216 1.89832   8
 -10   8  -3 1.06801 2.30133   3
  10  -8  -3 2.18935 2.42677   8
 -10  -8   3 4.31819 2.37264   6
 -10  -8   3 4.06217 2.29852   3
 -10  -8   3 1.29670 2.68031   1
 -10   8  -3 -1.8153 2.69695   1
 -11  -8  -3 20.5963 3.82181   3
  11  -8   3 25.3601 4.75420   8
 -11   8   3 21.8443 4.27604   3
 -11   8   3 23.3107 4.98665   1
  11   8  -3 26.4075 4.38566   8
 -11  -8  -3 25.6926 4.84769   1
  11  -8  -3 31.9679 5.04511   8
 -11  -8   3 28.9924 5.31911   1
 -11  -8   3 22.4745 4.19580   3
 -11  -8   3 26.5438 4.32800   6
  11   8   3 24.4294 4.16020   8
 -11   8  -3 25.8770 5.35545   1
 -11   8  -3 24.3942 4.78214   3
   0   9  -3 252.336 24.0136   1
   0   9   3 253.204 26.3230   4
   0   9   3 235.458 23.6809   1
   0  -9   3 224.193 23.9297   7
   0  -9   3 193.022 23.8283   2
   0  -9  -3 178.939 23.7221   2
   0  -9   3 199.779 23.6957   1
   0   9   3 169.047 23.5068   7
   0   9   3 193.684 23.7074   2
   0   9  -3 217.088 23.9612   2
  -1   9   3 229.825 25.4638   7
  -1   9   3 234.786 25.0918   1
   1  -9   3 192.451 25.1608   7
   1  -9   3 234.518 25.2471   1
   1   9  -3 234.003 25.5328   2
  -1  -9  -3 222.620 25.3178   1
  -1   9   3 178.486 25.1529   2
  -1  -9  -3 252.965 25.5750   2
   1   9  -3 249.648 25.5347   2
   1  -9   3 192.194 25.2505   2
  -1   9  -3 195.355 25.1296   1
  -1   9  -3 221.896 25.5109   2
   1  -9  -3 277.602 25.8496   2
  -1  -9   3 255.351 25.6774   2
  -1  -9   3 194.163 25.1096   1
   1  -9  -3 242.152 25.3229   1
  -2  -9  -3 85.1627 11.1154   1
  -2   9   3 89.8773 11.1517   2
   2  -9   3 85.8794 11.1800   2
   2   9  -3 93.9493 11.1529   2
   2   9   3 78.7025 12.1639   4
  -2  -9   3 103.110 11.2969   1
   2  -9  -3 87.8579 11.2323   2
  -2   9  -3 96.9908 11.4030   1
  -2   9  -3 78.3074 11.1567   2
   2   9   3 91.0998 11.1631   2
   3   9  -3 149.349 15.9894   8
  -3   9   3 154.996 17.2743   1
   3  -9   3 137.600 17.3513   2
  -3  -9  -3 129.140 17.2399   1
   3   9  -3 146.358 17.1921   2
   3  -9  -3 160.410 17.4967   2
  -3  -9   3 156.309 17.4487   1
  -3   9  -3 124.983 17.2060   1
   3   9   3 150.950 19.3028   4
   3   9   3 173.269 17.5840   2
   3   9   3 148.129 15.9328   8
   4  -9   3 42.6452 7.35032   2
  -4  -9  -3 50.5654 7.89236   1
   4   9  -3 36.6477 8.58247   4
  -4   9   3 53.1482 7.76339   1
   4   9  -3 57.5947 7.24212   8
   4   9  -3 44.5634 7.35634   2
   4   9   3 69.4264 7.70769   2
   4   9   3 70.3451 9.04386   4
   4   9   3 44.7992 6.65647   8
   4  -9  -3 53.2460 7.62738   2
  -4  -9   3 61.7799 7.84353   1
  -4  -9   3 61.9342 7.28071   6
  -4   9  -3 57.7044 8.01676   1
   5  -9   3 12.9067 3.52021   8
   5  -9   3 11.3049 3.45146   2
   5   9  -3 20.2938 3.65255   8
   5   9  -3 12.6554 5.01576   4
   5   9  -3 19.4561 3.75185   2
  -5  -9  -3 16.9326 3.84709   1
  -5   9   3 9.86942 3.54036   1
   5   9   3 19.7899 3.41051   8
   5   9   3 17.8706 4.89853   4
  -5   9  -3 19.3158 4.30274   1
   5  -9  -3 17.3505 3.72331   2
   5   9   3 20.2805 3.71859   2
   5  -9  -3 25.1614 3.97804   8
  -5  -9   3 15.3693 4.06930   1
   5   9   3 13.9649 3.34834   2
  -5  -9   3 16.2777 3.71945   6
  -6  -9  -3 144.989 16.0710   3
  -6  -9  -3 145.751 18.1554   1
   6  -9   3 141.283 18.1063   2
   6   9  -3 151.614 17.2717   2
   6   9  -3 137.696 20.7084   4
   6  -9   3 139.501 17.0087   8
   6   9  -3 136.811 16.6556   8
  -6  -9   3 162.166 18.4556   1
  -6  -9   3 165.136 17.0120   6
  -6   9  -3 170.350 18.5682   1
  -6  -9   3 146.959 16.2134   3
   6  -9  -3 164.670 17.1016   8
   6   9   3 170.608 20.9040   4
   6  -9  -3 181.877 18.1469   2
   6   9   3 165.077 16.7150   8
   6   9   3 166.050 17.4345   2
   7   9  -3 26.5155 7.43971   4
   7   9  -3 32.4009 5.09485   8
   7  -9   3 33.3808 5.79081   8
  -7   9   3 24.5415 5.52619   1
  -7  -9  -3 31.3898 4.91900   3
   7  -9   3 40.7859 5.30444   2
  -7  -9  -3 35.6093 6.07164   1
   7   9   3 37.3497 5.14417   8
   7  -9  -3 38.6786 5.23924   2
  -7  -9   3 40.3741 5.91148   6
   7   9   3 51.1135 8.33289   4
  -7   9  -3 24.2126 5.67650   1
  -7  -9   3 28.2393 5.73289   1
  -7  -9   3 41.2151 5.55660   3
   7  -9  -3 40.2865 5.79488   8
  -8  -9  -3 0.53482 2.08920   3
  -8   9   3 -1.5062 2.04074   1
   8   9  -3 0.86305 1.78624   8
   8   9  -3 -3.4866 4.12965   4
   8  -9   3 6.05866 3.10034   8
  -8  -9  -3 3.14674 2.47488   1
  -8  -9   3 0.17302 2.06901   6
  -8  -9   3 2.33717 2.81560   1
  -8   9  -3 1.76161 2.93414   1
   8  -9  -3 2.13079 2.53833   8
   8   9   3 7.36573 3.70719   4
  -8  -9   3 -0.6936 1.65556   3
   8   9   3 2.58364 2.02556   8
   9   9  -3 47.1966 9.72281   4
   9  -9   3 49.9359 6.97534   8
  -9  -9  -3 45.0349 5.91191   3
  -9  -9  -3 40.9869 6.79344   1
  -9   9   3 36.3025 6.76228   1
   9   9  -3 33.7011 5.78449   8
  -9  -9   3 46.7123 6.20532   3
  -9   9  -3 46.5983 7.30915   1
  -9  -9   3 39.3058 6.05262   6
   9   9   3 40.3308 8.60148   4
   9  -9  -3 37.5166 6.20254   8
  -9  -9   3 40.8764 6.83564   1
   9   9   3 44.5825 5.99155   8
 -10   9   3 26.9097 5.42905   1
 -10  -9  -3 22.1990 4.22811   3
 -10  -9  -3 20.5887 5.03461   1
  10  -9   3 25.9318 5.28604   8
  10   9  -3 25.8000 4.56316   8
 -10  -9   3 29.6166 4.77996   3
 -10   9  -3 35.0519 6.07700   1
  10   9   3 26.9802 4.49424   8
  10  -9  -3 24.7207 5.19095   8
 -10  -9   3 27.4393 4.61130   6
 -10  -9   3 29.4827 5.45607   1
 -11  -9  -3 -2.4439 2.58476   1
 -11  -9  -3 1.49010 1.75736   3
 -11   9   3 4.77950 3.18828   1
  11  -9   3 1.90196 2.73760   8
  11   9  -3 1.98486 2.51845   8
  11   9   3 3.29560 2.34848   8
 -11  -9   3 -0.8106 2.31716   3
 -11   9  -3 1.91615 3.12533   1
 -11  -9   3 2.70893 2.46860   6
 -11  -9   3 1.46983 2.87869   1
  11  -9  -3 0.15893 2.39703   8
   0 -10   3 0.33794 2.51898   2
   0 -10   3 3.62751 2.61085   1
   0 -10  -3 1.12837 2.06291   2
   0 -10  -3 0.08300 2.10881   1
   0  10   3 -1.3899 2.12719   4
   0  10  -3 -0.8808 2.10154   2
   0  10  -3 2.95137 2.32654   2
   0  10   3 0.23985 2.09458   2
  -1  10   3 17.3986 3.90996   1
  -1 -10  -3 16.9411 3.92348   2
   1  10  -3 10.5731 3.66130   2
   1 -10   3 12.9139 3.68613   2
  -1  10   3 14.5751 3.64174   2
  -1 -10  -3 25.9848 4.69270   1
   1  10  -3 20.2948 4.00010   2
   1  10   3 22.5775 4.79225   4
   1 -10  -3 25.1496 4.57635   2
  -1 -10   3 18.4575 3.98364   2
  -1  10  -3 17.3457 4.18737   2
  -1 -10   3 6.29407 3.25895   1
  -1  10  -3 18.6898 4.35100   1
   1  10   3 21.7200 4.42208   2
   2 -10   3 3.39202 2.55513   2
   2  10  -3 4.29125 2.61148   2
  -2  10   3 3.67201 2.36546   1
  -2 -10  -3 2.93203 2.64271   1
  -2  10   3 6.91391 2.81717   2
  -2 -10   3 0.33882 2.21081   1
  -2  10  -3 6.27981 3.05923   2
   2 -10  -3 3.50388 2.48341   2
  -2  10  -3 5.70125 2.90390   1
   2  10   3 3.70476 3.12688   4
   2  10   3 1.84381 2.23758   2
  -3  10   3 94.5985 11.2378   1
   3  10  -3 89.7079 11.0694   2
   3 -10   3 86.1322 11.2644   2
  -3 -10  -3 66.5067 10.9436   1
  -3 -10   3 69.8829 11.3235   1
   3  10   3 79.4416 12.2365   4
  -3  10  -3 91.9070 11.5908   1
   3  10   3 102.091 11.4273   2
   3 -10  -3 110.381 11.4846   2
   4  10  -3 69.0959 12.9065   4
  -4  10   3 95.6156 10.9885   1
   4  10  -3 81.1563 10.4944   2
   4  10  -3 59.9525 9.44728   8
  -4 -10  -3 81.0925 10.8719   1
   4 -10   3 90.8578 10.9104   2
   4  10   3 83.6779 12.1954   4
  -4 -10   3 82.1330 10.8885   1
   4 -10  -3 86.0348 10.6944   2
  -4  10  -3 90.3766 11.1754   1
   4  10   3 85.9686 9.82390   8
   4  10   3 86.6977 10.6652   2
  -5  10   3 16.7157 4.31433   1
  -5 -10  -3 19.7161 4.66598   1
   5  10  -3 27.3862 6.96490   4
   5  10  -3 21.7905 4.13854   2
   5  10  -3 23.9575 4.20238   8
   5 -10   3 26.6453 4.74154   2
  -5  10  -3 16.8095 4.63232   1
   5 -10  -3 24.7759 4.67881   2
   5  10   3 28.6502 4.39363   8
   5  10   3 24.5824 5.63442   4
  -5 -10   3 20.6679 4.68054   1
   5  10   3 22.1041 4.27525   2
  -5 -10   3 15.3166 4.20711   6
   5  10   3 19.1455 4.08084   2
  -6  10   3 68.1371 10.1338   1
   6  10  -3 98.1907 12.9132   4
   6 -10   3 86.8917 10.4182   2
  -6 -10  -3 87.7010 10.6197   1
   6  10  -3 69.5905 9.28378   2
   6  10  -3 71.4407 9.37923   8
   6  10   3 86.5976 9.40393   8
   6  10   3 53.0708 11.2766   4
   6 -10  -3 93.5386 10.2342   2
   6  10   3 73.1705 9.31582   2
  -6 -10   3 83.9622 9.70895   6
  -6 -10   3 83.0888 10.5331   1
  -6  10  -3 66.3202 10.5724   1
   7 -10   3 3.45029 2.38490   2
  -7  10   3 -1.1772 2.45782   1
   7  10  -3 5.22105 2.66690   8
  -7 -10  -3 7.36515 3.23029   1
   7 -10   3 9.04650 3.28144   8
   7  10  -3 5.57601 3.88162   4
  -7 -10   3 1.36082 2.10096   6
   7 -10  -3 5.45579 2.46473   2
  -7  10  -3 1.85151 2.96103   1
   7  10   3 4.15331 3.58783   4
  -7 -10   3 9.91869 3.58979   1
   7  10   3 8.63058 2.76596   8
   7 -10  -3 9.87273 3.37528   8
   8 -10   3 0.81089 2.72254   8
  -8 -10  -3 3.06445 2.99288   1
   8  10  -3 2.43341 3.74896   4
   8  10  -3 7.51749 2.74363   8
  -8  10   3 4.35251 3.11714   1
   8  10   3 -0.3992 4.06734   4
   8  10   3 2.13597 2.30463   8
  -8  10  -3 1.11725 3.05012   1
  -8 -10   3 0.22277 2.50847   6
   8 -10  -3 -0.8298 2.18133   8
  -8 -10   3 5.14907 3.28932   1
   9  10  -3 12.8090 3.32791   8
  -9 -10  -3 11.6913 3.13411   3
  -9 -10  -3 7.60783 3.54101   1
   9 -10   3 13.0249 3.92878   8
  -9  10   3 9.93724 3.72858   1
  -9 -10   3 12.8147 3.59121   3
  -9  10  -3 10.0047 4.00549   1
  -9 -10   3 -0.9029 2.80352   1
  -9 -10   3 11.4061 3.35922   6
   9  10   3 9.32715 3.06484   8
   9 -10  -3 9.26229 3.49363   8
 -10  10   3 69.1508 9.98298   1
 -10 -10  -3 74.2314 8.51665   3
  10 -10   3 65.9257 9.61583   8
  10  10  -3 63.7655 8.86385   8
 -10 -10  -3 53.4786 9.47790   1
 -10 -10   3 58.7775 8.36934   3
 -10 -10   3 67.1607 8.50098   6
 -10  10  -3 73.0258 10.2884   1
  10 -10  -3 71.8203 9.49918   8
  10  10   3 73.6439 8.72171   8
 -10 -10   3 68.6461 9.95889   1
   0  11   3 157.490 20.1710   4
   0 -11  -3 187.894 18.8812   2
   0  11   3 137.649 18.2622   2
   0  11  -3 124.223 18.1168   2
   0  11  -3 163.738 18.7210   2
   0 -11   3 177.942 18.4738   1
   0 -11   3 163.310 18.6831   2
   0 -11  -3 133.589 18.2351   1
  -1  11   3 24.2537 5.07371   1
  -1  11   3 14.6530 3.91403   2
   1 -11   3 28.8645 4.95630   2
   1  11  -3 28.2319 4.95207   2
  -1 -11  -3 23.8204 4.88373   1
  -1 -11  -3 14.4737 4.30903   2
   1  11  -3 22.6553 4.43562   2
  -1  11  -3 13.5267 4.24044   2
  -1  11  -3 8.19325 3.68194   2
  -1 -11   3 25.1009 5.14559   2
   1  11   3 12.9327 3.82276   2
   1 -11  -3 23.3631 4.81541   2
  -1 -11   3 13.6914 4.21357   1
   1  11   3 21.4317 4.84956   4
   2 -11   3 33.4588 5.98794   2
   2  11  -3 34.4106 5.83176   2
  -2 -11  -3 45.8323 7.04308   1
  -2  11   3 37.3188 6.05018   1
  -2  11   3 31.4179 5.86728   2
   2  11   3 32.4526 5.95246   2
  -2  11  -3 27.0920 5.87468   1
   2  11   3 36.2119 6.86623   4
  -2 -11   3 37.1091 6.27470   1
   2 -11  -3 25.7931 5.58537   2
  -2  11  -3 32.3675 6.28784   2
   3 -11   3 151.969 18.8188   2
   3  11  -3 173.920 18.7451   2
  -3 -11  -3 205.763 19.4144   1
   3  11  -3 151.907 21.5094   4
   3  11   3 135.972 20.4058   4
   3 -11  -3 185.805 18.9753   2
  -3 -11   3 124.825 18.5021   1
  -3  11  -3 158.524 18.9940   1
   3  11   3 144.802 18.7372   2
  -4 -11  -3 17.3157 4.53847   1
   4 -11   3 19.0057 4.36438   2
   4  11  -3 17.0108 5.72137   4
  -4  11   3 22.1355 4.78901   1
   4  11  -3 21.1398 4.39099   2
  -4 -11   3 22.6818 5.20211   1
  -4  11  -3 21.9585 4.91710   1
   4  11   3 19.8121 5.19189   4
   4 -11  -3 17.5080 4.24510   2
   4  11   3 21.1225 4.39579   2
   5 -11   3 35.4127 5.71454   2
   5  11  -3 25.4709 7.20928   4
   5  11  -3 21.2757 4.53359   2
  -5 -11  -3 24.2456 5.42511   1
  -5  11   3 20.5026 5.11134   1
  -5  11  -3 18.6062 5.15930   1
   5 -11  -3 28.1626 5.12845   2
   5  11   3 24.8681 4.68895   2
  -5 -11   3 19.9228 5.06882   1
   5  11   3 25.2150 5.64316   4
   5  11   3 28.9188 5.07513   2
  -6 -11  -3 6.76048 3.39672   1
  -6  11   3 11.3888 3.95320   1
   6  11  -3 8.74944 4.44027   4
   6 -11   3 5.07488 3.06058   2
   6  11  -3 11.0320 3.26268   8
   6  11  -3 8.79140 2.77879   2
  -6  11  -3 5.06868 3.34598   1
  -6 -11   3 6.86250 3.61008   1
   6  11   3 11.2605 3.77001   4
   6 -11  -3 10.8763 3.38943   2
   6  11   3 9.40183 2.72037   2
   6  11   3 5.93696 2.86364   8
   7  11  -3 22.9884 4.63869   8
  -7 -11  -3 20.6825 5.29045   1
   7  11  -3 30.8377 7.61426   4
  -7  11   3 25.2795 5.65190   1
   7 -11   3 26.8931 4.98749   2
   7 -11  -3 32.7212 5.19546   2
  -7 -11   3 26.2293 5.80546   1
   7  11   3 33.0304 5.20564   8
  -7 -11   3 29.8807 5.20114   6
   7  11   3 25.6333 6.39390   4
  -7  11  -3 23.2793 5.54882   1
   8  11  -3 21.5690 5.43545   4
  -8  11   3 13.8851 4.36648   1
   8  11  -3 22.1488 4.35933   8
  -8 -11  -3 20.9293 5.09214   1
  -8 -11   3 21.7469 4.54278   6
   8  11   3 15.1577 4.04916   8
  -8 -11   3 18.5041 4.81051   1
   8  11   3 19.3554 5.70948   4
  -8  11  -3 13.5055 4.57373   1
   9  11  -3 142.948 15.0468   8
  -9 -11  -3 155.178 16.7702   1
  -9  11   3 138.114 16.4657   1
  -9  11  -3 113.840 16.2557   1
  -9 -11   3 139.723 16.4062   1
  -9 -11   3 110.235 14.5417   6
   9  11   3 123.022 14.7919   8
  10  11  -3 2.14404 2.39511   8
 -10  11   3 0.11367 2.81434   1
 -10 -11  -3 4.93934 3.06228   1
 -10 -11   3 -0.4623 2.63767   6
 -10  11  -3 0.18378 2.89516   1
  10  11   3 -0.5433 2.26060   8
 -10 -11   3 -0.3953 3.20374   1
  10 -11  -3 1.81829 2.97459   8
   0 -12   3 -2.8255 2.11575   2
   0 -12  -3 1.39255 2.21827   2
   0  12   3 1.73148 2.86923   2
   0  12  -3 -0.6777 2.97377   2
   0  12   3 4.16123 3.10604   4
   0  12  -3 0.10454 2.47362   2
  -1  12   3 6.20109 3.63206   2
   1 -12   3 10.2924 3.61571   2
   1  12  -3 5.95541 3.42323   2
  -1 -12  -3 0.92337 3.10627   1
   1 -12  -3 6.61043 3.29825   2
  -1  12  -3 3.16529 2.95083   2
  -1 -12   3 -2.3978 2.80632   1
  -1  12  -3 4.27134 3.12389   2
   1  12   3 5.35865 3.01589   2
   1  12   3 5.79881 3.07912   4
  -2 -12  -3 2.54385 3.43735   1
   2  12  -3 1.15462 2.68834   2
  -2  12   3 2.42134 2.22242   2
  -2  12   3 2.95486 2.90931   1
   2 -12   3 -0.5273 2.72435   2
  -2  12  -3 0.34240 3.05846   1
   2  12   3 -1.8505 3.35452   4
   2  12   3 4.46274 3.18545   2
  -2  12  -3 3.29325 3.08668   2
  -2 -12   3 0.50515 2.73812   1
   2 -12  -3 4.09392 3.09273   2
   3  12  -3 91.9091 16.6031   4
   3 -12   3 105.467 13.9486   2
   3  12  -3 106.751 13.7323   2
  -3 -12  -3 107.035 14.1206   1
  -3  12   3 130.939 14.0372   1
   3  12   3 89.2832 14.9057   4
   3  12   3 109.036 14.0219   2
  -3 -12   3 113.780 14.1351   1
   3 -12  -3 119.443 14.1102   2
  -3  12  -3 120.986 14.3847   1
   4 -12   3 27.4826 5.08722   2
   4  12  -3 14.0553 6.07737   4
  -4  12   3 11.6117 4.00029   1
  -4 -12  -3 20.7631 5.28112   1
   4  12  -3 20.8262 4.56849   2
  -4  12  -3 14.4616 4.78971   1
   4 -12  -3 19.4178 4.75962   2
   4  12   3 19.9439 4.53819   2
  -4 -12   3 19.3169 4.85945   1
   4  12   3 19.9630 5.30880   4
   5  12  -3 25.7428 7.47261   4
   5 -12   3 20.8040 5.02414   2
  -5 -12  -3 31.6344 6.19997   1
  -5  12   3 27.5860 5.62890   1
   5  12  -3 24.0248 4.87975   2
   5 -12  -3 20.9616 4.80078   2
  -5 -12   3 20.1270 5.41972   1
   5  12   3 30.7277 5.39409   2
  -5  12  -3 20.4613 5.34294   1
   5  12   3 33.9259 6.94591   4
   5  12   3 26.8359 4.92204   2
   6  12  -3 17.8718 3.77719   2
   6  12  -3 11.3226 5.06922   4
  -6 -12  -3 11.4389 4.58509   1
   6 -12   3 19.2501 4.55097   2
  -6  12   3 18.3174 4.85811   1
   6  12   3 14.2960 5.46299   4
  -6  12  -3 17.4757 4.99718   1
   6  12   3 13.4250 3.35009   2
   6 -12  -3 12.6878 4.02880   2
  -6 -12   3 15.4038 4.60664   1
  -7  12   3 161.998 16.7499   1
   7  12  -3 126.278 18.9925   4
   7 -12   3 123.542 15.6698   2
  -7 -12  -3 123.262 16.3496   1
  -7 -12   3 93.8070 15.8349   1
  -7  12  -3 135.366 16.6006   1
   7 -12  -3 140.414 15.8663   2
   7  12   3 148.156 19.2242   4
   8  12  -3 10.8581 3.85502   8
  -8  12   3 15.3243 4.60260   1
  -8 -12  -3 9.50459 4.18414   1
  -8 -12   3 14.7241 4.66862   1
  -8  12  -3 11.7696 4.34287   1
   8  12   3 12.6608 3.90795   8
   9  12  -3 27.1812 5.52988   8
  -9  12   3 25.4991 6.09516   1
  -9 -12  -3 35.6004 6.94539   1
   9  12   3 31.0201 5.85400   8
  -9 -12   3 35.9387 6.72538   1
  -9 -12   3 40.7090 6.30809   6
  -9  12  -3 30.4940 6.70360   1
   0  13  -3 66.1974 10.6429   2
   0  13  -3 81.4364 11.0568   2
   0 -13   3 89.5042 11.2374   2
   0 -13  -3 67.1977 10.7734   2
   0  13   3 64.2961 10.7949   2
   1  13  -3 1.29657 2.83878   2
   1 -13   3 -1.8346 2.90778   2
  -1  13   3 0.66325 2.60259   2
  -1 -13   3 6.74241 3.63799   1
   1  13   3 1.30863 2.58119   2
   1 -13  -3 -1.0899 2.99688   2
   1  13   3 -2.9540 2.98514   4
  -1  13  -3 -3.3237 2.42685   2
  -1  13  -3 0.80269 2.44759   2
  -2 -13  -3 -0.4260 2.94908   1
   2 -13   3 1.72356 2.83311   2
   2  13  -3 0.87623 2.87761   2
   2  13   3 0.51010 3.21247   4
  -2  13  -3 4.05326 3.40511   2
   2  13   3 0.91829 3.07742   2
   2 -13  -3 0.88317 3.07549   2
  -2  13  -3 -1.4467 2.91259   2
  -2 -13   3 -2.1805 2.87915   1
   3  13  -3 46.8008 10.2936   4
   3 -13   3 46.6564 8.45661   2
   3  13  -3 60.5070 8.62977   2
  -3  13   3 51.6727 8.62120   1
  -3 -13  -3 60.4688 9.33031   1
   3  13   3 47.3895 9.39321   4
   3  13   3 52.9816 8.64953   2
  -3  13  -3 73.9566 10.1084   1
  -3 -13   3 73.6291 9.60472   1
   3 -13  -3 48.5469 8.62847   2
  -4 -13  -3 6.51036 4.04389   1
   4 -13   3 11.0220 3.93242   2
   4  13  -3 11.6906 3.87475   2
   4  13  -3 18.4854 6.34352   4
  -4  13   3 9.75173 4.14057   1
   4  13   3 11.7309 3.93145   2
  -4 -13   3 9.97189 4.18174   1
   4  13   3 13.8065 4.42540   4
   4 -13  -3 14.2348 4.18288   2
  -4  13  -3 7.59740 4.29513   1
   5  13  -3 25.1649 5.06480   2
  -5  13   3 21.4936 5.37679   1
  -5 -13  -3 30.9791 6.51899   1
   5  13  -3 28.5271 8.18678   4
   5 -13   3 21.4150 5.18487   2
   5  13   3 22.5183 4.83073   2
   5 -13  -3 19.7711 5.32973   2
  -5 -13   3 16.2871 5.24782   1
  -5  13  -3 24.4301 5.92353   1
   5  13   3 23.5623 5.02872   2
   5  13   3 22.2425 5.93709   4
  -6  13   3 67.2934 11.3322   1
   6  13  -3 76.5222 10.4478   2
  -6 -13  -3 76.4100 11.8124   1
   6 -13   3 74.4178 11.2645   2
   6  13   3 86.5059 13.7096   4
  -6 -13   3 90.5636 11.7789   1
   6 -13  -3 90.5090 11.3253   2
  -6  13  -3 97.5814 12.2519   1
   6  13   3 79.5514 10.3510   2
  -7 -13  -3 7.27506 4.08555   1
  -7  13   3 4.00984 3.13349   1
   7 -13   3 -1.6332 2.86158   2
  -7  13  -3 4.01199 3.68799   1
  -7 -13   3 4.77828 3.82037   1
   7 -13  -3 -1.3950 2.59225   2
  -8  13   3 53.5027 9.23055   1
  -8 -13  -3 48.2266 9.48290   1
  -8  13  -3 62.3849 10.0713   1
  -8 -13   3 72.9324 10.0085   1
   0  14  -3 -4.3316 2.16730   2
   0 -14  -3 -2.4790 3.07427   2
   0  14  -3 -1.3971 3.00562   2
   0 -14   3 1.61743 3.14506   2
   0  14   3 0.10104 2.37766   2
  -1  14   3 14.9211 4.29821   2
   1 -14   3 15.7660 4.63827   2
   1  14  -3 -0.3138 3.07590   2
  -1  14  -3 8.60269 3.54187   2
   1 -14  -3 5.61932 3.90060   2
  -1  14  -3 2.59106 3.81989   2
   1  14   3 7.55779 3.50759   2
   2 -14   3 62.0499 9.49658   2
   2  14  -3 64.6784 9.27906   2
  -2 -14  -3 51.5284 9.50963   1
   2 -14  -3 60.3859 9.33367   2
   2  14   3 54.3864 9.15337   2
  -2 -14   3 45.9386 8.77656   1
   2  14   3 60.5325 10.2640   4
   3  14  -3 3.84458 3.49007   2
   3  14  -3 1.06733 4.87211   4
   3 -14   3 3.76301 3.71617   2
  -3 -14  -3 5.54127 3.86853   1
   3  14   3 0.17719 4.07100   4
   3  14   3 8.62570 3.68219   2
   3 -14  -3 0.37586 3.53973   2
  -3 -14   3 4.20587 3.71226   1
  -4  14   3 13.2506 4.73735   1
  -4 -14  -3 8.70086 4.69534   1
   4 -14   3 10.3037 4.18996   2
   4  14  -3 20.6066 6.12732   4
   4  14  -3 15.7900 4.27189   2
   4  14   3 4.85280 3.55842   2
   4  14   3 12.4709 5.20651   4
  -4  14  -3 10.4824 4.53651   1
   4 -14  -3 12.7887 4.70256   2
   4  14   3 14.7814 4.40922   2
  -4 -14   3 8.34479 4.34840   1
  -5 -14  -3 5.94573 4.30907   1
  -5  14   3 -0.0428 3.48639   1
   5  14  -3 0.95405 3.03171   2
   5 -14   3 0.15616 2.62757   2
  -5 -14   3 -1.7010 3.46461   1
   5  14   3 3.34158 3.49502   4
  -5  14  -3 0.49856 3.70886   1
   5 -14  -3 0.90440 3.22364   2
   5  14   3 -0.9937 3.15059   2
   6 -14   3 100.240 13.8205   2
  -6 -14  -3 111.369 14.7435   1
   6  14  -3 94.2169 13.0206   2
  -6  14   3 112.154 14.2979   1
   6 -14  -3 97.6871 13.5982   2
  -6 -14   3 108.863 14.3118   1
   6  14   3 114.054 13.1396   2
  -6  14  -3 105.037 15.0012   1
  -7  14   3 40.2032 7.60129   1
  -7 -14  -3 32.8451 7.51850   1
   7 -14   3 37.1817 6.92589   2
  -7 -14   3 38.5946 7.60535   1
  -7  14  -3 37.1408 7.95490   1
   7 -14  -3 42.2180 6.99203   2
   0  15   3 42.2174 8.50729   2
   0 -15   3 52.3063 9.05712   2
   0 -15  -3 48.9304 8.88121   2
   0  15  -3 60.0049 9.30962   2
  -1  15   3 0.08495 3.04429   2
   1 -15   3 3.19869 4.01675   2
   1  15  -3 -5.6871 2.79054   2
  -1  15  -3 -2.7382 3.44381   2
   1 -15  -3 2.62322 3.36809   2
  -1  15  -3 2.30479 2.99114   2
   1  15   3 3.55467 3.78741   2
   2  15  -3 90.9863 11.9587   2
   2  15  -3 99.7110 15.3484   4
   2 -15   3 92.6801 12.9564   2
   2 -15  -3 75.2525 12.2508   2
   2  15   3 68.6506 11.9900   2
   3  15  -3 4.99230 3.41848   2
   3 -15   3 11.8398 4.12219   2
  -3 -15  -3 4.40205 3.74203   1
   3 -15  -3 7.21638 4.07382   2
   3  15   3 7.29868 3.82371   2
   3  15   3 7.57959 4.52413   4
  -3 -15   3 1.65168 3.62964   1
   4 -15   3 10.9067 4.57353   2
  -4 -15  -3 5.88268 4.66555   1
   4  15  -3 16.4846 4.50211   2
   4 -15  -3 2.38611 3.58116   2
   4  15   3 10.5088 4.30682   2
   4  15   3 5.17703 3.74276   2
  -4 -15   3 9.18411 4.93705   1
   4  15   3 1.64415 5.07937   4
  -5  15   3 18.8377 5.83123   1
  -5 -15  -3 35.9130 7.45414   1
   5  15  -3 20.0385 5.19330   2
   5 -15   3 18.5642 5.39141   2
   5  15   3 22.6886 5.32375   2
   5 -15  -3 37.2198 6.40495   2
  -5  15  -3 17.0645 6.17783   1
  -5 -15   3 22.3891 6.47794   1
   6  15  -3 6.30015 3.00376   2
  -6  15   3 2.96150 4.24852   1
  -6 -15  -3 -0.5237 3.72528   1
   6 -15   3 -0.0299 3.03789   2
   6 -15  -3 -2.6931 3.09451   2
  -6  15  -3 4.26227 4.71980   1
   6  15   3 -1.8890 2.73753   2
  -6 -15   3 3.05146 4.25413   1
   0  16  -3 -0.2776 3.06781   2
   0 -16  -3 4.45752 3.87366   2
   0  16   3 -1.1932 3.55543   2
   1  16  -3 12.2045 4.91579   2
   1 -16   3 9.47739 4.36194   2
  -1  16   3 12.8970 4.78989   2
  -1  16  -3 10.7677 4.67862   2
   1  16   3 21.8811 5.62310   2
  -1  16  -3 12.2259 5.42334   2
   1 -16  -3 15.5211 5.51554   2
   2  16  -3 1.80345 3.19157   2
   2 -16   3 3.51578 3.96510   2
   2 -16  -3 -4.7090 3.24875   2
   2  16   3 0.73367 3.42625   2
   3  16  -3 24.1726 5.61352   2
   3 -16   3 23.7050 6.18891   2
   3 -16  -3 12.6545 5.36240   2
   3  16   3 12.5377 4.38833   2
   3  16   3 19.1971 5.27454   2
  -4 -16  -3 19.7479 6.07694   1
   4 -16   3 12.2825 4.64886   2
   4  16  -3 14.0086 4.78069   2
   4  16   3 21.1476 5.19210   2
   4  16   3 23.9724 5.88367   2
   4 -16  -3 29.7387 6.30174   2
  -4 -16   3 18.3745 5.98686   1
   0  17  -3 29.8348 6.95089   2
   0  17   3 26.9087 6.62289   2
   0   0  -4 4558.84 586.304   7
   0   0  -4 6220.10 583.027   2
   0   0   4 5452.48 583.050   2
  -1   0   4 1.76565 1.13309   7
   1   0  -4 -1.4431 0.89707   7
   1   0   4 1.02494 1.23133   2
  -1   0  -4 1.35398 1.07776   7
   1   0   4 -0.2271 0.90668   7
   1   0   4 -2.1223 1.46713   5
   1   0  -4 1.47542 1.10358   2
   2   0   4 249.071 29.5942   2
   2   0   4 284.654 29.4625   7
  -2   0  -4 260.267 29.6581   7
  -2   0   4 286.435 29.7374   7
   2   0  -4 257.475 29.5618   2
   2   0  -4 292.895 32.2730   4
   2   0   4 252.313 30.8575   5
   2   0   4 275.967 29.4739   7
   3   0   4 1.36474 1.07410   2
  -3   0   4 -0.1829 0.78599   7
   3   0  -4 0.59711 1.01725   2
   3   0   4 -2.6099 1.62740   4
   3   0   4 -1.0488 0.86079   8
   3   0   4 -0.1160 1.68888   5
  -3   0  -4 1.29545 0.89067   7
   3   0  -4 0.29145 1.13066   4
   4   0  -4 2174.68 224.180   8
   4   0   4 2004.70 242.966   2
  -4   0  -4 2238.55 215.129   3
  -4   0  -4 2333.32 240.769   1
   4   0   4 2258.37 224.254   8
  -4   0   4 2308.81 240.730   1
   4   0   4 2354.89 251.657   5
   4   0   4 2410.42 242.979   2
   5   0   4 -0.5405 0.62231   8
   5   0   4 0.77610 2.45047   4
  -5   0  -4 2.56966 1.22225   1
  -5   0   4 1.71976 1.15461   1
   5   0  -4 -1.5666 1.44069   4
  -5   0   4 1.68570 0.93476   3
   5   0  -4 1.46790 0.53886   8
   5   0   4 -0.1199 0.74837   8
   5   0  -4 2.06395 0.59436   8
  -5   0  -4 0.19204 0.81485   3
   6   0   4 83.8899 10.3805   4
  -6   0  -4 62.1510 7.07983   3
   6   0   4 75.1884 7.12790   8
   6   0   4 69.6288 7.13507   8
  -6   0  -4 65.9053 8.01127   1
  -6   0   4 69.9280 7.07432   3
  -6   0   4 62.1699 7.96569   1
   6   0  -4 76.4033 9.37014   4
   7   0   4 2.87961 2.48367   4
  -7   0  -4 1.98250 1.27008   1
   7   0  -4 2.20005 2.28820   4
  -7   0  -4 1.60374 0.87901   3
  -7   0   4 1.56452 0.87574   3
  -7   0   4 2.34311 1.24860   1
  -8   0  -4 1995.10 219.952   1
   8   0   4 2069.44 244.223   4
  -8   0   4 2001.26 219.902   1
  -8   0   4 2162.04 196.484   3
  -8   0  -4 2090.20 196.514   3
   9   0   4 -3.2191 2.87922   4
  -9   0  -4 1.16605 0.97967   3
  -9   0   4 -0.0844 1.26145   1
  -9   0  -4 1.81198 1.46856   1
  -9   0   4 2.22739 1.08236   3
 -10   0   4 399.584 37.3720   3
 -10   0  -4 376.618 37.3568   3
  10   0   4 365.151 48.1371   4
 -10   0   4 389.198 41.8355   1
 -10   0  -4 402.007 42.0362   1
  11   0   4 5.17106 3.75100   4
 -11   0   4 0.91390 1.18184   3
 -11   0  -4 -0.1398 1.86262   1
  11   0   4 1.22179 0.96329   8
 -11   0  -4 1.53285 1.23230   3
  11   0   4 1.67459 0.91402   8
 -12   0   4 53.1332 5.40477   3
 -12   0  -4 42.1370 5.44862   3
  12   0   4 49.6753 5.41253   8
  13   0  -4 0.91426 1.12289   8
 -13   0   4 0.22358 1.35236   3
 -13   0  -4 0.22742 1.40989   3
  13   0   4 -1.1686 1.19634   8
 -13   0   4 -0.0881 1.07491   6
   0  -1  -4 -2.4207 0.97246   2
   0   1  -4 5.34393 1.49109   7
   0  -1  -4 -0.6111 1.10400   7
   0  -1   4 -0.0231 1.11726   7
   0   1  -4 1.50006 1.29972   2
   0   1   4 0.97634 1.05078   7
   0  -1   4 -1.3385 1.07094   2
  -1   1   4 205.480 26.6346   7
   1   1  -4 269.648 26.5664   2
  -1  -1  -4 257.567 26.6687   7
   1  -1   4 237.486 27.6682   5
   1   1  -4 249.345 26.6976   7
  -1  -1   4 259.754 26.8002   7
   1   1   4 244.800 26.5961   2
   1  -1  -4 219.438 26.6590   7
   1   1   4 210.716 26.6223   7
   1  -1  -4 274.708 26.6380   2
  -1   1  -4 245.443 26.7283   7
  -2   1   4 2803.83 271.388   7
   2  -1   4 2627.68 269.927   2
   2  -1   4 2549.78 271.169   7
   2  -1   4 2330.77 278.887   5
  -2  -1   4 2190.30 271.288   7
   2  -1  -4 2491.20 269.842   2
   2  -1  -4 2612.38 271.095   7
   2   1   4 2758.23 278.970   5
   2  -1  -4 2202.82 294.376   4
   3  -1   4 857.121 83.6299   2
  -3  -1  -4 722.664 83.8727   7
   3   1  -4 739.695 83.4812   2
   3  -1   4 822.899 77.0717   8
  -3   1   4 725.661 83.9301   7
   3   1  -4 691.004 76.9854   8
  -3   1  -4 775.326 83.9212   7
   3   1   4 709.667 77.0297   8
   3  -1  -4 858.565 83.5773   2
   3   1   4 840.380 86.6999   5
   3   1   4 868.885 83.6012   2
  -3  -1   4 647.083 83.8514   7
   3  -1  -4 832.097 91.1357   4
   3  -1  -4 757.332 77.0209   8
   4   1  -4 1467.02 165.204   4
  -4  -1  -4 1416.23 149.519   1
   4   1  -4 1398.88 139.242   8
  -4   1   4 1400.33 149.514   1
   4  -1   4 1432.23 139.263   8
   4  -1   4 1206.38 150.852   2
   4   1  -4 1349.75 139.141   8
  -4  -1  -4 1504.85 133.613   3
  -4  -1   4 1298.22 149.463   1
   4  -1  -4 1479.95 150.790   2
   4   1   4 1240.50 150.780   2
   4   1   4 1399.73 139.249   8
   4   1   4 1419.02 165.730   4
  -4   1  -4 1527.27 151.688   7
   4  -1  -4 1447.18 164.990   4
   4   1   4 1545.93 156.428   5
   4   1   4 1361.84 150.766   2
   4  -1  -4 1252.09 150.753   2
   4  -1  -4 1517.28 139.227   8
  -5   1   4 2465.51 273.654   1
   5  -1   4 2184.41 254.850   8
  -5  -1  -4 2948.27 273.692   1
   5   1  -4 2309.52 302.213   4
   5   1  -4 2429.25 254.702   8
   5  -1   4 2508.79 254.889   8
   5   1  -4 2592.37 254.695   8
  -5  -1  -4 2524.12 244.491   3
   5  -1  -4 2701.85 254.823   8
   5   1   4 2964.78 254.853   8
  -5   1  -4 2379.12 244.492   3
   5   1   4 2502.11 302.858   4
  -5  -1   4 2337.72 273.558   1
   5   1   4 2739.50 254.824   8
   5  -1  -4 2923.81 302.228   4
   5  -1  -4 2695.31 254.823   8
  -5  -1   4 2464.73 244.547   3
  -6   1   4 223.738 22.6963   3
  -6  -1  -4 245.878 25.4452   1
   6   1  -4 210.120 28.4820   4
   6  -1   4 258.427 23.5310   8
  -6  -1  -4 252.753 22.6871   3
   6  -1   4 267.586 23.5203   8
   6  -1   4 238.618 29.3654   4
  -6   1   4 206.119 25.4248   1
   6   1   4 201.410 29.0317   4
   6  -1  -4 235.306 23.3791   8
   6   1   4 233.137 23.3853   8
   6  -1  -4 185.949 28.3242   4
  -6   1  -4 237.608 22.6806   3
  -6  -1   4 259.801 25.4192   1
   6  -1  -4 235.838 23.3820   8
  -6   1  -4 204.579 25.4635   1
   6   1   4 236.533 23.3694   8
  -6  -1   4 251.957 22.7247   3
   7  -1   4 1542.95 156.358   8
  -7   1   4 1383.98 168.021   1
   7  -1   4 1748.57 156.358   8
  -7   1   4 1509.82 150.138   3
   7  -1   4 1586.35 186.823   4
  -7  -1  -4 1590.67 150.102   3
   7   1  -4 1567.29 186.015   4
  -7  -1  -4 1442.01 168.010   1
  -7   1  -4 1514.26 150.111   3
  -7  -1   4 1823.90 168.037   1
   7  -1  -4 1702.94 186.177   4
  -7  -1   4 1694.07 150.151   3
  -7   1  -4 1384.58 168.069   1
   8  -1   4 401.873 39.7376   8
  -8  -1  -4 344.451 42.9067   1
  -8   1   4 438.938 38.3961   3
  -8   1   4 373.229 42.9556   1
   8   1  -4 417.699 48.3038   4
   8  -1   4 415.670 39.7227   8
  -8  -1  -4 404.229 38.2977   3
   8  -1   4 338.688 48.7356   4
  -8  -1   4 389.969 38.3160   3
  -8  -1   4 372.169 42.8556   1
   8   1   4 330.340 48.6694   4
  -8   1  -4 441.044 43.1339   1
  -8   1  -4 420.924 38.3771   3
   8  -1  -4 486.493 48.6678   4
   9  -1   4 35.7771 3.78900   8
  -9   1   4 33.1670 4.55686   1
   9  -1   4 34.3158 3.77625   8
  -9   1   4 33.2839 3.97503   3
   9   1  -4 47.3435 7.25453   4
  -9  -1  -4 34.2050 3.91438   3
  -9  -1  -4 34.9716 4.54698   1
  -9  -1   4 32.0212 3.91908   3
  -9   1  -4 33.9117 4.01794   3
  -9  -1   4 31.0079 4.41994   1
   9   1   4 30.9877 7.28922   4
  -9   1  -4 40.6416 4.94963   1
  10  -1   4 211.325 20.6635   8
  10  -1   4 219.626 20.6475   8
 -10   1   4 197.782 22.4840   1
 -10  -1  -4 212.607 22.5278   1
 -10   1   4 226.792 20.0431   3
 -10  -1  -4 182.379 19.9713   3
 -10  -1   4 172.503 22.3229   1
 -10   1  -4 237.242 22.7568   1
  10   1   4 167.206 26.4123   4
 -10  -1   4 208.113 19.9603   3
 -11   1   4 179.425 17.7767   3
 -11  -1  -4 165.397 17.7793   3
 -11  -1  -4 188.990 20.1281   1
  11  -1   4 173.374 18.3996   8
 -11   1   4 184.837 20.0797   1
  11   1   4 193.575 18.2570   8
  11   1   4 197.068 18.2773   8
 -11   1  -4 179.511 17.9618   3
  11   1   4 168.874 24.5936   4
 -11  -1   4 161.495 17.7611   3
 -11   1  -4 194.313 20.3324   1
 -12   1   4 404.917 38.9338   6
 -12  -1  -4 398.104 37.7124   3
 -12   1   4 407.579 37.7629   3
  12  -1   4 346.884 39.1757   8
  12  -1  -4 370.837 39.1655   8
  12  -1  -4 419.295 39.1483   8
 -12  -1   4 437.227 37.7606   3
  12   1   4 386.964 39.1471   8
 -12   1  -4 350.326 37.8414   3
 -13  -1  -4 2.42039 1.61719   3
 -13   1   4 6.27647 1.78316   3
 -13   1   4 5.94218 1.50911   6
  13  -1   4 5.42388 1.69698   8
  13  -1  -4 4.41031 1.60297   8
 -13  -1   4 6.23494 1.64758   3
  13   1   4 4.83520 1.52002   8
 -13   1  -4 5.36091 1.94486   3
   0  -2   4 1776.41 186.667   5
   0  -2   4 1871.90 181.803   7
   0   2  -4 1654.07 180.751   2
   0   2   4 1402.39 181.600   7
   0  -2  -4 1769.71 180.669   2
   0  -2  -4 1555.33 181.593   7
   0   2   4 1601.96 180.601   2
   0  -2   4 1775.98 180.761   2
   1  -2   4 1380.02 147.071   2
   1   2  -4 1355.32 147.081   2
  -1  -2  -4 1477.60 147.919   7
   1   2  -4 1428.72 147.912   7
  -1   2   4 1271.97 147.786   7
   1   2   4 1395.95 147.785   7
   1   2   4 1271.23 147.043   2
   1   2   4 1558.58 160.593   4
   1  -2  -4 1163.14 147.004   2
  -1  -2   4 1337.12 147.843   7
   1  -2  -4 1356.72 147.823   7
  -2   2   4 915.538 92.0627   7
   2   2  -4 953.776 91.5515   2
  -2  -2  -4 929.776 92.0396   7
   2  -2   4 869.483 91.6103   2
   2  -2   4 855.520 91.8793   7
   2  -2   4 860.445 94.8091   5
   2  -2   4 856.108 91.9256   7
   2  -2  -4 765.625 91.5575   2
  -2  -2   4 892.674 92.0417   7
   2   2   4 700.765 91.7770   7
   2  -2  -4 738.441 91.8617   7
   2   2   4 846.604 91.5877   2
   3  -2   4 1436.79 148.233   5
   3  -2   4 1199.19 143.064   2
  -3   2   4 1223.65 143.751   7
  -3  -2  -4 1503.08 143.739   7
  -3  -2  -4 1314.64 141.636   1
  -3   2   4 1148.24 141.600   1
   3  -2   4 1349.46 132.029   8
   3   2  -4 1301.94 156.597   4
   3  -2  -4 1280.16 143.017   2
  -3   2  -4 1281.03 143.820   7
   3   2   4 1321.75 143.000   2
   3   2   4 1376.54 148.069   5
   3  -2  -4 1468.42 131.976   8
   4  -2   4 1095.39 105.966   8
   4   2  -4 1054.44 114.510   2
  -4  -2  -4 998.108 113.712   1
   4   2  -4 899.597 125.727   4
  -4   2   4 881.682 113.691   1
  -4  -2  -4 960.486 115.256   7
   4  -2   4 1165.05 114.816   2
   4   2  -4 1200.58 105.842   8
   4   2  -4 1159.24 114.521   2
  -4   2   4 1034.62 115.347   7
  -4  -2  -4 1207.94 101.634   3
  -4   2  -4 1131.79 115.393   7
  -4   2  -4 1224.34 115.394   7
  -4   2  -4 922.094 113.784   1
   4   2   4 1103.15 126.047   4
   4   2   4 904.226 118.828   5
  -4  -2   4 1141.39 113.708   1
   4  -2  -4 1186.40 105.934   8
   4  -2  -4 943.516 114.680   2
   4   2   4 1044.90 105.890   8
   4   2   4 961.155 114.623   2
   4  -2  -4 1149.37 125.485   4
  -4   2  -4 1105.35 101.722   3
   5  -2   4 1137.54 106.307   8
   5   2  -4 989.807 106.132   8
   5  -2   4 1185.05 106.354   8
   5   2  -4 945.415 106.100   8
   5   2  -4 984.082 126.295   4
  -5   2   4 1239.63 114.281   1
  -5  -2  -4 917.768 101.914   3
  -5  -2  -4 998.246 114.134   1
  -5   2   4 1244.71 102.033   3
   5  -2  -4 1122.17 106.303   8
   5   2   4 1015.09 126.667   4
  -5  -2   4 1052.55 101.998   3
   5   2   4 972.022 106.208   8
   5  -2  -4 1194.84 106.301   8
   5  -2  -4 1148.51 126.190   4
  -5   2  -4 940.864 102.042   3
   5   2   4 1076.49 106.201   8
  -5  -2   4 1050.42 114.090   1
  -5   2  -4 1117.69 114.333   1
  -5   2  -4 1057.83 115.669   7
  -6  -2  -4 246.636 26.8838   1
   6   2  -4 202.795 30.0783   4
  -6  -2  -4 257.059 23.9682   3
  -6   2   4 259.139 23.9861   3
  -6   2   4 227.648 26.8831   1
   6  -2   4 264.560 24.9127   8
   6  -2   4 281.767 24.9601   8
   6   2   4 283.340 24.8535   8
  -6   2  -4 212.792 26.9532   1
  -6  -2   4 244.643 26.8006   1
   6  -2  -4 271.246 24.9071   8
   6   2   4 220.659 30.5440   4
   6   2   4 245.878 24.7605   8
   6  -2  -4 208.233 24.8362   8
  -6   2  -4 256.175 24.1218   3
  -6  -2   4 253.196 23.9736   3
  -7  -2  -4 65.8714 7.64496   1
   7   2  -4 57.9933 9.11740   4
  -7  -2  -4 64.2334 6.69018   3
  -7   2   4 64.5749 6.71190   3
  -7   2   4 59.1252 7.64983   1
   7  -2   4 61.8987 6.89380   8
   7  -2   4 70.9413 6.92661   8
   7  -2  -4 68.2431 9.17522   4
  -7   2  -4 55.0876 7.74331   1
   7  -2  -4 64.3478 6.85408   8
  -7  -2   4 70.0833 7.57664   1
   7   2   4 68.4624 10.1031   4
   7  -2  -4 65.5640 6.81540   8
   7   2   4 68.3409 6.69021   8
  -7  -2   4 67.3235 6.73641   3
   7   2   4 70.7145 6.67480   8
  -7   2  -4 55.7919 6.79916   3
  -8   2   4 21.5649 2.74495   3
   8  -2   4 20.6884 2.75644   8
  -8  -2  -4 19.6323 3.21891   1
  -8   2   4 21.8825 3.37882   1
   8   2  -4 20.6353 4.82306   4
  -8  -2  -4 19.1209 2.65578   3
   8  -2   4 20.3541 2.70583   8
  -8   2  -4 26.6599 3.71571   1
   8  -2  -4 23.2078 2.62921   8
  -8  -2   4 21.2341 3.15113   1
  -8  -2   4 20.1986 2.71788   3
   8   2   4 17.2922 5.01303   4
   8  -2  -4 22.1677 2.72039   8
  -8   2  -4 23.1524 3.01221   3
  -9  -2  -4 110.637 10.9783   3
   9   2  -4 108.507 14.9566   4
  -9  -2  -4 120.945 12.4397   1
  -9   2   4 98.3555 10.9783   3
   9  -2   4 111.240 11.3487   8
   9  -2   4 117.110 11.3570   8
  -9   2   4 92.2158 12.4166   1
  -9   2  -4 130.389 12.8095   1
  -9  -2   4 107.785 12.3108   1
   9  -2  -4 115.506 11.2456   8
  -9  -2   4 105.456 10.9808   3
  -9   2  -4 103.045 11.0965   3
   9  -2  -4 109.765 11.2906   8
   9   2   4 109.551 15.9329   4
 -10  -2  -4 254.626 29.9880   1
 -10  -2  -4 260.040 26.6970   3
  10   2  -4 326.914 35.0218   4
 -10   2   4 243.231 30.0496   1
 -10   2   4 316.691 26.8533   3
  10   2   4 233.932 34.8567   4
 -10  -2   4 280.983 26.7850   3
  10  -2  -4 252.100 27.6992   8
  10   2   4 294.344 27.5317   8
 -10   2  -4 292.334 30.2628   1
 -10   2  -4 284.894 26.9552   3
  10  -2  -4 277.732 27.7578   8
 -11   2   4 386.157 37.1965   3
  11  -2   4 329.360 38.5679   8
 -11  -2  -4 400.871 41.6196   1
 -11  -2  -4 375.629 37.1069   3
 -11   2   4 438.724 41.7348   1
 -11   2  -4 357.908 37.2407   3
  11  -2  -4 390.106 38.5818   8
  11   2   4 401.347 38.3844   8
  11   2   4 389.184 38.4475   8
 -11   2  -4 354.127 41.6907   1
 -11  -2   4 406.549 37.1132   3
 -12   2   4 287.341 26.6456   3
 -12   2   4 279.171 27.4507   6
  12  -2   4 264.003 27.6902   8
 -12  -2  -4 271.062 26.5518   3
 -12  -2   4 261.142 27.2342   6
 -12   2  -4 277.144 26.7385   3
  12  -2  -4 285.965 27.6370   8
 -12   2  -4 281.748 30.1649   1
  12   2   4 265.695 27.4570   8
 -12  -2   4 259.624 26.4776   3
   0   3  -4 0.70436 1.36687   7
   0   3  -4 -1.1882 1.40591   2
   0  -3  -4 -1.1099 1.27951   2
   0  -3   4 2.11951 1.60467   2
   0   3   4 -0.3722 1.08421   4
   0  -3   4 1.31250 1.55953   5
   0  -3   4 -1.6954 1.17796   7
   0   3   4 0.38681 1.44773   2
   0   3   4 -1.2696 1.14505   7
   0  -3  -4 0.48116 1.23687   7
   1   3  -4 4163.47 463.513   7
  -1   3   4 4324.88 463.545   7
   1  -3   4 3817.69 463.510   7
   1   3  -4 4068.93 460.954   2
  -1  -3  -4 4311.33 460.902   2
  -1  -3  -4 3967.82 463.480   7
  -1  -3   4 4772.19 463.599   7
   1  -3  -4 3762.59 463.418   7
  -1   3  -4 4510.56 463.559   7
  -1   3  -4 4889.43 460.986   2
   1  -3  -4 4109.29 460.874   2
  -1  -3   4 4654.16 475.958   5
   1   3   4 4333.94 463.427   7
   2  -3   4 535.754 64.0327   2
  -2   3   4 623.730 64.2793   7
  -2  -3  -4 544.834 64.2217   7
   2  -3   4 584.354 64.2324   7
   2   3   4 523.663 63.9579   2
   2  -3  -4 658.786 64.2140   7
  -2  -3   4 658.747 64.4020   7
  -3  -3  -4 114.246 15.7757   1
   3   3  -4 167.682 14.7538   8
  -3  -3  -4 148.321 15.9645   7
  -3   3   4 129.324 15.9839   7
   3  -3   4 146.103 14.8048   8
  -3   3   4 140.765 15.9504   1
   3   3  -4 139.282 15.9004   2
   3   3  -4 117.018 17.9319   4
   3  -3   4 151.446 16.1064   2
   3  -3  -4 139.285 16.0207   2
  -3   3  -4 141.801 16.1111   7
   3   3   4 126.702 14.7217   8
   3  -3  -4 141.963 14.7665   8
  -3   3  -4 172.751 16.1832   7
  -3   3  -4 152.503 16.0874   1
  -3  -3   4 163.989 15.9462   1
   3   3   4 148.331 17.7999   4
   3   3   4 128.181 16.6679   5
   3   3   4 160.715 16.0151   2
   4   3  -4 345.389 40.1790   2
   4   3  -4 425.449 40.2335   2
  -4   3   4 353.758 40.1133   1
  -4  -3  -4 315.678 40.4738   7
   4  -3   4 323.133 40.4256   2
  -4  -3  -4 334.694 35.7889   3
  -4   3   4 314.354 40.5173   7
   4   3  -4 428.946 37.2564   8
  -4  -3  -4 401.367 40.1142   1
   4   3   4 345.192 37.2461   8
  -4   3  -4 405.424 35.9723   3
   4   3   4 408.980 40.3250   2
   4  -3  -4 369.606 40.4017   2
  -4   3  -4 414.266 40.6559   7
  -4   3  -4 423.303 40.6652   7
  -4   3  -4 299.533 40.1554   1
   4  -3  -4 350.224 37.2950   8
   4   3   4 411.441 42.1070   5
  -4  -3   4 395.350 40.1097   1
   4   3   4 355.364 44.6275   4
  -5  -3  -4 205.611 23.6973   1
   5  -3   4 218.615 22.1559   8
   5   3  -4 250.582 22.0140   8
  -5   3   4 210.567 23.7561   1
  -5   3   4 215.381 21.2326   3
   5  -3   4 212.699 23.6827   2
   5   3  -4 204.964 26.7039   4
  -5   3   4 220.448 23.8668   7
  -5  -3  -4 203.300 21.1663   3
   5  -3   4 218.918 23.6792   2
  -5  -3  -4 222.006 23.7028   7
   5   3  -4 218.674 21.9055   8
   5   3   4 232.502 26.8999   4
  -5  -3   4 260.261 21.3062   3
  -5  -3   4 234.326 23.7576   1
  -5   3  -4 218.540 23.9817   1
   5  -3  -4 211.801 23.5169   2
   5   3   4 220.664 21.9624   8
   5  -3  -4 206.435 23.5201   2
   5   3   4 219.080 21.9373   8
   5  -3  -4 210.210 22.0107   8
   5   3   4 225.962 25.0622   5
  -5   3  -4 197.960 21.2802   3
  -5   3  -4 179.245 23.8723   7
   5  -3  -4 217.594 22.0712   8
   6  -3   4 28.5445 3.62774   8
  -6   3   4 34.2409 3.64727   3
  -6  -3  -4 32.4860 4.05512   1
  -6  -3  -4 26.4096 3.45376   3
  -6   3   4 25.9209 4.04861   1
   6  -3   4 31.7841 3.78129   8
   6   3  -4 30.6256 5.33658   4
  -6   3   4 28.7665 3.55091   7
   6   3  -4 29.0398 3.30438   8
   6   3  -4 32.2792 3.40146   8
   6  -3  -4 31.9490 3.67238   8
  -6   3  -4 27.3186 4.35331   1
   6   3   4 35.5440 5.97144   4
  -6  -3   4 29.5589 3.55911   3
   6   3   4 29.9691 3.48668   8
   6  -3  -4 27.3126 3.55234   8
   6   3   4 27.7293 3.40948   8
  -6  -3   4 28.7078 4.08057   1
  -6   3  -4 35.1218 3.82004   3
  -6   3  -4 26.7173 3.60226   7
   7   3  -4 17.3815 2.12834   8
  -7  -3  -4 15.9801 2.81151   1
  -7   3   4 20.3285 2.68713   3
   7  -3   4 21.0972 2.67580   8
   7   3  -4 17.3443 4.14863   4
  -7  -3  -4 18.3995 2.43736   3
  -7   3   4 16.4839 2.96488   1
  -7   3   4 15.9811 2.47407   3
   7   3  -4 20.4725 2.11008   8
   7  -3   4 17.8641 2.62923   8
  -7  -3   4 16.1206 2.42465   3
   7   3   4 17.8432 2.29489   8
  -7   3  -4 14.5878 2.62112   3
   7  -3  -4 18.4207 2.52680   8
   7  -3  -4 19.7662 2.58239   8
  -7  -3   4 15.7574 2.81797   1
  -7   3  -4 12.5368 2.93662   1
   7   3   4 19.6243 4.77411   4
   7   3   4 13.6968 2.23135   8
  -8   3   4 28.5082 3.52626   3
  -8  -3  -4 22.1269 3.18068   3
   8  -3   4 23.0306 3.44520   8
  -8   3   4 26.9762 3.99749   1
   8   3  -4 23.8831 5.45287   4
  -8   3   4 24.3716 3.33426   3
  -8  -3  -4 23.4641 3.80049   1
   8   3   4 25.7275 3.09332   8
   8  -3  -4 26.4908 3.37363   8
   8   3   4 27.1914 3.19923   8
   8   3   4 25.0394 5.93830   4
  -8  -3   4 26.2650 3.35401   3
  -8  -3   4 30.3550 3.88276   1
  -8   3  -4 26.0602 4.08147   1
  -8   3  -4 25.1745 3.46692   3
   8  -3  -4 28.9162 3.47111   8
   9  -3   4 1439.51 153.915   8
  -9  -3  -4 1617.18 147.609   3
  -9   3   4 1766.32 147.751   3
  -9  -3  -4 1442.81 165.181   1
  -9   3   4 1721.64 165.392   1
  -9  -3   4 1335.12 165.085   1
  -9  -3   4 1626.11 147.617   3
   9   3   4 1381.50 153.599   8
   9  -3  -4 1567.43 153.896   8
  -9   3  -4 1588.83 147.754   3
   9   3   4 1557.34 153.703   8
  10   3  -4 143.331 19.5190   4
 -10  -3  -4 145.842 14.3810   3
 -10   3   4 143.885 14.5073   3
 -10   3   4 146.027 16.3987   1
 -10  -3  -4 130.854 16.1425   1
  10   3   4 126.971 19.6016   4
  10  -3  -4 144.264 15.0178   8
 -10   3  -4 138.093 16.4562   1
  10   3   4 146.862 14.7142   8
  10   3   4 150.396 14.8377   8
 -10  -3   4 151.742 14.4652   3
 -10   3  -4 149.396 14.6200   3
 -10  -3   4 150.714 16.2168   1
 -11  -3  -4 595.060 63.0054   1
 -11  -3  -4 583.541 56.1914   3
 -11   3   4 584.150 63.1525   1
  11  -3   4 526.589 58.6162   8
 -11   3   4 631.616 56.3405   3
 -11   3  -4 588.155 56.4458   3
  11  -3  -4 584.028 58.6212   8
 -11  -3   4 554.916 57.9477   6
 -11  -3   4 637.105 56.3165   3
  11   3   4 529.783 71.5749   4
  11   3   4 600.077 58.3522   8
  12   3  -4 96.2621 10.4251   8
  12  -3   4 75.8289 10.8208   8
 -12   3   4 97.0131 10.5465   3
 -12   3   4 123.451 12.1052   1
 -12  -3  -4 95.4216 10.4085   3
 -12  -3   4 105.765 10.6185   6
  12  -3  -4 96.7151 10.9077   8
 -12  -3   4 119.262 10.5896   3
 -12   3  -4 113.513 12.3231   1
  12   3   4 104.550 10.6667   8
 -12   3  -4 101.390 10.8537   3
   0  -4  -4 7.70024 1.90890   7
   0  -4   4 3.61232 1.57959   7
   0  -4  -4 6.84359 2.03569   2
   0   4  -4 10.1112 2.10286   7
   0   4   4 9.18554 1.74611   4
   0   4   4 5.05447 1.62113   7
   0   4   4 3.54154 1.64879   2
   0   4  -4 5.90823 1.91830   2
   0  -4   4 7.32732 1.98025   5
   0  -4   4 5.78182 2.03664   2
  -1  -4  -4 155.925 16.1459   7
  -1   4   4 150.342 16.1313   7
   1   4  -4 137.186 16.2108   2
  -1  -4  -4 168.837 16.2027   2
   1  -4   4 145.056 16.1440   7
   1  -4   4 168.021 16.3666   2
  -1   4   4 138.833 16.1105   2
  -1   4   4 117.215 17.0718   4
   1  -4   4 147.148 16.2605   7
   1  -4   4 112.660 16.5568   5
   1  -4  -4 118.305 16.0315   2
  -1  -4   4 137.805 16.1242   7
   1   4   4 129.162 16.0555   2
   1  -4  -4 140.397 16.0443   7
  -1   4  -4 150.115 16.2858   7
  -1  -4   4 151.974 16.4481   5
   1   4   4 138.184 17.3564   4
  -1   4  -4 150.355 16.1948   2
   1   4   4 163.363 16.1342   7
  -2  -4  -4 2952.30 290.157   7
   2  -4   4 2939.51 290.158   7
  -2  -4  -4 2897.11 285.653   1
   2  -4   4 2574.53 290.108   7
  -2   4   4 2839.95 285.737   1
   2  -4   4 2570.83 288.710   2
   2   4  -4 2318.24 288.587   2
   2   4   4 2524.82 266.179   8
  -2   4  -4 3040.84 285.955   1
   2   4   4 2774.25 288.533   2
  -2  -4   4 2221.67 290.121   7
   2   4   4 2692.64 289.958   7
   2  -4  -4 2417.26 288.542   2
  -2  -4   4 2974.57 297.827   5
  -2  -4   4 2363.44 285.600   1
  -2   4  -4 2904.07 290.273   7
   2  -4  -4 2557.82 290.036   7
   3  -4   4 405.939 38.1990   8
   3   4  -4 367.362 38.1001   8
   3  -4   4 347.039 41.4051   2
   3   4  -4 355.961 41.2971   2
  -3  -4  -4 404.251 40.9985   1
  -3   4   4 327.442 41.4223   7
  -3   4   4 352.914 40.9486   1
  -3  -4   4 404.878 42.4751   5
  -3  -4   4 329.170 40.9344   1
   3   4   4 400.047 45.4752   4
   3   4   4 334.072 38.0959   8
   3   4   4 441.201 41.3507   2
  -3   4  -4 410.954 41.1953   1
   3  -4  -4 427.913 41.4635   2
  -4   4   4 29.6823 3.83788   1
  -4  -4  -4 20.1192 3.56182   1
   4   4  -4 35.0278 5.50536   4
   4  -4   4 23.9593 3.37639   8
   4   4  -4 22.9292 3.20437   8
  -4  -4  -4 33.5138 3.52241   7
  -4  -4  -4 20.6689 3.06265   3
   4   4  -4 23.4727 3.34601   2
  -4   4   4 21.3182 3.36975   7
   4  -4  -4 24.3200 3.30316   8
   4   4   4 20.5588 3.16195   8
  -4   4  -4 24.1676 3.44807   7
   4   4   4 32.4825 4.50935   5
  -4   4  -4 22.2242 3.26485   3
   4   4   4 26.4103 4.57521   4
  -4  -4   4 29.2361 3.90987   1
  -4   4  -4 33.0269 4.16139   1
  -4   4  -4 20.6413 3.49897   7
   4  -4  -4 25.7671 3.65697   2
   4   4   4 18.4698 3.29013   2
   5   4  -4 279.118 32.4349   8
   5  -4   4 337.753 35.2451   2
   5   4  -4 276.626 32.3505   8
   5   4  -4 272.074 39.1045   4
  -5   4   4 338.455 35.0662   1
  -5  -4  -4 352.736 31.2775   3
  -5  -4  -4 319.679 35.0334   1
  -5   4   4 312.626 35.3376   7
   5  -4   4 303.390 32.5578   8
  -5   4   4 349.146 31.3103   3
  -5   4  -4 310.950 31.3872   3
   5   4   4 316.027 32.4480   8
  -5   4  -4 353.707 32.6515   6
   5   4   4 362.485 39.3036   4
   5   4   4 360.289 36.6708   5
  -5   4  -4 337.538 35.4451   7
   5  -4  -4 301.206 35.0774   2
  -5   4  -4 335.357 35.1786   1
   5   4   4 333.978 32.4831   8
   5  -4  -4 322.011 32.6049   8
  -6  -4  -4 473.976 51.8571   3
  -6   4   4 495.747 58.1775   1
  -6   4   4 572.475 58.8607   7
  -6  -4  -4 496.868 58.1272   1
   6  -4   4 550.292 54.1828   8
   6   4  -4 613.797 65.0500   4
   6   4  -4 613.984 53.9887   8
  -6   4   4 572.829 52.0104   3
  -6   4   4 457.886 51.9716   3
   6   4  -4 570.732 54.0369   8
  -6  -4   4 452.965 51.8870   3
  -6   4  -4 566.332 58.3531   1
   6   4   4 562.812 54.0258   8
  -6   4  -4 517.921 58.8980   7
  -6   4  -4 542.278 52.1166   3
   6   4   4 620.881 65.1238   4
  -6  -4   4 524.067 58.2500   1
   6   4   4 552.583 54.0032   8
  -7   4   4 54.0231 7.04137   3
   7   4  -4 74.6504 9.89413   4
  -7   4   4 74.9955 7.12536   3
  -7   4   4 66.2184 8.04655   1
   7   4  -4 69.1915 7.09351   8
   7   4  -4 60.0838 6.98230   8
  -7  -4  -4 57.6754 6.90962   3
   7  -4   4 75.2254 7.45313   8
  -7  -4  -4 77.0294 8.02076   1
  -7   4  -4 51.1550 7.09437   3
   7   4   4 67.2657 7.09237   8
  -7   4  -4 65.7899 8.17195   1
   7   4   4 60.1005 9.69376   4
  -7  -4   4 58.3139 7.96812   1
   7  -4  -4 72.1087 7.41743   8
  -7  -4   4 64.3935 7.02383   3
   7   4   4 78.7074 7.15635   8
  -7   4  -4 61.7127 7.20633   3
  -8   4   4 9.08528 1.91188   3
  -8  -4  -4 9.77994 1.89314   3
   8   4  -4 9.66797 3.84783   4
  -8   4   4 8.04637 2.34438   1
   8   4  -4 12.5017 1.79030   8
  -8   4   4 8.13647 2.04646   3
   8   4  -4 9.32658 1.63008   8
  -8  -4  -4 17.3975 2.71112   1
   8  -4   4 8.89077 2.07947   8
   8  -4  -4 8.90282 2.08549   8
  -8  -4   4 9.24703 1.95178   3
  -8   4  -4 10.5036 2.20499   3
  -8   4  -4 6.72841 2.65457   1
   8   4   4 17.0914 4.75536   4
   8   4   4 11.2443 1.82796   8
  -8   4  -4 13.0681 2.39026   3
  -8  -4   4 5.75393 2.24220   1
   8   4   4 6.71133 1.69232   8
  -9  -4  -4 26.1596 4.10466   1
   9   4  -4 32.2209 6.57149   4
   9   4  -4 25.5215 3.32805   8
   9  -4   4 27.1631 3.83595   8
  -9   4   4 28.8266 4.43148   1
  -9   4   4 25.2068 3.64640   3
  -9  -4  -4 26.8177 3.59756   3
   9   4  -4 26.0577 3.30076   8
  -9  -4   4 29.6965 3.99343   6
  -9   4  -4 30.0154 4.03258   3
   9   4   4 28.8214 6.22555   4
  -9  -4   4 29.7004 3.77423   3
  -9   4  -4 29.7362 4.79202   1
  -9  -4   4 31.7768 4.45201   1
   9  -4  -4 25.1999 3.75126   8
   9   4   4 23.6561 3.39130   8
 -10  -4  -4 340.095 32.2742   3
  10   4  -4 305.862 33.3317   8
  10   4  -4 342.527 33.2902   8
  10   4  -4 254.536 40.7740   4
 -10  -4  -4 332.046 36.1637   1
  10  -4   4 317.471 33.6238   8
 -10   4   4 363.458 36.4091   1
  10   4   4 305.488 33.3401   8
  10  -4  -4 365.828 33.7801   8
 -10   4  -4 332.509 36.5565   1
 -10   4  -4 329.729 32.5820   3
 -10  -4   4 358.750 36.2507   1
 -10  -4   4 336.248 32.3084   3
  10   4   4 385.462 42.5507   4
  11   4  -4 608.245 60.1113   8
 -11   4   4 500.104 64.9406   1
  11   4  -4 664.346 73.5698   4
 -11  -4  -4 607.701 57.9236   3
 -11  -4  -4 695.592 65.0052   1
  11  -4   4 639.256 60.5024   8
 -11  -4   4 654.930 58.0738   3
 -11  -4   4 577.282 59.7343   6
  11   4   4 618.163 60.2027   8
  11   4   4 568.286 73.7771   4
 -11  -4   4 606.012 64.9026   1
  11  -4  -4 530.586 60.4356   8
 -11   4  -4 638.940 65.3002   1
 -11   4  -4 531.530 58.2330   3
  12  -4   4 811.888 84.6472   8
  12   4  -4 895.341 84.3375   8
 -12  -4  -4 847.111 81.1272   3
 -12   4   4 747.056 90.9657   1
  12  -4  -4 844.248 84.7408   8
 -12   4  -4 892.094 81.6185   3
 -12   4  -4 891.239 91.2204   1
 -12  -4   4 854.023 81.2523   3
 -12  -4   4 857.411 83.5671   6
  12   4   4 821.883 84.4347   8
   0   5  -4 -1.0321 1.35486   2
   0   5   4 0.95868 1.22760   4
   0  -5   4 0.06180 1.47030   7
   0   5   4 0.62636 0.99097   7
   0   5  -4 0.36926 1.52528   7
   0  -5  -4 0.35089 1.10116   7
   0  -5   4 5.60859 1.91365   2
   0   5   4 -0.6049 1.25555   2
   0  -5   4 1.20805 1.33539   7
   0  -5  -4 -0.0692 1.29736   2
  -1  -5  -4 762.951 88.5066   2
   1  -5   4 823.338 89.0519   7
  -1  -5  -4 853.525 88.9495   7
  -1   5   4 682.157 96.2674   4
  -1  -5  -4 839.788 87.6030   1
   1   5   4 892.833 89.0222   7
  -1   5  -4 751.933 89.0690   7
   1   5   4 822.486 88.4847   2
  -1  -5   4 828.663 88.9774   7
  -1  -5   4 870.306 87.7692   1
  -1   5  -4 824.384 88.6014   2
   1   5   4 861.431 96.5381   4
  -2  -5  -4 1674.25 167.870   1
  -2  -5  -4 1414.84 169.490   2
  -2   5   4 1599.93 170.439   7
   2   5  -4 1689.11 156.428   8
   2  -5   4 1665.46 169.689   2
   2  -5   4 1557.29 170.438   7
   2  -5   4 1632.25 170.380   7
  -2  -5  -4 1533.20 170.350   7
   2   5  -4 1737.93 169.714   2
  -2  -5   4 1531.20 154.765   6
  -2   5  -4 1578.81 170.572   7
   2  -5  -4 1407.03 169.469   2
  -2  -5   4 1585.07 170.525   7
   2   5   4 1620.24 185.152   4
  -2   5  -4 1591.34 169.621   2
  -2  -5   4 1314.31 174.689   5
  -2   5  -4 1619.74 168.004   1
   2   5   4 1758.35 156.471   8
  -2  -5   4 1567.65 167.842   1
   2   5   4 1265.50 170.123   7
  -2  -5   4 1641.58 167.943   1
  -3   5   4 1152.86 125.715   1
  -3   5   4 1161.08 127.704   7
   3  -5   4 1254.83 127.335   7
  -3  -5  -4 1234.66 112.429   3
   3  -5   4 1074.76 117.204   8
  -3  -5  -4 1161.40 127.604   7
   3   5  -4 1030.51 126.985   2
   3  -5   4 1334.80 127.375   7
  -3  -5  -4 1240.12 125.869   1
  -3   5  -4 1032.68 127.669   7
   3   5   4 985.829 117.066   8
  -3  -5   4 1313.67 130.792   5
  -3   5  -4 1033.39 127.061   2
  -3   5  -4 1297.26 127.798   7
   3   5   4 1130.01 138.885   4
   3  -5  -4 1154.25 127.283   7
   3  -5  -4 1211.81 127.067   2
   3  -5  -4 1206.12 127.291   7
  -3   5  -4 1263.63 126.046   1
  -4   5   4 1118.08 107.101   1
  -4  -5  -4 1139.39 95.6820   3
   4   5  -4 1122.71 99.7272   8
  -4  -5  -4 854.727 107.000   1
  -4  -5  -4 1096.29 108.640   7
  -4   5   4 960.080 108.591   7
   4  -5   4 982.234 99.7969   8
   4   5  -4 939.451 118.745   4
   4   5  -4 1063.35 107.888   2
   4   5   4 901.900 118.317   4
   4   5   4 1020.58 99.6637   8
  -4   5  -4 1057.26 108.697   7
   4  -5  -4 959.555 99.6758   8
   4  -5  -4 877.995 107.994   2
  -4   5  -4 969.010 95.8347   3
  -4  -5   4 935.177 98.6779   6
  -4  -5   4 961.592 107.023   1
  -4   5  -4 1007.46 108.644   7
   5   5  -4 504.829 56.8478   2
   5   5  -4 580.357 52.9309   8
   5  -5   4 615.802 53.1417   8
  -5   5   4 493.971 57.5386   7
  -5  -5  -4 529.636 50.7954   3
   5  -5   4 525.612 57.3279   2
   5   5   4 456.155 63.0784   4
  -5  -5   4 515.053 56.9160   1
  -5  -5   4 595.178 50.9614   3
  -5  -5   4 485.480 52.4710   6
   5   5   4 531.840 52.8804   8
  -5   5  -4 465.348 57.0882   1
   5  -5  -4 568.339 57.3081   2
  -5   5  -4 524.622 51.0990   3
  -5   5  -4 497.728 57.7940   7
   5  -5  -4 548.519 53.0549   8
   6  -5   4 513.540 54.1802   2
  -6  -5  -4 513.954 48.2729   3
  -6   5   4 472.349 48.3738   3
   6   5  -4 419.892 60.1648   4
  -6   5   4 434.384 54.0335   1
   6  -5   4 474.531 50.3230   8
   6   5  -4 560.389 50.2227   8
  -6   5  -4 432.091 54.2449   1
  -6   5  -4 541.480 48.6712   3
  -6  -5   4 492.406 48.3169   3
  -6  -5   4 492.387 49.9001   6
   6   5   4 548.048 50.2175   8
   6   5   4 541.222 60.4069   4
  -6  -5   4 546.092 54.1865   1
   6  -5  -4 520.805 50.4268   8
   6  -5  -4 495.075 53.9935   2
   7  -5   4 209.486 20.6651   8
   7   5  -4 215.617 25.5092   4
  -7   5   4 162.768 22.0967   1
  -7  -5  -4 190.215 22.1650   1
   7   5  -4 193.639 20.3680   8
  -7   5   4 185.831 19.8481   3
  -7  -5  -4 240.339 19.8392   3
   7   5   4 225.472 25.5292   4
  -7   5  -4 170.214 22.3433   1
  -7  -5   4 195.246 19.7802   3
  -7  -5   4 209.351 22.2524   1
   7  -5  -4 167.068 20.5435   8
   7   5   4 207.896 20.4081   8
  -7   5  -4 218.347 20.1750   3
  -7  -5   4 225.474 20.5958   6
   8   5  -4 466.349 50.6916   4
  -8  -5  -4 385.208 39.8096   3
   8   5  -4 414.950 41.3683   8
   8  -5   4 414.036 41.6448   8
  -8   5   4 393.363 44.7641   1
  -8   5   4 385.735 40.0315   3
   8   5   4 410.085 41.3905   8
  -8  -5   4 441.054 40.0078   3
  -8   5  -4 386.517 40.1790   3
  -8  -5   4 424.992 41.3015   6
  -8  -5   4 352.455 44.5980   1
  -8   5  -4 421.994 45.0320   1
   8   5   4 463.669 50.7016   4
   8  -5  -4 443.044 41.7663   8
  -9   5   4 131.916 13.1608   1
   9  -5   4 110.747 11.9695   8
   9   5  -4 105.906 11.5980   8
  -9  -5  -4 115.471 11.3970   3
   9   5  -4 123.086 15.9964   4
  -9  -5  -4 109.322 12.7587   1
   9   5   4 100.090 11.5885   8
  -9  -5   4 116.738 11.9269   6
   9  -5  -4 82.6333 11.8485   8
  -9  -5   4 125.216 11.6210   3
   9   5   4 113.318 15.8735   4
  -9  -5   4 98.2578 12.7779   1
  -9   5  -4 120.468 13.3098   1
  -9   5  -4 121.329 11.8850   3
 -10   5   4 90.1530 10.9291   1
 -10  -5  -4 67.1283 9.27908   3
  10  -5   4 84.1922 9.91699   8
  10   5  -4 87.3935 13.8681   4
 -10  -5  -4 93.5353 10.7436   1
  10   5  -4 88.4926 9.58753   8
 -10  -5   4 95.6893 10.8798   1
 -10  -5   4 100.535 10.8721   1
  10   5   4 92.8433 9.61626   8
 -10   5  -4 91.9204 11.1567   1
  10  -5  -4 100.358 10.1384   8
 -10  -5   4 104.979 9.67470   3
 -10   5  -4 83.7385 9.84786   3
 -10  -5   4 86.0133 9.79072   6
  10   5   4 68.7397 13.5705   4
  11   5  -4 59.2669 10.5503   4
 -11   5   4 38.4782 6.98949   1
 -11  -5  -4 52.8487 7.03728   1
  11   5  -4 47.0177 6.09607   8
  11  -5   4 60.0445 6.67800   8
 -11  -5  -4 47.1408 5.98460   3
 -11  -5   4 56.8205 6.36865   3
 -11   5  -4 66.8340 6.90166   3
 -11  -5   4 48.0381 6.21513   6
 -11  -5   4 49.2016 7.12634   1
  11  -5  -4 59.6534 6.66160   8
  11   5   4 51.0046 6.11652   8
 -11   5  -4 57.8065 7.68928   1
  12   5  -4 216.824 21.0947   8
 -12  -5  -4 176.378 22.7602   1
 -12   5   4 218.753 23.2823   1
 -12  -5  -4 195.321 20.3562   3
  12  -5   4 192.771 21.4458   8
  12  -5  -4 218.611 21.5518   8
 -12   5  -4 218.414 20.9586   3
 -12  -5   4 206.422 20.9588   6
 -12   5  -4 194.642 23.1919   1
  12   5   4 204.946 21.1196   8
 -12  -5   4 213.409 20.5834   3
   0  -6  -4 7.99829 2.97808   2
   0  -6   4 11.1483 3.33197   2
   0   6   4 12.6166 2.86807   7
   0   6   4 7.73764 2.78718   2
   0  -6  -4 10.3449 2.81967   7
   0  -6  -4 17.8764 3.33458   1
   0   6  -4 12.4052 3.24457   2
   0  -6   4 7.38574 2.72164   7
   0  -6   4 16.0325 3.23080   7
   0   6   4 6.13520 2.84863   4
   1   6  -4 282.261 34.0736   2
  -1  -6  -4 334.664 33.8863   1
  -1   6   4 316.010 34.2137   7
  -1  -6  -4 242.872 34.0431   7
   1  -6   4 311.628 34.2609   7
   1  -6   4 284.719 34.1865   2
  -1  -6  -4 332.492 34.2551   2
  -1   6   4 293.229 33.7893   1
  -1  -6   4 311.849 33.9791   1
   1   6   4 344.837 37.2573   4
  -1   6  -4 333.264 34.3482   2
  -1   6  -4 305.482 33.8628   1
   1  -6  -4 273.561 34.0769   2
  -1  -6   4 324.073 34.2527   2
  -1   6  -4 313.420 34.4794   7
  -1  -6   4 327.873 34.3118   7
   1   6   4 310.885 34.2176   7
   1  -6  -4 335.430 34.3041   7
  -2   6   4 439.725 47.4165   2
   2  -6   4 423.756 47.4743   2
  -2  -6  -4 390.211 47.3858   7
   2   6  -4 352.783 47.2755   2
  -2  -6  -4 358.926 47.2595   2
   2  -6   4 494.542 47.6744   7
  -2   6   4 428.528 47.4754   7
  -2  -6  -4 471.503 47.0548   1
  -2  -6   4 482.372 47.7355   7
  -2  -6   4 448.059 47.4573   2
  -2  -6   4 504.438 47.1719   1
   2   6   4 417.415 43.6685   8
   2   6   4 430.252 51.6644   4
   2  -6  -4 454.669 47.4089   7
   2   6   4 471.214 47.3419   7
   2  -6  -4 341.821 47.1964   2
  -2   6  -4 448.598 47.0453   1
   2   6   4 439.035 47.2820   2
   3  -6   4 22.8260 2.97548   7
   3  -6   4 18.3228 3.27531   8
   3   6  -4 16.4342 3.36698   2
   3  -6   4 14.6486 3.31757   2
  -3   6   4 12.9150 2.92504   7
  -3  -6  -4 22.2048 3.02389   3
  -3  -6  -4 13.4539 3.31140   1
   3  -6   4 19.2262 2.84903   7
   3   6  -4 19.1582 2.94222   8
  -3   6   4 25.7152 3.87350   2
  -3  -6  -4 17.1880 2.93513   7
  -3   6   4 21.9861 3.47269   1
   3   6   4 16.8568 2.95335   8
  -3   6  -4 23.4728 3.55015   7
   3  -6  -4 19.7834 3.50925   2
   3   6   4 14.0798 3.49431   4
  -3   6  -4 15.9351 3.42101   1
  -3  -6   4 19.1634 3.52473   1
  -3   6  -4 21.3052 3.95497   2
   3   6   4 15.7743 3.09369   2
  -3   6  -4 22.2126 3.70992   2
  -3  -6   4 15.7093 3.30566   1
   3  -6  -4 20.2582 2.78015   7
  -3  -6   4 19.6561 3.41791   7
  -3   6  -4 21.3288 3.44471   7
  -3  -6   4 16.0889 3.07703   6
  -4   6   4 29.7238 4.90891   1
   4   6  -4 21.2538 4.16602   8
  -4  -6  -4 41.3205 5.57594   1
   4   6  -4 36.8025 4.96124   2
  -4  -6  -4 30.7296 4.24775   3
   4  -6   4 42.7704 5.59403   2
   4  -6   4 43.1473 5.10519   8
   4   6  -4 21.2311 5.75438   4
  -4   6  -4 29.4751 4.45025   3
   4   6   4 29.9513 4.79994   2
  -4   6  -4 33.1094 4.94906   7
  -4  -6   4 44.5751 5.21689   1
   4  -6  -4 40.0798 5.10895   2
   4   6   4 42.0641 5.37468   5
  -4  -6   4 41.3593 5.45746   1
  -4  -6   4 39.4668 4.98799   6
   4   6   4 37.0960 6.18777   4
  -4   6  -4 36.5879 5.41575   1
   4   6   4 31.6391 4.47247   8
   4  -6  -4 29.8890 4.52278   8
   5  -6   4 262.911 25.0952   8
  -5  -6  -4 186.692 26.6126   1
   5  -6   4 239.226 26.8737   2
  -5  -6  -4 235.629 23.7971   3
   5   6  -4 279.192 30.5783   4
   5   6  -4 228.951 26.4253   2
   5   6  -4 235.663 24.7989   8
   5   6   4 261.663 30.1365   4
   5  -6  -4 277.491 25.0273   8
  -5  -6   4 249.897 26.7821   1
   5   6   4 231.168 24.7324   8
  -5   6  -4 214.230 26.8352   1
  -5  -6   4 230.108 24.7003   6
  -5  -6   4 265.493 26.9307   1
   5   6   4 240.539 26.6086   2
  -5   6  -4 266.053 24.2378   3
   5  -6  -4 243.658 26.8002   2
   6  -6   4 914.560 97.0131   8
   6  -6   4 993.628 104.804   2
  -6  -6  -4 844.003 104.019   1
  -6   6   4 861.640 92.9938   3
   6   6  -4 924.525 96.7983   8
  -6   6   4 1130.16 104.281   1
   6  -6  -4 938.247 96.9658   8
  -6  -6   4 1098.93 104.179   1
   6  -6  -4 1121.50 104.757   2
  -6   6  -4 844.794 93.0995   3
   6   6   4 939.364 115.343   4
   6   6   4 938.020 96.7284   8
  -6   6  -4 1049.28 104.354   1
   7   6  -4 113.024 14.9427   4
  -7   6   4 104.244 11.2803   3
   7  -6   4 107.799 11.8482   8
   7   6  -4 98.0446 11.4210   8
  -7   6   4 112.531 12.7011   1
  -7  -6  -4 87.3030 10.9335   3
  -7  -6   4 108.162 12.5627   1
  -7  -6   4 128.035 12.8665   1
  -7  -6   4 109.164 11.6217   6
   7   6   4 109.362 14.7582   4
   7   6   4 118.952 11.4468   8
  -7   6  -4 103.755 12.8034   1
   7  -6  -4 107.845 11.7100   8
  -7   6  -4 92.7978 11.3188   3
   8   6  -4 1860.83 238.564   4
   8   6  -4 1986.54 200.589   8
  -8   6   4 1961.05 192.680   3
  -8  -6  -4 2179.14 192.512   3
   8  -6   4 1957.73 200.866   8
  -8  -6  -4 2001.42 215.467   1
   8  -6  -4 2211.89 200.932   8
  -8  -6   4 1898.95 198.577   6
   8   6   4 2165.05 200.554   8
  -8   6  -4 2017.01 215.673   1
  -8  -6   4 1925.75 215.413   1
   9   6  -4 93.9868 10.9917   8
  -9  -6  -4 109.467 10.7144   3
  -9  -6  -4 112.073 12.1269   1
  -9   6   4 108.894 12.3116   1
   9  -6   4 103.725 11.4993   8
   9   6  -4 91.2080 14.4271   4
   9   6   4 82.9226 14.2992   4
  -9   6  -4 80.7317 10.9121   3
  -9  -6   4 111.070 11.1841   6
   9  -6  -4 103.148 11.3516   8
  -9   6  -4 107.386 12.4489   1
   9   6   4 106.494 10.9388   8
  -9  -6   4 94.6699 12.1136   1
 -10   6   4 239.513 24.8233   1
  10  -6   4 204.977 23.0220   8
  10   6  -4 225.527 28.7018   4
 -10  -6  -4 221.273 21.8998   3
 -10  -6  -4 245.854 24.6061   1
  10   6  -4 237.319 22.7857   8
 -10   6  -4 235.522 22.3821   3
  10   6   4 185.768 28.5094   4
 -10   6  -4 215.991 24.8282   1
 -10  -6   4 210.414 22.5351   6
 -10  -6   4 176.830 24.4651   1
  10  -6  -4 229.728 23.0620   8
  10   6   4 221.680 22.6019   8
 -11  -6  -4 85.2024 9.64306   3
  11  -6   4 82.7865 10.3282   8
 -11   6   4 91.1997 11.2505   1
 -11  -6  -4 99.4596 11.0726   1
  11   6  -4 110.661 15.2854   4
  11   6  -4 86.0101 9.94151   8
 -11  -6   4 84.8493 9.92006   6
  11  -6  -4 86.1748 10.2965   8
 -11  -6   4 87.1421 11.0681   1
 -11   6  -4 82.8403 11.2399   1
 -11   6  -4 94.9483 10.2400   3
  11   6   4 89.4155 9.84973   8
 -12   6   4 65.5565 8.80133   1
 -12  -6  -4 57.9651 8.51145   1
 -12  -6  -4 68.9854 7.48634   3
  12  -6   4 69.1322 8.33449   8
  12   6  -4 61.8738 7.68648   8
 -12   6  -4 58.3527 8.83395   1
 -12  -6   4 67.3549 7.47545   6
  12  -6  -4 64.0835 8.07039   8
 -12  -6   4 59.5194 8.69453   1
  12   6   4 58.2120 7.52009   8
 -12   6  -4 69.3964 8.17716   3
   0   7   4 3.60830 2.09687   1
   0   7   4 1.43979 1.62985   4
   0  -7   4 0.39168 1.87345   2
   0   7   4 10.6091 2.31254   7
   0   7  -4 1.74553 1.97743   2
   0  -7   4 13.2232 2.70364   7
   0   7   4 -1.6030 1.46247   2
   0  -7   4 -1.8534 1.87162   1
   0  -7  -4 1.39228 1.89189   1
   0  -7  -4 -0.5026 1.74936   2
  -1  -7  -4 23.4410 3.76840   1
  -1   7   4 22.6976 3.66751   7
   1  -7   4 14.5241 3.53162   2
  -1  -7  -4 17.4276 3.68875   2
  -1   7   4 28.2297 4.01434   1
  -1  -7  -4 16.5844 3.37473   7
  -1   7   4 23.9007 3.83151   2
   1   7  -4 14.5937 3.41408   2
   1  -7   4 22.7011 3.59299   7
  -1  -7   4 16.1120 3.66282   1
   1   7   4 11.7055 3.31963   4
  -1  -7   4 25.6373 3.94035   7
   1   7   4 21.8571 3.49144   7
  -1   7  -4 21.3123 3.99445   1
   1   7   4 16.2344 3.38226   2
  -1  -7   4 14.8266 3.44076   2
   1  -7  -4 17.2397 3.49082   2
  -1  -7   4 19.2652 3.30071   6
  -1   7  -4 16.5397 3.68028   2
  -1   7  -4 20.4301 3.79375   2
  -1  -7   4 17.6543 3.46459   7
  -2   7   4 335.656 36.4558   2
  -2   7   4 340.651 36.5256   7
  -2  -7  -4 375.809 36.6704   2
   2   7  -4 290.909 36.3624   2
  -2  -7  -4 366.969 36.5602   7
  -2  -7  -4 290.898 36.1346   1
  -2   7   4 334.586 36.0771   1
   2  -7   4 379.526 36.7461   7
  -2  -7   4 324.778 36.5358   2
   2   7   4 322.344 33.6319   8
   2  -7  -4 373.311 36.6460   2
   2  -7  -4 358.270 36.6091   7
  -2   7  -4 324.460 36.8165   7
  -2  -7   4 312.428 36.2099   1
   2   7   4 298.883 39.7031   4
  -2   7  -4 321.292 36.5880   2
  -2  -7   4 258.977 33.1306   6
   3   7  -4 1370.39 129.011   8
   3  -7   4 1160.66 129.062   8
   3  -7   4 1257.48 139.967   2
   3   7  -4 1339.85 139.983   2
  -3  -7  -4 1237.55 138.630   1
  -3  -7  -4 1385.21 140.569   7
  -3   7   4 1315.93 138.463   1
  -3  -7   4 1327.32 127.774   6
   3   7   4 1441.67 139.946   2
   3  -7  -4 1250.39 140.260   7
  -3   7  -4 1317.11 138.619   1
   3   7   4 1368.37 152.967   4
  -3  -7   4 1232.76 138.601   1
  -3   7  -4 1154.65 140.719   7
   3  -7  -4 1353.27 129.094   8
   3   7   4 1174.02 128.981   8
   4   7  -4 112.315 12.4877   2
  -4   7   4 93.2259 12.1950   1
  -4  -7  -4 106.666 12.5122   1
   4   7  -4 93.1112 11.2264   8
   4  -7   4 84.0628 12.3590   2
   4  -7   4 99.0716 11.5506   8
   4   7  -4 124.999 14.9853   4
  -4   7  -4 116.723 12.6404   1
   4   7   4 104.156 11.3770   8
   4  -7  -4 104.365 11.4255   8
   4   7   4 82.6821 12.0992   2
  -4  -7   4 109.365 11.4934   6
  -4   7  -4 131.424 12.7558   7
   4  -7  -4 100.441 12.3837   2
  -4  -7   4 106.359 12.4928   1
   4   7   4 126.623 14.0740   4
  -5  -7  -4 1699.42 166.372   3
   5   7  -4 1912.24 206.530   4
   5  -7   4 1777.54 188.127   2
   5   7   4 1752.70 173.446   8
  -5   7  -4 1664.98 186.335   1
   5  -7  -4 1843.67 188.019   2
   5   7   4 1704.14 187.795   2
   5  -7  -4 1611.86 173.502   8
   5   7   4 1681.11 205.922   4
  -5  -7   4 1780.91 171.782   6
   6   7  -4 249.733 39.0437   4
  -6  -7  -4 373.754 35.2728   1
   6  -7   4 269.302 32.6098   8
   6  -7   4 339.445 34.9951   2
   6   7  -4 306.677 32.3949   8
  -6   7   4 329.596 35.0404   1
  -6  -7   4 282.943 34.9405   1
  -6   7  -4 311.412 35.0969   1
   6   7   4 344.647 39.3207   4
  -6   7  -4 287.353 31.3608   3
   6  -7  -4 328.002 34.9393   2
   6   7   4 296.643 32.3033   8
  -6  -7   4 351.140 32.3852   6
   6  -7  -4 377.556 32.7882   8
  -7   7   4 1227.30 119.035   1
   7   7  -4 1234.79 110.694   8
  -7  -7  -4 982.740 118.796   1
   7  -7   4 1115.10 119.253   2
   7  -7   4 917.864 110.712   8
   7   7  -4 1254.72 132.307   4
  -7   7  -4 1093.60 106.433   3
  -7   7  -4 1044.61 118.891   1
  -7  -7   4 1184.51 109.623   6
   7   7   4 1011.99 110.421   8
   7  -7  -4 1043.40 110.735   8
   7   7   4 1215.42 131.978   4
  -8  -7  -4 228.395 28.6284   1
   8   7  -4 257.787 26.5856   8
  -8  -7  -4 272.463 25.5624   3
   8  -7   4 285.018 27.0874   8
   8   7  -4 252.681 32.7235   4
  -8   7  -4 280.422 28.9666   1
  -8  -7   4 266.228 26.4381   6
   8  -7  -4 265.005 26.8510   8
   8   7   4 267.423 26.4773   8
  -8  -7   4 218.351 28.6499   1
   8   7   4 240.723 32.4845   4
  -8   7  -4 254.758 25.9162   3
   9   7  -4 3.60533 2.07370   8
  -9  -7  -4 7.27959 2.75542   1
  -9  -7  -4 7.41993 2.22757   3
   9   7  -4 5.39381 3.74482   4
  -9   7   4 4.90631 2.63624   1
   9  -7   4 9.80038 2.87733   8
   9  -7  -4 3.65285 2.35478   8
   9   7   4 10.7125 2.41419   8
  -9  -7   4 4.55822 2.10292   6
  -9   7  -4 5.13069 2.25569   3
  -9   7  -4 5.35732 2.93192   1
   9   7   4 3.73403 3.82640   4
  -9  -7   4 9.04013 3.21042   1
  10   7  -4 2.03523 2.11800   8
  10   7  -4 1.07522 4.64489   4
 -10   7   4 -1.4763 2.35505   1
 -10  -7  -4 1.81234 1.65803   3
  10  -7   4 5.21118 2.47810   8
 -10  -7  -4 2.05414 2.15680   1
  10   7   4 2.05604 1.89326   8
 -10   7  -4 4.35859 2.87807   1
 -10  -7   4 2.14951 1.87389   6
  10  -7  -4 4.65032 2.44965   8
 -10  -7   4 7.05713 3.07882   1
 -10   7  -4 4.32000 2.53608   3
  10   7   4 -2.2708 3.94694   4
  11  -7   4 0.25005 1.96582   8
  11   7  -4 0.82366 1.87154   8
 -11  -7  -4 0.83070 2.63557   1
 -11   7   4 1.88228 2.82573   1
 -11  -7  -4 0.55371 1.57881   3
 -11   7  -4 4.60741 2.74444   1
  11   7   4 3.07944 1.95309   8
 -11  -7   4 5.27578 2.33932   6
 -11  -7   4 1.90093 2.68490   1
  11  -7  -4 0.12948 2.15897   8
 -11   7  -4 5.14093 2.49081   3
   0  -8   4 17.2492 3.75869   7
   0  -8   4 24.9038 4.39802   1
   0   8  -4 38.5297 5.07505   1
   0   8   4 23.6918 4.16157   1
   0  -8   4 23.4075 4.16520   2
   0   8  -4 19.0620 3.96676   2
   0   8   4 20.8830 4.34868   4
   0  -8  -4 20.9855 3.94145   2
   0   8   4 18.0638 3.69545   2
   0   8   4 19.2165 3.63001   7
   0  -8  -4 17.6860 3.80935   1
   1   8  -4 104.069 11.8601   2
  -1  -8  -4 109.507 11.9094   1
   1  -8   4 91.8171 11.5228   7
  -1   8   4 91.1332 11.5206   1
  -1  -8  -4 86.8648 11.7037   2
  -1   8   4 98.5704 11.7359   7
   1  -8   4 81.4623 11.7229   2
   1  -8   4 102.493 11.9247   1
  -1   8   4 78.1933 11.5468   2
   1  -8  -4 110.523 11.7983   1
  -1  -8   4 113.607 11.8858   7
  -1   8  -4 112.636 12.0840   2
   1   8   4 108.476 11.6365   7
  -1   8  -4 94.8802 11.9264   2
  -1  -8   4 71.7949 11.5421   1
   1  -8  -4 87.8451 11.6545   2
  -1  -8   4 122.180 12.0709   2
   1   8   4 88.6512 12.5726   4
  -1   8  -4 94.2730 11.7811   1
  -2  -8  -4 340.996 35.8552   2
  -2   8   4 345.022 35.3886   1
  -2   8   4 320.392 35.7245   2
  -2  -8  -4 262.479 35.3415   1
   2   8  -4 273.314 32.8007   8
   2   8  -4 290.370 35.5709   2
   2  -8   4 376.333 36.0458   2
   2   8   4 318.246 32.9545   8
   2   8   4 355.795 35.7928   2
  -2   8  -4 304.840 35.4711   1
  -2  -8   4 269.834 35.6840   7
  -2   8  -4 321.341 35.8680   2
  -2   8  -4 265.087 35.7822   2
  -2  -8   4 394.387 36.2504   2
   2   8   4 368.373 39.1754   4
  -2  -8   4 374.210 35.8400   1
   3   8  -4 431.070 46.8675   2
  -3  -8  -4 471.187 46.9176   7
   3  -8   4 468.302 47.0280   2
   3   8  -4 474.030 43.2260   8
  -3  -8  -4 350.452 46.3178   1
  -3   8   4 458.031 46.3486   1
  -3  -8   4 459.600 42.8625   6
  -3   8  -4 501.905 46.6877   1
   3  -8  -4 339.002 43.1129   8
  -3  -8   4 380.813 46.3966   1
   3   8   4 418.683 51.1649   4
   3   8   4 423.866 46.7776   2
   3  -8  -4 409.702 46.8537   2
   3   8   4 368.511 43.0417   8
  -4  -8  -4 979.040 94.1856   1
  -4   8   4 718.285 93.6375   1
   4  -8   4 897.797 87.6175   8
   4   8  -4 781.589 94.6270   2
   4   8  -4 870.268 87.3172   8
   4   8   4 944.402 94.7954   2
  -4   8  -4 824.693 93.8942   1
  -4  -8   4 908.947 86.5914   6
  -4  -8   4 992.215 94.1843   1
   4  -8  -4 845.747 94.7125   2
   4   8   4 881.965 103.733   4
   4  -8  -4 837.484 87.4032   8
  -5  -8  -4 402.664 39.9462   3
   5   8  -4 324.240 49.8971   4
  -5  -8  -4 432.662 45.0259   1
   5  -8   4 442.693 45.3859   2
   5   8  -4 417.179 41.5788   8
   5   8  -4 452.485 44.9412   2
   5  -8   4 394.726 41.8372   8
  -5   8  -4 398.498 44.8904   1
   5   8   4 378.535 41.5457   8
  -5  -8   4 432.094 41.3860   6
   5  -8  -4 418.922 45.0979   2
   5   8   4 373.664 44.8301   2
   5  -8  -4 346.602 41.5727   8
   5   8   4 493.484 50.1762   4
  -5  -8   4 443.731 45.0666   1
  -6  -8  -4 948.913 97.9978   3
   6  -8   4 1120.67 110.738   2
  -6   8   4 1061.51 109.931   1
   6  -8   4 876.580 102.289   8
   6   8  -4 1141.45 102.241   8
   6   8  -4 961.220 109.944   2
   6   8  -4 873.555 121.795   4
   6   8   4 1149.53 122.017   4
   6   8   4 913.296 102.067   8
   6  -8  -4 894.849 110.494   2
  -6  -8   4 1066.52 110.026   1
  -6   8  -4 1137.39 110.088   1
   6   8   4 1093.89 110.136   2
   6  -8  -4 946.446 102.295   8
  -6  -8   4 1152.11 101.385   6
  -7  -8  -4 62.9597 10.2598   1
   7  -8   4 88.5798 9.80179   2
  -7   8   4 91.1158 10.5838   1
   7  -8   4 83.1505 9.91727   8
   7   8  -4 77.2933 9.34097   8
   7   8  -4 90.7825 13.6138   4
  -7  -8  -4 77.4834 9.09299   3
   7   8   4 80.5868 9.41163   8
  -7  -8   4 101.585 10.9522   1
   7  -8  -4 89.8450 9.94578   8
   7   8   4 89.8743 12.5526   4
  -7   8  -4 85.4658 10.6074   1
   7  -8  -4 75.4281 9.59295   2
  -7  -8   4 69.1775 9.38547   6
   8   8  -4 381.853 45.7008   4
   8   8  -4 405.775 37.4222   8
  -8  -8  -4 394.359 35.9742   3
   8  -8   4 410.639 37.9514   8
   8  -8  -4 349.675 37.6012   8
   8   8   4 347.674 37.2797   8
  -8  -8   4 362.633 40.4339   1
   8   8   4 403.355 45.5416   4
  -8   8  -4 334.341 40.3144   1
  -8  -8   4 290.028 36.9045   6
   9   8  -4 30.3290 8.47343   4
  -9   8   4 42.8348 6.57126   1
   9   8  -4 44.4279 5.68801   8
   9  -8   4 39.7229 6.05620   8
  -9  -8  -4 40.3717 6.33219   1
  -9  -8  -4 37.7633 5.40626   3
   9   8   4 44.5469 5.74238   8
  -9  -8   4 38.9712 6.55967   1
   9  -8  -4 39.3189 5.94036   8
  -9   8  -4 34.8236 6.32002   1
   9   8   4 30.0183 7.68958   4
  -9  -8   4 45.6405 6.12638   6
 -10  -8  -4 28.7676 5.50597   1
  10   8  -4 43.3420 9.20256   4
 -10   8   4 34.0886 6.09780   1
  10   8  -4 36.3552 5.22221   8
  10  -8   4 36.1607 5.97220   8
 -10  -8  -4 28.9104 4.86828   3
 -10   8  -4 42.4138 6.50918   1
 -10   8  -4 30.1014 5.36099   3
 -10  -8   4 35.8720 5.24642   3
  10  -8  -4 42.3997 6.00554   8
 -10  -8   4 31.8927 5.47168   6
 -10  -8   4 32.2119 6.22142   1
  10   8   4 37.3929 5.34229   8
  11  -8   4 868.489 78.5444   8
 -11   8   4 725.258 83.8433   1
  11   8  -4 776.608 77.8999   8
 -11  -8  -4 658.788 74.6986   3
 -11  -8  -4 790.221 83.6794   1
 -11   8  -4 788.979 84.1163   1
 -11   8  -4 874.787 75.4548   3
  11  -8  -4 880.859 78.4667   8
  11   8   4 745.474 77.8727   8
 -11  -8   4 670.542 76.9878   6
 -11  -8   4 705.618 83.7771   1
 -11  -8   4 849.573 75.0706   3
   0   9   4 0.09658 1.37296   2
   0   9   4 3.45561 2.08769   7
   0  -9   4 -0.4866 1.76564   7
   0   9   4 1.15515 1.94169   1
   0  -9   4 -0.8093 2.26193   1
   0  -9   4 2.10458 2.20888   2
   0  -9  -4 -1.3078 2.08433   1
   0   9   4 0.00175 2.07158   4
   0   9  -4 -1.2102 2.12931   2
   0   9  -4 1.69512 2.40226   1
   0  -9  -4 2.05711 2.04914   2
  -1   9   4 2441.50 264.138   2
  -1  -9  -4 2537.97 261.730   1
   1   9  -4 2319.94 264.142   2
  -1  -9  -4 2511.02 264.278   2
   1  -9   4 2355.30 265.473   7
   1  -9   4 2200.87 261.621   1
   1   9   4 2521.83 264.227   2
  -1   9  -4 2428.68 264.285   2
  -1   9  -4 2755.37 264.608   2
  -1   9  -4 2291.35 261.606   1
  -1  -9   4 2604.35 264.352   2
  -1  -9   4 2414.41 261.645   1
  -2   9   4 158.473 19.0620   2
   2  -9   4 180.540 19.3903   2
  -2   9   4 176.924 19.0484   1
  -2  -9  -4 129.960 18.8979   1
   2   9  -4 195.713 19.3418   2
  -2   9  -4 151.796 19.3721   2
  -2  -9   4 179.435 19.3790   1
  -2   9  -4 146.253 19.0254   1
   2  -9  -4 206.074 19.6699   2
  -2   9  -4 161.622 19.3045   2
   2   9   4 145.671 19.0179   2
   2   9   4 161.463 20.9412   4
  -3   9   4 66.1006 8.83468   1
   3  -9   4 82.3077 9.37619   2
  -3  -9  -4 63.4996 9.47399   1
   3   9  -4 54.3714 8.05100   8
   3   9  -4 76.3061 9.12342   2
   3  -9  -4 64.8368 9.05657   2
  -3  -9   4 48.5458 8.94470   1
  -3   9  -4 65.9284 9.08596   1
   3   9   4 92.0723 9.40539   2
   3   9   4 78.1835 10.2997   4
   3   9   4 65.5230 8.24262   8
   4   9  -4 200.488 21.4609   8
   4   9  -4 167.542 26.2017   4
   4  -9   4 230.283 23.5722   2
   4   9  -4 190.871 23.1843   2
  -4  -9  -4 228.921 23.5845   1
  -4   9   4 205.108 23.1063   1
  -4  -9   4 183.673 23.3086   1
  -4   9  -4 216.477 23.4100   1
   4   9   4 237.918 23.5122   2
   4   9   4 165.597 21.2927   8
   4   9   4 208.143 25.7504   4
   4  -9  -4 215.117 23.3326   2
   5   9  -4 98.1665 12.4090   8
   5   9  -4 99.9838 15.9262   4
  -5   9   4 76.5260 13.2099   1
   5   9  -4 133.586 13.6455   2
   5  -9   4 131.505 13.2374   8
  -5  -9  -4 154.229 14.3798   1
   5  -9   4 104.387 13.7440   2
  -5  -9   4 100.848 12.5791   6
  -5  -9   4 104.557 13.7908   1
   5   9   4 124.797 15.5686   4
   5  -9  -4 109.430 13.5809   2
  -5   9  -4 103.533 13.7812   1
   5   9   4 124.654 12.6641   8
   5  -9  -4 117.214 12.7298   8
   5   9   4 125.136 13.4899   2
   6  -9   4 126.135 14.8070   8
  -6  -9  -4 181.626 16.4253   1
   6   9  -4 140.468 14.8275   2
  -6   9   4 99.2097 15.3949   1
   6   9  -4 144.121 14.5675   8
   6  -9   4 109.124 15.4213   2
   6   9  -4 115.002 17.9859   4
  -6  -9   4 150.780 14.7815   6
  -6  -9   4 130.985 15.9770   1
   6   9   4 131.803 17.9437   4
   6  -9  -4 143.287 14.8002   8
   6   9   4 138.530 14.5426   8
   6   9   4 129.831 14.9908   2
  -6   9  -4 127.306 15.8964   1
   6  -9  -4 124.897 15.5154   2
   7   9  -4 29.8540 7.26157   4
   7   9  -4 26.7119 4.63645   8
   7  -9   4 30.5451 5.21789   8
   7  -9   4 27.5533 4.52124   2
  -7  -9  -4 21.2876 5.03853   1
  -7  -9  -4 32.3341 4.66368   3
  -7   9   4 20.0610 4.76174   1
  -7  -9   4 31.4380 5.10969   6
   7   9   4 33.1707 4.80374   8
   7  -9  -4 28.2638 4.83186   8
  -7   9  -4 29.7045 5.51165   1
   7  -9  -4 38.2637 4.84825   2
   7   9   4 23.1886 6.37077   4
  -7  -9   4 21.4470 5.24324   1
  -7  -9   4 25.3615 4.62580   3
  -8   9   4 178.389 21.8647   1
   8   9  -4 165.530 20.0413   8
   8  -9   4 181.518 20.6222   8
  -8  -9  -4 181.714 19.4001   3
  -8  -9   4 243.312 20.0313   3
   8   9   4 174.878 20.1435   8
  -8  -9   4 192.541 22.2390   1
   8  -9  -4 182.398 20.4877   8
  -8  -9   4 202.633 20.4066   6
  -8   9  -4 210.869 22.3169   1
   8   9   4 199.017 25.3171   4
  -9   9   4 1036.15 98.6575   1
   9   9  -4 795.035 91.3462   8
  -9  -9  -4 958.945 98.5233   1
   9   9  -4 776.980 109.358   4
   9  -9   4 897.888 91.9241   8
  -9  -9   4 905.138 90.7881   6
  -9   9  -4 925.210 98.6279   1
   9  -9  -4 813.111 91.6870   8
   9   9   4 969.482 91.5993   8
  -9  -9   4 757.602 98.3196   1
   9   9   4 1040.53 109.947   4
  -9  -9   4 1085.88 88.2848   3
 -10  -9  -4 29.9269 5.15665   3
  10  -9   4 39.7494 6.23883   8
  10   9  -4 32.5020 5.36163   8
 -10  -9  -4 36.8455 6.24084   1
 -10   9   4 36.8397 6.33122   1
 -10  -9   4 36.4491 6.36180   1
 -10  -9   4 33.3898 5.53228   6
 -10   9  -4 37.0802 6.68767   1
  10  -9  -4 34.7671 5.94280   8
  10   9   4 36.5151 5.60897   8
 -10  -9   4 36.3848 5.50495   3
  11   9  -4 649.062 65.2615   8
 -11  -9  -4 668.051 70.0473   1
  11  -9   4 752.180 66.0032   8
 -11   9   4 621.383 70.2503   1
 -11  -9   4 728.524 70.4632   1
 -11  -9   4 646.797 64.4687   6
  11  -9  -4 633.791 65.5716   8
 -11  -9   4 583.062 62.6733   3
  11   9   4 584.593 65.1162   8
 -11   9  -4 593.758 70.3605   1
   0 -10  -4 1814.68 180.791   1
   0  10   4 1443.69 199.009   4
   0 -10   4 1417.62 180.584   1
   0  10   4 1775.95 182.561   2
   0 -10  -4 1784.27 182.656   2
   0  10  -4 1830.23 182.717   2
   0 -10   4 1750.13 182.600   2
  -1 -10  -4 27.2688 5.16650   2
  -1  10   4 15.0244 4.14112   2
   1  10  -4 25.6713 4.88746   2
   1 -10   4 29.0401 5.08141   2
  -1 -10  -4 37.6840 5.69370   1
  -1  10   4 24.4239 4.78550   1
  -1 -10   4 30.5514 5.31473   2
   1  10   4 26.6198 5.38941   4
  -1  10  -4 28.8822 5.26367   2
  -1  10  -4 22.7066 4.98747   2
   1  10   4 27.0057 4.90657   2
   1 -10  -4 21.5151 4.62354   2
  -1  10  -4 21.3123 4.98269   1
  -1 -10   4 16.2493 4.50784   1
  -2  10   4 678.488 66.8380   2
   2 -10   4 577.460 66.7024   2
   2  10  -4 598.973 66.5550   2
  -2 -10  -4 485.778 65.9254   1
  -2  10   4 687.984 66.1169   1
   2  10   4 709.426 66.9501   2
  -2  10  -4 624.340 66.8670   2
   2 -10  -4 524.636 66.5852   2
  -2  10  -4 670.386 66.3932   1
   2  10   4 533.447 72.6162   4
   3 -10   4 883.334 114.141   2
  -3 -10  -4 1036.65 113.409   1
  -3  10   4 1080.11 113.093   1
   3 -10  -4 1181.96 114.577   2
  -3  10  -4 1078.90 113.422   1
  -4 -10  -4 628.627 77.3835   1
  -4  10   4 785.189 77.4123   1
   4  10  -4 614.854 72.2020   8
   4 -10   4 621.595 77.9256   2
   4  10  -4 856.495 86.9666   4
   4  10  -4 823.412 78.2004   2
  -4 -10   4 587.537 77.2535   1
   4  10   4 685.668 78.0106   2
   4 -10  -4 780.006 78.1083   2
  -4  10  -4 793.945 77.7487   1
   5  10  -4 77.8263 8.54443   2
   5 -10   4 55.9334 8.60931   2
  -5 -10  -4 65.8260 9.15843   1
  -5  10   4 61.0166 8.66517   1
   5  10  -4 56.1279 10.4680   4
   5  10  -4 53.5654 7.75718   8
   5  10   4 65.6662 8.25040   2
  -5 -10   4 62.4360 9.02091   1
   5 -10  -4 63.3754 8.48314   2
  -5  10  -4 51.6450 8.70710   1
   5  10   4 36.0501 8.73480   4
   5  10   4 67.5434 8.03256   8
   6  10  -4 28.6992 7.22006   4
  -6  10   4 22.7384 5.51951   1
   6  10  -4 36.8906 4.97460   2
  -6 -10  -4 46.1920 6.70982   1
   6  10  -4 35.4708 5.50976   8
   6 -10   4 34.4373 5.86801   2
  -6 -10   4 37.6648 6.38901   1
   6  10   4 33.2947 5.30923   8
   6  10   4 25.6795 6.48056   4
   6 -10  -4 31.5457 5.62031   2
  -6  10  -4 28.7228 6.10625   1
  -6 -10   4 33.0352 5.75447   6
   6  10   4 36.5311 5.11786   2
   7  10  -4 49.8613 6.91978   8
   7 -10   4 49.0642 6.88081   2
  -7 -10  -4 49.2766 7.91656   1
  -7  10   4 38.0947 7.20484   1
   7  10  -4 28.2729 8.25616   4
  -7  10  -4 55.2707 8.19153   1
   7  10   4 58.8655 7.13629   8
   7  10   4 40.4161 8.73876   4
   7 -10  -4 51.5532 6.97943   2
   7 -10  -4 44.3513 7.05491   8
  -7 -10   4 45.0406 7.51243   1
  -7 -10   4 62.0339 7.89045   6
   8 -10   4 34.0200 6.34976   8
   8  10  -4 49.0580 9.09891   4
  -8  10   4 31.7195 6.38024   1
   8  10  -4 43.8829 6.23497   8
  -8 -10  -4 34.3442 6.54420   1
  -8 -10   4 47.0088 7.11968   1
  -8  10  -4 37.4173 6.84227   1
   8 -10  -4 40.3962 6.36823   8
  -8 -10   4 29.0754 5.80397   6
   8  10   4 35.3070 5.79300   8
   8  10   4 48.5301 8.90825   4
  -9 -10  -4 29.3633 5.55341   1
   9  10  -4 27.0823 5.07891   8
   9 -10   4 27.4169 5.63612   8
  -9  10   4 28.9318 5.44719   1
   9 -10  -4 25.1636 5.15102   8
   9  10   4 27.1909 4.80760   8
  -9 -10   4 19.0586 4.42899   6
  -9  10  -4 21.4801 5.36375   1
  -9 -10   4 33.3260 6.02302   1
 -10 -10  -4 193.871 21.9561   1
 -10  10   4 207.987 22.2452   1
  10 -10   4 175.029 20.7852   8
  10  10  -4 183.571 20.3736   8
 -10 -10   4 185.169 20.0616   6
 -10 -10   4 169.115 19.5707   3
  10  10   4 188.626 20.3263   8
 -10 -10   4 168.016 21.9636   1
 -10  10  -4 186.856 22.3485   1
  10 -10  -4 219.525 20.9375   8
   0  11   4 -1.1518 2.73839   4
   0 -11   4 -0.0619 2.59641   1
   0 -11  -4 -1.2559 2.13795   2
   0 -11   4 -1.8812 2.63849   2
   0  11  -4 0.68082 2.46540   2
   0  11   4 4.09472 2.81999   2
  -1 -11  -4 377.351 51.6997   2
  -1 -11  -4 541.923 51.8292   1
  -1  11   4 468.959 51.9175   2
   1 -11   4 450.959 51.9532   2
   1  11  -4 463.483 51.9067   2
  -1  11  -4 407.867 51.9167   2
   1  11   4 487.968 56.5887   4
   1 -11  -4 500.347 52.1751   2
  -1  11  -4 509.140 52.1404   2
  -1 -11   4 547.319 52.2686   2
  -1 -11   4 410.985 51.3977   1
   2  11  -4 995.927 114.587   2
  -2 -11  -4 1185.13 114.139   1
   2 -11   4 1084.85 114.940   2
  -2  11   4 1006.22 114.763   2
  -2  11   4 1012.67 113.509   1
  -2 -11   4 889.456 113.562   1
   2  11   4 1085.99 114.928   2
  -2  11  -4 1018.21 115.043   2
   2 -11  -4 1095.25 114.992   2
  -2  11  -4 1178.53 115.145   2
   3 -11   4 202.898 24.1098   2
   3  11  -4 194.055 23.8505   2
  -3 -11  -4 175.950 23.8853   1
  -3  11   4 209.781 23.8144   1
   3  11   4 206.406 24.0858   2
   3  11   4 235.443 26.5875   4
   3 -11  -4 223.312 24.2080   2
  -3  11  -4 210.081 24.2393   1
  -4  11   4 661.525 68.0275   1
   4  11  -4 543.019 68.3816   2
  -4 -11  -4 517.031 68.0121   1
   4 -11   4 628.413 68.6998   2
   4  11  -4 661.049 76.4368   4
   4  11   4 611.764 75.0972   4
   4  11   4 672.094 68.7465   2
  -4  11  -4 718.940 68.5985   1
   5  11  -4 96.9589 17.8889   4
  -5 -11  -4 100.333 15.0488   1
   5  11  -4 112.420 14.8143   2
   5 -11   4 119.108 15.1484   2
  -5  11   4 132.394 15.1797   1
  -5 -11   4 145.985 15.6511   1
   5 -11  -4 97.0483 14.7697   2
   5  11   4 137.048 14.9261   2
   5  11   4 148.219 17.3085   4
  -5  11  -4 144.142 15.7581   1
   6 -11   4 227.691 22.7959   2
   6  11  -4 168.659 21.6513   2
   6  11  -4 170.124 25.6266   4
  -6  11   4 218.158 22.6218   1
  -6 -11  -4 148.466 22.2859   1
   6  11  -4 189.259 20.8205   8
   6  11   4 204.903 21.8882   2
  -6  11  -4 184.720 22.7253   1
  -6 -11   4 237.647 23.0420   1
   6  11   4 190.036 20.8620   8
   6  11   4 220.484 25.8268   4
   6 -11  -4 172.337 22.1905   2
  -7 -11  -4 71.5024 11.5516   1
   7  11  -4 73.7485 13.5550   4
   7 -11   4 90.8587 10.7347   2
  -7  11   4 102.139 11.5646   1
   7  11  -4 76.6012 10.3574   8
  -7  11  -4 85.3082 11.9971   1
   7  11   4 75.7675 10.5177   8
   7  11   4 75.7053 13.3829   4
   7 -11  -4 84.1022 10.7382   2
  -7 -11   4 90.8672 11.7162   1
  -8 -11  -4 395.977 51.9619   1
   8  11  -4 550.743 48.8319   8
  -8  11   4 531.390 52.3298   1
  -8 -11   4 411.958 52.0383   1
  -8 -11   4 528.189 48.2892   6
   8  11   4 384.145 57.8766   4
  -8  11  -4 502.788 52.5487   1
   8  11   4 477.900 48.4855   8
  -9  11   4 156.749 17.0748   1
  -9 -11  -4 143.858 16.9614   1
   9  11  -4 153.748 15.8292   8
  -9  11  -4 145.525 17.2820   1
  -9 -11   4 142.633 15.4165   6
   9  11   4 119.304 15.3102   8
  -9 -11   4 99.5744 16.4443   1
   0 -12  -4 2989.35 306.851   2
   0  12  -4 2688.30 306.569   2
   1  12  -4 9.74487 3.75380   2
   1 -12   4 -0.8042 2.52147   2
  -1 -12  -4 13.7274 3.95564   1
  -1  12   4 2.31198 2.85267   2
   1  12   4 2.54935 2.90915   2
   1  12   4 0.58342 3.64549   4
  -1 -12   4 4.37964 3.43610   1
   1 -12  -4 3.91135 3.06016   2
  -1  12  -4 11.5146 4.01465   2
  -1  12  -4 10.3832 3.98074   2
   2  12  -4 8.16798 3.08528   2
   2 -12   4 3.74203 2.97229   2
  -2  12   4 9.31669 3.82007   1
  -2  12   4 9.64904 3.79473   2
  -2 -12  -4 12.0665 4.01750   1
   2  12   4 7.93527 3.74898   4
   2 -12  -4 6.95054 3.51387   2
  -2 -12   4 11.4641 3.97026   1
   2  12   4 4.22065 2.99629   2
  -2  12  -4 5.47553 2.98438   2
  -2  12  -4 9.30452 4.16279   2
   3 -12   4 185.300 21.6821   2
  -3  12   4 199.185 21.5815   1
  -3 -12  -4 140.761 21.3116   1
   3  12  -4 161.884 21.2638   2
   3  12   4 178.639 21.6144   2
   3  12   4 213.933 23.9769   4
  -3  12  -4 197.042 21.9194   1
   3 -12  -4 205.876 21.7676   2
  -3 -12   4 165.030 21.5004   1
   4  12  -4 409.657 47.8049   2
  -4  12   4 485.441 47.7118   1
   4  12  -4 361.951 53.2792   4
  -4 -12  -4 358.691 47.5512   1
   4 -12   4 483.543 48.2460   2
  -4 -12   4 460.166 48.0028   1
   4  12   4 467.612 52.6842   4
  -4  12  -4 410.129 47.8161   1
   4 -12  -4 462.734 48.0881   2
   4  12   4 388.858 47.7359   2
   5 -12   4 97.6252 13.6308   2
  -5 -12  -4 119.199 14.4424   1
  -5  12   4 119.217 13.9970   1
   5  12  -4 109.197 13.6109   2
   5  12  -4 110.562 16.2973   4
  -5  12  -4 121.061 14.4688   1
   5  12   4 90.8538 13.2686   2
  -5 -12   4 145.592 14.8167   1
   5  12   4 93.7677 15.2076   4
   5 -12  -4 99.1482 13.7506   2
  -6  12   4 6.58581 3.64608   1
   6  12  -4 2.31373 3.97837   4
  -6 -12  -4 10.2753 3.91005   1
   6  12  -4 9.45962 2.93466   2
   6 -12   4 4.01755 3.22830   2
  -6 -12   4 3.16149 3.66300   1
  -6  12  -4 7.23774 3.90094   1
   6  12   4 5.45455 2.61576   2
   6 -12  -4 8.78588 3.52862   2
   6  12   4 -2.2996 4.09478   4
  -7 -12  -4 2.05993 3.00041   1
   7 -12   4 4.80147 3.25476   2
  -7  12   4 0.45496 3.18000   1
   7 -12  -4 5.11916 3.07706   2
   7  12   4 9.50554 3.80866   4
  -7 -12   4 14.2055 4.54636   1
  -7  12  -4 8.06622 4.07614   1
  -8  12   4 776.603 76.9387   1
  -8 -12  -4 608.770 76.6612   1
   8  12  -4 785.735 71.6990   8
  -8 -12   4 617.381 76.7144   1
   8  12   4 761.336 72.0309   8
  -8  12  -4 674.159 77.0134   1
   9  12  -4 44.8632 7.59449   8
  -9 -12  -4 40.8396 8.09486   1
  -9  12   4 62.3279 9.03317   1
  -9  12  -4 47.0591 8.86915   1
   9  12   4 69.5147 8.56996   8
  -9 -12   4 48.9373 8.44192   1
   0 -13  -4 3.72026 3.09004   2
   0 -13   4 1.20925 3.02843   2
   0  13  -4 4.20383 3.20926   2
   0  13   4 0.28444 3.20800   2
  -1  13   4 212.726 24.5251   2
   1 -13   4 202.420 24.3194   2
   1  13  -4 198.421 24.1246   2
   1 -13  -4 168.320 24.0015   2
  -1  13  -4 224.566 24.4592   2
  -1  13  -4 228.539 24.5999   2
   2 -13   4 19.2489 5.00391   2
   2  13  -4 20.6459 4.94227   2
  -2 -13  -4 24.3831 5.73914   1
   2  13   4 23.4271 5.55224   4
   2  13   4 13.2876 4.55968   2
  -2  13  -4 27.3856 5.96532   2
  -2  13  -4 33.6319 6.68016   2
   2 -13  -4 28.9215 5.63080   2
  -2 -13   4 16.8805 5.23753   1
   3 -13   4 411.679 44.7298   2
   3  13  -4 373.684 49.8373   4
   3  13  -4 362.776 44.2157   2
  -3 -13  -4 363.874 44.2769   1
  -3  13   4 397.920 44.1326   1
   3  13   4 387.603 44.6046   2
   3 -13  -4 314.652 44.1232   2
  -3  13  -4 433.504 44.6758   1
  -3 -13   4 472.381 44.7203   1
   3  13   4 460.108 48.9748   4
  -4 -13  -4 4.20757 3.46672   1
   4 -13   4 2.02630 3.23160   2
   4  13  -4 7.30199 3.19614   2
   4  13  -4 9.47433 4.68225   4
  -4  13   4 10.2158 4.06384   1
  -4  13  -4 5.73718 4.25440   1
   4  13   4 5.07510 4.12897   4
   4  13   4 11.8269 3.80755   2
  -4 -13   4 7.72102 3.67524   1
   4 -13  -4 1.81687 3.00180   2
   5  13  -4 1667.28 169.497   2
  -5 -13  -4 1362.64 168.131   1
  -5  13   4 1681.20 168.156   1
   5  13   4 1345.92 169.240   2
  -5  13  -4 1413.56 168.174   1
   5  13   4 1784.07 185.853   4
   5 -13  -4 1723.93 169.835   2
   5  13   4 1526.78 169.246   2
   6 -13   4 25.8913 5.55532   2
  -6  13   4 28.8578 6.02884   1
   6  13  -4 30.7291 5.06710   2
  -6 -13  -4 17.4376 5.16888   1
   6 -13  -4 26.0072 5.52823   2
   6  13   4 29.6525 5.01293   2
   6  13   4 22.5662 6.71347   4
  -6  13  -4 13.6802 5.10943   1
  -6 -13   4 23.9475 5.82087   1
  -7 -13  -4 743.121 96.4429   1
  -7  13   4 989.461 96.7719   1
   7 -13   4 949.447 97.0214   2
   7 -13  -4 970.932 97.0966   2
  -7  13  -4 773.312 96.5933   1
  -8 -13  -4 48.0827 7.77165   1
  -8  13   4 28.3476 6.74256   1
  -8  13  -4 41.7779 7.90503   1
  -8 -13   4 30.2121 6.97307   1
   0 -14   4 17.8827 5.61202   2
   0  14  -4 25.3027 5.74168   2
   0  14   4 20.8045 5.18379   2
   0 -14  -4 26.0264 5.89142   2
  -1  14   4 207.941 28.1246   2
   1  14  -4 258.932 28.2671   2
   1 -14   4 209.966 28.2257   2
  -1  14  -4 274.016 28.6621   2
   1 -14  -4 253.699 28.3674   2
   1  14   4 242.869 28.3899   2
   2 -14   4 74.1714 11.5234   2
  -2 -14  -4 81.1910 11.5792   1
   2  14  -4 86.0846 11.1079   2
   2 -14  -4 72.0848 11.0391   2
  -2 -14   4 70.9256 11.2409   1
   2  14   4 67.4021 11.1688   2
   3  14  -4 678.062 81.8211   4
   3  14  -4 564.599 73.0742   2
   3 -14   4 642.125 73.6072   2
  -3 -14  -4 745.591 73.4219   1
   3  14   4 649.180 80.2534   4
   3 -14  -4 759.533 73.8582   2
   3  14   4 635.715 73.5003   2
   4  14  -4 404.365 50.2704   4
   4  14  -4 374.300 44.0574   2
  -4  14   4 377.196 43.9164   1
  -4 -14  -4 331.856 43.8869   1
   4 -14   4 458.737 44.6661   2
   4  14   4 419.250 48.5640   4
   4  14   4 412.071 44.1958   2
  -4  14  -4 376.197 44.2280   1
  -4 -14   4 393.404 44.0612   1
   4 -14  -4 368.047 44.2225   2
   5 -14   4 375.682 37.9584   2
  -5  14   4 368.428 37.8418   1
   5  14  -4 310.155 37.3073   2
  -5 -14  -4 304.159 37.6836   1
   5  14   4 318.355 41.4374   4
  -5 -14   4 353.716 37.8193   1
   5  14   4 410.712 37.9830   2
   5  14   4 277.207 37.0095   2
   5 -14  -4 272.043 37.3681   2
  -5  14  -4 342.345 38.0122   1
   6 -14   4 442.639 55.9027   2
   6  14  -4 498.033 55.4538   2
  -6  14   4 544.779 56.0647   1
  -6 -14  -4 440.273 55.7834   1
   6 -14  -4 595.921 56.2705   2
   6  14   4 503.989 55.3696   2
  -6 -14   4 518.254 55.9685   1
  -6  14  -4 475.176 56.0758   1
   7 -14   4 2.43887 3.06998   2
  -7 -14  -4 6.30692 4.41075   1
  -7  14   4 0.03505 3.58137   1
  -7 -14   4 9.26516 4.57697   1
  -7  14  -4 4.12548 3.90405   1
   7 -14  -4 6.14762 3.57457   2
   0 -15  -4 2.39649 3.95616   2
   0 -15   4 -1.5273 3.11407   2
   0  15  -4 0.92299 3.41360   2
   0  15   4 3.17350 3.26646   2
   1 -15   4 484.700 61.3340   2
  -1  15   4 550.714 61.6671   2
   1  15  -4 601.487 61.4728   2
  -1  15  -4 536.386 61.4241   2
   1  15   4 464.603 61.2434   2
   1 -15  -4 670.195 61.8420   2
   2  15  -4 571.067 62.3977   2
   2 -15   4 493.907 62.4474   2
   2 -15  -4 579.141 62.6652   2
   2  15   4 598.657 62.9093   2
   3  15  -4 80.5411 10.6866   2
   3 -15   4 72.3596 10.8720   2
  -3 -15  -4 52.0771 10.0552   1
  -3 -15   4 82.2413 11.2343   1
   3  15   4 49.5519 9.69908   2
   3 -15  -4 70.7388 10.6185   2
   4  15  -4 358.827 42.8576   2
   4 -15   4 379.196 43.2262   2
  -4 -15  -4 402.130 43.2916   1
  -4 -15   4 409.756 43.2059   1
   4  15   4 351.231 42.7745   2
   4 -15  -4 379.930 43.2421   2
  -5 -15  -4 118.830 14.0013   1
  -5  15   4 108.598 13.7042   1
   5  15  -4 84.1040 12.3735   2
   5 -15   4 93.6234 12.8701   2
   5 -15  -4 97.0992 13.0960   2
  -5  15  -4 68.1258 12.9149   1
   5  15   4 92.2455 12.4370   2
  -5 -15   4 78.8218 13.2806   1
   5  15   4 99.4030 12.6566   2
   0 -16  -4 38.1743 7.87937   2
   0  16  -4 40.3667 7.54182   2
   0  16   4 31.9284 7.08377   2
   1  16  -4 98.6921 14.2520   2
   1 -16   4 115.720 15.0022   2
  -1  16   4 95.6066 15.2026   2
  -1  16  -4 115.413 14.9961   2
   1 -16  -4 88.7076 14.5419   2
   1  16   4 136.942 15.5444   2
   2  16  -4 825.966 111.242   2
   2 -16   4 1223.48 112.660   2
   2  16   4 971.784 111.928   2
   2 -16  -4 1096.96 112.191   2
   3 -16   4 78.1320 11.8118   2
   3  16  -4 65.4813 10.9987   2
   3  16   4 78.7652 11.3229   2
   3 -16  -4 68.5626 11.4972   2
   4 -16   4 7.97208 3.96851   2
  -4 -16  -4 1.30810 4.36881   1
   4  16  -4 -0.1410 3.31432   2
  -4 -16   4 6.45863 5.02475   1
   4  16   4 8.74439 3.73728   2
   4  16   4 5.23564 3.88488   2
   4 -16  -4 6.79777 4.19066   2
   0   0   5 2.63145 1.36411   2
   0   0  -5 -0.1095 1.16572   7
   0   0  -5 -0.6543 1.14666   2
   0   0   5 1.28854 1.21553   7
  -1   0   5 7.74933 1.75735   7
   1   0  -5 6.89080 1.64244   7
   1   0  -5 3.37522 1.45589   2
  -1   0  -5 6.07928 1.66146   7
   1   0   5 7.82992 2.16822   5
   1   0   5 6.49171 1.54686   7
   1   0   5 4.83389 1.73149   2
  -1   0  -5 7.18936 1.65747   2
  -2   0   5 1.15209 1.10217   7
   2   0  -5 0.16676 0.98549   2
   2   0  -5 1.13863 0.97360   7
  -2   0  -5 -0.3783 0.97748   7
   2   0   5 -0.1540 1.43168   5
   2   0   5 1.30157 0.86520   7
   2   0   5 -0.8508 1.03277   2
   3   0   5 647.967 69.1462   8
   3   0   5 663.356 74.9969   2
   3   0   5 649.003 77.8049   5
  -3   0  -5 758.897 74.3687   1
  -3   0  -5 762.870 75.3867   7
   3   0  -5 672.305 69.1125   8
  -3   0   5 757.067 75.3691   7
  -3   0   5 630.888 74.2049   1
   4   0   5 -0.1968 0.90630   8
   4   0  -5 1.32790 1.00136   2
   4   0   5 -0.4970 0.99628   2
  -4   0   5 -0.0155 1.06666   1
   4   0  -5 -0.8760 0.81044   8
  -4   0  -5 0.93373 1.22229   1
   4   0   5 0.08940 2.02814   4
  -4   0  -5 -0.9343 0.82483   7
  -4   0   5 0.17009 0.87284   7
  -4   0  -5 -0.8611 0.80673   3
   4   0  -5 0.34389 1.26827   4
   4   0   5 -0.7428 1.78698   5
   5   0   5 20.2685 4.53420   5
   5   0  -5 22.9196 4.03631   4
   5   0   5 33.5917 3.40950   8
  -5   0  -5 30.7965 3.81132   1
   5   0   5 24.1085 5.18447   4
   5   0  -5 21.8628 3.16162   8
  -5   0  -5 24.9243 3.14611   7
   5   0  -5 24.9779 3.03661   8
  -5   0  -5 26.6470 3.20219   7
  -5   0  -5 24.5935 3.18227   3
  -5   0   5 24.7344 3.49328   1
   5   0   5 22.8837 3.21065   8
  -5   0   5 27.3888 3.25173   3
   6   0   5 1.71507 0.97351   8
  -6   0   5 0.97397 1.15835   1
   6   0   5 1.06995 0.90603   8
   6   0   5 -0.9575 2.35687   4
  -6   0  -5 0.95576 0.94365   3
   6   0  -5 0.42213 1.28837   4
  -6   0   5 1.07351 0.97051   3
   6   0  -5 0.05165 0.73856   8
   6   0  -5 2.23337 1.02767   8
  -6   0  -5 1.83844 1.33466   1
   7   0  -5 934.091 88.2536   8
  -7   0   5 879.073 84.8492   3
  -7   0  -5 801.302 84.7739   3
   7   0   5 892.659 88.3072   8
  -7   0  -5 910.745 94.9944   1
   7   0  -5 847.745 88.1625   8
   7   0   5 822.138 105.934   4
  -7   0   5 966.696 94.9207   1
   7   0   5 916.188 88.3042   8
  -8   0  -5 1.24920 1.35622   1
   8   0   5 0.02892 0.99054   8
   8   0  -5 2.41726 0.95208   8
   8   0   5 -0.8793 2.84500   4
   8   0  -5 -0.0470 0.73038   8
  -8   0   5 0.03878 1.06460   3
  -8   0   5 0.26217 1.19572   1
   8   0   5 0.69426 0.91831   8
  -8   0  -5 0.47232 0.99540   3
   9   0  -5 94.7443 9.33452   8
   9   0   5 92.0264 9.44608   8
  -9   0  -5 100.491 10.6123   1
  -9   0   5 86.3652 9.19596   3
   9   0  -5 87.3607 9.24149   8
  -9   0  -5 89.0223 9.19282   3
  -9   0   5 76.7089 10.2960   1
   9   0   5 91.4738 9.45699   8
   9   0   5 100.150 13.7829   4
  10   0  -5 0.80670 0.89385   8
 -10   0   5 0.32040 1.12862   3
  10   0  -5 -0.1521 1.05191   8
 -10   0  -5 1.17219 1.65059   1
 -10   0   5 0.34420 1.45896   1
  10   0   5 -0.2225 3.12515   4
 -10   0  -5 -0.4731 1.01621   3
  10   0   5 0.61883 1.15730   8
 -11   0  -5 27.8726 3.96052   3
  11   0  -5 29.3382 3.90677   8
 -11   0   5 30.5064 4.47795   1
  11   0   5 28.7880 3.84449   8
  11   0  -5 31.8838 3.63905   8
 -11   0  -5 30.0452 4.78630   1
 -11   0   5 31.9119 3.93632   3
 -12   0  -5 0.62176 2.32664   1
  12   0  -5 0.89206 1.13357   8
  12   0   5 -0.4704 1.24132   8
 -12   0   5 1.73498 1.31423   3
 -12   0  -5 0.87091 1.46666   3
   0   1  -5 51.5353 5.09318   2
   0  -1  -5 28.7172 4.80395   7
   0  -1  -5 37.2714 4.85383   2
   0   1  -5 35.8319 4.95072   7
   0  -1   5 40.6359 4.98288   7
   0  -1   5 32.2868 4.92487   2
   0   1   5 42.4067 4.87298   7
   1  -1   5 11.1078 2.11828   2
   1   1  -5 14.4941 2.10549   2
  -1  -1  -5 10.6741 2.01599   7
  -1   1   5 10.6635 2.02975   7
   1   1  -5 10.9157 1.98615   7
  -1   1   5 8.78378 2.01905   2
   1  -1   5 9.59877 2.54168   5
  -1  -1  -5 9.81787 1.98575   2
   1  -1   5 12.0273 2.02950   7
  -1   1  -5 5.76436 1.94461   2
  -1   1  -5 10.6974 2.08044   7
   1   1   5 6.15760 1.74983   7
  -1  -1   5 13.7740 2.30258   7
   1  -1  -5 7.97511 1.88593   7
   1  -1  -5 6.43889 1.87909   2
   1   1   5 7.75579 2.05214   2
  -1  -1   5 9.35303 2.25103   2
  -2   1   5 59.5435 7.84393   7
   2  -1   5 57.0635 7.71199   7
   2   1  -5 66.1894 7.84241   2
   2  -1   5 75.0073 8.67247   5
  -2  -1  -5 72.1460 7.91409   7
   2  -1   5 67.9506 7.74320   7
   2   1  -5 56.7815 7.60709   7
   2  -1   5 72.5911 8.09235   2
   2   1   5 59.2678 7.58650   7
   2  -1  -5 79.1378 8.06920   2
   2   1   5 83.6856 8.69440   5
   2  -1  -5 54.0974 7.61869   7
   2   1   5 81.0043 8.04225   2
   2  -1  -5 73.5794 8.12501   4
  -2   1  -5 66.3821 7.92174   7
   2   1   5 63.6774 8.86354   4
  -2  -1   5 65.7856 7.87657   7
   3  -1   5 44.4961 6.36687   5
   3   1  -5 54.8240 5.16919   8
   3  -1   5 35.1419 5.11452   8
   3   1  -5 65.0697 6.66040   4
  -3   1   5 46.6141 5.62282   7
   3  -1   5 40.5077 5.65144   2
  -3  -1  -5 42.9817 5.62791   1
   3   1  -5 50.0349 5.61066   2
  -3  -1  -5 46.9389 5.54794   7
   3   1   5 45.2939 6.40390   5
  -3  -1   5 40.2451 5.48350   7
  -3   1  -5 50.1264 5.60481   7
   3  -1  -5 38.3841 5.06570   8
  -3   1  -5 48.8651 5.79838   1
   3   1   5 44.7650 6.78221   4
   3  -1  -5 46.4702 5.76898   4
   3   1   5 40.9309 5.14271   8
   3   1   5 44.0179 5.67502   2
  -3  -1   5 48.9078 5.58424   1
   3  -1  -5 49.6171 5.68198   2
  -4  -1  -5 1.89546 0.91450   7
   4  -1   5 2.64042 2.16374   5
   4  -1   5 1.51006 0.94857   8
   4   1  -5 2.46007 1.00346   2
  -4  -1  -5 1.87729 0.99076   3
   4   1  -5 0.92345 1.60460   4
  -4   1   5 1.29325 1.27365   1
   4   1  -5 1.81018 0.90882   8
   4  -1   5 0.22791 1.08442   2
  -4   1   5 1.78885 1.00176   7
  -4  -1  -5 2.36867 1.21557   1
   4   1   5 0.72755 1.07689   2
   4  -1  -5 1.40957 1.03645   2
   4   1   5 4.19623 1.12308   8
  -4   1  -5 2.41561 0.98776   7
   4  -1  -5 1.43244 0.93891   8
   4  -1  -5 1.56938 1.05363   4
  -4   1  -5 3.17941 1.39320   1
  -4  -1   5 2.97060 0.94163   7
  -4  -1   5 0.79657 1.02286   1
   4   1   5 0.98237 1.96882   4
   4   1   5 0.42978 2.07297   5
  -4   1  -5 2.74205 1.11015   3
  -5   1   5 183.239 21.4548   7
   5  -1   5 226.716 20.0066   8
   5   1  -5 228.231 19.9917   8
  -5  -1  -5 159.333 19.1137   3
   5  -1   5 192.133 21.2441   2
   5   1  -5 203.398 19.8479   8
   5  -1   5 185.994 21.2192   2
  -5  -1  -5 155.457 21.4345   1
  -5  -1  -5 204.699 21.4754   7
  -5   1  -5 193.642 19.2225   3
  -5  -1   5 207.101 19.2391   3
  -5  -1   5 220.465 21.5470   1
   5  -1  -5 226.682 23.7810   4
   5   1   5 204.597 19.9957   8
   5  -1  -5 204.904 19.9102   8
   5   1   5 169.956 22.8235   5
  -5   1  -5 167.547 21.5202   1
   5  -1  -5 195.491 19.8889   8
   5   1   5 194.610 24.6744   4
   5   1   5 204.382 19.9258   8
  -5   1  -5 200.483 21.5624   7
  -6   1   5 7.73636 2.05526   1
  -6   1   5 9.86824 1.91160   3
   6   1  -5 13.3660 1.82540   8
   6   1  -5 9.63591 1.58731   8
   6  -1   5 11.5024 1.83826   8
  -6  -1  -5 14.2130 1.99371   3
  -6  -1  -5 9.87620 2.13416   1
   6   1  -5 13.9571 3.09753   4
   6  -1   5 12.3942 1.89702   8
  -6  -1   5 8.45734 1.76376   3
   6  -1  -5 13.8224 1.86865   8
   6   1   5 9.74968 1.73738   8
   6  -1  -5 13.0697 1.80052   8
  -6   1  -5 11.6557 2.28492   1
  -6   1  -5 10.6685 1.87312   3
  -6   1  -5 11.8037 1.60902   7
   6   1   5 5.98228 3.10200   4
   6  -1  -5 12.7607 2.77211   4
   6   1   5 9.96647 1.87057   8
  -6  -1   5 7.56413 1.90002   1
  -7   1   5 0.17228 0.93070   3
   7  -1   5 -0.1506 0.99290   8
   7   1  -5 0.40676 1.95818   4
  -7   1   5 0.74749 1.26030   1
   7   1  -5 -0.8350 0.72963   8
   7   1  -5 1.48659 0.73453   8
  -7  -1  -5 0.17652 1.10773   1
   7  -1   5 1.78849 1.07287   8
  -7  -1  -5 -0.0196 0.96050   3
   7  -1  -5 1.03414 1.01242   8
   7   1   5 1.22847 1.09021   8
  -7  -1   5 1.54874 1.09378   3
   7   1   5 1.61004 0.99928   8
   7  -1  -5 2.82751 0.99144   8
   7   1   5 1.93719 2.54815   4
  -7   1  -5 -0.7756 1.35730   1
  -7  -1   5 -0.4967 1.04088   1
  -7   1  -5 1.77279 1.14669   3
  -8   1   5 282.141 36.4264   1
   8  -1   5 371.961 33.9067   8
   8   1  -5 323.893 33.6028   8
   8   1  -5 312.500 40.8326   4
  -8  -1  -5 343.747 36.5029   1
  -8   1   5 395.347 32.7042   3
   8   1  -5 372.834 33.6636   8
  -8  -1  -5 318.491 32.5687   3
   8  -1   5 306.911 33.8108   8
   8   1   5 332.979 33.7992   8
  -8   1  -5 313.874 36.5807   1
  -8  -1   5 368.221 36.5154   1
  -8   1  -5 329.708 32.6286   3
   8  -1  -5 340.364 33.7523   8
  -8  -1   5 324.942 32.5320   3
   8  -1  -5 344.691 33.7396   8
  -9   1   5 131.822 12.5847   3
   9   1  -5 137.463 12.7151   8
   9  -1   5 125.568 12.9268   8
  -9  -1  -5 125.580 12.5566   3
  -9  -1  -5 103.863 14.0404   1
   9   1  -5 118.236 12.6486   8
  -9   1   5 145.773 14.2313   1
   9   1   5 120.256 12.8803   8
   9   1   5 102.619 12.8160   8
  -9  -1   5 122.946 14.0545   1
  -9   1  -5 127.523 12.6653   3
   9  -1  -5 128.181 12.8442   8
  -9   1  -5 144.346 14.4209   1
  -9  -1   5 138.975 12.5823   3
   9   1   5 130.782 17.5296   4
   9  -1  -5 115.761 12.7988   8
 -10   1   5 20.2415 3.56945   1
 -10  -1  -5 28.2299 3.95529   1
 -10  -1  -5 21.1973 3.13747   3
  10  -1   5 21.6531 3.09113   8
 -10   1   5 21.7347 3.07935   3
  10   1  -5 23.3173 2.81452   8
  10   1  -5 22.7736 2.93285   8
 -10   1  -5 26.0005 3.46521   3
  10   1   5 21.1731 6.39078   4
  10  -1  -5 24.4055 3.09092   8
  10   1   5 23.4410 3.06736   8
  10  -1  -5 22.4402 3.00410   8
 -10  -1   5 22.0779 3.59711   1
 -10   1  -5 25.5565 4.04916   1
 -10  -1   5 26.9697 3.33036   3
  11   1  -5 125.763 13.9604   8
  11  -1   5 129.960 14.1250   8
 -11  -1  -5 147.172 13.7171   3
 -11   1   5 135.753 15.3544   1
 -11   1   5 144.108 13.6754   3
  11   1  -5 133.352 13.8697   8
 -11  -1  -5 138.184 15.5388   1
  11   1   5 114.704 18.8948   4
  11   1   5 127.775 14.0567   8
 -11  -1   5 126.433 15.3182   1
 -11   1  -5 139.233 13.8594   3
 -11   1  -5 146.754 15.7530   1
 -11  -1   5 153.530 13.7679   3
  11  -1  -5 143.402 14.0662   8
  12   1  -5 310.352 30.8375   8
  12  -1   5 295.782 31.0384   8
 -12  -1  -5 260.687 33.6009   1
 -12  -1  -5 296.423 29.8977   3
 -12   1   5 350.300 29.9802   3
  12  -1  -5 304.584 30.9848   8
  12   1   5 323.680 31.0636   8
 -12  -1   5 319.029 29.9555   3
 -12   1  -5 318.707 33.7613   1
 -12   1  -5 288.040 30.0385   3
   0  -2   5 1.01753 1.42076   2
   0  -2  -5 -0.7939 1.07135   2
   0  -2  -5 0.44300 1.16327   7
   0   2  -5 1.14890 1.28882   7
   0   2   5 -1.9725 1.17073   2
   0   2   5 -1.1586 0.90928   4
   0   2   5 1.19801 1.28179   7
   0   2  -5 1.36219 1.53929   2
   0  -2   5 2.35978 1.48402   7
   0  -2   5 1.09560 1.46084   5
  -1  -2  -5 128.084 11.9648   2
   1   2  -5 99.4674 11.8771   2
  -1  -2  -5 112.035 11.8714   7
   1  -2   5 77.5736 11.7664   2
   1  -2   5 74.1825 12.2342   5
   1   2  -5 117.686 11.9326   7
  -1   2   5 104.454 11.8943   2
  -1   2   5 100.679 11.8163   7
   1  -2  -5 118.307 11.9101   7
  -1  -2   5 88.8283 11.8799   7
   1   2   5 103.034 11.7965   7
  -1  -2   5 94.3778 11.9482   2
   1   2   5 110.816 12.9681   4
  -1   2  -5 106.885 12.1082   2
   1  -2  -5 125.724 12.0557   2
   2  -2   5 2.50234 1.77771   5
  -2   2   5 -2.1892 1.07133   1
  -2  -2  -5 1.07970 1.14049   7
  -2   2   5 0.81748 1.09155   7
   2  -2   5 2.25725 1.51929   2
  -2  -2  -5 3.02108 1.43460   1
   2  -2   5 0.46614 1.05388   7
   2   2  -5 -0.6309 0.98255   2
   2  -2   5 0.95146 1.06075   7
   2  -2  -5 2.97414 1.34152   2
  -2   2  -5 1.27681 1.28335   7
  -2  -2   5 -1.6113 1.07799   1
  -2  -2   5 -1.4672 0.96898   7
   2  -2  -5 1.21119 1.12678   7
   2   2   5 1.34605 0.90490   7
   2   2   5 0.14548 1.56889   4
   2   2   5 -0.8842 1.21390   2
  -3  -2  -5 189.774 20.8263   7
  -3  -2  -5 196.499 20.6820   1
   3   2  -5 174.960 20.7143   2
   3  -2   5 208.990 19.3963   8
  -3   2   5 198.638 20.9068   7
   3   2  -5 162.569 23.0068   4
   3  -2   5 176.969 21.9358   5
   3   2  -5 151.373 19.0816   8
  -3   2   5 205.054 20.7460   1
   3  -2   5 154.854 20.8510   2
  -3   2  -5 221.110 20.9968   7
   3   2   5 169.257 20.8203   2
  -3   2  -5 207.933 20.9015   1
   3   2   5 228.313 22.1115   5
  -3  -2   5 188.991 20.8374   7
   3   2   5 162.677 23.0849   4
   3  -2  -5 226.789 19.2737   8
   3   2   5 179.745 19.1898   8
  -4   2   5 362.729 36.2552   1
   4   2  -5 380.987 36.3865   2
   4  -2   5 330.338 36.5184   2
   4   2  -5 326.549 40.2102   4
  -4  -2  -5 281.428 36.1274   1
  -4   2   5 294.119 36.5862   7
   4  -2   5 375.176 38.4870   5
   4  -2   5 332.304 33.7742   8
  -4  -2  -5 311.817 32.2976   3
  -4  -2  -5 351.696 36.5544   7
   4   2   5 366.168 33.7252   8
   4   2   5 319.821 36.3663   2
   4  -2  -5 344.208 39.7048   4
  -4   2  -5 323.116 36.6091   7
  -4  -2   5 293.673 36.5155   7
   4   2   5 342.624 40.6253   4
   4  -2  -5 376.678 33.7204   8
  -4   2  -5 310.291 36.6768   7
  -4   2  -5 323.578 36.3586   1
   4  -2  -5 354.988 36.4531   2
  -4   2  -5 383.062 32.5140   3
  -4  -2   5 303.841 36.1226   1
  -5   2   5 51.3143 5.51112   7
  -5   2   5 56.1460 5.08539   3
   5   2  -5 50.0667 5.07197   8
   5  -2   5 45.0514 5.37322   2
  -5  -2  -5 37.3259 5.58528   1
   5   2  -5 52.4071 5.18645   8
  -5  -2  -5 36.4704 4.89123   3
   5   2  -5 41.0727 6.66702   4
   5  -2   5 44.1669 5.25024   8
   5  -2   5 49.9912 5.36353   2
  -5   2   5 44.6038 5.67652   1
   5  -2  -5 44.7032 5.10003   2
   5  -2  -5 48.3031 5.13266   2
   5   2   5 55.9968 6.68009   5
   5   2   5 38.1044 5.08047   8
  -5   2  -5 52.3570 5.22673   3
  -5   2  -5 35.8503 5.79501   1
   5  -2  -5 54.3144 6.40874   4
   5   2   5 52.8185 7.43121   4
  -5  -2   5 35.5315 5.50814   1
  -5  -2   5 50.5835 5.22366   3
   5  -2  -5 46.2271 5.25191   8
   5   2   5 41.1261 5.13189   8
   5  -2  -5 41.6255 5.09758   8
  -5   2  -5 49.4453 5.53161   7
   6   2  -5 412.857 46.3504   4
  -6   2   5 405.330 37.0762   3
  -6   2   5 343.245 41.7582   7
  -6  -2  -5 392.089 37.0642   3
   6   2  -5 382.547 38.4306   8
   6   2  -5 398.313 38.5098   8
   6  -2   5 458.907 38.7147   8
  -6  -2  -5 378.942 41.5141   1
   6  -2   5 350.515 38.5930   8
  -6   2   5 385.245 41.5750   1
  -6  -2   5 336.057 41.4135   1
  -6   2  -5 390.418 41.8970   7
  -6  -2   5 327.055 37.0828   3
  -6   2  -5 351.133 37.1635   3
   6   2   5 425.027 38.6082   8
   6   2   5 402.753 38.5915   8
   6   2   5 466.194 44.0925   5
   6  -2  -5 362.946 38.6068   8
   6  -2  -5 378.514 38.5458   8
  -6   2  -5 376.688 41.6930   1
   7  -2   5 108.183 10.9563   8
  -7  -2  -5 116.968 11.9435   1
  -7   2   5 103.898 11.9387   1
  -7  -2  -5 98.1936 10.4986   3
   7   2  -5 122.219 14.0890   4
   7   2  -5 94.9731 10.7030   8
   7  -2   5 116.654 11.1940   8
   7   2  -5 99.4631 10.7682   8
  -7   2   5 106.860 10.5299   3
   7   2   5 112.528 10.9537   8
  -7  -2   5 91.7773 10.6073   3
   7   2   5 112.344 14.6633   4
  -7   2  -5 100.044 10.6864   3
   7   2   5 108.776 10.8978   8
  -7   2  -5 114.126 12.1636   1
  -7  -2   5 87.5929 11.7384   1
   7  -2  -5 94.2551 10.8878   8
   7  -2  -5 115.662 10.9234   8
   8  -2   5 6.96379 1.64582   8
   8   2  -5 6.51353 1.30891   8
  -8  -2  -5 4.90904 1.46132   3
   8   2  -5 6.72273 1.38828   8
  -8   2   5 6.52932 1.93342   1
   8   2  -5 10.5504 3.38867   4
  -8   2   5 7.10258 1.62270   3
  -8  -2  -5 8.30644 2.02406   1
  -8   2  -5 6.31628 1.67566   3
   8  -2  -5 6.94608 1.54869   8
   8   2   5 7.81760 1.61260   8
   8   2   5 2.83029 4.10332   4
  -8  -2   5 7.00846 1.88385   1
   8  -2  -5 8.07475 1.71780   8
   8   2   5 8.45964 1.76397   8
  -8  -2   5 9.08945 1.83588   3
  -8   2  -5 6.63600 2.19358   1
   9  -2   5 12.1126 2.33721   8
  -9  -2  -5 15.7965 2.48511   3
  -9   2   5 12.7069 2.32078   3
   9   2  -5 16.5482 2.20410   8
   9   2  -5 16.8879 2.09257   8
   9   2  -5 18.9066 4.91990   4
  -9   2   5 14.3178 2.90039   1
  -9  -2  -5 14.3709 2.79363   1
   9   2   5 13.4618 4.64834   4
   9  -2  -5 16.1427 2.40517   8
  -9  -2   5 19.4185 2.61133   3
  -9   2  -5 11.6802 3.07380   1
   9   2   5 14.6095 2.35981   8
   9   2   5 18.6442 2.63589   8
  -9  -2   5 14.6337 2.81621   1
  -9   2  -5 11.8649 2.38129   3
 -10  -2  -5 246.542 27.3153   1
 -10  -2  -5 229.242 24.3476   3
  10   2  -5 273.701 25.1379   8
 -10   2   5 275.900 24.4409   3
  10  -2   5 223.168 25.3067   8
  10   2  -5 270.159 25.0575   8
 -10   2  -5 212.428 27.4446   1
  10   2   5 271.249 25.2679   8
  10   2   5 337.867 33.2916   4
 -10  -2   5 241.125 24.3489   3
  10  -2  -5 250.585 25.2936   8
 -10  -2   5 216.066 27.1840   1
 -10   2  -5 234.906 24.5062   3
 -11  -2  -5 -0.4583 1.78132   1
 -11   2   5 -0.5905 1.85143   1
 -11  -2  -5 1.44092 1.43206   3
 -11   2   5 -1.1133 1.29995   3
  11  -2   5 0.27655 1.36460   8
  11   2  -5 0.37899 1.08272   8
 -11   2  -5 -0.0748 1.95868   1
  11   2   5 -0.6917 3.91223   4
  11  -2  -5 0.80808 1.36000   8
 -11  -2   5 -2.4082 1.29713   3
 -11  -2   5 3.98805 1.94858   1
  11   2   5 -0.1355 1.27730   8
 -11   2  -5 4.66719 1.83292   3
 -12   2   5 18.3994 2.97085   3
 -12  -2  -5 15.7779 2.81341   3
 -12  -2  -5 22.9674 3.78221   1
  12  -2   5 18.8157 3.18841   8
  12   2  -5 16.7609 2.59081   8
 -12   2   5 18.4797 3.59211   1
 -12   2  -5 17.4495 3.09210   3
 -12  -2   5 15.1970 2.86552   3
  12   2   5 19.0518 2.93780   8
  12  -2  -5 19.9624 3.01216   8
 -12   2  -5 20.5196 3.90696   1
   0   3   5 2.22433 1.09594   4
   0  -3   5 1.47116 1.65510   5
   0   3  -5 0.62913 1.43921   2
   0  -3   5 0.71055 1.52157   2
   0   3  -5 2.72837 1.54303   7
   0   3   5 0.10879 1.04715   7
   0  -3  -5 2.50454 1.57765   2
   0  -3   5 2.97894 1.57857   7
   0   3   5 -0.2518 1.30960   2
   0  -3  -5 3.04716 1.41414   7
  -1  -3  -5 180.844 16.6289   2
   1  -3   5 128.549 16.5025   2
   1   3  -5 152.002 16.6380   2
  -1   3   5 119.550 16.3804   7
   1  -3   5 167.712 17.2168   5
  -1   3   5 136.887 16.4263   2
  -1   3   5 158.608 17.3552   4
   1   3  -5 110.126 16.3787   7
  -1  -3   5 138.213 16.5591   2
   1   3   5 122.702 17.6745   4
  -1  -3   5 179.188 17.1047   5
  -1   3  -5 147.978 16.5232   7
  -1  -3   5 143.298 16.4652   7
   1  -3  -5 176.574 16.5670   2
   1   3   5 162.020 16.4236   7
  -1   3  -5 137.515 16.5981   2
   1  -3  -5 131.329 16.3760   7
   1   3   5 131.956 16.4366   2
   2  -3   5 679.365 68.8281   7
  -2  -3  -5 595.338 67.8562   1
   2  -3   5 615.513 68.7678   7
  -2   3   5 706.501 68.8993   7
   2   3  -5 578.226 68.5218   2
   2   3  -5 664.420 63.2561   8
  -2   3   5 715.847 68.6665   2
   2  -3   5 657.028 68.6626   2
  -2  -3  -5 557.197 68.8405   7
   2   3   5 655.546 74.9347   4
  -2  -3   5 687.736 68.9626   7
  -2  -3   5 660.030 67.9230   1
   2   3   5 512.608 68.4886   2
   2   3   5 626.580 68.7330   7
   2  -3  -5 579.567 68.5526   2
  -2   3  -5 624.107 69.0248   7
   3  -3   5 32.5426 4.27128   2
  -3  -3  -5 30.9923 3.89906   7
  -3  -3  -5 21.9353 3.92365   1
   3   3  -5 30.5076 3.95498   2
   3   3  -5 28.8288 3.60836   8
   3  -3   5 21.0288 4.62260   5
   3  -3   5 27.5342 3.75890   8
  -3   3   5 30.8905 4.17734   1
  -3   3   5 32.4704 3.99294   7
   3   3   5 27.2183 4.01343   2
  -3   3  -5 26.7672 4.11578   7
  -3  -3   5 24.8740 3.88798   7
   3   3   5 26.9589 4.66622   4
   3   3   5 33.2099 4.79927   5
  -3   3  -5 28.7043 4.41620   1
   3  -3  -5 24.2370 3.99672   2
   3  -3  -5 28.9065 3.66986   8
  -3  -3   5 24.5434 3.96425   1
   3   3   5 35.3950 3.75807   8
  -4   3   5 1.75835 1.24280   7
   4  -3   5 1.34893 1.27929   2
   4   3  -5 3.27765 2.34425   4
  -4  -3  -5 7.71393 1.65308   1
   4   3  -5 2.36035 1.05983   8
  -4  -3  -5 2.27698 1.04119   7
   4  -3   5 1.70872 1.12249   8
  -4   3   5 0.56688 1.18398   1
   4   3  -5 2.28847 1.04185   2
  -4  -3  -5 2.31422 1.06177   3
   4  -3  -5 2.82809 1.35340   2
  -4   3  -5 1.30735 1.26612   7
  -4  -3   5 1.45557 1.33657   1
  -4   3  -5 1.18855 1.10298   3
   4   3   5 2.33600 1.96018   5
   4   3   5 1.76653 1.11870   2
   4   3   5 2.19313 1.10462   8
   4   3   5 1.53707 2.02163   4
  -4   3  -5 1.09303 1.56115   1
  -4  -3   5 1.43300 1.12452   7
   4  -3  -5 1.74399 1.18670   8
  -4   3  -5 2.87273 1.39950   7
  -5  -3  -5 15.1551 2.71277   1
   5   3  -5 14.6928 3.71122   4
   5  -3   5 14.4477 2.53984   8
  -5   3   5 14.4024 2.81751   1
  -5  -3  -5 10.9852 2.14831   3
   5  -3   5 12.5546 2.38103   2
  -5   3   5 11.6885 2.24324   3
  -5   3   5 13.3606 2.40161   7
   5   3  -5 12.1014 2.21723   8
   5   3  -5 11.6636 2.16895   8
   5   3   5 16.7416 2.31511   8
   5  -3  -5 15.5313 2.25605   2
   5   3   5 16.6805 3.39019   5
  -5  -3   5 13.2301 2.60549   1
  -5  -3   5 14.2887 2.44408   3
   5   3   5 13.2291 1.97878   2
  -5   3  -5 15.1725 2.48053   7
   5   3   5 12.9406 2.31460   8
   5   3   5 12.9387 1.96691   2
   5   3   5 12.3516 3.44870   4
   5  -3  -5 15.2748 2.36104   8
  -5   3  -5 15.6254 2.58878   3
  -5   3  -5 7.78683 2.66753   1
  -6   3   5 195.574 19.4483   3
   6  -3   5 165.442 20.2358   8
  -6  -3  -5 176.943 19.3400   3
   6   3  -5 186.486 24.5002   4
  -6   3   5 214.029 21.9509   1
  -6  -3  -5 179.557 21.7391   1
  -6   3   5 213.831 21.8592   7
   6   3  -5 201.042 20.1270   8
  -6   3  -5 203.198 21.9008   7
  -6   3  -5 228.920 19.7067   3
  -6   3  -5 191.820 22.0148   1
   6   3   5 188.705 20.1574   8
   6   3   5 212.957 20.1313   8
   6   3   5 246.002 25.3645   4
  -6  -3   5 225.249 19.6027   3
   6   3   5 191.199 23.0552   5
   6  -3  -5 187.136 20.1621   8
  -6  -3   5 177.015 21.7078   1
   7   3  -5 38.4784 6.47660   4
  -7   3   5 33.7445 4.10768   3
  -7  -3  -5 33.2141 4.02146   3
   7  -3   5 27.7632 4.29419   8
  -7   3   5 35.2545 4.98433   1
  -7  -3  -5 29.1555 4.60665   1
   7   3  -5 35.8913 3.95176   8
   7   3  -5 33.2222 4.06357   8
  -7   3  -5 32.5830 4.30916   3
  -7  -3   5 31.9618 4.69212   1
   7   3   5 38.5220 4.16871   8
  -7  -3   5 41.1008 4.33660   3
  -7   3  -5 32.9968 4.31190   7
   7  -3  -5 37.0981 4.25695   8
   7   3   5 31.0288 4.06810   8
  -7   3  -5 25.7651 4.78537   1
   7   3   5 33.8959 6.65285   4
   8   3  -5 72.2942 8.03868   8
  -8   3   5 75.1244 9.24974   1
  -8  -3  -5 67.5816 7.94008   3
  -8  -3  -5 75.8710 9.10227   1
   8   3  -5 78.3646 8.19008   8
   8  -3   5 85.0929 8.58743   8
   8   3  -5 85.1608 11.1965   4
  -8   3   5 85.0505 8.17737   3
  -8   3  -5 72.3391 8.20834   3
   8  -3  -5 66.4945 8.26365   8
   8   3   5 87.7045 8.29808   8
  -8  -3   5 82.4060 9.12217   1
  -8   3  -5 61.2454 9.15155   1
  -8  -3   5 82.4723 8.17675   3
   8   3   5 77.0632 12.3304   4
  -9  -3  -5 216.985 21.0510   3
   9   3  -5 211.373 21.6524   8
  -9   3   5 225.414 21.1859   3
   9   3  -5 207.344 27.0607   4
   9   3  -5 229.135 21.7815   8
  -9  -3  -5 225.508 23.6609   1
  -9   3   5 178.999 23.6488   1
   9   3   5 196.066 27.6928   4
  -9  -3   5 216.007 21.1743   3
  -9   3  -5 234.488 21.3255   3
   9   3   5 230.229 21.8487   8
   9  -3  -5 192.268 21.8716   8
  -9   3  -5 209.002 23.7905   1
 -10   3   5 43.9044 6.22563   1
  10   3  -5 45.8721 5.20478   8
 -10  -3  -5 44.5942 5.33996   3
 -10  -3  -5 50.2354 6.22562   1
  10  -3   5 42.9486 5.70857   8
 -10   3   5 54.2455 5.59520   3
 -10  -3   5 42.8846 5.45295   3
 -10  -3   5 48.4950 6.16600   1
  10  -3  -5 39.8136 5.53975   8
 -10   3  -5 47.0955 5.61596   3
 -10   3  -5 49.4361 6.46840   1
  10   3   5 59.1798 10.4151   4
  10   3   5 45.3177 5.41699   8
  11   3  -5 47.5816 4.93198   8
 -11  -3  -5 41.3894 5.08269   3
  11  -3   5 44.9598 5.48542   8
 -11  -3  -5 39.7857 5.88898   1
 -11   3   5 36.5049 5.85717   1
  11   3   5 44.1474 5.14297   8
  11  -3  -5 45.5718 5.35458   8
 -11   3  -5 36.2280 5.19460   3
 -11  -3   5 36.3871 5.05495   3
  11   3   5 41.9145 9.14850   4
 -11  -3   5 37.4902 5.83520   1
 -11   3  -5 50.3301 6.51536   1
 -12  -3  -5 8.45530 2.16653   3
  12   3  -5 8.02137 1.87055   8
  12  -3   5 8.22420 2.24195   8
 -12   3   5 9.05504 2.74333   1
 -12  -3  -5 6.44165 2.46536   1
 -12   3  -5 12.7888 2.72428   3
 -12  -3   5 6.77815 1.91804   6
  12  -3  -5 5.26632 2.14045   8
 -12  -3   5 8.14127 2.22073   3
 -12   3  -5 5.53434 3.06481   1
  12   3   5 14.4779 2.42451   8
   0  -4   5 1.62157 1.54690   5
   0  -4   5 -0.9740 1.43221   2
   0   4  -5 -0.3328 1.41260   7
   0  -4   5 0.80229 1.38587   7
   0   4   5 -0.8080 0.95873   4
   0  -4  -5 0.81781 1.19932   7
   0  -4  -5 1.67697 1.38755   2
   0   4  -5 1.64948 1.53920   2
   0   4   5 0.36740 1.43210   2
   0   4   5 0.49624 1.19885   7
   1  -4   5 158.558 17.8427   2
   1   4  -5 119.587 17.5000   7
   1   4  -5 149.744 17.7544   2
   1  -4   5 167.759 17.7290   7
  -1  -4  -5 130.734 17.3374   1
   1  -4   5 162.143 18.2823   5
  -1   4   5 159.603 17.6707   7
  -1   4   5 183.296 17.7972   2
  -1  -4  -5 153.423 17.6464   2
  -1  -4  -5 158.773 17.6676   7
  -1  -4   5 194.223 17.7778   7
   1   4   5 129.437 17.5359   2
  -1  -4   5 134.836 17.9273   5
   1  -4  -5 149.007 17.5618   7
  -1   4  -5 148.646 17.6712   2
  -1   4  -5 190.383 17.9023   7
   1  -4  -5 153.650 17.6296   2
  -1  -4   5 191.935 17.6607   1
  -2  -4  -5 34.6141 4.56900   2
  -2   4   5 30.1112 4.32778   7
  -2  -4  -5 31.6044 4.14149   7
   2  -4   5 27.6566 3.97424   7
   2  -4   5 15.8740 4.28596   5
   2  -4   5 29.6160 4.16070   7
   2  -4   5 33.5727 4.78698   2
  -2   4   5 28.2683 3.60343   4
  -2  -4  -5 22.2494 4.06542   1
   2   4  -5 39.3120 4.14942   8
  -2   4   5 26.5947 4.16896   1
  -2   4   5 35.2392 4.64693   2
   2   4  -5 33.7442 4.60804   2
  -2  -4   5 28.6279 4.15967   5
   2  -4  -5 26.5190 3.97087   7
  -2   4  -5 30.5170 4.39756   2
   2   4   5 39.6286 4.50069   2
  -2  -4   5 22.4502 4.24567   2
  -2   4  -5 29.5507 4.27058   7
  -2  -4   5 34.5442 4.61682   1
   2   4   5 27.0986 3.86756   8
  -2   4  -5 31.0230 4.64057   1
   2   4   5 27.0777 3.92098   7
   2   4   5 32.6250 4.74418   4
  -2  -4   5 31.0297 4.18822   7
   2  -4  -5 23.1798 4.17825   2
   3  -4   5 3.42511 1.46598   8
  -3   4   5 5.28145 1.83889   1
  -3  -4  -5 5.46669 1.48599   7
   3  -4   5 3.63328 1.76272   2
   3  -4   5 3.46548 1.04380   7
   3   4  -5 5.15007 1.48912   8
  -3  -4  -5 3.61961 1.71676   1
  -3   4   5 3.06498 1.70955   2
   3  -4   5 3.93303 1.00053   7
  -3  -4  -5 3.30807 1.18724   3
  -3   4   5 2.62940 1.28636   7
   3   4  -5 7.03465 1.73324   2
   3  -4  -5 3.72535 1.37223   8
   3  -4  -5 2.37824 1.58957   2
   3   4   5 3.79439 2.01517   4
  -3   4  -5 2.80143 1.35078   7
  -3  -4   5 4.63199 1.87220   1
   3   4   5 4.08984 1.47767   8
  -3   4  -5 1.23949 1.57750   2
   3   4   5 5.06694 1.64112   2
  -3  -4   5 4.08665 1.40622   5
  -3  -4   5 3.44040 1.55593   7
  -3   4  -5 7.00459 2.08443   1
   3  -4  -5 4.03877 0.85286   7
   4   4  -5 11.7143 3.37293   4
  -4   4   5 12.6852 2.18408   7
  -4  -4  -5 12.5195 2.11303   3
   4  -4   5 11.7660 2.47777   2
  -4  -4  -5 11.8102 2.18815   7
  -4  -4  -5 10.3226 2.34739   1
  -4   4   5 13.4602 2.60384   1
   4  -4   5 14.1400 2.32456   8
   4   4  -5 10.1145 2.03538   8
   4   4  -5 12.2333 2.22643   2
   4   4   5 11.4294 2.85631   5
  -4   4  -5 11.3062 2.19545   3
  -4  -4   5 10.1287 2.46007   1
  -4  -4   5 11.9913 2.27346   7
   4   4   5 11.1135 2.18500   2
   4   4   5 9.90017 2.11738   8
  -4   4  -5 8.92342 2.45556   1
   4  -4  -5 12.6229 2.37590   2
  -4   4  -5 10.0465 2.23217   7
   4  -4  -5 9.58467 2.11184   8
   4   4   5 13.8622 3.27894   4
  -4   4  -5 12.3320 2.35123   7
   5  -4   5 113.403 12.9916   2
   5   4  -5 107.827 12.4186   2
  -5   4   5 131.211 11.7192   3
   5  -4   5 109.591 12.0399   8
   5   4  -5 129.799 11.9200   8
  -5   4   5 119.449 13.0903   1
   5   4  -5 120.132 12.4356   2
  -5  -4  -5 128.946 13.0522   1
   5   4  -5 117.201 15.0777   4
  -5  -4  -5 110.161 11.4955   3
  -5   4   5 104.251 12.8766   7
   5   4   5 100.453 14.6788   4
   5  -4  -5 99.4941 12.7521   2
  -5  -4   5 102.078 12.9452   1
   5   4   5 121.978 13.8291   5
  -5   4  -5 102.575 13.0282   1
   5   4   5 120.657 12.0579   8
   5   4   5 104.521 12.6285   2
  -5  -4   5 97.5218 11.5259   3
  -5   4  -5 124.551 13.0630   7
   5  -4  -5 132.858 12.1079   8
  -5   4  -5 110.389 11.6683   3
   6  -4   5 88.8131 9.75027   2
  -6  -4  -5 71.0042 10.1208   1
  -6   4   5 84.8697 9.25959   3
  -6  -4  -5 76.3158 9.00874   3
   6   4  -5 88.2437 9.28280   8
  -6   4   5 103.384 10.5252   1
   6   4  -5 101.372 12.3066   4
   6  -4   5 96.6440 9.62289   8
  -6  -4   5 75.4131 10.2337   1
  -6   4  -5 73.9287 10.3121   1
  -6   4  -5 90.5535 9.32888   3
   6   4   5 100.450 9.53000   8
   6  -4  -5 90.6359 9.50980   8
  -6  -4   5 95.9291 9.28532   3
   7   4  -5 34.8192 4.49007   8
   7  -4   5 43.0080 5.03668   8
   7   4  -5 45.6331 7.27876   4
  -7  -4  -5 40.7646 5.40695   1
  -7   4   5 55.6482 5.76275   1
  -7  -4  -5 29.1089 4.46804   3
  -7   4  -5 44.3948 5.76155   1
   7   4   5 36.5772 7.24058   4
  -7  -4   5 36.9611 4.77298   3
   7  -4  -5 33.6007 4.79846   8
  -7  -4   5 36.9935 5.44244   1
  -7   4  -5 41.6798 4.92689   3
   7   4   5 37.4898 4.68406   8
  -8  -4  -5 15.5456 2.42752   3
   8  -4   5 11.5995 2.43855   8
  -8  -4  -5 8.23332 2.53657   1
   8   4  -5 14.5862 4.24959   4
   8   4  -5 11.3113 2.07680   8
  -8   4   5 14.4717 3.01984   1
  -8   4  -5 10.7206 2.94221   1
  -8  -4   5 13.5834 2.94868   1
  -8  -4   5 16.2998 2.68304   3
  -8   4  -5 12.8929 2.54137   3
   8  -4  -5 12.7887 2.47494   8
   8   4   5 9.93556 2.21819   8
   8   4   5 14.3784 4.44189   4
  -9  -4  -5 190.778 19.0826   3
  -9   4   5 185.641 21.6136   1
  -9  -4  -5 186.222 21.4628   1
   9  -4   5 207.314 20.0651   8
   9   4  -5 174.048 19.6320   8
   9   4  -5 202.537 25.0300   4
   9  -4  -5 193.686 19.9781   8
  -9   4  -5 209.177 21.8415   1
   9   4   5 177.010 25.3575   4
  -9  -4   5 197.299 19.2522   3
  -9   4  -5 199.166 19.3690   3
  -9  -4   5 171.600 21.4803   1
   9   4   5 212.577 19.8516   8
 -10  -4  -5 6.35528 2.54931   1
  10   4  -5 8.64893 1.94272   8
 -10   4   5 11.3375 3.14951   1
  10   4  -5 7.85793 4.81515   4
  10  -4   5 11.2191 2.51102   8
 -10  -4  -5 11.0624 2.26074   3
 -10  -4   5 9.31369 2.42801   6
 -10  -4   5 14.4773 3.13347   1
  10   4   5 6.72690 2.09187   8
 -10  -4   5 13.0399 2.47596   3
 -10   4  -5 15.8386 2.83004   3
 -10   4  -5 5.32225 2.75940   1
  10  -4  -5 12.8508 2.59386   8
  10   4   5 18.4849 5.36061   4
  11  -4   5 6.98276 2.29626   8
 -11  -4  -5 10.6867 2.60096   1
 -11  -4  -5 8.61476 2.15113   3
 -11   4   5 8.94820 2.72309   1
  11   4  -5 9.40728 2.06459   8
 -11  -4   5 6.64237 2.52389   1
 -11  -4   5 5.77264 2.06067   6
 -11  -4   5 11.8358 2.51094   3
  11   4   5 8.36688 2.21877   8
 -11   4  -5 9.47723 2.63684   3
 -11   4  -5 9.83300 3.30789   1
  11  -4  -5 8.92970 2.45671   8
 -12  -4  -5 7.93715 2.74074   1
  12  -4   5 12.0289 2.52496   8
 -12   4   5 10.8418 2.94127   1
  12   4  -5 11.2111 2.20549   8
 -12  -4  -5 6.49995 2.21144   3
  12  -4  -5 6.43591 2.45195   8
  12   4   5 8.61376 2.30460   8
 -12  -4   5 9.41449 2.42073   3
 -12  -4   5 7.38609 2.29764   6
 -12   4  -5 5.97858 2.52867   3
 -12   4  -5 8.98669 3.35058   1
   0  -5   5 711.963 70.3788   7
   0   5   5 586.118 75.9357   4
   0   5  -5 597.336 70.4007   7
   0  -5  -5 706.613 70.0995   2
   0   5   5 594.297 69.9777   2
   0  -5   5 705.561 72.2307   5
   0  -5   5 667.673 70.1257   2
   0  -5  -5 587.604 70.2496   7
   1  -5   5 363.907 38.4648   2
   1  -5   5 365.879 38.4818   7
   1  -5   5 349.008 38.5675   7
  -1   5   5 359.948 37.9209   1
   1   5  -5 292.581 38.3095   2
  -1  -5  -5 391.460 38.5691   7
  -1   5   5 315.550 38.2866   2
  -1   5   5 324.004 38.3608   7
  -1  -5  -5 360.531 37.9646   1
  -1   5   5 295.180 41.2214   4
  -1  -5  -5 339.111 38.3271   2
  -1  -5   5 314.343 37.9304   1
  -1   5  -5 378.878 38.6320   7
  -1   5  -5 364.373 38.3996   2
   1   5   5 315.779 41.4994   4
   1   5   5 384.022 38.4074   2
  -1  -5   5 351.850 39.3250   5
  -1  -5   5 394.141 38.0751   1
  -1   5  -5 385.873 38.1936   1
   1  -5  -5 312.428 38.2785   7
   1   5   5 412.581 38.5020   7
  -1  -5   5 332.852 38.4529   7
  -2   5   5 -0.0153 1.64811   2
  -2   5   5 1.11164 0.96538   4
   2  -5   5 0.62049 1.71202   2
   2  -5   5 2.70523 1.33141   7
  -2   5   5 0.88846 1.63096   1
  -2  -5  -5 3.61138 1.77306   1
  -2  -5  -5 -1.9092 1.09886   7
  -2   5   5 0.48345 1.15672   7
   2  -5   5 1.28096 1.59051   7
   2   5  -5 -1.3808 1.00206   8
  -2  -5  -5 1.39693 1.69468   2
   2   5  -5 -0.4703 1.58288   2
  -2  -5   5 -0.1766 1.22500   7
  -2  -5   5 -0.7918 1.29166   6
  -2  -5   5 0.04761 1.37735   5
  -2   5  -5 2.89268 1.88432   2
  -2   5  -5 -0.0419 1.67156   1
  -2  -5   5 1.79829 1.74615   2
   2   5   5 -0.6543 1.12737   8
   2   5   5 -2.4611 1.05365   7
   2  -5  -5 2.56907 1.30586   7
  -2  -5   5 -1.2287 1.46224   1
   2   5   5 -0.8501 1.43239   4
   2   5   5 -0.7536 1.43173   2
  -2   5  -5 2.30170 1.65198   7
   2  -5  -5 -0.1926 1.41977   2
   3  -5   5 124.933 10.7020   8
  -3  -5  -5 103.517 11.1305   1
  -3   5   5 85.6975 11.0518   7
  -3   5   5 123.235 11.5012   2
  -3  -5  -5 100.015 11.0758   7
   3  -5   5 99.6255 10.7460   7
  -3  -5  -5 110.895 9.96022   3
   3  -5   5 100.914 11.4136   2
   3   5  -5 83.3097 11.1361   2
  -3   5   5 72.7439 10.9623   1
  -3   5  -5 75.3516 11.1712   1
   3  -5  -5 110.737 10.3960   8
   3  -5  -5 102.470 11.2667   2
  -3  -5   5 101.311 11.1474   5
  -3   5  -5 95.4647 11.3509   2
  -3   5  -5 99.1271 11.2294   7
   3   5   5 97.1420 10.3439   8
  -3  -5   5 83.8060 11.0409   1
   3  -5  -5 91.7557 10.6880   7
   3   5   5 90.1498 11.0598   2
   3  -5  -5 104.343 10.7944   7
  -3  -5   5 75.3621 10.9914   7
   3   5   5 67.5794 12.0220   4
  -3  -5   5 96.6036 10.3153   6
  -4   5   5 452.506 42.7185   1
   4  -5   5 316.147 39.5153   8
   4   5  -5 388.355 39.5552   8
   4   5  -5 416.355 47.7983   4
   4  -5   5 320.586 42.8057   2
  -4  -5  -5 445.641 38.0755   3
   4   5  -5 424.839 42.7286   2
  -4   5   5 358.939 42.9952   7
  -4  -5  -5 420.650 42.5211   1
   4   5   5 434.048 47.2467   4
   4   5   5 415.376 42.8280   2
   4   5   5 420.900 44.4963   5
   4  -5  -5 445.144 39.7248   8
  -4   5  -5 382.743 42.7771   1
   4   5   5 368.073 39.5617   8
  -4  -5   5 375.277 42.5164   1
   4  -5  -5 462.970 43.0654   2
  -4   5  -5 319.976 42.9929   7
  -4   5  -5 399.384 38.2718   3
  -4   5  -5 327.186 43.0965   7
  -4  -5   5 366.016 43.0017   7
   5  -5   5 302.339 30.0907   2
   5  -5   5 273.996 27.7361   8
   5   5  -5 326.362 33.9575   4
   5   5  -5 269.877 27.5889   8
  -5  -5  -5 248.085 26.5233   3
  -5  -5  -5 272.145 29.7247   1
   5   5  -5 266.544 29.5087   2
  -5   5  -5 235.643 26.7357   3
  -5   5  -5 261.360 30.0179   1
   5   5   5 273.813 31.1341   5
  -5  -5   5 249.604 29.7688   1
   5  -5  -5 276.244 27.7185   8
   5   5   5 257.208 27.6697   8
   5  -5  -5 266.049 29.8448   2
   5   5   5 292.701 33.3609   4
   5   5   5 286.848 29.7554   2
   6   5  -5 75.6623 7.51508   8
   6   5  -5 61.5539 10.1707   4
   6  -5   5 65.6255 7.67807   8
   6  -5   5 63.2000 7.89692   2
  -6   5   5 71.9353 8.43584   1
  -6  -5  -5 70.7994 8.26260   1
  -6  -5  -5 69.4402 7.34922   3
  -6  -5   5 60.6108 8.25700   1
  -6   5  -5 81.2293 7.84469   3
  -6  -5   5 74.4383 7.48823   3
   6   5   5 68.3275 9.90700   4
  -6   5  -5 60.2242 8.55799   1
   6   5   5 63.2883 7.53260   8
   6  -5  -5 58.0079 7.52320   8
   6  -5  -5 61.8134 7.71462   2
   7  -5   5 37.6803 4.84778   8
   7   5  -5 34.6646 4.30637   8
   7   5  -5 19.0339 5.57103   4
  -7  -5  -5 37.6693 5.04199   1
  -7  -5  -5 34.7478 4.39055   3
  -7   5   5 36.2345 5.21395   1
   7   5   5 33.2655 4.47000   8
  -7   5  -5 31.7241 4.67719   3
  -7   5  -5 33.9076 5.44839   1
  -7  -5   5 41.3135 4.66448   3
   7   5   5 24.3182 6.09631   4
  -7  -5   5 27.7901 4.47521   6
  -7  -5   5 35.9855 5.20677   1
   7  -5  -5 34.6978 4.63616   8
  -8   5   5 13.7366 3.15904   1
   8  -5   5 11.5072 2.71847   8
  -8  -5  -5 15.5029 3.07171   1
   8   5  -5 14.8153 2.45591   8
  -8  -5  -5 13.6374 2.44657   3
   8   5  -5 10.3780 4.46224   4
  -8  -5   5 14.6580 3.25402   1
  -8  -5   5 14.9322 2.77638   3
   8   5   5 9.79470 2.33396   8
  -8   5  -5 7.75439 3.05985   1
   8   5   5 12.5497 4.80180   4
  -8  -5   5 12.8690 2.74384   6
   8  -5  -5 13.8355 2.79468   8
  -8   5  -5 11.7099 2.80938   3
   9   5  -5 7.30596 2.00241   8
   9  -5   5 8.54224 2.46090   8
  -9   5   5 13.3761 3.16319   1
   9   5  -5 10.8631 4.20908   4
  -9  -5  -5 9.10524 2.56968   1
  -9  -5  -5 7.15765 1.96008   3
   9   5   5 7.60463 2.10808   8
  -9  -5   5 8.92628 2.85069   1
  -9  -5   5 6.47869 2.36431   6
   9   5   5 8.03715 4.37394   4
  -9   5  -5 6.47847 2.87572   1
   9  -5  -5 11.4695 2.63379   8
  -9   5  -5 9.00971 2.48020   3
  -9  -5   5 13.4365 2.81030   3
 -10  -5  -5 20.0216 4.15642   1
  10  -5   5 25.6514 4.09723   8
  10   5  -5 25.1828 3.80443   8
 -10   5   5 25.5203 4.58067   1
 -10  -5  -5 27.6636 3.76337   3
  10   5  -5 18.0549 6.46192   4
 -10  -5   5 28.5943 4.14386   6
  10   5   5 37.5269 8.11896   4
  10   5   5 25.2344 3.79987   8
 -10   5  -5 23.7273 4.76557   1
  10  -5  -5 25.7439 4.07910   8
 -10   5  -5 26.8177 4.25301   3
 -10  -5   5 28.4623 4.59484   1
 -11   5   5 81.6013 10.2337   1
  11   5  -5 72.9266 8.80244   8
 -11  -5  -5 75.1421 8.63361   3
 -11  -5  -5 75.1974 9.80497   1
  11  -5   5 71.5062 9.10684   8
  11   5   5 77.8294 8.94805   8
 -11  -5   5 92.1513 10.0930   1
 -11  -5   5 79.0096 9.99696   1
 -11   5  -5 76.2461 10.2598   1
  11  -5  -5 87.7541 9.38089   8
 -11   5  -5 95.6899 9.39383   3
 -11  -5   5 74.6085 8.93325   6
  12  -5   5 37.9983 5.61463   8
  12   5  -5 41.1505 5.35141   8
 -12  -5  -5 34.2312 5.07984   3
 -12  -5  -5 39.4505 6.02074   1
 -12   5   5 46.7191 6.38980   1
  12   5   5 35.9390 5.31146   8
 -12   5  -5 42.8436 5.87934   3
 -12   5  -5 54.2365 7.02162   1
  12  -5  -5 43.0780 5.76118   8
 -12  -5   5 33.7699 5.10489   6
 -12  -5   5 37.6799 6.04447   1
   0   6   5 0.16644 1.18744   7
   0  -6   5 -0.7767 1.31615   7
   0   6   5 1.03980 1.30484   4
   0  -6   5 -0.5750 1.44199   2
   0   6  -5 1.79723 1.40605   7
   0  -6   5 0.36733 1.35526   7
   0  -6  -5 -0.6036 1.52230   1
   0  -6   5 2.46585 1.93212   1
   0  -6  -5 1.91142 1.81394   2
   0  -6  -5 0.56426 1.58883   7
   0   6  -5 0.84650 1.59259   2
   0   6   5 1.36648 1.52579   2
   1   6  -5 7.64001 2.74940   2
  -1  -6  -5 12.1131 2.69574   7
  -1  -6  -5 11.0598 2.76155   2
  -1   6   5 15.0097 3.12040   2
   1  -6   5 16.3628 3.18491   7
  -1  -6  -5 18.7872 3.27832   1
   1  -6   5 17.9611 3.40956   2
  -1   6   5 15.7419 2.78510   7
  -1   6   5 16.6614 3.11124   1
  -1   6   5 17.7546 2.83042   4
  -1   6  -5 12.8435 3.02459   2
   1   6   5 10.3112 2.66995   4
   1  -6  -5 17.1060 3.18058   2
   1   6   5 17.1247 3.00029   7
  -1  -6   5 21.3994 3.68381   2
  -1   6  -5 14.4648 3.26467   1
   1   6   5 14.7998 2.98906   2
  -1  -6   5 18.6421 3.36238   1
  -1  -6   5 12.3929 2.71768   5
  -1   6  -5 11.7771 2.86111   7
  -1  -6   5 13.2398 2.80420   7
   2   6  -5 9.23567 1.97988   8
   2  -6   5 9.41803 2.21094   7
  -2   6   5 10.4565 2.57610   2
  -2   6   5 6.14400 2.01320   7
   2   6  -5 8.99336 2.64379   2
   2  -6   5 3.81199 2.16390   2
  -2  -6  -5 8.48325 2.40330   1
  -2  -6  -5 7.71966 2.30165   2
  -2   6   5 11.2343 2.63126   1
  -2   6   5 7.80721 1.91100   4
  -2  -6  -5 9.57758 2.25262   7
  -2  -6   5 8.48210 1.90008   5
  -2  -6   5 6.92721 2.37796   1
  -2   6  -5 11.2214 2.79668   1
  -2   6  -5 4.35300 2.26658   7
   2   6   5 6.15101 2.14660   2
  -2  -6   5 7.27189 2.37739   1
  -2   6  -5 15.0404 2.88378   2
  -2  -6   5 2.38798 1.68285   6
   2  -6  -5 8.20462 2.14027   8
  -2  -6   5 7.53197 2.41696   2
   2   6   5 6.88908 1.90834   8
   2   6   5 8.86541 2.52234   4
   2  -6  -5 8.59354 2.36661   2
  -2  -6   5 7.75817 2.11478   7
   2   6   5 10.6541 2.11403   7
   3   6  -5 4.12627 1.71556   8
   3  -6   5 4.29139 1.42905   7
  -3  -6  -5 8.26785 1.80480   3
  -3   6   5 6.44485 2.17665   1
   3  -6   5 3.95886 1.70801   8
   3  -6   5 6.17311 2.31391   2
  -3  -6  -5 2.49783 1.60776   7
  -3   6   5 3.07210 1.92466   2
   3   6  -5 3.71016 2.14848   2
  -3   6   5 3.02813 1.80677   7
  -3  -6  -5 2.39439 1.70821   1
   3   6   5 2.34480 1.58685   8
  -3   6  -5 5.31483 2.26191   1
   3  -6  -5 2.41420 1.80205   2
   3   6   5 3.43709 2.17893   4
  -3  -6   5 4.64172 2.23162   1
  -3  -6   5 3.27042 1.43956   7
  -3   6  -5 2.50752 1.95678   2
   3  -6  -5 3.58401 1.65534   8
  -3   6  -5 3.59745 1.89203   7
   3   6   5 2.82122 1.67138   2
  -3  -6   5 6.34674 2.10032   1
  -3  -6   5 5.26443 1.81427   6
   3  -6  -5 5.23933 1.57490   7
   4   6  -5 6.55592 3.00185   4
   4  -6   5 2.69919 1.74511   8
   4   6  -5 2.51422 1.52025   8
  -4  -6  -5 4.57813 1.55561   3
  -4  -6  -5 -0.8759 1.58369   1
   4  -6   5 -0.0340 1.64633   2
   4   6  -5 3.80162 1.56458   2
  -4   6   5 1.64624 1.81171   1
   4   6   5 1.95807 1.48303   8
  -4   6  -5 1.09440 1.41762   3
   4   6   5 2.17391 1.61739   2
  -4  -6   5 1.06778 1.65339   1
   4   6   5 2.32951 2.32914   4
  -4  -6   5 0.04580 1.54551   1
  -4   6  -5 0.73791 1.76807   1
   4  -6  -5 1.75816 1.82680   2
  -4   6  -5 0.41414 1.49441   7
   4   6   5 -0.7359 1.77277   5
  -4  -6   5 -0.4647 1.41894   6
   4  -6  -5 -0.8430 1.28965   8
  -5  -6  -5 114.431 11.2847   3
  -5   6   5 90.2812 12.4596   1
   5  -6   5 91.7819 11.7409   8
   5   6  -5 90.0476 11.5008   8
   5  -6   5 130.560 12.7788   2
  -5  -6  -5 108.095 12.5167   1
   5   6  -5 89.9153 14.4209   4
   5   6  -5 103.571 12.1638   2
  -5   6  -5 116.592 12.9545   1
  -5  -6   5 114.376 11.7685   6
   5   6   5 120.061 14.4609   4
   5  -6  -5 130.748 12.6512   2
   5   6   5 97.1224 11.5849   8
  -5  -6   5 100.987 12.5338   1
   5   6   5 100.463 12.2936   2
   5  -6  -5 124.477 11.8031   8
   6  -6   5 13.2588 2.62734   2
   6   6  -5 9.39247 3.94280   4
  -6  -6  -5 12.0641 2.38623   3
  -6  -6  -5 11.1983 2.72392   1
   6  -6   5 9.37349 2.53773   8
   6   6  -5 12.9311 2.56593   8
  -6   6   5 10.1699 2.79498   1
  -6  -6   5 12.0393 2.68790   6
  -6   6  -5 12.9966 3.19779   1
   6   6   5 6.37379 3.61473   4
   6  -6  -5 8.25740 2.27096   2
  -6   6  -5 13.0764 2.75558   3
   6   6   5 9.59525 2.35226   8
  -6  -6   5 7.76405 2.55530   1
   6  -6  -5 13.3423 2.68461   8
  -7  -6  -5 4.16532 2.14619   1
  -7  -6  -5 6.97055 2.02554   3
   7   6  -5 8.36926 2.21325   8
   7   6  -5 7.93538 3.85257   4
   7  -6   5 8.80055 2.46273   8
  -7   6   5 4.40754 2.41908   1
   7   6   5 7.47277 2.09111   8
  -7  -6   5 6.22438 2.14933   6
  -7   6  -5 10.0429 2.62517   3
  -7   6  -5 2.06127 2.24119   1
  -7  -6   5 3.17427 2.24631   1
   7  -6  -5 7.66990 2.11843   8
   7   6   5 4.77555 3.46552   4
  -8  -6  -5 7.85825 2.26513   3
   8   6  -5 9.00329 4.27353   4
  -8   6   5 6.43539 2.81652   1
   8   6  -5 10.4850 2.48411   8
  -8  -6  -5 7.05110 2.59866   1
   8  -6   5 6.92280 2.52959   8
  -8   6  -5 10.1195 2.82112   3
  -8   6  -5 12.5619 3.28267   1
   8  -6  -5 12.3010 2.75164   8
  -8  -6   5 5.00167 2.38077   1
   8   6   5 7.72581 3.96337   4
   8   6   5 9.79667 2.38619   8
  -8  -6   5 7.48529 2.44750   6
  -9  -6  -5 86.1363 9.47159   3
  -9   6   5 80.6421 10.8273   1
   9   6  -5 81.8763 13.7180   4
  -9  -6  -5 91.5643 10.7500   1
   9  -6   5 83.3760 10.0728   8
   9   6  -5 81.0952 9.78083   8
  -9  -6   5 89.4622 9.91923   6
   9  -6  -5 74.1798 9.92313   8
  -9  -6   5 85.7570 10.8522   1
   9   6   5 94.4928 9.83820   8
  -9   6  -5 105.246 10.1713   3
  -9   6  -5 86.7597 11.1159   1
   9   6   5 95.9191 13.7186   4
  -9  -6   5 89.1112 10.8096   1
 -10  -6  -5 19.0422 3.76180   1
  10   6  -5 16.0235 3.25325   8
 -10  -6  -5 15.0891 2.91489   3
  10  -6   5 18.6536 3.62147   8
 -10   6   5 18.7825 4.09176   1
  10   6  -5 29.2693 6.01069   4
 -10   6  -5 21.8251 3.82799   3
  10  -6  -5 15.6357 3.33305   8
 -10   6  -5 13.5654 3.69663   1
 -10  -6   5 14.5647 3.48953   1
  10   6   5 7.98817 4.46472   4
 -10  -6   5 19.0000 3.44453   6
 -10  -6   5 10.5879 3.45742   1
  10   6   5 17.8179 3.20785   8
 -11  -6  -5 227.335 23.2818   1
  11   6  -5 190.612 27.1338   4
  11   6  -5 198.519 21.3911   8
 -11   6   5 221.599 23.5430   1
 -11  -6  -5 167.068 20.3939   3
  11  -6   5 220.844 21.8816   8
  11  -6  -5 207.590 21.6723   8
  11   6   5 195.196 21.3717   8
 -11  -6   5 211.581 21.2233   6
 -11  -6   5 219.424 23.3379   1
 -11   6  -5 194.987 23.4289   1
 -11   6  -5 209.150 21.0914   3
 -12   6   5 1.45184 2.49465   1
  12   6  -5 1.38915 2.26021   8
  12  -6   5 -0.3227 2.06607   8
 -12  -6  -5 -2.7676 2.15557   1
 -12  -6  -5 1.49951 1.77255   3
  12  -6  -5 -0.0996 2.11012   8
 -12   6  -5 6.55472 2.98375   1
 -12   6  -5 3.01785 2.44999   3
  12   6   5 2.74486 2.01895   8
 -12  -6   5 0.31742 2.17111   6
 -12  -6   5 1.36223 2.33922   1
   0   7   5 478.995 45.0533   1
   0   7   5 409.388 45.5115   7
   0   7   5 421.480 49.2226   4
   0  -7   5 369.368 45.3835   2
   0  -7   5 453.900 45.5989   7
   0  -7  -5 374.098 44.8610   1
   0   7   5 501.317 45.5434   2
   0  -7   5 347.903 44.9353   1
   0   7  -5 360.244 45.2893   2
   1   7  -5 107.709 14.0989   2
  -1  -7  -5 125.938 14.2421   2
  -1   7   5 140.690 14.2681   1
  -1   7   5 103.098 13.8737   7
  -1   7   5 110.835 14.9241   4
  -1  -7  -5 129.514 14.0722   1
   1  -7   5 118.587 14.1827   7
   1  -7   5 107.990 14.2370   2
   1  -7   5 125.260 14.3613   1
  -1   7   5 132.079 14.2545   2
   1   7   5 101.320 13.9538   7
  -1   7  -5 130.852 14.3814   2
   1   7   5 151.875 15.3889   4
   1  -7  -5 136.637 14.2577   1
  -1   7  -5 133.681 14.2997   1
  -1  -7   5 107.957 14.0814   1
   1   7   5 86.1920 13.8526   2
  -1  -7   5 161.594 15.1842   7
   1  -7  -5 126.276 14.2361   2
  -1  -7   5 110.854 14.0793   7
   2  -7   5 85.8115 12.1641   2
  -2   7   5 97.2812 12.0491   1
  -2  -7  -5 87.1692 11.8733   1
   2   7  -5 91.5846 11.0519   8
  -2  -7  -5 96.5168 12.1834   2
  -2  -7  -5 114.020 12.1540   7
   2   7  -5 100.010 12.3056   2
  -2   7   5 94.6928 12.0995   2
   2  -7   5 117.338 12.3436   7
  -2   7   5 107.574 12.0358   7
  -2   7  -5 110.638 12.3470   1
   2   7   5 95.3800 11.1840   8
   2  -7  -5 96.3366 12.1071   2
  -2  -7   5 112.411 12.3978   2
   2   7   5 107.529 13.1862   4
  -2   7  -5 94.5443 12.2509   2
   2   7   5 122.251 12.2430   2
  -2  -7   5 97.6048 12.2370   1
   3   7  -5 232.169 23.1398   8
  -3  -7  -5 225.414 25.0854   7
   3  -7   5 238.045 23.4260   8
  -3  -7  -5 196.116 24.8105   1
   3   7  -5 240.137 25.3685   2
   3  -7   5 232.271 25.4301   2
  -3   7   5 224.613 24.9863   1
  -3  -7   5 268.600 25.2946   1
   3   7   5 188.228 23.0837   8
   3  -7  -5 201.937 23.1053   8
  -3  -7   5 195.387 22.9571   6
   3  -7  -5 237.107 25.2840   2
  -3   7  -5 216.455 25.3191   7
  -3   7  -5 240.122 25.2091   1
   3   7   5 232.632 27.5319   4
  -4  -7  -5 486.642 48.8541   1
   4   7  -5 540.078 55.2053   4
   4   7  -5 444.470 45.2942   8
   4   7  -5 398.285 49.0702   2
  -4  -7  -5 381.858 43.4646   3
   4  -7   5 483.802 49.4764   2
  -4   7   5 471.263 48.8403   1
   4  -7  -5 440.753 49.2524   2
   4   7   5 389.336 48.9901   2
  -4  -7   5 462.261 48.8968   1
  -4  -7   5 512.886 45.2227   6
   4   7   5 455.019 45.4686   8
   4   7   5 404.946 53.8706   4
  -5   7   5 27.7023 4.55185   1
  -5  -7  -5 20.8934 3.71474   3
   5  -7   5 30.7186 4.72244   8
   5   7  -5 27.6361 4.10068   8
  -5  -7  -5 27.8687 4.44537   1
   5   7  -5 23.1454 3.74189   2
   5   7  -5 23.9366 6.14128   4
   5  -7   5 31.9794 4.56441   2
   5   7   5 27.2794 4.15518   2
  -5  -7   5 22.9482 4.44783   1
   5   7   5 27.0038 5.34670   4
  -5  -7   5 19.1256 4.21345   1
   5  -7  -5 22.7494 3.99069   8
  -5   7  -5 24.5027 4.68638   1
   5  -7  -5 29.6936 4.38847   2
  -5  -7   5 23.9116 4.11141   6
   5   7   5 22.9026 3.99713   8
   6   7  -5 54.0432 6.15680   8
   6   7  -5 38.2389 8.24089   4
  -6  -7  -5 41.5400 5.82085   3
  -6  -7  -5 44.6744 6.56777   1
   6  -7   5 53.1062 6.54878   2
   6  -7   5 52.4933 6.59056   8
  -6   7   5 46.7163 6.78139   1
   6   7   5 40.6305 5.64330   2
   6  -7  -5 42.0825 6.09904   8
  -6  -7   5 41.6292 6.66746   1
   6   7   5 41.3444 7.79168   4
   6   7   5 53.0510 5.67343   2
  -6   7  -5 33.2197 6.53083   1
   6   7   5 50.4437 6.28455   8
  -6  -7   5 54.9224 6.87203   1
   6  -7  -5 47.4769 6.33689   2
  -6  -7   5 51.6547 6.52273   6
  -7   7   5 23.4234 4.70022   1
   7  -7   5 38.0683 4.22979   2
  -7  -7  -5 26.9244 4.64294   1
   7   7  -5 29.3431 4.47401   8
  -7  -7  -5 25.0168 4.06674   3
   7   7  -5 30.3524 6.65436   4
   7  -7   5 31.8884 4.82121   8
  -7  -7   5 21.6868 4.55760   1
  -7   7  -5 30.1959 4.70285   3
   7  -7  -5 22.7685 4.33139   8
  -7  -7   5 34.8203 5.24077   1
  -7   7  -5 23.8889 4.88262   1
   7   7   5 22.9141 5.96017   4
  -7  -7   5 26.8712 4.43571   6
   7   7   5 28.3194 4.37429   8
  -8   7   5 175.227 19.7781   1
   8   7  -5 162.208 18.1634   8
  -8  -7  -5 131.703 19.2772   1
  -8  -7  -5 158.166 17.4478   3
   8   7  -5 193.945 23.1377   4
   8  -7   5 178.199 18.5670   8
  -8   7  -5 178.469 19.9250   1
  -8  -7   5 191.397 19.8849   1
  -8  -7   5 171.996 18.1579   6
   8  -7  -5 172.609 18.3465   8
  -8   7  -5 187.610 18.0112   3
   8   7   5 172.886 22.6225   4
   8   7   5 177.399 18.1833   8
   9   7  -5 0.92230 4.57357   4
  -9   7   5 14.1258 3.66800   1
   9   7  -5 12.6512 2.96385   8
  -9  -7  -5 12.9250 3.14307   1
   9  -7   5 10.9330 2.98737   8
  -9  -7  -5 5.02738 2.24945   3
   9  -7  -5 4.41975 2.50316   8
  -9   7  -5 5.25428 2.94587   1
  -9  -7   5 5.85530 3.11834   1
   9   7   5 5.52146 3.35778   4
   9   7   5 8.08281 2.63939   8
  -9   7  -5 9.89826 3.08117   3
  -9  -7   5 3.67127 2.19806   6
 -10   7   5 21.7566 4.76695   1
  10   7  -5 35.1650 7.31563   4
  10  -7   5 26.7930 4.72529   8
  10   7  -5 17.5880 3.76721   8
 -10  -7  -5 21.0598 3.64992   3
 -10  -7  -5 23.2150 4.57163   1
 -10   7  -5 17.8206 4.11341   3
  10  -7  -5 24.0619 4.34195   8
  10   7   5 17.7500 6.44039   4
 -10  -7   5 18.5386 4.43722   1
 -10  -7   5 20.4191 3.90136   6
  10   7   5 24.3330 4.11846   8
 -10   7  -5 26.7613 5.02841   1
 -11  -7  -5 11.0069 3.29124   1
  11   7  -5 5.97535 2.65122   8
  11  -7   5 7.65242 3.03564   8
 -11  -7  -5 10.8756 2.77647   3
 -11   7   5 9.18056 3.29736   1
  11   7   5 5.96359 2.50028   8
 -11  -7   5 9.12311 3.68377   1
 -11  -7   5 10.1699 2.78600   6
 -11   7  -5 5.22229 3.48330   1
 -11   7  -5 5.71483 3.07335   3
  11  -7  -5 6.72312 2.94815   8
   0  -8   5 1.44466 1.97111   2
   0   8   5 -1.5647 1.61097   4
   0  -8   5 2.04217 2.30168   1
   0   8   5 0.36265 1.67307   1
   0   8   5 -0.5827 1.50365   2
   0   8   5 1.61032 1.67295   7
   0  -8  -5 1.36105 2.17019   1
   0  -8   5 -1.4242 1.65877   7
   0   8  -5 0.12797 1.82755   2
   0   8  -5 4.67666 2.32472   1
   0  -8  -5 -0.7694 1.67234   2
   1   8  -5 140.798 17.9723   2
  -1   8   5 189.449 18.2618   1
  -1   8   5 162.672 18.0469   7
   1  -8   5 148.352 17.9636   7
  -1   8   5 140.632 17.9027   2
   1  -8   5 166.151 18.3057   2
   1  -8   5 201.341 18.5031   1
  -1   8   5 154.723 19.3034   4
  -1  -8  -5 166.157 17.9935   1
  -1   8  -5 177.804 18.3690   2
  -1   8  -5 127.739 17.8230   1
   1   8   5 173.277 18.1057   2
   1   8   5 134.710 19.3217   4
   1  -8  -5 175.244 18.1073   1
  -1  -8   5 120.295 17.9046   2
  -1  -8   5 148.899 18.1089   1
   2   8  -5 64.4173 10.2146   2
  -2  -8  -5 70.4166 10.2953   2
  -2   8   5 77.1830 10.2134   2
  -2   8   5 73.2721 10.1211   1
   2  -8   5 77.7367 10.4464   2
  -2  -8  -5 94.8280 10.4327   1
  -2   8  -5 87.8838 10.6768   2
   2   8   5 89.6689 11.1477   4
  -2   8  -5 93.3504 10.5886   1
   2  -8  -5 86.0673 10.4946   2
  -2  -8   5 98.6720 10.7727   1
  -3   8   5 7.46967 2.65435   1
  -3  -8  -5 9.82024 2.82158   7
   3  -8   5 6.24966 2.75811   2
   3   8  -5 9.52590 2.79838   2
  -3  -8  -5 9.10478 2.89607   1
   3   8  -5 8.97038 2.47279   8
   3  -8  -5 5.71701 2.58401   2
  -3   8  -5 12.0958 3.27918   1
   3   8   5 12.9942 3.52435   4
   3   8   5 7.42735 2.57967   2
   3   8   5 8.69626 2.53704   8
  -3  -8   5 8.26912 2.94411   1
  -3  -8   5 11.1402 2.68621   6
   4  -8   5 8.22392 2.91104   2
   4  -8   5 5.87026 2.63284   8
  -4  -8  -5 4.68657 2.46032   1
   4   8  -5 6.44543 2.64313   2
   4   8  -5 7.46158 2.27641   8
  -4   8   5 6.20494 2.52096   1
   4   8  -5 6.38241 4.01377   4
   4   8   5 5.76940 3.19071   4
  -4  -8   5 4.82562 2.34642   6
   4  -8  -5 7.89516 2.53784   2
  -4  -8   5 9.81933 3.10354   1
   4  -8  -5 8.41453 2.50724   8
  -4   8  -5 12.6012 3.34021   1
   4   8   5 8.14830 2.62431   2
   4   8   5 10.7491 2.66478   8
   5  -8   5 28.5437 4.77019   2
   5  -8   5 28.7549 4.56038   8
  -5   8   5 27.4082 4.72306   1
   5   8  -5 25.3816 4.20992   2
  -5  -8  -5 26.9810 4.64151   1
   5   8  -5 24.6590 4.05437   8
   5   8  -5 17.7953 5.82330   4
   5  -8  -5 23.0457 4.28569   2
  -5  -8   5 26.4411 4.91695   1
  -5  -8   5 24.2545 4.26000   6
   5   8   5 19.3882 3.98195   8
   5  -8  -5 25.2541 4.15580   8
   5   8   5 21.2663 4.18559   2
  -5   8  -5 33.8406 5.22095   1
   5   8   5 22.4578 5.43224   4
   6   8  -5 84.4345 10.1420   2
   6  -8   5 66.6414 10.7204   2
  -6  -8  -5 85.5094 9.89669   3
   6   8  -5 92.0164 10.1671   8
   6  -8   5 90.4516 10.6666   8
  -6  -8  -5 93.8217 11.1668   1
   6   8  -5 99.5622 13.7375   4
  -6   8   5 88.8452 11.1649   1
   6   8   5 91.3381 12.8908   4
  -6   8  -5 94.5477 11.4335   1
   6   8   5 90.0604 10.4880   2
  -6  -8   5 108.182 10.5669   6
  -6  -8   5 81.9867 11.3044   1
   6  -8  -5 88.0881 10.8998   2
   6   8   5 79.3295 10.3189   2
   6   8   5 121.104 10.6905   8
   6  -8  -5 93.9109 10.4373   8
   7  -8   5 -0.8670 1.66786   2
  -7   8   5 3.94090 2.51515   1
   7  -8   5 0.97756 2.22260   8
  -7  -8  -5 -0.7324 1.63772   3
  -7  -8  -5 6.52842 2.61073   1
   7   8  -5 -1.0834 1.65878   8
   7   8  -5 2.54005 3.24012   4
   7   8   5 -0.6791 2.84350   4
  -7  -8   5 2.08176 2.45273   1
   7  -8  -5 3.00204 1.82030   2
   7   8   5 1.87246 1.91519   8
   7  -8  -5 1.61045 1.91219   8
  -7  -8   5 0.55658 1.91940   6
  -7   8  -5 1.39108 2.56422   1
   8  -8   5 4.87549 2.55427   8
  -8   8   5 4.37742 2.78453   1
  -8  -8  -5 5.30471 2.70500   1
   8   8  -5 11.5170 3.98819   4
  -8  -8  -5 6.76410 2.01224   3
   8   8  -5 1.89769 2.04101   8
   8  -8  -5 5.08406 2.77830   8
  -8   8  -5 4.07833 3.00528   1
  -8  -8   5 8.22927 2.98304   6
  -8  -8   5 8.54269 3.37426   1
   8   8   5 6.43006 3.26271   4
   8   8   5 4.92925 2.55266   8
   9  -8   5 62.3785 9.59239   8
   9   8  -5 69.2070 12.5795   4
   9   8  -5 64.6304 9.00917   8
  -9   8   5 82.8274 10.3284   1
  -9  -8  -5 63.3748 8.67268   3
  -9  -8  -5 78.0249 9.93747   1
  -9   8  -5 82.8347 10.3956   1
   9   8   5 89.3814 13.4805   4
   9  -8  -5 97.2115 9.77861   8
  -9  -8   5 84.3235 9.30293   6
  -9  -8   5 78.6788 10.2511   1
   9   8   5 73.9558 9.22995   8
  10   8  -5 1.66859 3.88474   4
  10   8  -5 -1.6249 1.53183   8
  10  -8   5 1.98140 2.77727   8
 -10  -8  -5 -1.4829 1.84427   3
 -10   8   5 4.11271 2.71282   1
 -10  -8  -5 2.56983 2.68864   1
 -10  -8   5 -1.2185 2.38407   1
 -10   8  -5 -0.1082 2.72256   1
  10   8   5 5.37887 2.47170   8
 -10  -8   5 2.45609 2.11238   6
  10  -8  -5 -0.7874 2.34954   8
 -11  -8  -5 58.6179 7.29126   3
  11  -8   5 67.1802 8.41791   8
  11   8  -5 62.9973 7.76134   8
 -11   8   5 40.2588 7.99283   1
 -11  -8  -5 63.7939 8.55452   1
  11  -8  -5 48.4746 7.56857   8
 -11  -8   5 64.7631 7.73528   3
 -11   8  -5 47.6434 8.34929   1
 -11  -8   5 50.4638 8.36066   1
 -11  -8   5 64.3145 7.91042   6
  11   8   5 57.3917 7.63891   8
   0   9  -5 120.461 14.0297   2
   0  -9   5 109.626 13.7608   7
   0  -9  -5 100.429 13.7436   2
   0   9   5 114.690 13.8395   7
   0  -9   5 141.607 14.2788   1
   0   9   5 127.627 13.9237   2
   0  -9  -5 122.235 13.8495   1
   0  -9   5 80.6091 13.6341   2
   0   9   5 125.852 14.8908   4
   1  -9   5 250.542 26.7925   2
  -1   9   5 195.702 26.3014   2
  -1  -9  -5 280.852 26.8507   2
  -1   9   5 269.132 26.5444   1
  -1  -9  -5 208.882 26.1291   1
   1   9  -5 233.728 26.5374   2
   1   9   5 237.013 26.5541   2
   1   9   5 276.982 28.9488   4
   1  -9  -5 198.273 26.3719   2
  -1   9  -5 266.480 26.6906   1
  -1  -9   5 225.481 26.6515   2
  -1   9  -5 197.148 26.4806   2
  -1  -9   5 217.120 26.4505   1
   2   9  -5 221.891 23.6044   2
   2  -9   5 199.714 23.5637   2
  -2  -9  -5 184.268 23.1274   1
  -2   9   5 199.419 23.2071   1
  -2  -9   5 187.216 23.3884   1
   2   9   5 205.283 25.4453   4
   2   9   5 218.628 23.4957   2
  -2   9  -5 233.076 23.8590   2
  -2   9  -5 203.924 23.4186   1
   2  -9  -5 192.747 23.4696   2
   3   9  -5 82.5179 8.70480   2
  -3   9   5 54.5217 8.34234   1
   3  -9   5 63.6998 8.44349   2
  -3  -9  -5 69.6856 8.34768   1
  -3   9  -5 47.2564 8.16811   1
  -3  -9   5 65.5470 8.57155   1
   3   9   5 67.4008 9.16294   4
   3  -9  -5 56.9883 8.07631   2
   3   9   5 38.5022 7.70874   2
  -4  -9  -5 2.97448 2.36522   1
   4   9  -5 -0.5858 1.86238   2
  -4   9   5 4.50923 2.53179   1
   4  -9   5 -1.0130 2.01579   2
   4   9  -5 -4.2081 3.23852   4
   4   9  -5 3.43320 2.06887   8
   4   9   5 0.55204 2.04554   2
   4   9   5 0.15946 2.64886   4
   4   9   5 3.89035 2.16675   8
   4  -9  -5 0.72457 2.10744   2
  -4   9  -5 3.87926 2.58241   1
  -4  -9   5 3.56646 2.41410   1
   5   9  -5 53.7796 6.66588   2
   5  -9   5 39.2252 6.81276   2
   5   9  -5 48.3856 6.39027   8
  -5   9   5 51.6110 7.14458   1
   5   9  -5 33.2004 7.79124   4
  -5  -9  -5 42.4085 6.89735   1
   5   9   5 53.6194 6.93614   2
  -5  -9   5 58.9243 6.90196   6
  -5  -9   5 40.1286 7.05802   1
  -5   9  -5 45.1091 7.06519   1
   5   9   5 38.1722 7.70458   4
   5  -9  -5 39.7663 6.52032   2
   5   9   5 38.3799 6.25701   8
   6   9  -5 207.032 28.8149   4
  -6  -9  -5 240.617 25.4447   1
   6  -9   5 216.600 23.6962   8
   6   9  -5 205.889 23.2444   8
   6   9  -5 206.345 24.5207   2
   6  -9   5 227.601 25.2648   2
  -6   9   5 263.498 25.5224   1
  -6   9  -5 232.766 25.5059   1
   6   9   5 261.287 28.7778   4
   6   9   5 222.832 23.5047   8
  -6  -9   5 228.344 25.5344   1
   6  -9  -5 252.568 25.3823   2
  -6  -9   5 195.823 23.1541   6
   6  -9  -5 229.677 23.6603   8
   6   9   5 193.402 24.7470   2
   6   9   5 211.082 24.7116   2
   7   9  -5 33.3927 5.02938   8
   7   9  -5 23.3814 6.96443   4
   7  -9   5 43.2534 5.41372   2
  -7  -9  -5 30.2025 5.50597   1
  -7   9   5 27.0552 5.46919   1
   7  -9   5 32.1889 5.53134   8
   7   9   5 37.2748 5.29234   8
  -7   9  -5 27.0819 5.53436   1
  -7  -9   5 30.5332 5.86392   1
  -7  -9   5 32.9805 5.40002   6
   7   9   5 25.8088 6.68176   4
   7  -9  -5 33.7683 5.37450   8
   7  -9  -5 23.6961 4.61658   2
   8   9  -5 3.92366 2.30837   8
  -8  -9  -5 2.89210 2.66059   1
   8   9  -5 0.73011 4.44658   4
   8  -9   5 1.86894 2.80940   8
  -8   9   5 4.54101 2.95502   1
  -8  -9   5 9.39686 2.82648   3
  -8  -9   5 5.48780 3.02314   1
   8   9   5 -2.7462 3.12339   4
  -8  -9   5 10.5456 3.11487   6
  -8   9  -5 5.47847 3.15068   1
   8   9   5 7.07679 2.72499   8
   8  -9  -5 -0.4200 2.17206   8
   9   9  -5 100.249 13.6517   4
  -9  -9  -5 76.6881 9.58347   3
  -9  -9  -5 72.7208 10.5272   1
   9  -9   5 95.1992 10.8303   8
  -9   9   5 77.4109 11.0430   1
   9   9  -5 75.1187 9.77529   8
  -9  -9   5 87.7352 9.90506   3
   9   9   5 96.5819 10.2585   8
  -9  -9   5 92.3351 11.4459   1
   9   9   5 87.5570 14.1583   4
  -9  -9   5 86.9120 10.2691   6
   9  -9  -5 90.1900 10.3275   8
  -9   9  -5 53.6725 10.6248   1
  10  -9   5 30.7437 5.92389   8
  10   9  -5 27.6168 5.07368   8
 -10  -9  -5 37.4356 6.00878   1
 -10  -9  -5 30.3647 5.00849   3
 -10   9   5 28.4033 5.87135   1
 -10  -9   5 29.4664 5.95726   1
  10   9   5 31.3133 5.29059   8
 -10  -9   5 34.7398 5.63190   6
 -10   9  -5 30.0926 6.23393   1
 -10  -9   5 35.1729 5.39984   3
  10  -9  -5 32.6686 5.57896   8
   0 -10   5 0.45846 2.57097   2
   0  10  -5 2.55481 2.43329   2
   0 -10   5 0.77195 2.69066   1
   0 -10  -5 3.75397 2.47019   2
   0  10   5 1.11707 1.89661   2
   0 -10  -5 1.27287 2.63916   1
  -1  10   5 245.051 28.5998   2
  -1  10   5 295.712 28.7609   1
  -1 -10  -5 238.744 28.7087   2
   1 -10   5 232.025 28.7097   2
  -1 -10  -5 218.062 28.2561   1
   1  10  -5 282.216 28.8875   2
   1  10   5 216.848 30.9020   4
   1  10   5 268.778 28.8548   2
  -1 -10   5 247.849 28.8550   2
  -1 -10   5 272.766 28.7644   1
  -1  10  -5 248.719 28.8224   2
   1 -10  -5 304.190 29.1426   2
  -1  10  -5 232.417 28.5794   1
  -2  10   5 7.22314 3.10637   1
  -2  10   5 1.72844 2.62474   2
   2  10  -5 -0.3908 2.19808   2
   2 -10   5 5.01105 2.77720   2
  -2 -10  -5 6.15675 3.04359   1
   2 -10  -5 5.13745 2.82334   2
  -2  10  -5 1.99107 2.92575   2
  -2  10  -5 5.19908 3.10268   1
  -2 -10   5 9.47099 3.38860   1
   2  10   5 0.22179 2.43833   4
   2  10   5 6.20292 2.98276   2
  -3 -10  -5 151.763 16.9893   1
   3  10  -5 121.975 16.8071   2
  -3  10   5 112.582 16.5281   1
   3 -10   5 138.161 16.9553   2
  -3 -10   5 127.845 16.9418   1
   3 -10  -5 165.265 17.3616   2
   3  10   5 172.741 17.3041   2
  -3  10  -5 151.776 17.1220   1
   4  10  -5 108.860 15.6329   4
  -4 -10  -5 104.469 12.7969   1
   4 -10   5 95.9873 12.7064   2
   4  10  -5 94.1050 12.6163   2
  -4  10   5 98.1245 12.6004   1
  -4  10  -5 94.2150 12.8155   1
   4  10   5 103.696 13.8944   4
   4 -10  -5 109.517 12.7957   2
  -4 -10   5 82.5198 12.7296   1
   4  10   5 119.177 12.9473   2
  -5  10   5 4.49128 2.87300   1
   5 -10   5 0.37378 2.64195   2
   5  10  -5 0.81245 2.18070   8
  -5 -10  -5 3.36437 2.71993   1
   5  10  -5 1.83225 2.39357   2
   5  10  -5 6.13215 2.94281   4
  -5  10  -5 0.00009 2.70566   1
   5  10   5 5.78626 2.66877   8
   5  10   5 4.86363 2.69843   2
   5 -10  -5 1.53032 2.30314   2
   5  10   5 1.19402 3.23802   4
  -5 -10   5 3.06872 3.13730   1
   6 -10   5 149.457 15.5796   2
   6  10  -5 130.383 14.2952   8
  -6 -10  -5 119.920 15.4579   1
  -6  10   5 144.101 15.6498   1
   6  10  -5 109.464 14.4618   2
   6  10  -5 128.811 18.2062   4
   6 -10  -5 142.723 15.4630   2
   6  10   5 122.078 14.2816   8
   6  10   5 103.122 14.5985   2
  -6  10  -5 130.105 15.7859   1
  -6 -10   5 123.085 15.7820   1
  -6 -10   5 107.338 14.1428   6
   6  10   5 150.677 15.1202   2
   6  10   5 141.486 17.7483   4
   7  10  -5 0.69907 4.20759   4
  -7 -10  -5 -1.2014 2.54532   1
   7 -10   5 5.07493 2.72660   2
   7  10  -5 5.31653 2.45541   8
  -7  10   5 3.48282 3.01686   1
  -7  10  -5 2.40047 3.18957   1
   7  10   5 1.33077 3.57768   4
  -7 -10   5 1.79482 3.08549   1
   7  10   5 2.50821 2.50304   8
   7 -10  -5 3.70363 2.52297   2
  -7 -10   5 6.29095 3.22566   6
   8  10  -5 3.04467 3.98209   4
  -8 -10  -5 1.22754 2.88843   1
  -8  10   5 0.06317 2.89207   1
   8  10  -5 1.86759 2.09388   8
  -8 -10   5 1.07813 2.43758   6
   8 -10  -5 4.16241 2.66517   8
  -8  10  -5 -1.7092 2.65837   1
   8  10   5 2.71385 2.34118   8
   8  10   5 1.34588 3.55839   4
  -8 -10   5 2.61020 2.92609   1
   9  10  -5 3.11536 2.71197   8
  -9 -10  -5 2.43031 2.81603   1
  -9  10   5 5.29308 3.42153   1
   9 -10   5 3.36772 3.49205   8
   9  10   5 5.81159 2.96120   8
  -9 -10   5 3.37705 2.94130   6
   9 -10  -5 4.33849 3.00005   8
  -9 -10   5 5.67755 3.73367   1
  -9  10  -5 8.63481 3.67495   1
  10  10  -5 47.3171 6.90852   8
 -10 -10  -5 46.8209 7.36168   1
 -10  10   5 41.5196 7.56543   1
  10 -10   5 63.9208 8.16485   8
 -10  10  -5 46.5583 7.94263   1
  10  10   5 32.8493 6.46970   8
 -10 -10   5 42.6852 6.90123   6
  10 -10  -5 39.1069 7.01723   8
 -10 -10   5 62.1819 8.30647   1
   0  11  -5 17.0886 4.27163   2
   0  11   5 18.9577 4.34365   2
   0 -11  -5 16.6370 4.29961   2
   0 -11   5 18.5025 4.48320   2
  -1 -11  -5 12.7350 4.05394   2
  -1  11   5 10.4661 3.21398   2
  -1 -11  -5 10.5771 3.45108   1
   1 -11   5 16.1707 4.14815   2
   1  11  -5 3.80167 3.10324   2
  -1 -11   5 15.3351 4.06808   1
   1  11   5 11.5595 3.77268   2
  -1 -11   5 4.67056 3.37833   2
  -1  11  -5 13.2884 3.79654   2
   1 -11  -5 11.8910 3.75001   2
   2 -11   5 119.866 15.6763   2
   2  11  -5 136.751 15.7118   2
  -2  11   5 113.515 15.3328   1
  -2  11   5 133.134 15.6946   2
  -2 -11  -5 123.389 15.5159   1
   2 -11  -5 121.050 15.7669   2
   2  11   5 97.3943 15.1985   2
   2  11   5 140.001 17.0157   4
  -2  11  -5 155.475 16.1832   1
  -2 -11   5 136.995 15.9096   1
  -2  11  -5 133.056 16.1132   2
  -3 -11  -5 168.907 18.1598   1
  -3  11   5 132.837 17.6734   1
   3 -11   5 169.780 18.2917   2
   3  11  -5 131.206 17.8199   2
   3  11   5 155.679 19.6219   4
   3  11   5 145.385 18.0145   2
  -3  11  -5 169.593 18.3347   1
   3 -11  -5 127.725 17.8712   2
  -3 -11   5 151.162 18.0622   1
   4 -11   5 1.64928 2.80355   2
   4  11  -5 4.17635 3.95602   4
  -4 -11  -5 7.00842 3.29413   1
  -4  11   5 6.24758 3.35521   1
   4  11  -5 6.06014 3.01994   2
  -4  11  -5 5.08992 3.29828   1
   4  11   5 -0.1653 3.10091   4
   4 -11  -5 6.46186 3.14966   2
  -4 -11   5 4.64159 3.22703   1
   4  11   5 3.05697 2.78920   2
  -5  11   5 50.9439 9.18295   1
   5  11  -5 62.9272 11.5285   4
  -5 -11  -5 68.1065 9.85283   1
   5 -11   5 65.8928 9.71964   2
   5  11  -5 68.1433 9.05309   2
  -5 -11   5 56.6201 9.53072   1
  -5  11  -5 64.4239 9.94875   1
   5  11   5 70.8186 9.27056   2
   5 -11  -5 77.3319 9.57195   2
   5  11   5 80.9509 11.6865   4
  -6  11   5 9.83241 3.83213   1
  -6 -11  -5 15.5515 3.95523   1
   6  11  -5 7.39423 4.88645   4
   6 -11   5 7.68172 3.14761   2
   6  11  -5 12.4361 2.96801   2
  -6 -11   5 8.48212 3.58002   1
   6 -11  -5 9.68439 3.48714   2
   6  11   5 8.49336 3.95455   4
  -6  11  -5 5.41515 3.72733   1
   6  11   5 5.73193 3.02734   2
   6  11   5 9.68500 2.94777   2
   7  11  -5 2.10850 2.54414   8
   7  11  -5 -6.4184 3.69438   4
  -7  11   5 3.74148 3.25811   1
  -7 -11  -5 4.81240 3.37587   1
   7 -11   5 4.78306 2.33869   2
  -7 -11   5 5.87870 3.61577   1
   7  11   5 7.55268 3.80168   4
   7 -11  -5 4.71317 2.90352   2
   7  11   5 8.08817 3.05565   8
  -7  11  -5 8.79840 3.87748   1
   8  11  -5 48.3989 7.28325   8
  -8 -11  -5 52.7065 8.02541   1
  -8  11   5 39.4609 7.78364   1
  -8 -11   5 42.9639 7.37996   6
   8  11   5 45.5710 7.23782   8
  -8  11  -5 50.3981 8.43653   1
  -8 -11   5 62.4585 8.72447   1
  -9 -11  -5 60.6043 9.84218   1
   9  11  -5 70.3260 9.64869   8
  -9  11   5 78.4859 10.8591   1
  -9 -11   5 66.7099 9.41047   6
  -9 -11   5 77.1430 10.7554   1
   9  11   5 78.8407 9.91010   8
  -9  11  -5 64.2571 10.4566   1
   0  12  -5 3.84076 2.82613   2
   0 -12   5 2.79477 3.05872   2
   0 -12  -5 4.05854 2.90938   2
   0  12   5 -2.0122 2.83697   2
   1 -12   5 -3.4150 2.60052   2
  -1 -12  -5 3.89573 3.09040   1
  -1  12   5 1.08578 2.87882   2
   1  12  -5 0.36881 2.56254   2
   1 -12  -5 -1.8885 2.49699   2
   1  12   5 0.84012 2.60313   2
  -1 -12   5 -3.8281 2.29356   1
  -1  12  -5 4.98553 3.29085   2
  -2 -12  -5 51.2760 7.93401   1
   2 -12   5 49.9915 8.07765   2
   2  12  -5 50.5930 7.98003   2
  -2  12  -5 50.7606 8.26909   2
  -2 -12   5 55.4795 8.46011   1
   2 -12  -5 38.3967 7.64374   2
   2  12   5 47.3794 8.10257   2
  -3  12   5 278.891 27.9178   1
   3  12  -5 214.775 27.5978   2
  -3 -12  -5 263.507 27.8473   1
   3 -12   5 254.748 27.9773   2
   3 -12  -5 182.151 27.3786   2
   3  12   5 259.316 30.3385   4
  -3 -12   5 219.205 27.6536   1
  -3  12  -5 212.298 27.6684   1
   3  12   5 294.258 28.2589   2
  -4 -12  -5 84.2718 11.0286   1
   4  12  -5 84.6989 10.7623   2
   4 -12   5 72.0892 10.9497   2
  -4  12   5 56.7487 10.6998   1
   4  12  -5 74.2427 13.5683   4
   4  12   5 78.3033 11.1721   2
  -4 -12   5 88.0303 11.3491   1
   4  12   5 73.2168 12.0619   4
   4 -12  -5 79.9754 11.0703   2
  -4  12  -5 85.5001 11.7035   1
  -5  12   5 10.0401 4.29490   1
   5 -12   5 12.6599 3.97326   2
  -5 -12  -5 8.07563 3.83376   1
   5  12  -5 11.2984 3.90290   2
   5  12  -5 11.0741 5.85689   4
   5  12   5 20.6634 5.69560   4
   5 -12  -5 9.36754 3.98197   2
  -5  12  -5 17.4104 5.01538   1
   5  12   5 14.0163 3.90540   2
  -5 -12   5 14.0270 4.72056   1
   6 -12   5 14.7454 4.14144   2
   6  12  -5 9.03042 5.27910   4
  -6  12   5 12.3989 4.39994   1
  -6 -12  -5 8.31655 3.80592   1
   6  12  -5 11.2594 3.01139   2
  -6  12  -5 8.71696 4.44088   1
  -6 -12   5 8.47365 4.51582   1
   6  12   5 9.11266 3.46437   2
   6  12   5 14.1250 3.43670   2
   6  12   5 18.1233 5.36603   4
   6 -12  -5 14.4082 3.92872   2
  -7 -12  -5 301.189 30.1938   1
   7 -12   5 223.931 29.3993   2
  -7  12   5 262.418 30.0427   1
  -7 -12   5 271.432 30.2721   1
   7 -12  -5 254.751 29.5710   2
   7  12   5 255.472 33.7058   4
  -7  12  -5 267.533 30.3556   1
  -8 -12  -5 1.73843 2.95526   1
  -8  12   5 -5.2246 2.86490   1
  -8 -12   5 3.90033 3.60034   1
  -8  12  -5 3.31403 3.93587   1
   0 -13   5 86.5083 13.4845   2
   0  13   5 93.8357 13.4747   2
   0 -13  -5 123.874 14.0898   2
   0  13  -5 115.280 13.8842   2
   1  13  -5 0.38452 3.05898   2
  -1  13   5 2.65791 3.04736   2
   1 -13   5 3.99187 3.44722   2
   1  13   5 1.05916 3.27819   2
   1 -13  -5 4.24449 3.30966   2
  -1  13  -5 3.51623 3.42100   2
   2  13  -5 6.96083 3.52443   2
   2 -13   5 5.83889 3.50554   2
  -2 -13  -5 2.71893 3.47516   1
   2  13   5 2.75911 2.96002   2
  -2 -13   5 2.09256 3.25093   1
   2 -13  -5 2.18228 3.39312   2
  -3 -13  -5 7.53398 3.99320   1
  -3  13   5 7.02331 4.07969   1
   3 -13   5 13.4305 4.47495   2
   3  13  -5 12.4696 3.97123   2
   3 -13  -5 6.23771 3.79724   2
  -3 -13   5 6.46530 3.69583   1
   3  13   5 7.54013 3.80209   2
  -4  13   5 39.8009 6.71710   1
  -4 -13  -5 33.4118 6.47005   1
   4 -13   5 23.1354 5.80656   2
   4  13  -5 29.7138 5.76159   2
   4  13  -5 31.0531 8.89908   4
  -4 -13   5 30.5819 6.44517   1
   4  13   5 28.2926 5.99467   2
   4 -13  -5 27.0541 5.65309   2
   4  13   5 18.5560 6.31897   4
  -4  13  -5 18.2344 5.63072   1
  -5 -13  -5 18.5233 5.47881   1
   5  13  -5 29.9992 5.64787   2
   5 -13   5 23.2566 5.55364   2
   5  13  -5 18.3104 6.78074   4
  -5  13   5 22.4207 5.51623   1
   5  13   5 21.0709 4.97724   2
  -5 -13   5 22.0896 5.64418   1
  -5  13  -5 20.3906 5.63710   1
   5  13   5 21.0834 6.07117   4
   5 -13  -5 19.1613 5.00507   2
  -6  13   5 17.6886 5.17772   1
   6  13  -5 17.0432 4.09445   2
  -6 -13  -5 13.1766 4.91153   1
   6 -13   5 24.4210 5.26237   2
   6  13   5 16.3064 4.41912   2
   6 -13  -5 19.0422 4.92397   2
  -6  13  -5 22.9565 5.70529   1
  -6 -13   5 19.1112 5.36503   1
   6  13   5 24.8417 6.38019   4
  -7  13   5 4.39665 3.26843   1
   7 -13   5 1.13345 2.84727   2
  -7 -13  -5 5.32091 3.78461   1
  -7  13  -5 3.95353 3.72146   1
  -7 -13   5 3.55772 3.60888   1
   7 -13  -5 -0.6561 2.64587   2
  -8  13   5 172.176 23.3271   1
  -8 -13  -5 214.799 23.5748   1
  -8  13  -5 189.912 23.7654   1
  -8 -13   5 210.480 23.9151   1
   0 -14  -5 -1.2309 2.68143   2
   0 -14   5 -3.2417 3.21619   2
   0  14  -5 0.35508 3.09330   2
   0  14   5 1.38704 3.46041   2
   1 -14   5 13.1388 4.07794   2
  -1  14   5 -0.4679 3.66254   2
   1  14  -5 -0.9984 3.28099   2
   1 -14  -5 8.43795 3.90764   2
  -1  14  -5 4.57242 3.77774   2
   1  14   5 2.10895 2.61040   2
   2  14  -5 2.32796 3.25423   2
   2 -14   5 1.22231 3.00483   2
   2  14   5 2.89100 3.07514   2
  -2 -14   5 8.22765 4.21945   1
   2 -14  -5 4.02584 4.00247   2
   3  14  -5 21.7158 5.27729   2
   3 -14   5 25.0042 6.06368   2
   3  14  -5 28.0994 7.84369   4
  -3 -14  -5 24.0935 5.89785   1
   3 -14  -5 26.7766 5.90485   2
   3  14   5 22.1857 5.72911   2
  -3 -14   5 24.8470 6.02709   1
   4  14  -5 49.7302 8.19315   2
   4 -14   5 50.9000 8.73794   2
  -4  14   5 49.5698 8.65890   1
  -4 -14  -5 41.1329 8.16066   1
   4  14   5 57.6018 8.56889   2
   4 -14  -5 42.4317 8.08384   2
  -4 -14   5 52.7224 8.83442   1
  -5 -14  -5 41.6605 7.85687   1
   5 -14   5 33.8013 7.13896   2
  -5  14   5 40.3822 7.88849   1
   5  14  -5 55.2949 8.07842   2
  -5 -14   5 35.7903 7.56567   1
   5  14   5 35.7553 8.05160   4
  -5  14  -5 41.0639 8.23449   1
   5  14   5 45.1107 7.58464   2
   5 -14  -5 35.5471 7.28386   2
   5  14   5 41.5641 7.15278   2
   6 -14   5 150.995 19.8406   2
   6  14  -5 173.078 19.2634   2
  -6  14   5 157.253 20.2944   1
  -6 -14  -5 160.241 20.0193   1
   6 -14  -5 166.132 19.9394   2
  -6 -14   5 139.945 19.9607   1
   6  14   5 170.876 19.2665   2
  -6  14  -5 171.556 20.6713   1
   0  15  -5 38.0234 7.41166   2
   0 -15   5 30.8808 7.17149   2
   0  15   5 35.3976 7.28560   2
   0 -15  -5 44.6381 8.05334   2
   1 -15   5 -4.4448 3.47236   2
   1  15  -5 -1.0234 3.12260   2
  -1  15   5 1.56744 3.08233   2
   1  15   5 1.23370 3.20796   2
   1 -15  -5 -3.0466 3.23276   2
  -1  15  -5 2.17314 3.30337   2
   2  15  -5 121.034 16.9888   2
   2 -15   5 130.122 17.3736   2
   2  15   5 126.786 17.3834   2
   2 -15  -5 160.855 17.6567   2
  -3 -15  -5 0.57998 3.34262   1
   3 -15   5 -1.6173 3.36819   2
   3  15  -5 0.72201 3.08700   2
   3 -15  -5 -4.1835 2.63851   2
  -3 -15   5 -1.5865 3.44582   1
   3  15   5 6.74452 4.00240   2
  -4 -15  -5 6.36501 4.18273   1
   4 -15   5 3.52858 4.17377   2
   4  15  -5 5.83860 3.47349   2
   4  15   5 -1.2870 3.42831   2
   4 -15  -5 4.10851 3.88620   2
  -4 -15   5 13.0543 5.15975   1
   5  15  -5 61.4805 9.20317   2
   5 -15   5 57.5047 9.21419   2
  -5  15   5 50.0709 9.12648   1
  -5 -15  -5 49.4163 9.05166   1
   5  15   5 43.8249 8.24977   2
   5  15   5 40.5559 8.01443   2
   5 -15  -5 62.8910 9.30165   2
  -5 -15   5 53.5173 9.37582   1
   0  16  -5 1.75035 3.13549   2
   0  16   5 5.19995 3.71454   2
  -1  16   5 19.2296 5.60082   2
   1  16  -5 16.7260 5.16258   2
   1 -16   5 22.0505 6.30479   2
  -1  16  -5 18.2709 5.87364   2
   1 -16  -5 27.7379 6.60172   2
   1  16   5 24.9614 5.84033   2
   2 -16   5 -3.6097 3.84393   2
   2  16  -5 2.24962 4.01638   2
   2 -16  -5 -4.7556 3.28300   2
   2  16   5 -0.5693 3.92074   2
   3 -16   5 3.95669 3.78580   2
   3  16  -5 12.9487 4.17816   2
   3 -16  -5 7.83848 4.18823   2
   3  16   5 5.67343 4.17601   2
   0   0  -6 441.018 53.9198   2
   0   0   6 572.408 54.3264   7
   0   0  -6 462.743 54.2539   7
  -1   0  -6 0.63112 1.19019   2
   1   0  -6 2.29938 1.34687   7
   1   0   6 1.20790 1.41368   2
   1   0  -6 1.76684 1.23695   2
  -1   0   6 -0.2682 1.23521   7
  -1   0   6 -0.0797 1.11387   2
  -1   0  -6 1.56190 1.36750   7
   1   0   6 1.10146 1.14214   7
  -2   0  -6 459.963 53.4276   7
  -2   0   6 525.838 52.7121   1
  -2   0  -6 473.690 52.7376   1
  -2   0  -6 490.184 53.2304   2
  -2   0   6 505.380 53.5450   7
   2   0  -6 510.106 53.2310   2
   2   0   6 416.474 53.2714   7
   2   0  -6 508.654 53.3263   7
   2   0   6 508.327 55.3851   5
  -3   0  -6 0.68611 0.86278   7
  -3   0   6 0.93068 1.23211   1
   3   0   6 3.23964 1.16852   8
   3   0  -6 0.13232 1.20218   2
   3   0   6 3.73075 1.47189   2
  -3   0  -6 -0.5008 1.17102   1
   3   0  -6 1.47394 1.09879   8
   3   0   6 -0.3624 1.80282   5
  -3   0   6 3.83500 1.30227   7
   3   0  -6 0.05972 1.29434   4
  -4   0  -6 263.615 28.6974   7
  -4   0  -6 259.464 25.3495   3
   4   0   6 286.346 26.4868   8
  -4   0   6 233.042 28.6433   7
  -4   0   6 265.407 28.4142   1
   4   0  -6 239.962 31.1000   4
   4   0   6 256.807 30.1148   5
   4   0  -6 252.540 26.3544   8
   4   0  -6 267.823 28.5520   2
  -4   0  -6 272.760 28.5124   1
  -5   0  -6 1.94124 1.43318   1
   5   0  -6 1.09087 1.08646   8
   5   0  -6 -1.0266 1.06061   8
  -5   0   6 2.78277 1.00974   7
   5   0   6 1.23069 2.41876   4
   5   0  -6 0.86853 0.70376   2
  -5   0  -6 1.23867 1.06495   3
   5   0   6 18.3852 3.42591   5
  -5   0   6 2.12398 1.20278   3
   5   0   6 0.22093 1.03315   8
   5   0  -6 0.92011 0.66832   2
  -5   0   6 0.32000 1.22650   1
   5   0  -6 0.93991 1.44994   4
   5   0   6 1.80538 1.13883   2
  -6   0   6 6.13431 1.45814   3
  -6   0   6 5.82272 1.30350   7
  -6   0   6 4.62617 1.63979   1
   6   0   6 6.97094 3.52003   4
   6   0  -6 2.80150 1.88395   4
   6   0   6 1.99479 1.18912   8
   6   0  -6 9.41753 1.69770   8
  -6   0  -6 4.03896 1.35688   3
  -6   0  -6 4.74093 1.75104   1
   6   0  -6 5.65327 1.36902   8
   7   0   6 1.01683 3.12987   4
   7   0  -6 5.12454 1.48411   8
  -7   0  -6 -0.6007 1.26475   1
  -7   0  -6 -0.0488 1.01648   3
   7   0  -6 -0.2273 1.00884   8
  -7   0   6 0.11693 1.43981   1
  -7   0   6 7.20894 1.63473   3
   7   0   6 2.21099 1.20121   8
   8   0   6 733.565 86.0245   4
  -8   0  -6 764.303 68.3500   3
  -8   0   6 731.389 68.4177   3
  -8   0   6 722.251 76.5048   1
   8   0   6 747.419 71.2207   8
   8   0  -6 617.875 70.9819   8
  -8   0  -6 683.177 76.5611   1
  -9   0  -6 1.18540 1.17763   3
  -9   0   6 0.47059 1.34506   3
   9   0   6 0.57697 1.21064   8
   9   0  -6 1.57918 1.14544   8
  -9   0   6 2.37930 1.72298   1
  -9   0  -6 -2.3795 1.45979   1
  10   0  -6 399.920 37.3447   8
 -10   0   6 336.306 40.2747   1
 -10   0  -6 350.560 36.0526   3
 -10   0   6 395.568 36.1217   3
 -11   0  -6 -1.2406 2.20842   1
  11   0  -6 -0.3921 1.31606   8
 -11   0   6 2.41012 1.82742   1
 -11   0  -6 -0.0583 1.62164   3
  11   0   6 0.23103 1.37203   8
 -11   0   6 -1.9165 1.26179   3
  12   0  -6 97.4422 11.0677   8
 -12   0  -6 111.906 12.6964   1
 -12   0   6 114.594 10.8459   3
 -12   0   6 104.877 12.1876   1
 -12   0  -6 98.7012 11.0086   3
  12   0   6 99.5216 11.1714   8
   0  -1   6 1.70021 1.46926   2
   0  -1   6 0.25063 1.43286   7
   0   1   6 0.95480 1.44578   2
   0  -1  -6 0.35249 1.25467   2
   0   1   6 0.08381 1.31554   7
   0   1  -6 0.29039 1.27570   2
   0   1  -6 2.07484 1.43845   7
   0  -1  -6 -0.1602 1.36852   7
  -1   1   6 245.764 33.0362   2
  -1  -1  -6 308.861 33.2322   7
   1  -1   6 254.516 33.1039   7
  -1  -1  -6 294.928 33.0602   2
   1  -1   6 354.889 33.3226   2
   1   1  -6 329.430 33.2069   7
   1   1  -6 294.370 33.0762   2
  -1   1   6 276.523 33.1605   7
   1  -1   6 263.360 34.3156   5
  -1  -1   6 313.230 33.1389   2
  -1   1  -6 255.756 33.0348   2
  -1  -1   6 292.230 33.2629   7
   1  -1  -6 336.965 33.1597   2
   1   1   6 339.436 33.2843   7
   1  -1  -6 336.030 33.2982   7
  -1   1  -6 275.181 33.2248   7
   1   1   6 364.224 33.2881   2
   2  -1   6 74.9692 7.24175   2
   2   1  -6 41.5692 6.16756   8
  -2   1   6 63.8526 7.14400   2
  -2  -1  -6 48.5939 6.81452   1
  -2  -1  -6 58.0853 6.81518   7
  -2  -1  -6 50.9321 6.87249   2
  -2   1   6 52.0338 6.73249   1
  -2   1   6 56.8440 6.89339   7
   2   1  -6 64.8155 6.78065   7
   2   1   6 58.8226 7.80013   4
   2   1   6 52.8763 6.60105   7
  -2   1  -6 65.0193 6.98223   7
  -2  -1   6 56.9700 6.79534   1
  -2   1  -6 40.1786 6.87614   2
   2   1   6 47.2806 6.85268   2
   2   1   6 64.5170 7.66422   5
  -2  -1   6 53.2222 6.90492   7
   2  -1  -6 53.1326 6.88250   2
   2  -1  -6 58.2087 6.66464   7
  -2   1  -6 59.0020 7.02283   1
  -3  -1  -6 1271.23 128.097   1
   3   1  -6 1099.06 141.241   4
  -3  -1  -6 1307.98 130.034   7
   3   1  -6 1075.65 129.205   2
   3  -1   6 1356.91 129.464   2
   3  -1   6 1199.42 119.327   8
  -3   1   6 1374.63 130.089   7
   3  -1   6 1068.56 133.849   5
   3   1   6 1315.83 134.114   5
   3  -1  -6 1060.69 119.176   8
  -3  -1   6 1207.51 127.972   1
   3   1   6 1210.83 141.662   4
  -3  -1   6 1272.89 130.007   7
   3  -1  -6 1125.53 140.765   4
  -3   1  -6 1030.47 128.040   1
   3   1   6 1203.51 129.343   2
   4  -1   6 11.2014 2.98421   5
   4  -1   6 7.71780 2.04054   2
   4  -1   6 10.7337 1.99049   8
  -4  -1  -6 12.1148 2.31888   1
  -4  -1  -6 10.4852 1.97578   7
  -4   1   6 10.6366 2.14520   7
  -4   1   6 8.41256 2.03965   1
   4   1  -6 14.1537 2.18908   2
   4   1  -6 22.1608 3.11863   4
   4   1  -6 6.04806 1.67563   8
  -4  -1  -6 11.2370 1.88852   3
   4   1   6 9.80429 3.25247   4
  -4   1  -6 9.67895 2.07643   7
  -4   1  -6 10.7312 2.04155   3
  -4  -1   6 12.9048 2.24149   1
   4  -1  -6 16.7796 2.40626   2
   4  -1  -6 10.7524 1.96193   8
   4   1   6 13.6743 2.30778   2
  -4   1  -6 11.9183 2.38945   1
   4  -1  -6 12.0707 2.01938   4
   4   1   6 9.69607 1.98645   8
   4   1   6 8.95520 2.87654   5
  -4  -1   6 7.97085 1.80458   7
  -5   1   6 20.7117 2.82145   7
   5   1  -6 15.4043 2.18855   2
  -5  -1  -6 19.2831 2.63521   3
   5  -1   6 18.9712 2.76886   2
   5   1  -6 25.6968 2.92400   8
   5   1  -6 11.7862 2.39903   8
   5  -1   6 16.6734 2.64448   8
   5  -1   6 20.9969 4.35100   5
  -5  -1  -6 16.0509 3.00322   1
  -5   1   6 18.7171 3.01378   1
   5   1  -6 13.3143 3.34677   4
   5  -1   6 20.9759 2.79417   8
   5   1  -6 21.2275 2.21149   2
  -5   1   6 16.4482 2.72013   3
   5   1   6 18.5777 2.72991   8
   5  -1  -6 16.3485 2.41653   2
  -5  -1   6 14.8572 2.60083   7
  -5  -1   6 18.5630 2.77911   3
  -5   1  -6 19.4748 3.23272   1
  -5   1  -6 15.6702 2.66880   3
   5   1   6 23.9850 4.17090   5
   5  -1  -6 16.5130 3.00441   4
   5  -1  -6 26.5684 2.83769   8
  -5  -1   6 16.2861 2.93133   1
   5   1   6 18.4871 2.53938   2
   5   1   6 14.6478 4.02051   4
   5  -1  -6 15.5703 2.52264   2
  -6  -1  -6 616.574 53.1494   3
  -6   1   6 556.296 60.0134   7
  -6   1   6 615.024 53.2122   3
   6   1  -6 530.643 65.7298   4
   6  -1   6 574.918 55.2813   8
   6   1  -6 617.662 55.3547   8
   6  -1  -6 551.846 55.3588   8
  -6  -1   6 543.871 53.1390   3
  -6   1  -6 593.274 53.2093   3
   6   1   6 550.812 55.2595   8
   6  -1  -6 552.803 55.1927   8
  -6  -1   6 471.529 59.9217   7
  -6  -1   6 474.741 59.3096   1
   6   1   6 485.288 62.4795   5
   7   1  -6 249.539 23.9485   8
   7  -1   6 214.557 23.8727   8
   7   1  -6 258.429 28.8792   4
  -7  -1  -6 256.762 23.0659   3
  -7   1   6 276.913 23.1871   3
  -7  -1  -6 237.820 25.8391   1
   7   1  -6 238.893 23.8103   8
   7   1   6 245.433 23.9103   8
  -7  -1   6 203.438 22.9978   3
  -7  -1   6 200.288 25.6772   1
   7  -1  -6 234.814 23.8051   8
  -7   1  -6 234.380 23.1069   3
  -7   1  -6 213.729 25.8559   1
  -8  -1  -6 16.1407 2.60040   3
   8   1  -6 16.9216 2.74002   8
  -8   1   6 20.2149 3.18380   1
   8  -1   6 15.3823 2.58633   8
  -8   1   6 15.9111 2.69497   3
   8   1  -6 15.9567 2.45223   8
  -8  -1  -6 12.0949 2.91068   1
   8   1   6 12.8853 2.43033   8
   8  -1  -6 15.6825 2.45126   8
  -8  -1   6 18.7051 2.80139   3
  -8  -1   6 18.1824 3.09333   1
   8   1   6 14.3928 4.76982   4
  -8   1  -6 19.4414 3.43566   1
  -8   1  -6 22.0320 2.92047   3
   9  -1   6 152.740 15.2266   8
  -9   1   6 164.081 14.7665   3
   9   1  -6 141.116 15.0311   8
  -9   1   6 150.218 16.4437   1
  -9  -1  -6 145.710 16.5382   1
  -9  -1  -6 138.804 14.6569   3
   9   1   6 140.458 19.9698   4
   9  -1  -6 123.247 15.0512   8
  -9  -1   6 162.923 16.5147   1
   9   1   6 164.590 15.2353   8
  -9  -1   6 139.923 14.7203   3
  -9   1  -6 132.298 16.6252   1
 -10   1   6 76.4205 9.23902   1
 -10   1   6 79.5914 8.08217   3
 -10  -1  -6 75.8877 8.12849   3
 -10  -1  -6 81.8611 9.39982   1
  10   1  -6 64.5452 8.14208   8
  10  -1   6 75.2215 8.35353   8
 -10   1  -6 78.8264 8.36311   3
  10  -1  -6 64.1024 8.20697   8
 -10  -1   6 77.1757 9.14913   1
  10   1   6 85.5294 8.44420   8
 -10  -1   6 83.1214 8.25387   3
 -10   1  -6 88.1941 9.67351   1
  10   1   6 60.7331 12.2644   4
 -11   1   6 172.500 17.9697   3
 -11  -1  -6 168.966 17.9795   3
 -11  -1  -6 199.683 20.5181   1
  11  -1   6 173.576 18.7022   8
  11   1  -6 194.772 18.6247   8
 -11   1   6 187.651 20.3088   1
 -11   1  -6 176.134 20.5292   1
  11   1   6 142.098 24.0377   4
 -11  -1   6 163.347 18.0355   3
 -11   1  -6 201.308 18.2865   3
  11   1   6 198.477 18.8013   8
  11  -1  -6 189.440 18.6465   8
 -11  -1   6 167.880 20.1538   1
  12  -1   6 132.825 13.6249   8
 -12   1   6 128.811 14.7155   1
  12   1  -6 133.647 13.3991   8
 -12  -1  -6 116.583 14.8897   1
 -12  -1  -6 123.489 13.1468   3
 -12  -1   6 156.721 13.3116   3
  12  -1  -6 140.434 13.4851   8
  12   1   6 120.250 13.4720   8
 -12   1  -6 124.147 15.0303   1
 -12   1  -6 114.722 13.1852   3
 -12  -1   6 107.908 14.4970   1
   0  -2  -6 6.20715 1.90375   2
   0   2   6 7.12766 1.80122   7
   0   2   6 9.23525 2.04610   2
   0   2  -6 8.39006 2.22925   2
   0   2  -6 6.19886 1.77075   7
   0  -2   6 9.07708 2.17700   2
   0  -2  -6 4.95777 1.73168   7
   0  -2   6 1.22371 1.81425   5
   0  -2   6 12.0588 2.21693   7
   1   2  -6 523.977 59.0514   7
  -1  -2  -6 535.660 59.0509   7
  -1   2   6 481.436 58.9656   7
   1  -2   6 452.449 60.8106   5
  -1  -2  -6 545.126 58.7622   2
   1   2  -6 465.373 58.6807   2
   1  -2   6 609.440 59.1575   7
   1  -2   6 529.176 58.8192   2
   1   2   6 558.844 58.8234   2
   1   2   6 609.292 64.1904   4
  -1   2  -6 580.805 59.2583   7
  -1  -2   6 546.492 58.8338   2
   1   2   6 569.925 59.0418   7
   1  -2  -6 588.572 58.8879   2
  -1   2  -6 490.146 58.9003   2
  -2  -2  -6 3.29842 1.53869   1
  -2  -2  -6 4.15332 1.54828   7
   2  -2   6 3.33472 1.38869   7
  -2   2   6 2.66277 1.37527   7
   2   2  -6 2.69581 1.26170   8
  -2   2   6 2.66243 1.55221   2
  -2   2   6 3.27208 1.48854   1
   2  -2   6 2.67762 1.99689   5
   2   2  -6 3.17238 1.55587   2
   2  -2   6 5.25930 1.71020   2
  -2  -2  -6 4.90231 1.76921   2
   2   2  -6 5.18150 1.45160   7
   2  -2   6 5.04284 1.37603   7
   2   2   6 5.13008 1.70069   8
  -2   2  -6 4.33801 1.86893   1
  -2  -2   6 4.99092 1.74024   2
   2   2   6 4.90655 2.01091   4
  -2   2  -6 5.42690 1.62826   7
   2   2   6 4.81509 1.36566   7
   2  -2  -6 3.95825 1.47225   7
   2   2   6 3.35983 1.68764   2
  -2  -2   6 2.99747 1.54764   1
   2  -2  -6 4.66849 1.59792   2
  -2   2  -6 6.59016 2.12823   2
  -2  -2   6 5.29934 1.59337   7
  -3  -2  -6 89.5282 10.7508   1
   3  -2   6 101.645 11.6525   5
   3  -2   6 104.556 10.1314   8
  -3  -2  -6 81.8445 10.6768   7
   3   2  -6 73.4306 9.74529   8
  -3   2   6 104.740 10.8002   1
  -3   2   6 102.014 10.8407   7
   3  -2   6 101.257 11.0125   2
   3   2  -6 79.0691 10.5998   2
   3  -2  -6 93.6946 9.94970   8
   3   2   6 112.184 11.7929   5
   3   2   6 103.237 10.8973   2
   3  -2  -6 93.7728 10.8281   2
  -3   2  -6 73.2151 10.6744   7
  -3  -2   6 99.1940 10.7527   7
   3   2   6 89.4774 9.93539   8
   3   2   6 95.1544 12.3434   4
   4   2  -6 772.982 109.976   4
  -4  -2  -6 910.047 89.0511   3
   4  -2   6 1043.38 100.692   2
  -4   2   6 1068.37 101.165   7
  -4  -2  -6 926.238 99.6827   1
   4   2  -6 986.016 100.466   2
   4  -2  -6 893.345 100.499   2
  -4  -2   6 1066.74 99.6757   1
   4  -2  -6 895.235 109.427   4
  -4  -2   6 846.751 100.991   7
  -4   2  -6 802.184 89.0028   3
   4   2   6 820.701 92.7043   8
  -4   2  -6 991.172 101.139   7
   4  -2  -6 1005.82 92.7947   8
   4   2   6 911.857 104.284   5
  -4   2  -6 949.014 99.8129   1
  -5   2   6 35.7797 6.45982   1
   5   2  -6 56.6007 6.02154   2
   5   2  -6 53.2466 5.99572   2
   5   2  -6 55.7710 7.69107   4
  -5   2   6 55.4963 5.85833   3
   5   2  -6 53.5289 5.99421   8
  -5  -2  -6 53.4669 6.71798   1
  -5   2   6 57.0184 6.47460   7
   5  -2   6 61.4591 6.29725   8
   5  -2   6 53.3226 6.44412   2
   5   2  -6 49.7861 6.10227   8
  -5  -2  -6 67.0289 6.04857   3
  -5  -2   6 50.6888 6.35288   7
   5  -2  -6 50.2851 6.01595   8
   5   2   6 48.2746 6.01646   8
   5   2   6 52.6581 8.80834   4
   5   2   6 58.4351 7.62329   5
  -5  -2   6 44.0649 6.45938   1
   5  -2  -6 52.8288 6.27694   2
   5   2   6 53.1244 6.22156   2
  -5   2  -6 52.3364 5.97716   3
  -5   2  -6 58.2729 6.96350   1
  -5  -2   6 54.3886 5.98135   3
  -6   2   6 228.257 28.1196   7
   6   2  -6 287.236 26.1183   8
   6  -2   6 237.153 26.0117   8
  -6  -2  -6 295.407 25.1112   3
  -6  -2  -6 244.371 28.0200   1
  -6   2   6 262.471 24.9414   3
   6   2  -6 288.141 31.2886   4
  -6   2   6 215.609 27.9243   1
   6   2   6 327.461 32.5633   4
   6   2   6 259.429 25.9634   8
  -6   2  -6 255.677 28.1917   1
  -6  -2   6 200.474 27.7935   1
  -6  -2   6 292.626 28.0831   7
  -6   2  -6 221.813 28.1804   7
  -6   2  -6 261.718 25.1301   3
   6  -2  -6 272.902 25.9655   8
   6   2   6 273.821 29.8606   5
  -6  -2   6 233.621 24.9761   3
   7  -2   6 370.208 39.5608   8
  -7   2   6 413.891 37.9352   3
   7   2  -6 374.526 39.3625   8
  -7  -2  -6 333.593 42.4595   1
  -7   2   6 388.649 42.5722   1
  -7  -2  -6 446.225 38.0828   3
   7   2  -6 398.667 47.4334   4
   7  -2  -6 380.628 39.4793   8
  -7  -2   6 411.098 38.0362   3
   7   2   6 420.812 39.5212   8
   7   2   6 353.443 47.9877   4
  -7   2  -6 437.021 42.8161   1
  -7   2  -6 368.031 38.0446   3
  -8  -2  -6 260.083 30.1797   1
  -8   2   6 291.868 26.9351   3
   8  -2   6 247.971 28.0418   8
  -8  -2  -6 258.008 26.9555   3
   8   2  -6 246.739 27.8207   8
   8   2   6 309.543 28.0533   8
  -8   2  -6 283.455 30.4408   1
  -8  -2   6 284.896 26.9927   3
  -8  -2   6 250.976 30.0778   1
   8   2   6 323.409 35.2361   4
   8  -2  -6 262.109 27.9703   8
  -8   2  -6 329.849 27.2146   3
   9  -2   6 77.9178 8.44852   8
  -9  -2  -6 73.7549 9.11177   1
  -9   2   6 69.0851 8.00659   3
  -9  -2  -6 69.3412 8.05734   3
  -9   2   6 93.0690 9.38049   1
   9   2  -6 76.5155 8.14202   8
  -9   2  -6 62.0642 9.19543   1
   9   2   6 79.8976 8.33093   8
   9  -2  -6 79.7359 8.35904   8
   9   2   6 76.7803 12.4346   4
  -9  -2   6 77.6638 9.14167   1
  -9   2  -6 78.8674 8.24082   3
  -9  -2   6 67.3972 8.01523   3
  10  -2   6 14.4556 2.81107   8
 -10  -2  -6 14.4680 3.12064   1
  10   2  -6 11.6001 2.38419   8
 -10   2   6 15.3750 3.22389   1
 -10  -2  -6 13.8015 2.57471   3
  10  -2  -6 14.7880 2.66768   8
  10   2   6 12.1472 5.44388   4
 -10   2  -6 15.2719 2.92002   3
 -10   2  -6 17.2244 3.52905   1
 -10  -2   6 14.5665 3.13116   1
 -10  -2   6 15.9526 2.79981   3
  10   2   6 16.9722 2.70854   8
  11   2  -6 165.808 17.0249   8
  11  -2   6 142.409 17.2390   8
 -11  -2  -6 170.674 18.6790   1
 -11  -2  -6 154.977 16.5417   3
 -11   2   6 176.167 18.6432   1
  11  -2  -6 172.083 17.2172   8
 -11   2  -6 176.954 18.9200   1
 -11  -2   6 156.807 16.6136   3
 -11  -2   6 167.802 18.6267   1
 -11   2  -6 177.830 16.8674   3
  11   2   6 151.370 22.8147   4
  11   2   6 161.243 17.1080   8
 -12   2   6 175.472 19.4547   1
  12   2  -6 179.164 17.7980   8
 -12  -2  -6 172.622 19.5696   1
 -12  -2  -6 181.126 17.2685   3
  12  -2  -6 178.503 17.9555   8
  12   2   6 159.979 17.8960   8
 -12  -2   6 182.391 17.3743   3
 -12   2  -6 182.189 17.5485   3
 -12   2  -6 179.976 19.6839   1
 -12  -2   6 133.522 19.1815   1
   0   3  -6 -0.4033 1.25197   7
   0   3   6 2.41292 1.25297   4
   0   3   6 1.37920 1.53221   2
   0  -3  -6 2.52614 1.43417   7
   0  -3   6 3.20042 1.78361   5
   0   3   6 0.83196 1.18852   7
   0  -3   6 2.16269 1.60261   2
   0   3  -6 0.00750 1.47102   2
   0  -3  -6 2.34926 1.65822   2
   0  -3   6 2.95441 1.36160   7
   1  -3   6 792.952 80.7013   7
  -1  -3  -6 737.241 79.4819   1
  -1  -3  -6 767.926 80.6026   7
  -1   3   6 831.482 79.4420   1
   1  -3   6 741.186 82.9974   5
   1  -3   6 740.549 80.2894   2
  -1   3   6 729.780 80.6616   7
  -1  -3  -6 724.883 80.2433   2
  -1   3   6 826.723 80.3225   2
   1  -3  -6 676.780 80.5547   7
  -1   3  -6 763.606 80.6901   7
  -1   3  -6 652.659 80.3445   2
   1   3   6 676.863 80.4835   7
  -1  -3   6 676.939 80.3282   2
   1   3   6 788.832 87.5352   4
  -1  -3   6 702.434 82.8286   5
  -2   3   6 325.380 39.1226   1
   2   3  -6 366.441 36.5128   8
   2  -3   6 400.382 41.1869   5
  -2   3   6 395.233 39.7287   7
   2  -3   6 352.721 39.6185   7
   2  -3   6 415.280 39.7515   2
  -2   3   6 396.221 39.7053   2
   2  -3   6 374.039 39.6645   7
   2   3  -6 365.136 39.5624   2
  -2  -3  -6 375.291 39.6326   2
  -2  -3  -6 378.216 39.2555   1
  -2  -3   6 337.507 39.1385   1
  -2   3  -6 354.291 39.8784   7
   2   3   6 344.559 36.4819   8
   2  -3  -6 415.606 39.7442   2
  -2  -3   6 355.586 39.7078   7
   2  -3  -6 355.711 36.5740   8
   2   3   6 307.522 39.4762   7
  -2   3  -6 302.340 39.2434   1
   2  -3  -6 335.697 39.6032   7
  -2  -3   6 355.639 39.7726   2
  -3   3   6 19.3257 3.18888   2
   3  -3   6 13.0254 2.52448   8
   3  -3   6 11.7993 3.22083   5
   3  -3   6 15.0979 2.98379   2
   3   3  -6 14.8702 2.55055   8
  -3  -3  -6 14.9936 2.81119   1
  -3   3   6 13.6688 2.66078   7
  -3  -3  -6 17.9014 2.75144   7
   3  -3   6 14.2031 2.18466   7
   3  -3   6 15.0617 2.18613   7
  -3   3   6 11.4798 2.67885   1
   3   3  -6 14.4326 2.71475   2
  -3   3  -6 17.5485 3.30610   1
   3  -3  -6 13.0673 2.76145   2
   3   3   6 14.5851 2.57371   8
  -3  -3   6 14.7993 2.80671   1
  -3   3  -6 12.9418 2.64484   7
  -3  -3   6 10.3987 2.49934   7
   3   3   6 20.0231 3.72769   5
   3   3   6 17.1168 3.00015   2
  -3   3  -6 14.8610 3.07571   2
   3   3   6 18.8077 3.64489   4
   3  -3  -6 16.4987 2.58735   8
   4   3  -6 14.0541 2.41346   8
   4   3  -6 7.50505 2.21110   2
  -4   3   6 11.8874 2.49779   7
   4  -3   6 18.8803 3.08458   2
   4  -3   6 13.0183 2.64271   8
  -4   3   6 11.8074 2.63927   1
  -4  -3  -6 7.82169 2.46202   1
  -4  -3  -6 11.5007 2.43486   7
   4  -3   6 14.8157 3.66416   5
   4   3  -6 18.9356 3.95218   4
  -4  -3  -6 12.0446 2.34626   3
  -4  -3   6 14.1191 2.76560   1
   4   3   6 12.9489 2.44003   8
   4   3   6 18.0232 3.75259   5
  -4   3  -6 10.8278 2.36985   7
  -4  -3   6 13.5189 2.50565   7
  -4   3  -6 11.2268 2.86233   1
  -4   3  -6 13.9573 2.61435   3
   4   3   6 11.6526 2.49946   2
   4  -3  -6 12.7643 2.43962   8
   4  -3  -6 11.2490 2.61661   2
   4   3   6 14.5971 3.65983   4
  -5   3   6 54.0587 6.79232   7
   5  -3   6 49.2997 6.78300   2
   5   3  -6 66.8555 6.50485   2
  -5   3   6 66.8825 7.08661   1
  -5  -3  -6 51.6849 6.08874   3
  -5  -3  -6 43.1873 6.80400   1
   5  -3   6 68.3193 6.73049   8
   5   3  -6 60.6360 8.27616   4
   5   3  -6 60.1553 6.32084   8
  -5  -3   6 52.1040 6.92444   1
   5   3   6 65.7652 6.48810   8
  -5   3  -6 46.4361 7.10654   1
   5  -3  -6 57.4608 6.35465   8
   5   3   6 54.5869 8.06342   5
   5   3   6 43.7127 8.33437   4
   5  -3  -6 45.7152 6.64552   2
  -5   3  -6 66.6858 6.50587   3
  -5  -3   6 58.6441 6.32778   3
  -5  -3   6 53.0415 6.70956   7
   6   3  -6 543.138 62.3731   8
  -6  -3  -6 620.544 67.2286   1
   6  -3   6 604.426 67.3637   2
   6  -3   6 721.186 62.8491   8
  -6  -3  -6 696.398 60.1180   3
  -6   3   6 712.898 67.3543   1
   6   3  -6 733.368 74.8146   4
   6   3   6 600.415 62.5757   8
   6   3   6 558.908 70.4178   5
  -6   3  -6 598.350 60.1981   3
   6  -3  -6 527.408 62.4949   8
  -6   3  -6 641.072 67.5195   1
  -6  -3   6 602.799 67.9577   7
   7   3  -6 398.945 41.9111   8
  -7  -3  -6 400.393 45.2192   1
   7  -3   6 460.260 42.3569   8
   7   3  -6 442.096 50.5904   4
  -7  -3  -6 415.880 40.3933   3
  -7   3   6 451.076 45.3449   1
  -7  -3   6 482.547 40.6374   3
  -7   3  -6 424.606 40.6166   3
   7   3   6 372.920 50.9651   4
  -7   3  -6 363.395 45.3920   1
   7   3   6 401.866 42.0909   8
   7  -3  -6 398.801 42.0782   8
  -8   3   6 307.000 28.1883   1
   8   3  -6 259.018 31.7052   4
   8   3  -6 211.031 25.7277   8
   8  -3   6 240.099 26.1146   8
  -8  -3  -6 265.728 24.9922   3
  -8  -3  -6 209.385 27.8619   1
  -8  -3   6 296.455 25.1626   3
  -8   3  -6 258.977 25.1706   3
   8   3   6 206.912 31.9562   4
  -8   3  -6 245.301 28.2118   1
   8  -3  -6 269.148 26.0121   8
   8   3   6 272.741 26.0392   8
  -8  -3   6 268.685 28.0297   1
  -9  -3  -6 508.483 56.9340   3
   9   3  -6 582.173 59.2285   8
   9  -3   6 537.280 59.4860   8
  -9   3   6 541.008 63.8149   1
  -9  -3  -6 677.715 64.0395   1
  -9   3  -6 599.586 57.2030   3
  -9   3  -6 651.568 64.1244   1
   9   3   6 534.503 59.3195   8
  -9  -3   6 642.510 63.8953   1
  -9  -3   6 602.003 57.0755   3
   9  -3  -6 660.680 59.4832   8
   9   3   6 574.453 72.1160   4
  10   3  -6 65.0699 6.98123   8
 -10   3   6 67.7770 8.08642   1
 -10  -3  -6 43.6833 7.70836   1
  10  -3   6 47.2835 7.12514   8
 -10  -3  -6 62.7343 7.00253   3
 -10  -3   6 72.1036 7.11584   3
  10  -3  -6 79.4412 7.38879   8
  10   3   6 61.1956 7.07547   8
 -10   3  -6 67.6804 8.20033   1
 -10   3  -6 59.4935 7.10196   3
 -10  -3   6 54.8053 7.76673   1
  10   3   6 61.9795 11.2190   4
 -11   3   6 322.348 31.1823   1
  11  -3   6 250.272 28.8108   8
  11   3  -6 260.694 28.4837   8
 -11  -3  -6 281.288 30.9822   1
 -11  -3  -6 319.869 27.7729   3
  11   3   6 269.147 28.6321   8
 -11  -3   6 302.544 31.0430   1
 -11   3  -6 244.349 27.6534   3
  11  -3  -6 262.019 28.7368   8
 -11  -3   6 289.602 27.6551   3
 -11   3  -6 302.908 31.2372   1
 -12  -3  -6 72.7774 8.72225   1
 -12  -3  -6 62.4161 7.51090   3
 -12   3   6 61.6749 8.55824   1
  12   3  -6 70.1854 7.56004   8
  12  -3   6 62.6946 7.94294   8
 -12   3  -6 63.7625 7.81520   3
 -12  -3   6 76.6393 7.82587   6
 -12  -3   6 61.6025 8.58109   1
  12  -3  -6 68.0311 7.91422   8
  12   3   6 62.8327 7.66199   8
 -12   3  -6 69.3258 9.17768   1
   0   4  -6 42.6324 5.22853   7
   0   4   6 37.8810 4.90046   7
   0  -4   6 41.4394 5.60237   5
   0   4  -6 35.6469 5.36704   2
   0  -4   6 32.2726 5.11706   7
   0  -4  -6 38.3878 4.88399   7
   0   4   6 37.1502 5.32958   2
   0  -4   6 34.1319 5.40419   2
   0   4   6 31.9235 4.84716   4
   0  -4  -6 35.9504 5.30118   2
   1   4  -6 856.282 97.0048   7
   1   4  -6 918.121 96.7370   2
  -1  -4  -6 856.953 96.9692   7
  -1   4   6 996.860 95.6015   1
  -1  -4  -6 994.865 95.5941   1
  -1   4   6 1011.31 96.6854   2
   1   4   6 791.163 96.4344   2
   1   4   6 958.520 105.156   4
   1  -4  -6 814.092 96.4581   2
  -1   4  -6 780.819 96.5743   2
  -1  -4   6 1029.73 95.7157   1
  -1  -4   6 734.698 96.5008   2
   1   4   6 835.581 96.8299   7
  -1   4  -6 787.174 96.9790   7
   1  -4  -6 933.178 96.9581   7
  -1  -4   6 946.393 97.0425   7
  -1  -4   6 872.593 99.5492   5
  -1   4  -6 921.524 95.6896   1
   2  -4   6 83.8697 9.15414   7
   2  -4   6 67.9081 8.93658   7
   2  -4   6 78.3561 9.32996   2
  -2  -4  -6 79.3238 9.15357   1
  -2   4   6 77.8571 9.15204   1
  -2  -4  -6 85.5844 9.23965   7
  -2   4   6 54.6493 8.90273   7
  -2  -4  -6 80.4630 9.32579   2
   2   4  -6 78.3235 9.32452   2
   2   4  -6 93.1015 8.71874   8
  -2   4   6 56.4235 9.04686   2
  -2   4  -6 82.4015 9.26753   7
  -2  -4   6 82.9864 9.40590   5
   2  -4  -6 89.0545 9.11270   7
   2  -4  -6 61.3722 9.13114   2
   2   4   6 68.7319 9.85386   4
  -2  -4   6 69.0961 9.03921   7
   2  -4  -6 79.2505 8.50439   8
   2   4   6 65.7950 8.88992   7
  -2  -4   6 99.7140 9.64884   2
  -2   4  -6 83.9901 9.36576   1
  -2   4  -6 67.7599 9.31521   2
  -2  -4   6 66.6327 9.07787   1
   2   4   6 92.3900 9.49372   2
  -3  -4  -6 396.200 40.6191   1
   3  -4   6 344.660 37.7113   8
   3  -4   6 452.015 42.9449   5
   3   4  -6 421.709 37.8241   8
  -3   4   6 382.961 41.0321   7
   3  -4   6 361.895 40.7145   7
   3   4  -6 315.487 40.7228   2
  -3  -4  -6 364.217 41.0258   7
  -3   4   6 405.420 40.5912   1
   3  -4   6 421.191 41.0964   2
   3   4   6 397.756 44.8857   4
   3  -4  -6 355.147 40.6672   7
   3  -4  -6 321.018 37.6251   8
  -3  -4   6 339.204 40.9940   7
   3   4   6 383.725 37.7538   8
  -3   4  -6 371.709 40.6472   1
  -3   4  -6 367.114 41.2298   7
   3  -4  -6 360.549 40.6313   7
  -3  -4   6 425.676 42.1417   5
  -3   4  -6 321.333 40.9753   2
   3   4   6 383.115 40.9473   2
   3  -4  -6 342.804 40.8964   2
   4   4  -6 958.812 84.3296   8
   4  -4   6 849.160 84.3336   8
   4   4  -6 802.949 91.2000   2
  -4  -4  -6 897.632 80.8762   3
  -4  -4  -6 794.483 90.4877   1
  -4   4   6 954.295 90.6194   1
  -4   4   6 816.722 91.7418   7
  -4  -4   6 909.236 91.8760   7
   4  -4  -6 822.177 91.3189   2
  -4  -4   6 887.033 90.6201   1
  -4   4  -6 774.540 91.8811   7
   4   4   6 695.540 94.4947   5
  -4   4  -6 796.473 80.9409   3
  -5   4   6 269.360 35.7909   1
  -5  -4  -6 350.581 32.0763   3
  -5  -4  -6 271.021 35.7750   1
   5   4  -6 382.901 40.3676   4
   5  -4   6 326.858 33.4288   8
   5   4  -6 335.628 33.2819   8
   5  -4   6 338.488 36.2223   2
   5   4  -6 348.075 35.7897   2
  -5  -4   6 332.184 35.9350   1
   5  -4  -6 347.271 33.4388   8
  -5  -4   6 294.939 36.2180   7
  -5   4  -6 322.618 32.1616   3
   5  -4  -6 315.572 36.0254   2
   5   4   6 341.706 35.9139   2
   5   4   6 356.189 37.7821   5
  -5   4  -6 311.255 35.9859   1
   5   4   6 377.172 40.3221   4
  -6  -4  -6 418.374 49.9124   1
   6  -4   6 387.736 49.9711   2
   6   4  -6 453.101 46.3257   8
  -6  -4  -6 423.923 44.5503   3
   6  -4   6 512.700 46.6394   8
  -6   4   6 434.342 50.0247   1
   6   4   6 517.414 52.4940   5
   6  -4  -6 435.681 49.8640   2
   6  -4  -6 500.046 46.5944   8
  -6  -4   6 450.699 49.9683   1
   6   4   6 571.085 56.3129   4
  -6  -4   6 472.921 44.9447   3
   6   4   6 437.098 46.4955   8
  -6   4  -6 476.590 50.1329   1
  -6   4  -6 496.624 44.8150   3
   7  -4   6 821.117 75.4154   8
  -7  -4  -6 800.234 72.2324   3
   7   4  -6 732.667 75.0536   8
   7   4  -6 783.082 89.8657   4
  -7  -4  -6 717.915 80.7972   1
  -7   4   6 684.827 80.8640   1
  -7  -4   6 801.190 80.9154   1
  -7   4  -6 725.632 80.9109   1
   7   4   6 702.479 90.1363   4
   7   4   6 718.539 75.2382   8
  -7  -4   6 767.914 72.4327   3
  -7   4  -6 794.554 72.3823   3
   7  -4  -6 718.258 75.2391   8
  -8   4   6 10.8372 2.81713   1
  -8  -4  -6 11.6824 2.86869   1
  -8  -4  -6 13.0178 2.43036   3
   8  -4   6 13.2532 2.80364   8
   8   4  -6 15.5455 2.42617   8
   8   4  -6 19.9278 4.61474   4
   8   4   6 13.0489 5.00054   4
  -8  -4   6 11.3983 2.93138   1
   8   4   6 15.0161 2.65761   8
  -8  -4   6 8.38491 2.41192   3
  -8   4  -6 10.6259 3.02956   1
  -8   4  -6 12.5908 2.68685   3
   8  -4  -6 11.8202 2.57691   8
   9  -4   6 32.8050 4.55721   8
  -9  -4  -6 31.2452 4.13245   3
   9   4  -6 29.5062 4.01595   8
   9   4  -6 38.7035 6.73608   4
  -9   4   6 25.8983 4.72288   1
  -9  -4  -6 25.8132 4.61024   1
  -9  -4   6 23.1309 4.68666   1
   9  -4  -6 32.2683 4.42365   8
   9   4   6 34.1653 7.56351   4
  -9   4  -6 33.5761 5.16311   1
  -9   4  -6 31.7687 4.46148   3
   9   4   6 31.9582 4.42322   8
 -10  -4  -6 5.20625 2.29100   1
 -10   4   6 4.27257 2.34160   1
 -10  -4  -6 5.70316 1.99523   3
  10  -4   6 3.89978 2.08394   8
  10   4  -6 4.86733 1.83509   8
 -10  -4   6 2.66704 2.32728   1
  10   4   6 6.58572 2.13058   8
  10  -4  -6 7.85807 2.28203   8
 -10   4  -6 2.45782 1.97607   3
  10   4   6 2.02243 5.21679   4
 -10   4  -6 5.79358 2.95443   1
 -11  -4  -6 3.98842 2.37082   1
 -11  -4  -6 6.58469 2.22952   3
  11  -4   6 4.63257 2.31525   8
  11   4  -6 6.46802 2.02704   8
 -11   4   6 4.44961 2.71624   1
 -11   4  -6 4.14884 2.50101   3
  11  -4  -6 5.73953 2.16559   8
 -11  -4   6 6.52846 2.70744   1
 -11   4  -6 5.21438 2.74789   1
 -11  -4   6 3.48960 2.14135   6
  11   4   6 8.85493 2.21606   8
  12   4  -6 39.3758 4.79255   8
 -12  -4  -6 35.5993 5.54114   1
 -12   4   6 46.8004 5.99709   1
  12  -4   6 34.9113 5.10217   8
 -12  -4  -6 27.2038 4.56028   3
 -12   4  -6 34.6493 5.88440   1
  12   4   6 34.5056 4.89800   8
 -12  -4   6 33.0710 4.82532   6
  12  -4  -6 28.5296 4.88045   8
 -12   4  -6 25.0811 4.87464   3
 -12  -4   6 33.3949 5.47139   1
   0   5   6 2.18224 1.33325   4
   0  -5   6 2.20959 1.82166   1
   0   5  -6 -0.5060 1.57898   7
   0  -5  -6 1.29230 1.43763   7
   0  -5   6 1.83096 1.98425   1
   0  -5  -6 -1.1530 1.46525   1
   0  -5   6 -1.1009 1.44966   2
   0   5   6 -0.6193 1.30523   7
   0   5  -6 1.57793 1.85750   2
   0  -5  -6 -1.9157 1.29654   2
   0   5   6 0.15313 1.68935   2
   0  -5   6 2.35956 1.77290   5
   0  -5   6 -0.5944 1.35434   7
   1   5  -6 4.88813 2.12930   2
   1  -5   6 11.3692 2.68073   5
  -1   5   6 6.75937 2.18817   1
   1  -5   6 5.87720 2.14734   7
   1  -5   6 7.19994 2.12703   7
  -1   5   6 9.45708 2.37584   2
  -1  -5  -6 4.12524 1.89347   1
  -1  -5  -6 9.17308 2.31562   2
  -1   5   6 9.41351 1.63540   4
   1  -5   6 8.90668 2.59518   2
  -1  -5  -6 14.0639 2.56032   7
  -1   5   6 3.96361 1.82521   7
   1  -5  -6 1.38639 1.50546   7
  -1  -5   6 4.40287 1.84867   7
  -1  -5   6 3.12607 2.04959   2
   1   5   6 10.3017 2.44024   2
  -1   5  -6 5.21600 2.28849   2
  -1   5  -6 2.36433 1.92052   1
   1  -5  -6 9.00507 2.26794   2
   1   5   6 4.54967 1.90731   4
   1   5   6 5.66165 1.93553   7
  -1  -5   6 6.79439 2.10298   5
  -1   5  -6 9.02644 2.35208   7
  -1  -5   6 4.55716 2.03139   1
  -2  -5  -6 604.903 72.5759   7
   2   5  -6 703.300 66.7903   8
  -2   5   6 687.822 72.6997   7
   2  -5   6 722.282 72.6389   7
  -2  -5  -6 598.277 71.5308   1
  -2   5   6 735.254 71.6303   1
   2   5  -6 645.295 72.4634   2
  -2   5  -6 572.502 71.6990   1
   2   5   6 681.851 66.6907   8
   2   5   6 751.873 78.8923   4
  -2   5  -6 614.210 72.6827   7
  -2  -5   6 631.418 72.3938   2
   2  -5  -6 589.703 72.4250   7
  -2  -5   6 666.226 72.6564   7
   2   5   6 616.086 72.2537   2
  -2  -5   6 685.962 71.6545   1
  -2   5  -6 740.006 72.5197   2
  -2  -5   6 705.350 74.4412   5
  -3  -5  -6 7.83945 1.93278   7
   3  -5   6 4.71817 1.58556   7
   3  -5   6 6.67079 1.93182   8
  -3  -5  -6 8.95379 1.85735   3
  -3   5   6 1.65516 1.58747   1
   3   5  -6 2.95878 1.58739   8
  -3  -5  -6 3.83063 1.95685   1
   3  -5   6 4.19807 2.04478   2
  -3   5   6 2.89218 1.78816   7
   3   5  -6 4.96190 1.92729   2
   3   5   6 4.45394 1.86221   2
   3  -5  -6 4.07524 1.56820   7
   3   5   6 2.70931 2.17848   4
  -3   5  -6 5.30760 2.38256   1
  -3  -5   6 4.34002 1.73254   7
  -3   5  -6 2.70127 1.94746   2
  -3  -5   6 5.45457 1.71514   5
   3   5   6 10.1034 2.21466   8
   3  -5  -6 4.56312 1.93277   2
  -3  -5   6 4.75189 2.05034   1
  -3   5  -6 3.56846 1.80958   7
   3  -5  -6 3.46598 1.68662   8
  -4   5   6 3.67747 1.88889   1
   4  -5   6 3.96871 1.77637   8
   4   5  -6 0.51662 1.40662   2
  -4  -5  -6 3.48065 1.33761   3
  -4  -5  -6 3.65781 1.96684   1
   4   5  -6 3.38868 1.47372   8
   4  -5   6 14.7826 2.66085   2
   4   5  -6 3.13146 3.07201   4
  -4   5  -6 4.96241 2.43079   1
   4   5   6 3.65435 2.31892   5
  -4  -5   6 3.81332 1.96992   1
   4   5   6 -0.2604 1.21558   8
   4  -5  -6 0.34260 1.46688   2
  -4   5  -6 1.62330 1.63445   7
   4   5   6 2.16822 2.14448   4
   4  -5  -6 1.55379 1.46566   8
  -4   5  -6 1.60284 1.56706   3
   4   5   6 0.91364 1.54484   2
  -5   5   6 1367.39 138.969   1
   5  -5   6 1223.15 129.299   8
   5   5  -6 1152.35 153.711   4
  -5  -5  -6 1246.39 138.787   1
   5   5  -6 1235.04 129.202   8
  -5  -5  -6 1348.27 124.054   3
  -5   5  -6 1356.24 139.044   1
  -5   5  -6 1180.27 124.156   3
   5   5   6 1382.91 145.073   5
   5   5   6 1238.52 129.331   8
   5   5   6 1331.54 139.917   2
   5  -5  -6 1389.40 140.122   2
  -5  -5   6 1467.78 139.041   1
   5   5   6 1222.87 153.459   4
  -6  -5  -6 21.3922 3.20337   3
   6   5  -6 19.2195 4.97603   4
   6  -5   6 24.2658 3.58008   8
   6   5  -6 21.2873 3.23159   8
  -6   5   6 27.6216 4.13099   1
  -6  -5  -6 16.8331 3.57547   1
   6  -5   6 18.4260 3.26306   2
   6   5   6 18.5313 3.29500   8
  -6  -5   6 27.9508 4.21914   1
   6  -5  -6 15.5283 3.12543   8
   6   5   6 14.6821 4.26298   4
  -6   5  -6 21.7040 3.57621   3
   6  -5  -6 20.5413 3.14125   2
  -6   5  -6 14.9324 3.77011   1
   7   5  -6 12.6932 2.54066   8
  -7  -5  -6 12.7118 2.48167   3
  -7  -5  -6 15.4584 3.15604   1
  -7   5   6 14.5879 3.26922   1
   7   5  -6 16.7993 4.65604   4
   7  -5   6 11.9483 2.79926   8
  -7  -5   6 14.6254 3.27772   1
  -7   5  -6 9.35766 3.13307   1
  -7   5  -6 9.75927 2.77268   3
   7   5   6 11.5048 4.12259   4
   7   5   6 15.2448 2.86757   8
   7  -5  -6 15.1553 2.75530   8
   8   5  -6 403.431 40.6221   8
   8  -5   6 443.730 40.9397   8
  -8  -5  -6 370.439 39.0250   3
  -8   5   6 442.899 44.1075   1
  -8  -5  -6 417.612 43.8755   1
   8   5   6 310.830 49.0616   4
  -8   5  -6 353.501 39.2481   3
  -8   5  -6 401.343 44.1056   1
   8   5   6 477.875 40.9074   8
   8  -5  -6 371.575 40.7319   8
  -8  -5   6 413.980 43.9453   1
   9  -5   6 523.097 48.9161   8
  -9   5   6 401.155 52.3858   1
  -9  -5  -6 442.713 46.6952   3
  -9  -5  -6 505.355 52.4479   1
   9   5  -6 444.690 48.5552   8
   9   5  -6 469.996 58.8741   4
  -9   5  -6 386.765 52.4991   1
   9  -5  -6 467.634 48.7977   8
  -9  -5   6 541.847 52.6122   1
   9   5   6 444.311 59.2551   4
   9   5   6 566.576 48.8897   8
  -9   5  -6 513.766 47.1989   3
  -9  -5   6 562.651 48.5119   6
 -10   5   6 292.888 32.9422   1
  10  -5   6 326.922 30.6967   8
 -10  -5  -6 306.544 29.2809   3
  10   5  -6 283.458 30.3364   8
 -10  -5  -6 328.966 32.9045   1
 -10   5  -6 309.422 33.3132   1
 -10  -5   6 282.905 30.2350   6
 -10   5  -6 279.933 29.6334   3
  10   5   6 259.520 37.7590   4
 -10  -5   6 329.796 33.0075   1
  10  -5  -6 288.107 30.5806   8
  10   5   6 270.353 30.4263   8
  11  -5   6 14.4609 3.13405   8
 -11  -5  -6 10.4643 2.66125   3
 -11  -5  -6 11.8262 3.10463   1
  11   5  -6 13.0939 2.73265   8
 -11   5   6 16.0850 3.65384   1
 -11   5  -6 14.5913 3.44200   3
 -11  -5   6 12.7827 2.99641   6
 -11  -5   6 14.5434 3.55839   1
 -11   5  -6 20.9764 4.34322   1
  11   5   6 9.48173 2.73345   8
  11  -5  -6 10.4966 3.05996   8
  12   5  -6 35.0562 5.23119   8
 -12  -5  -6 39.1798 6.04414   1
  12  -5   6 39.5768 5.64855   8
 -12  -5  -6 40.3240 5.33017   3
 -12   5   6 50.4449 6.70765   1
 -12  -5   6 42.5484 6.36285   1
 -12  -5   6 42.4318 6.19562   1
  12   5   6 28.9536 5.05596   8
 -12  -5   6 35.0019 5.22905   6
 -12   5  -6 29.5769 5.46165   3
  12  -5  -6 36.5538 5.57841   8
 -12   5  -6 42.3404 6.73728   1
   0   6   6 1137.87 141.045   2
   0  -6  -6 1479.77 139.844   1
   0  -6   6 1207.82 141.156   2
   0   6   6 1221.06 139.623   1
   0  -6  -6 1326.46 141.184   2
   0   6  -6 1448.63 141.425   2
   1   6  -6 56.0517 6.35447   2
  -1   6   6 43.2794 5.81513   1
  -1  -6  -6 43.7499 5.70027   1
   1  -6   6 38.3094 6.11561   2
  -1  -6  -6 49.0134 5.88931   2
  -1  -6  -6 38.8257 5.41105   7
   1  -6   6 40.5764 5.87444   7
  -1   6   6 31.4790 5.17202   4
  -1   6   6 45.6574 5.58641   7
  -1   6   6 49.7871 6.10578   2
  -1  -6   6 43.6875 5.56708   7
   1   6   6 41.1159 5.57166   7
  -1  -6   6 42.3291 5.98246   1
   1  -6  -6 36.5872 5.66482   2
   1   6   6 39.7174 5.85709   2
  -1  -6   6 22.1662 5.28741   2
  -1  -6   6 35.5284 5.47463   5
  -1  -6   6 49.9480 6.00703   1
  -1   6  -6 36.5896 5.98744   1
  -1   6  -6 38.8026 5.86088   2
   1   6   6 37.8483 5.68954   4
  -2  -6  -6 1482.23 175.096   1
  -2   6   6 1840.90 175.287   1
  -2   6   6 1701.17 177.870   7
  -2  -6  -6 1632.78 177.002   2
   2   6  -6 1474.70 177.057   2
  -2   6   6 1377.83 176.879   2
  -2  -6   6 1692.20 177.938   7
   2   6   6 1377.60 192.964   4
   2   6   6 1602.46 176.862   2
   2  -6  -6 1601.80 163.162   8
   2  -6  -6 1561.46 176.962   2
  -2  -6   6 1438.56 175.128   1
  -2   6  -6 1823.88 178.132   7
   2   6   6 1848.86 163.304   8
  -2  -6   6 1721.87 177.158   2
  -2  -6   6 1792.85 161.660   6
  -2  -6   6 1879.62 182.488   5
  -3  -6  -6 68.7149 7.98644   7
   3   6  -6 46.9615 7.24059   8
   3  -6   6 63.0457 7.70331   8
  -3   6   6 54.1315 7.96128   1
   3   6  -6 68.2049 8.31387   2
   3  -6   6 63.1393 8.37520   2
  -3  -6  -6 70.9790 8.25301   1
  -3  -6   6 57.5595 7.44638   6
   3   6   6 62.2017 8.06223   2
   3  -6  -6 74.1101 8.28416   2
  -3  -6   6 68.3935 8.17993   1
  -3   6  -6 68.1124 8.21091   7
   3  -6  -6 68.6658 7.66061   7
   3   6   6 61.5721 8.81351   4
   3   6   6 51.8562 7.32220   8
  -3   6  -6 73.2192 8.59563   1
   4  -6   6 462.654 51.6176   8
  -4  -6  -6 434.234 49.3138   3
  -4  -6  -6 424.915 55.2013   1
   4   6  -6 544.086 62.1430   4
   4   6  -6 542.724 51.6511   8
   4   6  -6 597.635 55.8517   2
   4  -6   6 550.809 56.0405   2
   4   6   6 467.662 61.0830   4
  -4  -6   6 522.160 55.4492   1
  -4  -6   6 462.919 51.0490   6
   4  -6  -6 579.941 51.6431   8
  -4   6  -6 524.539 55.7401   1
   4  -6  -6 600.062 56.0701   2
   4   6   6 552.504 51.7280   8
   4   6   6 419.423 57.6099   5
  -5  -6  -6 0.65863 1.83670   1
   5   6  -6 3.52211 1.56650   2
  -5   6   6 1.34564 1.95765   1
   5  -6   6 2.31071 1.98351   2
   5  -6   6 0.75215 1.64038   8
  -5  -6  -6 5.74178 1.84404   3
   5   6  -6 1.00256 3.02175   4
   5   6  -6 1.48526 1.61692   8
  -5  -6   6 2.70203 1.90762   6
  -5   6  -6 1.25898 2.33386   1
   5   6   6 3.06454 1.88453   2
   5   6   6 8.70917 2.86824   4
   5  -6  -6 0.53730 1.67022   2
   5   6   6 1.53432 1.47904   8
  -5  -6   6 -1.0382 1.60242   1
   5  -6  -6 3.60407 1.87284   8
  -6  -6  -6 62.9661 6.23352   3
   6  -6   6 47.6353 6.63820   2
   6   6  -6 48.6080 8.85104   4
  -6   6   6 47.0816 7.13951   1
   6   6  -6 37.9744 6.08358   8
  -6  -6  -6 39.5488 6.72050   1
   6  -6   6 45.3811 6.51530   8
   6  -6  -6 56.5031 6.48366   2
   6   6   6 59.2855 6.02210   2
  -6  -6   6 52.1051 6.46769   6
   6   6   6 63.0612 6.55886   8
  -6   6  -6 50.9689 7.42359   1
  -6   6  -6 50.7572 6.64087   3
   6   6   6 41.4538 7.91817   4
   6  -6  -6 45.4645 6.45815   8
  -6  -6   6 38.7743 6.76502   1
   7   6  -6 54.4207 6.72693   8
  -7  -6  -6 62.7078 6.63720   3
   7   6  -6 73.1268 10.3881   4
  -7  -6  -6 63.0142 7.53570   1
   7  -6   6 55.5851 7.08309   8
   7  -6   6 50.7415 6.40056   2
  -7   6   6 59.8864 7.65865   1
  -7  -6   6 57.3215 6.89323   6
   7  -6  -6 51.8562 6.79919   8
  -7   6  -6 49.4739 7.89839   1
  -7   6  -6 54.2088 7.02638   3
  -7  -6   6 50.0948 7.47555   1
   7   6   6 38.5120 8.44740   4
   7   6   6 52.6559 6.72504   8
  -8  -6  -6 7.81291 2.11578   3
   8   6  -6 7.20792 4.41423   4
  -8  -6  -6 0.05635 2.14597   1
  -8   6   6 3.86619 2.57604   1
   8  -6   6 5.45521 2.43955   8
   8   6  -6 3.23803 1.98892   8
   8  -6  -6 7.79083 2.43863   8
  -8   6  -6 5.98226 2.87999   1
   8   6   6 3.32143 3.82608   4
  -8   6  -6 5.82405 2.47263   3
   8   6   6 6.45752 2.18396   8
  -8  -6   6 4.61158 2.55795   1
  -8  -6   6 8.20816 2.49177   6
  -9  -6  -6 32.5474 5.37888   1
   9  -6   6 25.9478 4.98234   8
  -9   6   6 36.2862 5.81941   1
  -9  -6  -6 40.1792 4.92392   3
   9   6  -6 35.3706 4.93356   8
   9   6  -6 27.4141 6.98911   4
  -9   6  -6 36.8030 5.26050   3
  -9   6  -6 26.1880 5.58614   1
   9   6   6 28.1166 4.68040   8
   9   6   6 41.0138 8.25813   4
   9  -6  -6 32.0376 5.03816   8
  -9  -6   6 30.1195 5.27658   1
  -9  -6   6 34.4331 5.08383   6
 -10   6   6 899.835 113.110   1
 -10  -6  -6 981.062 100.945   3
  10   6  -6 1264.61 126.649   4
 -10  -6  -6 980.152 112.995   1
  10   6  -6 921.350 105.152   8
  10  -6   6 968.821 105.453   8
 -10   6  -6 1019.67 101.384   3
  10  -6  -6 1188.63 105.611   8
 -10  -6   6 1014.87 113.130   1
 -10   6  -6 1077.79 113.402   1
 -10  -6   6 1215.98 113.270   1
 -10  -6   6 1172.07 104.388   6
  10   6   6 957.698 126.374   4
  10   6   6 1110.94 105.370   8
 -11  -6  -6 1.50808 1.65974   3
  11  -6   6 2.77116 2.41616   8
 -11   6   6 0.78005 2.43265   1
  11   6  -6 3.32654 2.25778   8
 -11  -6  -6 -2.5950 2.16125   1
 -11   6  -6 2.57988 2.58426   3
 -11  -6   6 0.60460 2.29065   1
 -11  -6   6 0.89336 2.49294   1
  11   6   6 1.03460 2.00724   8
 -11   6  -6 0.63921 2.38155   1
  11  -6  -6 1.49756 1.98565   8
 -11  -6   6 -1.0484 1.96991   6
   0  -7   6 -0.0171 1.66128   2
   0   7  -6 4.30698 2.37408   1
   0   7   6 2.40466 1.58981   2
   0   7   6 4.14745 1.52615   4
   0   7   6 1.45204 2.08048   1
   0  -7   6 1.38706 1.94377   7
   0  -7   6 3.66205 2.32967   1
   0   7   6 1.20433 1.91496   7
   0  -7  -6 1.14434 1.83730   1
   0  -7  -6 0.38031 1.88183   2
   0   7  -6 1.08653 2.05726   2
   1  -7   6 10.2808 3.00886   1
  -1   7   6 7.94495 2.62042   1
  -1  -7  -6 3.01469 2.36466   2
   1   7  -6 7.84771 2.68130   2
  -1   7   6 5.50321 2.12693   7
  -1   7   6 15.7917 3.13255   2
  -1  -7  -6 3.71123 2.17364   1
   1  -7   6 4.71768 2.22730   7
   1  -7   6 3.61537 2.42422   2
   1   7   6 10.0039 2.18330   7
  -1   7  -6 6.30109 2.47272   2
  -1  -7   6 5.83955 2.20566   7
  -1  -7   6 6.78293 2.65678   1
  -1  -7   6 12.1560 3.03549   2
   1  -7  -6 4.84963 2.24747   1
   1  -7  -6 5.57333 2.35221   2
   1   7   6 8.31534 2.53980   2
  -1   7  -6 7.48031 2.62169   1
   1   7   6 6.55576 2.08200   4
   2   7  -6 466.241 57.1473   2
  -2   7   6 456.557 56.4466   1
  -2  -7  -6 485.970 56.4839   1
   2  -7   6 498.707 57.2668   2
  -2  -7  -6 582.005 57.3377   2
   2   7  -6 563.894 52.6806   8
  -2   7   6 592.333 57.3572   2
   2   7   6 555.209 52.9434   8
   2   7   6 484.470 57.0137   2
  -2   7  -6 457.883 57.0445   2
  -2  -7   6 503.022 57.2812   2
   2   7   6 548.647 62.2141   4
   2  -7  -6 581.463 57.2515   2
  -2  -7   6 525.671 56.6506   1
   3  -7   6 50.7553 7.13574   2
  -3  -7  -6 49.0558 6.78734   1
  -3  -7  -6 43.1924 6.26988   7
   3   7  -6 45.5616 6.90723   2
  -3   7   6 49.2955 6.99829   1
   3   7  -6 48.4594 6.03108   8
   3  -7  -6 45.9396 6.76458   2
  -3  -7   6 43.6111 6.82741   1
   3   7   6 52.2630 6.13044   8
  -3  -7   6 44.4560 6.84223   1
   3   7   6 48.7782 7.15932   4
   3  -7  -6 40.5500 5.89743   8
  -3   7  -6 53.3175 7.21532   1
   3   7   6 45.6125 6.49765   2
   4   7  -6 10.2632 2.86022   2
   4  -7   6 11.7868 3.06726   2
   4   7  -6 15.8424 2.91857   8
   4  -7   6 7.71461 2.67175   8
  -4  -7  -6 6.05570 2.62719   1
  -4   7   6 6.23892 2.74963   1
  -4   7  -6 12.1879 3.35732   1
   4   7   6 11.8843 3.47447   4
   4   7   6 13.9724 2.97446   8
   4  -7  -6 16.5016 2.85494   8
  -4  -7   6 8.35361 2.85589   1
   4  -7  -6 7.12781 2.65825   2
  -4  -7   6 11.2395 2.96375   1
   4   7   6 9.69270 2.65890   2
  -4  -7   6 13.8470 2.97185   6
  -5  -7  -6 1156.85 151.464   1
   5  -7   6 1230.63 153.054   2
   5  -7   6 1637.67 141.755   8
   5   7  -6 1497.88 152.830   2
  -5  -7  -6 1467.96 135.598   3
   5   7  -6 1642.97 168.831   4
   5   7   6 1295.75 141.333   8
  -5  -7   6 1497.24 151.821   1
   5   7   6 1580.43 167.790   4
  -5   7  -6 1618.11 152.158   1
   5   7   6 1213.76 152.890   2
  -5  -7   6 1343.11 139.949   6
   5  -7  -6 1456.78 153.200   2
   5  -7  -6 1271.87 141.313   8
   6   7  -6 46.5977 9.18575   4
   6  -7   6 46.5524 6.98599   2
   6  -7   6 46.7102 6.89416   8
  -6  -7  -6 46.1780 7.09926   1
   6   7  -6 51.2657 5.99841   2
  -6   7   6 37.5522 6.98265   1
   6   7  -6 57.3859 6.70612   8
  -6  -7  -6 51.7586 6.29675   3
   6   7   6 51.6429 6.36942   2
   6   7   6 59.8470 6.75014   8
   6   7   6 46.4508 8.39087   4
  -6  -7   6 50.0327 6.80370   6
   6  -7  -6 52.9434 6.81591   2
  -6  -7   6 59.1990 7.74103   1
  -6   7  -6 58.3110 7.82173   1
   6  -7  -6 44.2703 6.65898   8
  -6  -7   6 56.0635 7.24631   1
   7  -7   6 31.9351 4.88781   8
  -7  -7  -6 28.0043 4.19113   3
   7   7  -6 31.0696 4.70052   8
   7  -7   6 27.1530 4.22985   2
  -7  -7  -6 28.4181 4.96029   1
  -7   7   6 14.3132 4.37809   1
   7   7  -6 26.4376 6.46928   4
  -7  -7   6 28.0396 5.17909   1
  -7  -7   6 30.2005 5.00072   1
  -7   7  -6 35.3344 5.61981   1
   7   7   6 22.2812 5.85957   4
   7  -7  -6 31.1166 4.01808   2
  -7  -7   6 32.4387 4.97005   6
   7   7   6 26.7643 4.40006   8
   7  -7  -6 27.4246 4.62204   8
  -8  -7  -6 334.799 37.0369   1
  -8  -7  -6 405.951 33.2671   3
   8  -7   6 369.167 34.9073   8
   8   7  -6 256.298 41.2442   4
  -8   7   6 302.132 37.1208   1
   8  -7  -6 380.567 34.7483   8
   8   7   6 303.693 34.3956   8
   8   7   6 295.294 41.5006   4
  -8   7  -6 359.964 37.4318   1
  -8  -7   6 294.461 37.0433   1
  -8  -7   6 343.128 37.1490   1
  -8  -7   6 381.602 34.4060   6
  -9  -7  -6 137.245 17.5698   1
  -9  -7  -6 156.934 15.6967   3
   9   7  -6 174.606 21.2513   4
   9  -7   6 180.892 16.9430   8
  -9   7   6 197.036 18.3629   1
   9   7   6 147.752 16.3451   8
  -9  -7   6 159.667 17.8769   1
  -9   7  -6 107.542 17.4555   1
  -9  -7   6 134.096 16.1572   6
   9   7   6 152.397 20.8602   4
  -9  -7   6 147.044 17.6757   1
 -10  -7  -6 340.588 36.8513   3
  10  -7   6 347.860 38.7323   8
  10   7  -6 383.697 47.2724   4
 -10  -7  -6 340.325 41.3235   1
 -10   7   6 410.907 41.8420   1
 -10   7  -6 392.959 37.4563   3
 -10   7  -6 362.281 41.6117   1
  10  -7  -6 394.558 38.7802   8
 -10  -7   6 357.032 38.0826   6
  10   7   6 442.570 38.7469   8
 -10  -7   6 373.533 41.5443   1
  11   7  -6 16.7316 3.90743   8
 -11  -7  -6 24.9001 3.95764   3
  11  -7   6 20.2752 4.45232   8
 -11  -7  -6 17.9595 4.26577   1
 -11   7   6 21.0196 4.66889   1
  11   7   6 22.9683 4.23603   8
 -11  -7   6 18.7088 3.89743   6
 -11  -7   6 15.0859 4.22469   1
  11  -7  -6 27.2506 4.61943   8
 -11   7  -6 17.7612 4.79306   1
 -11   7  -6 21.9290 4.37653   3
   0   8   6 323.020 36.4829   1
   0   8  -6 350.265 37.0656   2
   0  -8   6 306.610 36.7280   1
   0   8   6 321.476 36.8416   2
   0  -8   6 312.165 36.9023   7
   0  -8   6 276.598 36.8839   2
   0   8   6 385.111 37.1943   7
   0  -8  -6 386.880 36.8784   1
   1  -8   6 1063.67 114.635   2
  -1  -8  -6 1030.59 114.521   2
  -1  -8  -6 1226.67 113.596   1
   1  -8   6 1058.99 115.147   7
  -1   8   6 1117.22 113.386   1
  -1   8   6 958.257 114.337   2
  -1   8  -6 1101.20 113.474   1
   1   8   6 1058.77 124.637   4
  -1  -8   6 1178.01 114.807   2
   1  -8  -6 1041.34 114.499   2
  -1   8  -6 924.388 114.391   2
   1   8   6 912.278 114.331   2
  -2  -8  -6 182.550 19.1917   1
  -2   8   6 139.644 18.8895   1
   2  -8   6 183.443 19.4801   2
   2   8  -6 184.455 19.5388   2
  -2   8   6 132.412 18.9560   2
   2  -8  -6 135.993 19.0333   2
  -2   8  -6 165.169 19.1959   1
  -2   8  -6 180.269 19.4282   2
   2   8   6 181.591 19.2055   2
  -2  -8   6 188.928 19.4550   1
   3  -8   6 185.862 25.5480   2
  -3   8   6 253.506 25.5485   1
  -3  -8  -6 233.108 25.3200   1
   3   8  -6 233.373 25.7924   2
   3   8  -6 252.144 23.5709   8
   3   8   6 220.165 27.8124   4
   3  -8  -6 244.475 25.7038   2
   3   8   6 169.843 23.6375   8
  -3   8  -6 247.915 25.6403   1
  -3  -8   6 212.188 25.4334   1
   4   8  -6 147.529 18.1375   8
   4   8  -6 181.593 20.0324   2
  -4   8   6 156.495 19.7943   1
   4  -8   6 177.366 20.2195   2
  -4  -8  -6 205.945 19.9976   1
  -4  -8   6 181.132 18.4721   6
   4   8   6 194.672 19.9916   2
   4  -8  -6 147.834 19.8061   2
   4   8   6 164.769 18.4740   8
  -4   8  -6 212.017 20.3292   1
  -4  -8   6 146.987 19.7787   1
   4   8   6 170.575 21.9706   4
   5   8  -6 433.100 42.3578   8
   5   8  -6 475.472 51.9209   4
   5  -8   6 396.828 42.6665   8
  -5   8   6 388.759 45.6407   1
   5   8  -6 383.699 45.5356   2
  -5  -8  -6 458.223 45.6649   1
   5  -8   6 400.279 45.9355   2
   5   8   6 440.787 50.6593   4
   5  -8  -6 381.374 45.8485   2
  -5  -8   6 477.773 45.9767   1
  -5   8  -6 444.166 45.9128   1
   5   8   6 405.804 45.7995   2
  -5  -8   6 412.974 42.1854   6
   5   8   6 361.615 42.3721   8
   6  -8   6 62.7251 8.10414   2
   6   8  -6 52.7222 10.4382   4
   6   8  -6 67.9273 7.26596   2
  -6   8   6 57.9171 8.47784   1
  -6  -8  -6 63.4813 8.25835   1
   6   8  -6 46.1105 7.27753   8
   6  -8   6 59.7704 8.13128   8
  -6   8  -6 70.2181 8.73791   1
   6   8   6 54.4683 9.46333   4
   6   8   6 59.6154 7.49117   2
   6   8   6 71.2410 7.85296   8
   6  -8  -6 62.0211 8.00477   8
   6  -8  -6 47.4819 7.79939   2
  -6  -8   6 74.6883 8.69202   1
  -6  -8   6 41.5203 7.33033   6
   7   8  -6 854.336 97.1863   4
  -7  -8  -6 807.941 86.8185   1
   7  -8   6 833.232 87.3528   2
  -7   8   6 828.907 87.1188   1
   7   8  -6 809.127 80.8965   8
  -7  -8  -6 681.368 77.4905   3
   7   8   6 757.724 80.9096   8
   7  -8  -6 846.292 87.1451   2
  -7   8  -6 752.972 86.9851   1
   7  -8  -6 822.483 81.1092   8
  -7  -8   6 852.755 80.2824   6
   8  -8   6 17.1542 3.99923   8
   8   8  -6 11.7359 5.43697   4
   8   8  -6 16.1245 3.48123   8
  -8  -8  -6 9.87736 3.45508   1
  -8  -8  -6 12.5171 2.97733   3
  -8   8   6 6.78196 3.33339   1
   8   8   6 9.55412 4.24984   4
  -8   8  -6 12.7474 3.71452   1
   8   8   6 10.1053 2.90521   8
  -8  -8   6 7.39932 2.90715   6
   8  -8  -6 9.32346 3.04536   8
  -8  -8   6 8.57537 3.49381   1
  -9   8   6 51.6007 9.32583   1
   9  -8   6 62.6697 9.15474   8
   9   8  -6 73.0645 8.69783   8
   9   8  -6 65.8293 11.7817   4
  -9  -8  -6 69.8907 9.31083   1
  -9  -8  -6 79.2333 8.39236   3
   9  -8  -6 80.8731 8.92852   8
  -9  -8   6 66.0115 9.66137   1
  -9  -8   6 63.9218 8.43302   6
   9   8   6 57.6237 8.54457   8
  -9   8  -6 74.5756 9.67419   1
   9   8   6 65.2861 11.7170   4
  10  -8   6 70.8870 10.5112   8
  10   8  -6 88.3407 10.2410   8
 -10  -8  -6 88.8247 11.0225   1
  10   8  -6 85.6229 14.3288   4
 -10  -8  -6 84.7916 9.60427   3
 -10   8   6 84.4627 11.4165   1
  10   8   6 89.4651 10.2076   8
 -10  -8   6 75.6224 11.0353   1
 -10  -8   6 73.2585 9.76488   6
  10  -8  -6 90.9494 10.4547   8
 -10   8  -6 84.8329 11.1844   1
 -11  -8  -6 3.11051 3.16095   1
  11   8  -6 0.31520 2.30666   8
 -11   8   6 5.94308 3.05281   1
  11  -8   6 3.90526 2.64536   8
 -11  -8  -6 1.81026 2.16372   3
  11   8   6 3.35030 2.48785   8
 -11  -8   6 1.07388 2.90659   1
 -11  -8   6 5.08760 2.39339   6
 -11   8  -6 3.03216 3.20691   1
  11  -8  -6 6.52101 3.09837   8
   0   9  -6 2.73817 2.34936   2
   0  -9  -6 2.09212 2.48917   1
   0  -9  -6 1.72469 2.39869   2
   0   9   6 1.30782 2.24468   2
   0  -9   6 0.25669 2.19241   1
   0  -9   6 0.21642 1.83419   2
  -1  -9  -6 366.583 49.7499   1
  -1  -9  -6 363.552 50.2574   2
  -1   9   6 544.386 50.2410   1
  -1   9   6 514.916 50.6292   2
  -1   9  -6 511.519 50.3348   1
  -1  -9   6 484.708 50.3649   1
  -1   9  -6 414.211 50.4380   2
  -1  -9   6 477.839 50.6997   2
   1   9   6 413.809 54.5739   4
   1  -9  -6 481.438 50.5937   2
   1   9   6 487.843 50.4770   2
   2  -9   6 272.444 30.0144   2
  -2   9   6 241.723 29.5090   1
   2   9  -6 255.593 29.9553   2
  -2   9   6 255.334 29.7085   2
  -2  -9  -6 266.725 29.5818   1
  -2  -9   6 204.251 29.4366   1
  -2   9  -6 305.808 29.9150   1
   2   9   6 272.699 32.2895   4
   2  -9  -6 307.671 30.1054   2
  -3   9   6 113.542 13.4037   1
   3  -9   6 81.6055 13.1964   2
  -3  -9  -6 106.858 13.1369   1
   3   9  -6 123.815 13.6433   2
   3   9   6 96.6177 13.0894   2
   3   9   6 101.107 14.4042   4
  -3  -9   6 118.578 13.5685   1
   3  -9  -6 123.067 13.5927   2
  -3   9  -6 114.205 13.5005   1
   4   9  -6 65.3314 7.72069   8
  -4  -9  -6 65.8724 8.42284   1
   4   9  -6 48.6352 8.18217   2
  -4   9   6 42.4040 8.04711   1
   4  -9   6 65.3353 8.98915   2
   4  -9  -6 58.2668 8.55506   2
   4   9   6 77.9211 9.43632   4
   4   9   6 77.1956 8.66334   2
  -4   9  -6 43.6629 8.24826   1
  -4  -9   6 59.7104 8.88569   1
   5  -9   6 59.7370 8.97056   2
  -5  -9  -6 71.5011 8.89542   1
  -5   9   6 81.1249 9.25678   1
   5   9  -6 56.9032 11.1592   4
   5   9  -6 66.0191 7.96046   8
   5   9  -6 52.7578 8.20256   2
   5  -9  -6 77.4444 8.90594   2
  -5  -9   6 66.7795 8.25070   6
   5   9   6 45.7339 8.26676   2
   5   9   6 70.2850 10.6419   4
   5   9   6 62.7188 8.43909   8
  -5   9  -6 76.4941 9.33183   1
  -5  -9   6 51.6581 8.92437   1
  -6   9   6 275.095 28.8102   1
   6   9  -6 255.427 32.7537   4
   6   9  -6 250.602 27.9070   2
  -6  -9  -6 241.237 28.3374   1
  -6  -9   6 257.574 26.3946   6
   6   9   6 240.972 31.7918   4
   6  -9  -6 236.279 28.3920   2
   6   9   6 289.982 26.7835   8
  -6  -9   6 237.918 28.6681   1
  -6   9  -6 235.570 28.5778   1
   6   9   6 258.138 28.1262   2
  -7  -9  -6 536.659 56.1230   1
   7   9  -6 613.943 63.8202   4
   7  -9   6 460.756 52.4237   8
  -7   9   6 559.303 56.4966   1
   7   9  -6 479.998 52.0771   8
  -7   9  -6 531.979 56.3515   1
  -7  -9   6 596.046 52.0233   6
  -7  -9   6 445.888 56.1443   1
   7   9   6 511.556 62.4426   4
   7  -9  -6 524.481 56.1241   2
   7   9   6 427.528 52.1051   8
   8   9  -6 280.430 27.0546   8
  -8  -9  -6 259.208 29.0438   1
  -8   9   6 273.880 29.4127   1
   8   9  -6 285.663 33.6926   4
   8  -9   6 291.167 27.6285   8
   8   9   6 250.854 32.8839   4
  -8   9  -6 267.138 29.3004   1
   8   9   6 238.897 26.9814   8
  -8  -9   6 246.774 29.2520   1
  -8  -9   6 231.464 26.6748   6
   8  -9  -6 218.011 27.0416   8
  -9  -9  -6 118.977 18.6974   1
  -9   9   6 136.485 19.1412   1
   9  -9   6 172.237 18.2739   8
   9   9  -6 171.828 22.9872   4
   9   9  -6 178.663 17.8621   8
  -9  -9   6 188.848 17.9862   6
  -9   9  -6 163.179 19.3416   1
  -9  -9   6 175.169 19.5683   1
   9   9   6 150.825 17.7317   8
   9  -9  -6 187.349 18.3383   8
 -10   9   6 276.590 28.3276   1
 -10  -9  -6 224.088 27.6162   1
  10   9  -6 269.792 25.8356   8
  10  -9   6 262.907 26.3045   8
 -10  -9   6 214.980 25.4200   6
  10  -9  -6 234.119 26.0378   8
  10   9   6 268.450 25.9789   8
 -10  -9   6 248.947 24.9620   3
 -10   9  -6 223.977 27.7653   1
 -10  -9   6 215.123 27.7404   1
   0 -10   6 7.14749 3.13119   1
   0 -10  -6 9.17424 3.14659   2
   0  10   6 5.12213 2.82647   2
   0  10  -6 4.66517 2.92386   2
   0 -10   6 4.89439 3.09717   2
   1 -10   6 102.073 11.2343   2
  -1 -10  -6 94.0811 11.0073   1
  -1  10   6 71.0139 10.3575   1
  -1  10   6 82.0697 10.6590   2
   1  10  -6 79.3837 10.8501   2
  -1 -10  -6 86.8147 10.8528   2
   1  10   6 58.4689 10.6036   2
   1 -10  -6 70.0876 10.5017   2
  -1  10  -6 83.2818 10.7363   2
  -1 -10   6 95.4989 11.1963   1
  -1 -10   6 85.4876 10.9378   2
   2 -10   6 129.580 16.1504   2
  -2 -10  -6 146.586 16.1396   1
  -2  10   6 125.995 15.9574   2
  -2  10   6 124.998 15.9438   1
   2  10  -6 130.812 16.1999   2
  -2  10  -6 140.263 16.2890   1
   2 -10  -6 121.820 15.9996   2
  -2 -10   6 119.126 16.1462   1
   2  10   6 131.515 17.1644   4
  -2  10  -6 135.204 16.2543   2
   2  10   6 154.721 16.3004   2
  -3 -10  -6 1.75511 2.73543   1
   3  10  -6 0.72584 2.34702   2
  -3  10   6 1.26634 2.47405   1
   3 -10   6 0.10790 2.31038   2
   3  10   6 4.44763 1.84873   4
   3  10   6 0.60529 2.15221   2
  -3 -10   6 -2.5899 2.11564   1
  -3  10  -6 1.72534 2.71711   1
   3 -10  -6 5.98345 2.71779   2
   4 -10   6 1121.48 117.578   2
  -4 -10  -6 1179.05 116.257   1
   4  10  -6 1167.45 129.768   4
  -4  10   6 972.737 116.102   1
   4  10   6 868.775 127.853   4
   4 -10  -6 1206.47 117.586   2
  -4 -10   6 1060.42 116.414   1
   5 -10   6 41.2435 6.97828   2
  -5  10   6 54.2379 7.65660   1
   5  10  -6 38.4262 6.47963   2
  -5 -10  -6 43.5022 6.89530   1
   5  10  -6 40.7812 9.26740   4
   5  10   6 35.7574 6.42870   2
   5  10   6 54.7596 8.48301   4
   5 -10  -6 49.6575 6.96933   2
  -5 -10   6 44.9123 7.35765   1
  -5  10  -6 32.7063 6.70712   1
   6  10  -6 86.8688 14.6036   4
  -6  10   6 91.4295 11.6764   1
   6  10  -6 77.4527 10.4124   2
   6 -10   6 97.2371 11.3544   2
  -6 -10  -6 96.4503 11.4116   1
   6  10  -6 89.9852 10.5099   8
  -6  10  -6 80.3943 11.5176   1
   6 -10  -6 92.6672 11.3675   2
   6  10   6 81.5079 10.5595   8
   6  10   6 80.3691 12.8280   4
  -6 -10   6 84.7021 12.1820   1
   6  10   6 86.1080 10.8133   2
   7  10  -6 57.9392 11.9018   4
   7 -10   6 90.1049 9.66472   2
   7  10  -6 73.3988 9.02134   8
  -7 -10  -6 85.4328 9.89855   1
  -7  10   6 56.0180 9.68958   1
  -7 -10   6 79.8819 9.73265   6
   7  10   6 56.6438 11.1465   4
  -7  10  -6 49.7424 9.47871   1
   7 -10  -6 63.7843 9.06042   2
  -7 -10   6 63.2352 10.0683   1
   7  10   6 90.4269 9.52843   8
   8  10  -6 292.300 29.7242   8
   8  10  -6 270.618 36.6887   4
  -8  10   6 293.483 32.2720   1
  -8 -10  -6 302.655 31.9976   1
   8  10   6 323.835 30.0584   8
  -8 -10   6 293.656 29.6428   6
  -8 -10   6 303.973 32.4367   1
   8  10   6 242.488 35.5128   4
  -8  10  -6 223.419 31.7660   1
  -9  10   6 6.48480 3.38142   1
  -9 -10  -6 -0.2931 2.99127   1
   9  10  -6 -0.2774 2.47580   8
  -9  10  -6 1.03583 3.07451   1
  -9 -10   6 -0.9996 3.05583   1
  -9 -10   6 -0.3869 2.84042   6
   9  10   6 2.81313 2.99777   8
 -10  10   6 63.7036 9.14916   1
  10  10  -6 60.3520 8.10180   8
 -10 -10  -6 55.9973 8.37781   1
 -10  10  -6 44.8029 8.36186   1
  10 -10  -6 51.0984 7.92506   8
  10  10   6 51.3039 7.74467   8
 -10 -10   6 55.0197 8.10248   6
 -10 -10   6 42.2172 8.27789   1
   0  11  -6 -1.7920 2.38923   2
   0 -11   6 1.17745 2.95948   2
   0 -11  -6 0.66272 2.78849   2
   0  11   6 0.45356 1.71826   2
   1 -11   6 72.6117 10.7641   2
  -1 -11  -6 89.7664 10.7430   1
  -1  11   6 60.7942 10.1637   2
   1  11  -6 73.5633 10.4754   2
  -1 -11  -6 63.1094 10.3823   2
  -1 -11   6 97.3553 10.8724   1
   1 -11  -6 68.2037 10.4497   2
  -1  11  -6 81.7321 10.4945   2
   1  11   6 81.2792 10.4939   2
  -2  11   6 95.1754 12.7104   1
   2  11  -6 83.4451 12.5203   2
  -2  11   6 93.3266 12.5436   2
   2 -11   6 102.563 12.8540   2
  -2 -11  -6 107.167 12.7191   1
  -2  11  -6 97.5209 12.9826   1
   2 -11  -6 90.8380 12.7554   2
  -2  11  -6 100.388 12.9888   2
   2  11   6 113.567 13.0043   2
  -2 -11   6 100.409 12.9329   1
  -3  11   6 666.513 68.9968   1
   3 -11   6 614.748 69.4903   2
   3  11  -6 639.356 69.5401   2
  -3 -11  -6 617.608 68.7262   1
   3 -11  -6 620.740 69.6057   2
   3  11   6 680.046 69.6336   2
  -3  11  -6 569.950 68.8500   1
   3  11   6 627.145 75.6377   4
  -3 -11   6 634.800 69.0999   1
  -4 -11  -6 2.15806 2.99404   1
   4 -11   6 5.21527 3.15695   2
   4  11  -6 6.26898 4.60684   4
  -4  11   6 6.56247 3.03628   1
   4  11  -6 3.75911 2.78885   2
   4  11   6 -2.0776 3.59687   4
  -4 -11   6 0.06978 2.88096   1
  -4  11  -6 7.06103 3.71581   1
   4 -11  -6 -0.3923 2.56281   2
   4  11   6 5.16356 2.81947   2
   5  11  -6 -2.4232 4.86872   4
  -5 -11  -6 7.65306 3.39539   1
   5  11  -6 8.78382 3.23683   2
  -5  11   6 1.38985 2.83334   1
   5 -11   6 6.74580 3.33396   2
   5 -11  -6 5.46509 2.88275   2
   5  11   6 8.88060 3.70512   4
  -5 -11   6 5.41215 3.38372   1
  -5  11  -6 1.49021 3.28921   1
   5  11   6 4.91171 3.16287   2
  -6  11   6 114.384 13.9926   1
   6 -11   6 119.976 13.6826   2
   6  11  -6 109.385 17.3375   4
  -6 -11  -6 105.956 13.5987   1
   6  11  -6 97.5351 12.6197   2
  -6  11  -6 100.859 13.8730   1
   6  11   6 117.614 13.0981   2
  -6 -11   6 103.771 13.9688   1
   6  11   6 102.656 15.3967   4
   6 -11  -6 98.5927 13.3576   2
  -7 -11  -6 526.691 52.4068   1
   7  11  -6 405.052 58.5331   4
  -7  11   6 462.148 52.4972   1
   7 -11   6 525.475 52.4257   2
   7  11  -6 462.579 48.7102   8
   7 -11  -6 464.282 52.2132   2
  -7  11  -6 482.803 52.6015   1
  -7 -11   6 398.706 52.3408   1
   7  11   6 522.359 58.4397   4
  -8 -11  -6 65.4548 9.41377   1
   8  11  -6 57.7010 8.50021   8
  -8  11   6 54.9915 9.32785   1
   8  11   6 59.9194 8.70054   8
  -8 -11   6 48.6608 9.07897   1
  -8  11  -6 79.6877 10.3380   1
   9  11  -6 64.9779 8.49928   8
  -9 -11  -6 63.7032 9.07065   1
  -9  11   6 55.2225 9.00941   1
   9  11   6 48.3627 7.86895   8
  -9 -11   6 39.2131 8.11150   1
  -9  11  -6 58.1708 9.17955   1
  -9 -11   6 54.9926 8.18411   6
   0 -12  -6 168.891 23.4534   2
   0 -12   6 234.665 24.1697   2
   0  12   6 202.193 23.6074   2
   0  12  -6 204.124 23.7172   2
  -1  12   6 162.985 23.1856   2
   1 -12   6 182.280 23.3891   2
   1  12  -6 222.394 23.7437   2
  -1 -12   6 212.068 23.6088   1
  -1  12  -6 206.358 23.5736   2
   1 -12  -6 214.386 23.6858   2
   2 -12   6 186.597 22.4813   2
   2  12  -6 159.281 22.1326   2
  -2 -12  -6 220.935 22.4979   1
   2  12   6 145.612 21.9237   2
  -2  12  -6 190.526 22.5585   2
  -2 -12   6 249.042 23.0529   1
   2 -12  -6 191.056 22.5334   2
   3 -12   6 2.53630 3.20618   2
  -3 -12  -6 2.23019 3.35137   1
  -3  12   6 -1.4725 3.05238   1
   3  12  -6 3.81437 3.12980   2
   3  12   6 0.04475 2.50483   2
  -3  12  -6 3.71455 3.37379   1
  -3 -12   6 0.65816 3.28856   1
   3 -12  -6 2.06513 2.98700   2
   4  12  -6 59.8974 11.6853   4
   4 -12   6 51.9162 8.68132   2
   4  12  -6 47.5846 8.33433   2
  -4 -12  -6 59.1145 8.77321   1
  -4  12   6 49.2963 8.57484   1
  -4  12  -6 65.4340 9.61444   1
   4 -12  -6 59.4587 8.75080   2
  -4 -12   6 62.2960 9.19717   1
   4  12   6 45.3194 8.24898   2
   4  12   6 54.4483 9.52525   4
  -5  12   6 75.4010 13.4708   1
   5 -12   6 125.341 14.0346   2
   5  12  -6 92.6360 13.1931   2
  -5 -12  -6 118.311 13.6867   1
   5  12  -6 126.838 17.3742   4
   5 -12  -6 102.947 13.4401   2
   5  12   6 100.483 14.9152   4
  -5 -12   6 123.312 14.1616   1
  -5  12  -6 96.2948 13.7348   1
   5  12   6 99.1255 13.2625   2
  -6  12   6 4.61702 3.83964   1
   6 -12   6 13.5570 4.05952   2
   6  12  -6 5.78341 6.79488   4
  -6 -12  -6 18.5751 4.55776   1
   6  12  -6 14.2502 3.47605   2
   6  12   6 11.2677 3.54860   2
   6  12   6 14.4281 3.61491   2
   6 -12  -6 12.2232 4.10650   2
   6  12   6 10.3515 5.45208   4
  -6 -12   6 11.5665 4.49272   1
  -6  12  -6 12.5347 4.71511   1
  -7 -12  -6 93.1532 12.5990   1
   7 -12   6 99.2682 12.1815   2
  -7  12   6 66.8003 12.3877   1
  -7 -12   6 100.795 13.0507   1
   7 -12  -6 108.126 12.2751   2
  -7  12  -6 83.3535 13.0734   1
   7  12   6 100.679 16.1146   4
  -8  12   6 299.192 42.3987   1
  -8 -12  -6 413.688 42.6924   1
  -8 -12   6 461.411 43.2726   1
  -8  12  -6 360.622 42.8437   1
   0 -13   6 -1.8785 3.24703   2
   0  13   6 -2.2779 2.78934   2
   0  13  -6 -1.4903 2.97046   2
   0 -13  -6 7.99631 3.43134   2
  -1  13   6 58.1883 9.64175   2
   1  13  -6 59.1198 9.58736   2
   1 -13   6 70.7090 10.1565   2
   1  13   6 60.4010 9.48393   2
   1 -13  -6 68.0756 9.87885   2
  -1  13  -6 49.7405 9.20507   2
   2  13  -6 16.3197 5.27519   2
   2 -13   6 31.0197 6.24505   2
  -2 -13  -6 26.8186 6.00807   1
  -2 -13   6 26.3504 6.15924   1
   2 -13  -6 27.4470 5.80906   2
   2  13   6 37.2136 6.67461   2
   3 -13   6 426.091 46.5444   2
  -3 -13  -6 418.594 45.9740   1
   3  13  -6 404.117 46.3559   2
   3  13   6 396.137 46.4130   2
   4 -13   6 96.2193 13.0266   2
   4  13  -6 97.0332 12.7201   2
   4  13  -6 56.6702 14.3177   4
  -4  13   6 113.643 13.4890   1
  -4 -13  -6 110.204 13.1191   1
  -4 -13   6 91.1326 13.4480   1
   4 -13  -6 105.875 12.9526   2
  -4  13  -6 97.5245 13.7923   1
   4  13   6 86.0810 12.7251   2
  -5 -13  -6 121.955 14.6705   1
  -5  13   6 98.7711 14.2689   1
   5 -13   6 117.458 14.5880   2
   5  13  -6 131.010 14.4295   2
   5  13   6 84.5499 13.7469   2
  -5  13  -6 125.552 15.2715   1
  -5 -13   6 96.7621 15.0002   1
   5  13   6 104.610 15.6903   4
   5 -13  -6 119.971 14.4076   2
   6  13  -6 280.377 32.9628   2
  -6  13   6 286.677 33.8863   1
   6 -13   6 351.839 34.0546   2
  -6 -13  -6 374.575 34.2041   1
   6 -13  -6 272.227 33.6153   2
  -6 -13   6 247.976 33.7379   1
   6  13   6 279.624 37.3335   4
  -6  13  -6 344.129 34.6002   1
   6  13   6 256.496 33.0468   2
   7 -13   6 15.1801 4.09899   2
  -7  13   6 6.81808 4.02647   1
  -7 -13  -6 35.6128 6.18518   1
  -7 -13   6 9.78565 4.75180   1
   7 -13  -6 13.8930 4.17062   2
  -7  13  -6 14.5603 5.51778   1
   0  14  -6 9.12359 4.22000   2
   0  14   6 19.8073 5.13366   2
   0 -14  -6 9.45298 4.34080   2
   0 -14   6 7.73998 4.52939   2
   1  14  -6 160.254 20.0517   2
  -1  14   6 158.030 19.9166   2
   1 -14   6 151.158 20.1089   2
  -1  14  -6 158.586 20.0241   2
   1 -14  -6 160.967 20.1395   2
   1  14   6 190.953 20.6597   2
   2 -14   6 224.563 26.2342   2
   2  14  -6 207.827 25.9243   2
   2 -14  -6 216.626 26.0778   2
   2  14   6 224.596 26.1905   2
   3 -14   6 78.9779 11.7414   2
   3  14  -6 83.2636 11.5967   2
  -3 -14  -6 82.1458 11.8917   1
   3  14   6 78.0340 11.5915   2
   3 -14  -6 69.0112 11.0786   2
  -3 -14   6 65.8873 11.4331   1
   4  14  -6 56.4664 9.26044   2
  -4 -14  -6 60.0549 9.82628   1
   4 -14   6 50.7443 9.30390   2
  -4 -14   6 66.0331 10.1948   1
   4 -14  -6 59.2151 9.44576   2
   4  14   6 56.4972 9.45885   2
   5 -14   6 22.1165 5.62094   2
   5  14  -6 21.1228 5.00359   2
  -5 -14  -6 21.4241 5.73801   1
  -5  14   6 22.9790 6.20891   1
  -5 -14   6 14.7058 5.17126   1
   5  14   6 23.7504 5.31230   2
  -5  14  -6 16.3509 6.02000   1
   5 -14  -6 16.3554 5.09765   2
  -6 -14  -6 128.302 16.7868   1
  -6  14   6 150.274 17.3984   1
   6 -14   6 121.702 16.3212   2
   6  14  -6 124.630 15.5933   2
   6 -14  -6 155.016 16.8689   2
   6  14   6 130.315 16.0557   2
   6  14   6 128.201 15.9304   2
  -6 -14   6 108.069 16.7387   1
  -6  14  -6 129.121 17.2215   1
   0 -15  -6 2.68229 3.08438   2
   0  15  -6 -0.5497 3.13623   2
   0  15   6 2.93418 3.63656   2
   1 -15   6 461.535 42.6594   2
   1  15  -6 315.981 41.4072   2
  -1  15   6 393.517 42.1962   2
   1 -15  -6 390.975 42.0754   2
   1  15   6 357.074 41.8285   2
  -1  15  -6 300.994 41.3194   2
   2 -15   6 6.23502 4.71220   2
   2  15  -6 8.31444 3.86505   2
   2  15   6 9.58623 4.41805   2
   2 -15  -6 13.2781 4.78443   2
   3 -15   6 -1.4322 4.03314   2
   3  15  -6 6.27108 4.16093   2
   3  15   6 3.37449 3.75955   2
  -3 -15   6 -0.9566 4.03071   1
   3 -15  -6 4.14869 3.80715   2
   4  15  -6 3.27863 3.19754   2
  -4 -15  -6 0.56055 4.07173   1
   4 -15   6 -2.4854 3.55246   2
   4  15   6 5.39146 3.75859   2
   4 -15  -6 5.51686 3.78324   2
  -4 -15   6 8.94441 4.46421   1
   5 -15   6 19.5150 5.45543   2
   5  15  -6 15.8729 4.39795   2
  -5 -15  -6 13.4528 5.54522   1
   5 -15  -6 17.8249 5.12347   2
  -5 -15   6 10.0893 5.16930   1
   5  15   6 12.6717 4.17749   2
   0  16   6 2.68151 3.56921   2
   0  16  -6 7.24622 4.44770   2
  -1  16   6 14.7132 5.31207   2
   1 -16   6 10.2484 4.42278   2
   1  16  -6 14.0872 5.53600   2
  -1  16  -6 15.4232 5.56406   2
   1 -16  -6 22.8231 5.78096   2
   1  16   6 13.1505 4.68487   2
   2  16  -6 23.4203 5.99243   2
   2 -16   6 23.0612 6.31308   2
   2 -16  -6 27.7846 6.56166   2
   2  16   6 22.5458 6.18664   2
   0   0   7 -0.4832 1.31924   7
   0   0  -7 -0.7789 1.31450   7
   0   0  -7 0.28938 1.34357   2
   0   0   7 1.00575 1.54658   2
   1   0  -7 45.2933 5.44754   2
  -1   0   7 35.9607 5.42832   7
  -1   0  -7 33.8398 5.61153   1
   1   0   7 40.7585 5.29084   7
  -1   0   7 33.5036 5.27755   1
   1   0   7 42.8791 5.58724   2
   1   0  -7 40.4968 5.35500   7
  -1   0  -7 46.4424 5.50848   2
  -1   0  -7 44.5965 5.49779   7
  -1   0   7 41.8965 5.65714   2
  -2   0  -7 0.45431 1.41009   7
  -2   0   7 0.22701 1.29998   1
  -2   0  -7 1.19030 1.51726   1
   2   0  -7 0.57643 1.09407   8
  -2   0   7 -1.5775 1.16604   2
   2   0   7 3.19765 2.03571   5
  -2   0   7 1.03400 1.30329   7
   2   0  -7 -0.1346 1.11813   7
   2   0   7 -1.4901 1.31806   2
  -2   0  -7 -0.1679 1.33624   2
   2   0  -7 1.03196 1.35514   2
   2   0   7 -0.0450 1.14068   7
  -3   0  -7 217.531 25.2801   1
   3   0   7 227.177 24.9745   7
  -3   0   7 189.276 25.0862   1
   3   0  -7 247.811 25.5069   2
   3   0   7 229.168 26.7867   5
  -3   0  -7 222.641 25.4862   2
   3   0  -7 222.555 23.4344   8
  -3   0   7 211.442 25.5515   7
   3   0   7 252.207 25.5758   2
   3   0   7 241.467 24.9832   7
   3   0   7 264.203 23.5803   8
   4   0   7 -0.2854 1.30920   2
  -4   0   7 1.85886 1.34106   7
  -4   0  -7 -1.7544 0.97171   3
   4   0   7 0.28552 1.97154   5
  -4   0   7 -1.3233 0.96796   1
  -4   0  -7 -0.1263 0.95448   7
   4   0  -7 1.37749 1.18495   8
  -4   0  -7 0.17415 1.46743   1
   4   0  -7 0.96228 1.23218   2
   4   0   7 0.51310 1.15111   8
   4   0  -7 0.84966 1.25883   4
   5   0  -7 24.6257 3.58481   2
   5   0   7 30.5726 3.79852   8
  -5   0  -7 26.6095 4.18542   1
  -5   0  -7 22.9983 3.55575   3
   5   0   7 29.7408 5.21265   5
  -5   0   7 22.1647 3.94993   1
  -5   0   7 24.3440 3.90031   7
   5   0   7 32.3627 3.96129   2
  -5   0   7 33.4060 3.93520   3
   5   0  -7 23.8180 3.54866   8
   6   0   7 2.41288 1.41253   8
  -6   0   7 2.85931 1.52182   3
  -6   0   7 1.41382 1.30091   7
  -6   0  -7 2.80212 1.71849   1
  -6   0  -7 0.32960 1.01859   3
   6   0  -7 0.79127 1.23446   8
   6   0   7 3.09473 2.70485   5
  -6   0   7 -0.0222 1.52876   1
   7   0  -7 432.466 48.5694   8
   7   0   7 496.728 48.7104   8
  -7   0   7 486.364 52.3771   1
  -7   0  -7 488.575 52.4571   1
  -7   0   7 571.865 47.0368   3
  -7   0  -7 441.272 46.7108   3
   8   0   7 1.57655 1.48217   8
  -8   0   7 2.63265 1.67310   3
  -8   0   7 2.64176 1.63931   1
  -8   0  -7 3.21682 1.81982   1
  -8   0  -7 0.55342 1.38781   3
   8   0  -7 1.68695 1.43920   8
   9   0   7 149.071 16.8483   8
   9   0  -7 186.839 16.9280   8
  -9   0  -7 135.625 16.2191   3
  -9   0  -7 184.590 18.6067   1
  -9   0   7 158.522 18.2834   1
 -10   0   7 0.93977 1.84225   1
  10   0  -7 -1.1206 1.37234   8
 -10   0  -7 4.54088 2.25752   1
 -10   0  -7 0.31901 1.61223   3
  10   0   7 1.02799 1.53319   8
 -11   0  -7 14.5763 2.98045   3
 -11   0   7 17.4015 3.41073   1
  11   0   7 14.0651 2.81446   8
 -11   0  -7 14.3899 3.72763   1
  11   0  -7 14.1665 2.77500   8
  12   0  -7 -0.8980 1.50180   8
  12   0   7 1.77001 1.77249   8
 -12   0  -7 3.02889 1.88775   3
 -12   0   7 0.50945 2.07919   1
 -12   0  -7 0.31074 2.60438   1
   0   1  -7 101.870 14.3399   7
   0  -1  -7 132.357 14.4581   7
   0  -1   7 127.699 14.4578   7
   0   1  -7 133.348 14.3663   2
   0   1   7 138.709 14.3741   7
   0   1   7 120.334 14.4237   2
  -1  -1  -7 115.904 12.1535   2
   1  -1   7 95.1609 12.7076   5
  -1  -1  -7 95.0265 12.0669   7
  -1   1   7 102.780 11.9271   1
  -1  -1  -7 80.4016 11.8531   1
  -1   1   7 89.5203 11.9703   7
   1  -1   7 98.8278 11.9950   7
   1   1  -7 130.342 12.3038   2
   1   1  -7 98.8715 11.9690   7
  -1   1   7 123.132 12.3480   2
   1  -1   7 89.7650 12.1491   2
  -1   1  -7 101.176 12.0727   2
   1   1   7 93.3545 12.1080   2
   1  -1  -7 117.522 12.1934   7
   1  -1  -7 99.8415 12.0606   2
  -1  -1   7 110.882 12.2690   2
  -1  -1   7 117.937 12.2536   7
  -1   1  -7 97.5316 12.1407   7
   1   1   7 126.755 12.2372   7
  -1   1  -7 114.905 12.3070   1
  -2   1   7 2.20412 1.47276   7
   2   1  -7 4.87635 1.49428   8
   2   1  -7 0.48512 1.28803   2
   2  -1   7 1.28294 1.44267   7
  -2  -1  -7 4.44741 1.83855   1
  -2  -1  -7 3.05147 1.55611   7
   2  -1   7 3.89261 1.94044   2
   2  -1   7 6.30853 2.48901   5
   2   1  -7 1.42200 1.32902   7
  -2   1   7 2.51787 1.54076   1
  -2   1   7 3.98142 1.95385   2
  -2  -1  -7 4.67040 1.86962   2
   2  -1  -7 -0.8502 1.14628   8
  -2  -1   7 1.84256 1.59394   2
  -2  -1   7 2.98253 1.56255   1
   2   1   7 2.77050 1.69166   2
  -2   1  -7 3.16025 1.55345   7
  -2   1  -7 2.30681 1.52608   2
   2  -1  -7 2.13371 1.29484   7
  -2  -1   7 4.67790 1.78352   7
   2   1   7 6.81719 2.49493   5
  -2   1  -7 2.66624 1.77782   1
   2  -1  -7 1.29630 1.46840   2
   2   1   7 2.61069 1.36311   7
   2   1   7 5.54793 1.66988   8
  -3   1   7 23.1827 3.74574   1
   3   1  -7 19.6342 3.32599   8
   3  -1   7 27.5128 4.85401   5
   3  -1   7 26.6683 3.75384   8
  -3  -1  -7 24.7222 3.94760   1
   3  -1   7 24.2543 3.09916   7
  -3  -1  -7 22.6255 3.66642   7
   3  -1   7 24.7634 3.99779   2
   3   1  -7 26.4666 3.80781   2
   3  -1   7 24.8075 3.10860   7
  -3   1   7 23.4109 3.73713   7
  -3   1   7 24.1838 4.05259   2
  -3  -1  -7 29.7135 4.06563   2
   3   1   7 24.3554 3.51196   8
   3   1   7 26.6519 3.95508   2
  -3   1  -7 24.6257 3.84307   7
   3   1   7 20.5327 4.49147   5
  -3   1  -7 23.9072 4.06044   2
  -3  -1   7 20.4520 3.62358   1
  -3   1  -7 23.3777 4.02958   1
   3  -1  -7 26.8653 3.62738   8
  -3  -1   7 21.0356 3.73529   7
   3  -1  -7 25.7289 3.93683   2
   3  -1  -7 28.4112 3.37969   4
   4  -1   7 1.29826 1.40116   2
  -4   1   7 3.55749 1.46343   7
  -4  -1  -7 1.88205 1.18599   3
  -4   1   7 0.68839 1.32597   1
   4  -1   7 -0.1600 2.00158   5
   4   1  -7 0.53107 1.55561   4
   4   1  -7 2.48881 1.34076   8
   4   1  -7 1.37252 1.35713   2
   4  -1   7 1.29075 1.26463   8
  -4  -1  -7 -0.6019 1.28113   1
  -4  -1  -7 0.12397 1.28622   7
  -4  -1   7 0.52504 1.20885   7
  -4  -1   7 2.46311 1.47676   1
  -4   1  -7 -0.0600 0.99581   3
  -4   1  -7 -1.0548 1.12335   7
   4  -1  -7 3.59886 1.44032   8
   4   1   7 4.01973 2.41360   5
   4   1   7 -0.9061 1.14684   2
   4   1   7 0.75627 1.15260   8
   4  -1  -7 0.39638 1.26958   2
  -4   1  -7 1.31612 1.60193   1
   4   1   7 0.65474 2.06703   4
   5  -1   7 95.7535 9.99231   2
   5  -1   7 77.2852 9.28722   8
  -5   1   7 94.1567 10.1598   7
  -5  -1  -7 64.4757 9.95411   1
   5   1  -7 88.8525 9.73905   2
   5  -1   7 84.9021 11.3142   5
   5   1  -7 75.2786 10.8866   4
   5   1  -7 100.518 9.30282   8
  -5   1   7 86.3835 10.0231   1
  -5  -1  -7 88.1637 8.97522   3
   5   1   7 86.5314 11.1697   5
  -5  -1   7 79.7854 9.93683   1
   5   1   7 121.636 12.6569   4
   5  -1  -7 83.6922 9.76695   2
   5   1   7 96.4797 9.40057   8
  -5   1  -7 76.7702 10.1118   1
  -5  -1   7 88.5142 9.93908   7
   5  -1  -7 80.4753 9.22631   8
  -5   1  -7 88.5405 9.08680   3
   5   1   7 78.6548 9.88332   2
  -5  -1   7 76.3903 8.96096   3
   6  -1   7 24.1551 3.47410   8
  -6   1   7 21.2378 3.70797   1
   6   1  -7 21.9735 3.27401   8
   6  -1   7 23.3378 2.89414   2
  -6  -1  -7 20.5887 3.83438   1
  -6  -1  -7 21.6847 3.23635   3
  -6   1  -7 24.0173 4.06534   1
   6  -1  -7 23.3187 3.38830   8
  -6  -1   7 22.3676 3.73647   1
   6   1   7 25.3642 5.07821   5
  -6  -1   7 27.9508 3.64522   3
  -6  -1   7 24.4271 3.59169   7
  -6   1  -7 24.5402 3.55643   3
   6   1   7 23.6327 5.71256   4
   6   1   7 24.8068 3.48439   8
   7  -1   7 125.151 12.4605   8
   7   1  -7 100.992 12.2223   8
  -7  -1  -7 90.1067 11.8047   3
  -7  -1  -7 128.931 13.6156   1
  -7   1   7 111.853 13.3762   1
  -7  -1   7 117.426 12.0798   3
   7  -1  -7 124.993 12.3681   8
   7   1   7 159.274 16.9792   4
  -7   1  -7 126.880 12.1712   3
  -7   1  -7 103.421 13.5072   1
   7   1   7 115.809 12.4128   8
  -7  -1   7 129.343 13.4551   1
   8  -1   7 51.8872 5.83458   8
  -8  -1  -7 49.6959 5.61350   3
   8   1  -7 56.2146 5.74422   8
  -8  -1  -7 48.6113 6.46718   1
  -8   1   7 47.7905 6.35041   1
  -8   1  -7 32.7553 5.54595   3
   8   1   7 48.5173 5.80908   8
  -8  -1   7 45.8809 6.26983   1
   8  -1  -7 49.6051 5.73280   8
  -8  -1   7 54.3715 5.82853   3
   8   1   7 45.4835 8.90598   4
  -8   1  -7 39.6863 6.55701   1
  -9  -1  -7 60.7286 7.65146   1
  -9  -1  -7 60.9175 6.59555   3
  -9   1   7 70.3157 7.72184   1
   9  -1   7 50.2989 6.78455   8
   9   1  -7 63.6057 6.73819   8
  -9   1  -7 55.5850 7.86603   1
  -9  -1   7 63.0178 6.98520   3
   9   1   7 55.0754 6.81169   8
  -9   1  -7 49.8975 6.71787   3
   9   1   7 79.4705 11.9118   4
   9  -1  -7 55.0694 6.71068   8
  -9  -1   7 53.6129 7.39261   1
 -10   1   7 46.3283 6.70515   1
 -10  -1  -7 42.3777 5.76467   3
  10   1  -7 56.8220 6.03184   8
  10  -1   7 65.0505 6.37240   8
 -10  -1  -7 52.9411 7.04150   1
  10  -1  -7 51.6208 6.05826   8
  10   1   7 39.0734 6.00555   8
 -10  -1   7 53.7914 6.83290   1
 -10   1  -7 52.3119 7.26539   1
 -10   1  -7 42.5979 6.13492   3
 -11  -1  -7 15.8316 3.65611   1
  11   1  -7 14.3235 2.73775   8
  11  -1   7 11.1173 2.77456   8
 -11  -1  -7 12.6430 2.97050   3
 -11   1   7 11.5924 3.04079   1
 -11   1  -7 18.6277 3.17662   3
 -11  -1   7 18.3557 3.45386   1
  11  -1  -7 14.9356 2.89288   8
 -11   1  -7 19.0104 3.89588   1
  11   1   7 15.9723 2.98234   8
  12  -1   7 150.907 14.7965   8
  12   1  -7 142.738 14.5544   8
 -12   1   7 109.665 15.6587   1
 -12  -1  -7 167.959 16.4466   1
 -12  -1  -7 143.951 14.3145   3
 -12   1  -7 125.295 16.1315   1
  12   1   7 140.536 14.6247   8
  12  -1  -7 114.153 14.4315   8
 -12   1  -7 135.467 14.3249   3
 -12  -1   7 148.820 15.9136   1
   0  -2   7 0.61962 1.28552   7
   0   2  -7 1.47332 1.37671   7
   0   2   7 1.90803 1.49138   7
   0  -2  -7 1.29800 1.36881   7
   0   2   7 2.61331 1.63887   2
   0   2  -7 4.11776 1.75065   2
   0  -2   7 4.25979 1.89050   2
   0  -2   7 4.20660 2.04987   5
   0  -2  -7 1.33164 1.39031   2
   1  -2   7 9.07978 2.65131   5
  -1  -2  -7 4.02553 1.54039   7
  -1   2   7 3.49879 1.81346   2
   1   2  -7 4.47746 1.74026   2
   1  -2   7 4.46102 1.69634   7
   1   2  -7 5.91103 1.83867   7
  -1  -2  -7 3.88962 1.82482   1
  -1   2   7 1.04613 1.36896   1
  -1   2   7 1.13750 1.40950   7
   1  -2   7 3.01688 1.89819   2
  -1  -2  -7 3.39165 1.69293   2
  -1  -2   7 2.56126 1.53347   7
  -1  -2   7 6.19882 1.98020   2
  -1  -2   7 1.08859 1.44004   1
   1  -2  -7 6.60152 1.88510   2
   1  -2  -7 2.18432 1.45113   7
   1   2   7 5.83713 1.69912   7
  -1   2  -7 2.65979 1.67875   7
  -1   2  -7 2.66520 1.90153   2
   1   2   7 2.39361 1.60007   2
  -1   2  -7 3.67988 1.92897   1
   2   2  -7 9.93094 2.49481   2
  -2   2   7 14.0028 2.69265   1
  -2   2   7 6.57220 2.26295   2
   2  -2   7 9.10119 2.83799   5
  -2  -2  -7 13.8642 2.78140   1
   2   2  -7 10.7870 2.32868   7
  -2  -2  -7 11.1258 2.45057   2
  -2   2   7 12.1419 2.49111   7
   2  -2   7 11.9650 2.29579   7
  -2  -2  -7 8.87950 2.25419   7
   2   2  -7 14.8731 2.45541   8
   2  -2   7 13.7608 2.75660   2
  -2   2  -7 13.6166 2.94165   1
   2   2   7 9.72872 2.20622   8
  -2  -2   7 6.03440 2.24624   1
  -2  -2   7 12.9057 2.77725   2
   2   2   7 11.2841 2.18474   7
   2  -2  -7 11.3200 2.65985   2
  -2   2  -7 14.0711 2.67909   7
   2   2   7 12.5740 2.68435   2
   2  -2  -7 15.6497 2.50442   8
   2  -2  -7 7.87002 2.25842   7
  -2  -2   7 13.1886 2.76613   7
  -2   2  -7 12.7819 3.11339   2
   2   2   7 8.84150 2.77670   4
   3  -2   7 37.3150 5.51924   2
  -3   2   7 46.1740 5.21405   1
   3  -2   7 36.5483 4.63115   7
  -3  -2  -7 39.1525 5.24408   1
  -3  -2  -7 34.4762 5.03627   7
  -3  -2  -7 36.3523 5.15280   2
   3   2  -7 31.1758 4.55137   8
   3  -2   7 39.8576 4.60859   7
   3   2  -7 39.3603 5.10627   2
  -3   2   7 35.0001 5.01466   7
   3  -2   7 38.2397 4.92526   8
   3  -2   7 47.8318 6.11957   5
  -3   2   7 30.8235 5.24090   2
   3   2   7 43.9326 6.19724   4
  -3   2  -7 32.8641 5.06491   7
  -3  -2   7 35.3267 5.02710   7
   3   2   7 19.9422 5.43135   5
   3   2   7 38.2459 5.45972   2
  -3  -2   7 40.5424 5.16509   1
  -3   2  -7 47.1650 5.55760   1
   3  -2  -7 36.4970 4.76321   8
   3  -2  -7 42.2363 5.21778   2
   3   2   7 44.1312 4.88209   8
  -4   2   7 258.289 25.8460   7
   4  -2   7 266.969 25.8722   2
   4   2  -7 196.879 23.5612   8
  -4   2   7 246.602 25.4872   1
  -4  -2  -7 224.084 25.5201   1
  -4  -2  -7 264.379 22.8789   3
   4  -2   7 210.983 27.0423   5
   4   2  -7 258.597 25.6506   2
   4   2   7 196.250 26.8936   5
  -4   2  -7 186.164 25.5170   1
  -4  -2   7 225.808 25.6864   7
  -4   2  -7 243.456 25.8371   7
   4   2   7 226.632 25.6938   2
   4   2   7 216.616 28.6593   4
   4  -2  -7 238.052 25.6810   2
   4  -2  -7 228.836 23.7209   8
  -4  -2   7 216.215 25.4255   1
   4   2   7 254.628 23.8083   8
  -5  -2  -7 2.58048 1.34307   3
   5  -2   7 2.33417 1.54704   8
  -5   2   7 -0.3947 1.29214   1
   5  -2   7 7.24405 2.80510   5
   5   2  -7 4.27795 1.27141   2
   5   2  -7 2.45193 1.22703   8
   5   2  -7 2.89176 2.27356   4
  -5  -2  -7 2.86061 1.61833   1
   5  -2   7 4.41437 1.56684   2
  -5   2  -7 1.77008 1.25825   3
   5   2   7 -0.6232 1.14173   8
   5  -2  -7 1.04736 1.31684   8
  -5  -2   7 3.47993 1.68635   1
   5   2   7 -0.4072 1.81271   5
  -5  -2   7 1.04732 1.32322   7
   5   2   7 1.79719 1.37140   2
  -5   2  -7 2.58434 1.94705   1
   5  -2  -7 2.60732 1.35698   2
   5   2   7 0.06784 2.27334   4
   6  -2   7 313.843 28.9638   2
  -6  -2  -7 290.634 26.1319   3
  -6   2   7 244.201 29.1017   1
   6  -2   7 327.554 27.4203   8
   6   2  -7 218.901 26.8962   8
   6   2  -7 296.609 32.4783   4
  -6  -2  -7 297.329 29.2860   1
   6   2   7 238.073 33.0348   4
   6   2   7 217.580 30.7375   5
   6   2   7 242.551 27.0222   8
   6  -2  -7 265.224 27.0309   8
  -6  -2   7 294.516 26.3302   3
  -6   2  -7 234.722 29.2384   1
  -6  -2   7 231.241 29.0072   1
  -7   2   7 9.96376 2.58882   1
  -7  -2  -7 11.2250 2.70732   1
   7   2  -7 8.69378 2.00018   8
  -7  -2  -7 9.06642 2.21420   3
   7  -2   7 14.7367 2.64809   8
  -7  -2   7 6.31398 2.26826   1
   7  -2  -7 11.0392 2.22056   8
   7   2   7 12.3684 2.31463   8
  -7   2  -7 9.69384 2.81667   1
  -7   2  -7 12.7526 2.47487   3
  -7  -2   7 10.5855 2.37465   3
   7   2   7 5.51623 4.06142   4
   7   2   7 9.01813 3.87446   5
  -8  -2  -7 2.17708 1.53147   3
  -8  -2  -7 2.31395 1.92339   1
   8  -2   7 0.81694 1.60353   8
   8   2  -7 7.02084 1.68873   8
  -8   2   7 0.32661 1.60690   1
   8   2   7 -0.9369 2.47838   4
  -8  -2   7 1.40481 1.88274   1
  -8   2  -7 6.01805 2.36299   1
  -8   2  -7 1.61197 1.39738   3
   8  -2  -7 1.11764 1.40653   8
   8   2   7 0.60812 1.53573   8
   9   2  -7 9.57388 2.12732   8
   9  -2   7 10.3335 2.53617   8
  -9  -2  -7 10.0442 2.83859   1
  -9  -2  -7 8.26711 2.11514   3
  -9   2   7 14.1638 3.02196   1
  -9   2  -7 8.76173 2.96170   1
   9   2   7 13.2135 4.47453   4
  -9  -2   7 13.7442 3.10516   1
   9  -2  -7 9.05599 2.32289   8
   9   2   7 14.0836 2.58818   8
  -9   2  -7 7.63076 2.27748   3
 -10  -2  -7 331.689 34.7186   1
  10   2  -7 283.077 31.9313   8
 -10   2   7 335.923 34.6319   1
 -10  -2  -7 303.359 30.8829   3
  10  -2   7 266.922 32.1739   8
  10   2   7 372.910 40.6618   4
 -10   2  -7 365.513 35.1332   1
  10   2   7 312.830 32.1401   8
 -10  -2   7 356.920 34.7170   1
  10  -2  -7 270.056 31.9803   8
 -10   2  -7 323.238 31.1247   3
 -11  -2  -7 16.4349 3.09198   3
 -11  -2  -7 18.8907 3.99690   1
  11   2  -7 21.0669 3.18681   8
  11  -2   7 23.8210 3.77321   8
 -11   2   7 14.0976 3.61534   1
  11   2   7 15.0432 3.09909   8
 -11   2  -7 25.1521 3.76024   3
 -11   2  -7 13.5280 3.92925   1
 -11  -2   7 21.4426 3.93255   1
  11  -2  -7 19.4810 3.34742   8
  12  -2   7 17.3586 3.83065   8
 -12   2   7 26.5360 4.43962   1
  12   2  -7 15.0702 3.18922   8
 -12  -2  -7 23.2465 4.39971   1
 -12  -2  -7 21.6430 3.52448   3
 -12   2  -7 26.9555 4.10409   3
 -12  -2   7 20.3141 4.12027   1
 -12   2  -7 29.8818 4.85452   1
  12   2   7 18.7672 3.45565   8
  12  -2  -7 22.5711 3.66127   8
   0  -3   7 30.2909 4.45750   7
   0  -3  -7 22.9367 3.99650   7
   0   3   7 24.2876 4.20569   2
   0  -3   7 26.8463 4.61584   5
   0  -3  -7 28.1130 4.32813   2
   0  -3   7 24.2335 4.34383   2
   0   3   7 25.7759 4.23288   7
   0   3  -7 23.9756 4.20873   7
   0   3  -7 28.1107 4.68763   2
   1  -3   7 115.027 13.1469   5
  -1   3   7 82.8023 12.3064   2
  -1  -3  -7 112.533 12.4615   7
  -1  -3  -7 91.1886 12.3732   2
  -1   3   7 95.8926 12.2037   1
   1   3  -7 109.346 12.4850   7
   1   3  -7 122.573 12.7273   2
   1  -3   7 115.793 12.5767   7
  -1   3   7 136.938 12.7417   7
  -1   3  -7 117.825 12.6200   7
   1  -3  -7 83.4663 12.2388   7
   1   3   7 118.108 12.4278   7
  -1  -3   7 104.511 12.5816   7
  -1   3  -7 129.689 12.7187   1
  -1  -3   7 88.4411 12.7495   5
   1   3   7 92.8527 12.4850   2
  -1   3  -7 109.790 12.7729   2
  -1  -3   7 101.303 12.4069   1
   1   3   7 105.735 13.4394   4
   2   3  -7 342.545 33.2727   2
  -2  -3  -7 282.454 33.2022   2
  -2   3   7 311.889 32.8472   1
  -2   3   7 320.036 33.3046   7
   2  -3   7 342.891 33.3307   7
   2  -3   7 316.557 34.6263   5
  -2  -3  -7 312.881 33.3213   7
  -2  -3  -7 254.376 32.8620   1
   2   3  -7 244.271 30.5009   8
   2  -3   7 277.910 33.2102   7
  -2   3   7 328.134 33.3679   2
   2  -3  -7 302.340 33.2298   7
  -2   3  -7 349.502 33.7488   2
   2   3   7 252.967 33.0142   7
  -2  -3   7 341.832 33.5706   2
  -2  -3   7 285.238 33.3717   7
   2  -3  -7 345.762 33.3464   2
   2   3   7 318.283 30.6922   8
   2   3   7 280.588 36.3244   4
   2  -3  -7 306.450 30.6686   8
  -2   3  -7 244.269 33.3212   7
  -2   3  -7 240.392 32.9499   1
  -2  -3   7 353.912 33.0440   1
  -3  -3  -7 64.0954 7.42585   1
   3   3  -7 54.5352 6.60499   8
  -3   3   7 59.9148 7.46449   2
   3  -3   7 57.1322 6.81498   7
  -3  -3  -7 48.1574 7.02150   7
  -3   3   7 59.8008 7.25530   1
  -3  -3  -7 52.5802 6.39106   3
  -3   3   7 58.8938 7.15194   7
   3  -3   7 65.9134 8.12487   5
   3  -3   7 64.8957 6.76977   8
   3  -3   7 67.1653 7.57197   2
   3   3  -7 60.4711 7.27627   2
   3   3   7 69.2457 8.20984   5
  -3  -3   7 49.7103 7.12456   1
   3  -3  -7 41.1715 6.46739   8
  -3   3  -7 67.4716 7.84280   2
  -3  -3   7 51.1139 7.04088   7
   3   3   7 78.7257 7.59909   2
   3   3   7 46.3991 6.54847   8
   3  -3  -7 57.7788 7.34356   2
  -3   3  -7 60.8041 7.56178   1
   3   3   7 57.2324 6.41790   7
   3   3   7 61.0167 8.35511   4
   3  -3  -7 52.5010 6.58704   7
  -3   3  -7 68.9917 7.52134   7
  -4  -3  -7 319.202 35.3991   1
   4  -3   7 290.824 32.9146   8
  -4  -3  -7 330.765 31.6386   3
  -4   3   7 305.655 35.3035   1
   4  -3   7 311.914 35.7438   2
   4   3  -7 376.579 32.8828   8
   4  -3   7 335.308 37.4494   5
   4   3   7 315.157 39.4880   4
   4   3   7 334.638 37.3542   5
  -4   3  -7 325.242 31.7145   3
   4  -3  -7 315.411 32.8608   8
  -4  -3   7 306.662 35.7037   7
  -4  -3   7 368.786 35.4369   1
   4   3   7 350.493 35.6777   2
   4  -3  -7 312.667 35.5906   2
   4   3   7 285.858 32.7962   8
  -5  -3  -7 1.59132 1.60066   1
  -5   3   7 3.82036 1.90581   1
   5   3  -7 7.32684 2.87167   4
   5  -3   7 3.53135 1.82044   2
   5   3  -7 5.51764 1.61067   2
  -5  -3  -7 7.29752 1.74580   3
   5   3  -7 7.59914 1.77951   8
   5  -3   7 6.54510 1.99232   8
  -5   3  -7 4.18956 1.76057   3
   5   3   7 5.76141 1.71975   2
   5   3   7 8.03407 3.24049   4
  -5  -3   7 5.61377 1.99092   1
   5   3   7 4.72714 1.71155   8
   5  -3  -7 5.04757 1.63280   2
  -5   3  -7 4.94260 2.19746   1
   5  -3  -7 7.04756 1.79725   8
   5   3   7 -0.2696 2.25328   5
  -6   3   7 2.34021 1.68830   1
   6   3  -7 2.33144 1.23240   8
   6   3  -7 3.03028 2.77316   4
   6  -3   7 2.31441 1.45721   2
  -6  -3  -7 3.14055 1.61290   3
  -6  -3  -7 4.54695 2.00454   1
   6  -3   7 7.11432 2.05761   8
   6   3   7 2.18397 3.03110   4
   6   3   7 4.60182 1.63616   8
   6  -3  -7 2.79322 1.14283   2
  -6  -3   7 1.58984 1.75012   1
  -6   3  -7 3.42092 1.60213   3
  -6   3  -7 3.07226 1.91329   1
   6  -3  -7 2.07141 1.54095   8
   6   3   7 1.63094 2.57507   5
   7   3  -7 10.2123 2.14994   8
  -7  -3  -7 6.01428 1.95351   3
   7  -3   7 5.54522 2.11349   8
  -7   3   7 3.47862 2.02717   1
  -7  -3  -7 10.5585 2.73918   1
   7   3  -7 8.12402 2.75879   4
   7   3   7 9.58550 4.31343   4
   7  -3  -7 11.7217 2.25776   8
  -7   3  -7 10.6970 2.92857   1
  -7   3  -7 6.97910 2.21578   3
   7   3   7 7.86570 1.96552   8
   7   3   7 9.64289 3.11335   5
  -7  -3   7 7.59091 2.40975   1
  -8  -3  -7 36.7542 4.94504   3
   8   3  -7 44.5215 4.95172   8
   8  -3   7 44.3918 5.51163   8
  -8  -3  -7 34.9980 5.63480   1
  -8   3   7 45.9744 5.95173   1
   8  -3  -7 40.0519 5.01217   8
  -8  -3   7 42.6965 5.82104   1
  -8   3  -7 29.1124 5.70479   1
   8   3   7 27.4526 4.79767   8
   8   3   7 38.8871 7.99302   4
  -8   3  -7 44.7209 5.38446   3
   9   3  -7 164.705 15.6671   8
  -9  -3  -7 178.825 17.2930   1
  -9   3   7 157.576 17.2281   1
   9  -3   7 111.833 15.7285   8
  -9  -3  -7 142.676 15.2279   3
   9   3   7 171.099 21.0066   4
  -9   3  -7 140.965 15.3683   3
   9  -3  -7 170.963 15.8675   8
  -9  -3   7 159.120 17.1492   1
  -9   3  -7 144.815 17.3137   1
   9   3   7 120.911 15.6095   8
 -10  -3  -7 126.081 16.3617   1
 -10  -3  -7 136.108 14.6014   3
 -10   3   7 156.274 16.6052   1
  10   3  -7 158.281 15.0539   8
  10  -3   7 160.966 15.5546   8
  10   3   7 125.348 15.0473   8
 -10  -3   7 138.114 16.4207   1
 -10   3  -7 135.497 16.6026   1
 -10   3  -7 152.925 14.8978   3
  10   3   7 121.239 19.5571   4
  10  -3  -7 150.885 15.2033   8
 -11  -3  -7 24.5055 3.67765   3
  11   3  -7 19.4611 3.37951   8
 -11  -3  -7 22.5823 4.33982   1
  11  -3   7 15.6422 3.53734   8
 -11   3   7 19.5268 4.07095   1
 -11  -3   7 22.0287 4.28164   1
  11   3   7 23.1942 3.58496   8
 -11   3  -7 19.1611 4.24994   1
  11  -3  -7 23.7936 3.73850   8
 -11   3  -7 20.2059 3.64385   3
 -12  -3  -7 0.78151 2.30131   1
  12   3  -7 2.98018 1.80108   8
 -12  -3  -7 2.71409 1.86657   3
  12  -3   7 3.15159 2.21093   8
 -12   3   7 4.22778 2.55426   1
 -12   3  -7 0.77505 2.08528   3
 -12  -3   7 -0.7451 2.29113   1
 -12   3  -7 -2.7706 2.67737   1
  12   3   7 2.08978 2.02967   8
  12  -3  -7 1.42510 2.16427   8
   0   4  -7 3.49729 2.08570   2
   0  -4   7 -0.8540 1.33972   5
   0   4  -7 0.26754 1.57280   7
   0   4   7 1.93426 1.17998   4
   0  -4  -7 -2.7978 1.20161   2
   0  -4   7 -1.8191 1.57570   2
   0  -4  -7 2.82932 1.67969   1
   0   4   7 0.03836 1.49879   2
   0  -4  -7 -0.7148 1.21956   7
   0   4   7 0.04184 1.21210   7
   0  -4   7 -0.2724 1.48465   7
   0  -4   7 0.05862 1.79075   1
   1   4  -7 8.07195 2.15803   7
  -1   4   7 7.33714 2.40896   2
  -1  -4  -7 13.3587 2.82816   2
  -1   4   7 13.7627 2.61902   1
  -1  -4  -7 12.4849 2.80213   1
   1   4  -7 8.33188 2.63259   2
   1  -4   7 11.5659 2.80991   5
  -1  -4  -7 8.44216 2.22202   7
   1  -4   7 12.7014 2.61065   7
   1  -4   7 6.81254 2.43308   2
  -1   4   7 8.71159 2.36682   7
  -1  -4   7 9.93346 2.49895   5
  -1   4  -7 9.00365 2.19077   7
  -1  -4   7 6.41076 2.44071   2
   1   4   7 10.8894 2.70520   2
  -1  -4   7 4.86784 2.21836   1
  -1   4  -7 13.7134 3.05558   2
  -1   4  -7 12.1412 2.83713   1
  -1  -4   7 7.73353 2.38987   7
   1  -4  -7 7.95998 2.35627   2
   1   4   7 12.1443 2.48388   4
   1   4   7 7.21969 2.07947   7
   2   4  -7 -0.4988 1.40803   2
  -2  -4  -7 -2.3196 1.42138   7
  -2   4   7 -0.7839 0.99356   7
   2   4  -7 0.87388 1.35654   8
  -2  -4  -7 0.28450 1.52520   1
   2  -4   7 1.13171 2.04999   5
  -2   4   7 -0.8767 1.41597   1
   2  -4   7 3.00779 1.51818   7
  -2   4   7 0.87580 1.71399   2
  -2  -4  -7 -0.9215 1.27057   2
   2  -4   7 0.84599 1.64512   2
   2   4   7 4.30941 1.94549   2
   2   4   7 3.39065 1.28217   7
   2  -4  -7 -0.6361 1.17360   8
   2  -4  -7 -0.9522 1.49330   2
  -2  -4   7 1.06369 1.91298   2
   2  -4  -7 1.78082 0.96711   7
  -2  -4   7 -0.5125 1.29951   1
  -2   4  -7 2.94661 1.97668   2
  -2   4  -7 -1.5331 1.45851   7
  -2  -4   7 -0.0774 1.56335   5
  -2   4  -7 0.98232 1.67728   1
   2   4   7 1.77356 1.82632   4
   2   4   7 1.17829 1.17018   8
  -2  -4   7 -0.2074 1.37089   7
   3  -4   7 63.6822 9.14991   2
   3   4  -7 81.3807 8.50027   8
  -3  -4  -7 72.2396 9.01855   7
  -3   4   7 76.9713 9.03115   7
   3  -4   7 80.0935 8.81804   7
   3  -4   7 60.3654 9.65745   5
  -3  -4  -7 83.2367 8.22815   3
   3  -4   7 89.0285 8.61650   8
  -3   4   7 62.4018 8.98805   1
   3   4  -7 83.1915 9.15196   2
  -3  -4  -7 77.4309 9.12547   1
   3  -4  -7 98.8832 9.48570   2
  -3   4  -7 71.9967 9.17494   7
  -3   4  -7 85.7405 9.42795   1
   3   4   7 68.4137 9.18707   2
  -3   4  -7 61.7967 9.34950   2
   3   4   7 75.3492 10.2225   4
  -3  -4   7 70.4699 8.98870   7
   3  -4  -7 80.4288 8.53247   8
   3  -4  -7 69.8286 8.62477   7
  -3  -4   7 83.9949 9.41786   5
   3   4   7 87.2558 8.57904   8
  -3  -4   7 50.2103 8.91312   1
  -4   4   7 14.0244 3.50434   1
   4  -4   7 21.0768 3.47750   8
  -4  -4  -7 18.9792 3.14324   3
   4  -4   7 18.9020 3.71089   2
   4   4  -7 25.4610 3.69762   2
   4   4  -7 25.8883 3.50871   8
   4   4  -7 23.6871 5.08740   4
  -4  -4  -7 25.2037 3.93869   1
   4   4   7 25.5702 4.74083   5
  -4   4  -7 25.5325 3.60331   3
  -4  -4   7 17.9538 3.65741   1
   4   4   7 13.9326 3.98399   4
  -4   4  -7 18.8717 3.78491   1
   4   4   7 25.7394 3.74880   2
   4   4   7 22.8274 3.49364   8
   4  -4  -7 27.1612 3.99614   2
  -4   4  -7 18.9466 3.77584   7
   4  -4  -7 26.8487 3.52639   8
   5   4  -7 9.66190 2.30241   8
   5  -4   7 14.5741 2.85225   8
   5   4  -7 20.7872 4.36815   4
  -5  -4  -7 13.3361 2.43540   3
  -5   4   7 15.2607 3.06578   1
   5   4  -7 13.9607 2.44308   2
   5  -4   7 12.9191 2.88308   2
  -5  -4  -7 12.7384 2.88121   1
   5   4   7 10.0622 3.26706   5
   5  -4  -7 13.2069 2.59059   8
  -5  -4   7 10.5475 2.78896   1
  -5   4  -7 16.7523 2.82079   3
   5  -4  -7 11.8555 2.63255   2
   5   4   7 13.5908 3.92026   4
   5   4   7 12.7992 2.48866   2
   5   4   7 11.8036 2.45336   8
  -5   4  -7 10.1384 3.01106   1
   6  -4   7 124.340 13.2621   8
   6   4  -7 105.265 12.9239   8
  -6  -4  -7 125.790 12.6958   3
   6   4  -7 132.026 16.4269   4
   6  -4   7 129.369 14.0207   2
  -6   4   7 101.576 14.1033   1
  -6  -4  -7 126.218 14.2270   1
   6   4   7 114.605 13.1057   8
  -6   4  -7 132.648 12.8852   3
   6  -4  -7 131.087 13.8156   2
   6   4   7 121.375 16.7191   4
  -6   4  -7 114.663 14.3421   1
  -6  -4   7 132.434 14.3590   1
   6  -4  -7 118.668 13.1285   8
   6   4   7 124.798 13.5714   2
   6   4   7 134.993 15.4252   5
   7  -4   7 172.030 17.4291   8
   7   4  -7 161.194 17.0833   8
  -7   4   7 123.934 18.4165   1
  -7  -4  -7 168.188 18.6308   1
   7   4  -7 171.595 21.0876   4
  -7  -4  -7 161.760 16.5897   3
   7  -4  -7 167.117 17.2391   8
  -7  -4   7 164.215 18.6614   1
   7   4   7 202.246 22.3625   4
  -7   4  -7 190.763 16.8986   3
   7   4   7 156.451 17.2119   8
  -7   4  -7 158.288 18.7484   1
  -8  -4  -7 15.3436 3.12672   3
   8  -4   7 20.3780 3.57308   8
  -8  -4  -7 16.2599 3.59268   1
  -8   4   7 16.8321 3.66682   1
   8   4  -7 20.1802 3.21628   8
   8   4  -7 22.2527 5.87103   4
   8   4   7 22.8964 5.80278   4
  -8  -4   7 19.0799 3.87956   1
   8   4   7 19.7686 3.43103   8
  -8   4  -7 22.4551 3.49497   3
   8  -4  -7 21.0887 3.31735   8
  -8   4  -7 15.7466 3.85898   1
   9  -4   7 77.3946 8.62640   8
  -9  -4  -7 77.5685 8.20455   3
  -9   4   7 78.7474 9.38630   1
   9   4  -7 62.1790 8.10545   8
  -9  -4  -7 64.1154 9.15952   1
   9   4   7 65.2162 12.3203   4
   9  -4  -7 86.8765 8.56552   8
   9   4   7 62.2427 8.26732   8
  -9  -4   7 71.5202 9.31657   1
  -9   4  -7 66.5984 8.21202   3
  -9   4  -7 80.2544 9.45066   1
  10   4  -7 -0.1216 1.59224   8
 -10  -4  -7 1.40624 1.76604   3
  10  -4   7 0.64188 1.89429   8
 -10   4   7 1.47753 2.00024   1
 -10  -4  -7 1.79999 2.31471   1
 -10   4  -7 5.30369 2.66086   1
  10   4   7 1.96066 3.77740   4
  10   4   7 2.32763 1.78410   8
 -10  -4   7 0.35248 2.32910   1
  10  -4  -7 -1.1402 1.62140   8
 -10   4  -7 0.28324 1.82886   3
 -11  -4  -7 2.49340 2.52580   1
 -11  -4  -7 2.31689 2.04313   3
  11  -4   7 3.82934 2.27708   8
 -11   4   7 3.44297 2.45461   1
  11   4  -7 2.22772 1.79539   8
  11   4   7 1.58340 1.68443   8
  11  -4  -7 4.06330 2.21211   8
 -11   4  -7 2.22595 2.81542   1
 -11   4  -7 0.17928 2.23152   3
 -11  -4   7 1.74323 2.43143   1
 -12  -4  -7 4.83840 2.39827   3
  12   4  -7 8.49245 2.42835   8
  12  -4   7 7.04863 2.73189   8
 -12   4   7 3.10737 2.81110   1
 -12  -4  -7 5.43379 3.04711   1
 -12   4  -7 2.71421 2.42370   3
  12   4   7 8.77177 2.62048   8
 -12  -4   7 7.79431 3.04689   1
 -12   4  -7 8.47957 3.58551   1
 -12  -4   7 8.20241 2.59792   6
  12  -4  -7 10.3079 2.81594   8
   0   5   7 202.987 24.9410   4
   0  -5   7 207.182 23.2519   1
   0   5  -7 199.286 23.4339   1
   0  -5  -7 211.403 23.2753   1
   0   5   7 192.398 23.4043   2
   0  -5   7 234.354 23.7394   7
   0  -5  -7 218.453 23.4926   2
   0   5   7 194.483 23.3060   7
   0  -5   7 194.931 24.0298   5
   0   5   7 229.521 23.1828   1
  -1   5   7 654.688 67.8378   7
   1  -5   7 595.504 67.8613   7
  -1  -5  -7 705.877 67.9152   7
  -1  -5  -7 664.566 66.8950   1
  -1  -5  -7 585.716 67.5479   2
  -1   5  -7 492.254 66.8880   1
  -1   5  -7 712.072 67.9395   2
   1   5   7 657.352 67.7170   7
   1   5   7 578.885 73.3118   4
  -1  -5   7 547.539 69.4805   5
   1   5   7 521.394 67.4509   2
  -1  -5   7 673.195 67.9835   7
  -1  -5   7 628.624 66.9185   1
   1  -5  -7 667.784 67.6777   2
   2  -5   7 77.0150 9.99804   2
   2   5  -7 70.0401 9.90873   2
  -2   5   7 84.6267 9.90465   7
   2  -5   7 99.3339 9.93402   7
   2   5  -7 88.8608 9.26878   8
  -2  -5  -7 90.4814 10.1128   2
  -2  -5  -7 96.0315 10.0491   7
   2   5   7 64.9963 8.90110   8
   2   5   7 71.1769 10.3892   4
  -2   5  -7 57.6235 9.78159   1
  -2   5  -7 83.0394 9.83483   7
  -2  -5   7 81.7610 9.92338   5
  -2  -5   7 81.3405 10.0133   2
   2  -5  -7 95.2411 10.0885   2
   2   5   7 76.2287 9.87107   2
   2  -5  -7 72.2555 8.98773   8
  -2  -5   7 77.1829 9.67284   7
  -2   5  -7 64.1120 9.89776   2
   3  -5   7 6.47926 2.31057   2
   3   5  -7 4.91616 1.98054   2
  -3  -5  -7 4.07045 1.89862   7
  -3  -5  -7 6.10114 2.13861   1
   3  -5   7 4.27329 1.98769   8
   3   5  -7 3.42662 1.80527   8
  -3   5   7 1.40514 1.89651   1
   3  -5  -7 3.81362 1.34720   7
  -3  -5   7 3.64156 1.82244   5
   3   5   7 0.80885 1.84619   4
   3  -5  -7 3.56064 1.94177   2
  -3   5  -7 4.44396 2.36536   1
  -3  -5   7 0.32029 1.60534   1
   3  -5  -7 3.19339 1.64950   8
  -3   5  -7 4.27532 1.95737   7
   3   5   7 1.50481 1.31649   8
   3   5   7 2.04102 1.64396   2
   4   5  -7 201.875 22.4619   2
   4   5  -7 173.653 20.7732   8
   4  -5   7 220.411 21.0244   8
  -4  -5  -7 229.836 20.1232   3
  -4   5   7 192.231 22.3943   1
   4  -5   7 242.287 22.9184   2
  -4  -5  -7 186.386 22.4029   1
   4   5   7 191.918 22.4906   2
   4   5   7 235.132 23.8690   5
  -4   5  -7 186.076 22.5634   1
   4   5   7 175.577 20.7334   8
   4  -5  -7 216.988 22.6849   2
  -4  -5   7 220.153 22.6827   1
   4  -5  -7 192.335 20.8236   8
   4   5   7 163.180 24.6926   4
   5   5  -7 119.327 14.6933   8
   5  -5   7 157.543 16.3127   2
   5   5  -7 148.784 18.7323   4
  -5   5   7 153.255 16.0980   1
  -5  -5  -7 129.203 14.2036   3
  -5  -5  -7 119.496 15.9021   1
   5   5  -7 142.555 15.7025   2
   5  -5   7 151.805 15.0426   8
  -5   5  -7 143.503 16.2649   1
   5   5   7 134.479 17.0607   5
   5  -5  -7 144.568 16.0395   2
  -5  -5   7 119.766 16.0056   1
   5   5   7 163.567 18.3745   4
   5   5   7 137.483 14.8549   8
  -6  -5  -7 5.45305 2.21704   1
   6  -5   7 8.96168 2.36266   8
  -6  -5  -7 4.55608 1.67135   3
   6   5  -7 5.51313 3.22473   4
   6  -5   7 3.19018 1.98470   2
   6   5  -7 5.53490 1.95160   8
  -6   5   7 5.56738 2.28382   1
   6  -5  -7 4.98764 1.96499   8
   6   5   7 4.14943 1.86898   8
   6   5   7 5.46296 1.59734   2
  -6  -5   7 6.33860 2.62307   1
   6  -5  -7 4.34911 1.85170   2
   6   5   7 7.23944 3.59932   4
  -6   5  -7 7.54575 2.81103   1
  -6   5  -7 5.55375 2.30734   3
  -7  -5  -7 315.401 33.5318   1
   7   5  -7 363.484 37.9694   4
   7  -5   7 290.305 32.9569   2
  -7  -5  -7 257.856 29.7206   3
  -7   5   7 320.070 33.5692   1
   7   5  -7 311.783 31.0693   8
   7  -5   7 296.138 31.2228   8
  -7   5  -7 354.527 30.3328   3
   7   5   7 303.113 31.1674   8
   7   5   7 286.031 37.8553   4
  -7   5  -7 273.550 33.5420   1
   7  -5  -7 261.277 30.9984   8
  -7  -5   7 358.840 33.9196   1
  -8  -5  -7 12.6797 2.64411   3
  -8   5   7 11.8138 3.11281   1
   8   5  -7 6.33881 3.98770   4
   8  -5   7 5.66519 2.53648   8
  -8  -5  -7 11.1522 3.11593   1
   8   5  -7 13.6933 2.78327   8
  -8   5  -7 12.5375 3.56440   1
  -8  -5   7 14.7502 3.53854   1
   8   5   7 10.9462 2.69314   8
   8   5   7 17.1768 5.50651   4
  -8   5  -7 10.4071 2.80860   3
   8  -5  -7 14.3986 2.95790   8
  -9  -5  -7 36.8006 4.82449   3
   9   5  -7 31.6222 4.83006   8
  -9  -5  -7 29.2505 5.25281   1
   9  -5   7 37.9544 5.29534   8
  -9   5   7 33.4124 5.49771   1
  -9   5  -7 32.9051 4.99537   3
   9   5   7 32.1864 7.52530   4
   9  -5  -7 36.3589 5.12259   8
  -9  -5   7 30.5113 5.41841   1
  -9   5  -7 37.8827 6.03345   1
   9   5   7 27.3139 4.71999   8
  10  -5   7 4.27525 2.50606   8
 -10  -5  -7 3.63340 2.61446   1
  10   5  -7 3.63541 2.09729   8
 -10   5   7 1.59001 2.57565   1
 -10  -5  -7 5.15977 2.01393   3
  10   5   7 4.14351 5.26275   4
 -10  -5   7 5.52737 2.38670   6
  10  -5  -7 0.48901 1.97552   8
 -10  -5   7 2.55491 2.76839   1
  10   5   7 4.09296 2.14776   8
 -10   5  -7 4.08715 2.31729   3
 -10   5  -7 4.54852 2.72098   1
 -11  -5  -7 -0.7938 1.50193   3
 -11   5   7 0.95919 2.26800   1
  11   5  -7 1.55278 1.97931   8
 -11  -5  -7 3.31589 2.54543   1
  11  -5   7 0.61244 2.26067   8
 -11   5  -7 0.41513 2.80452   1
 -11  -5   7 0.29957 2.44745   1
 -11  -5   7 3.97866 2.12663   6
 -11   5  -7 2.72347 2.13436   3
  11   5   7 1.81190 2.04456   8
  11  -5  -7 -0.0879 1.77441   8
   0   6   7 1.40904 1.88848   1
   0  -6  -7 -1.9808 1.52992   1
   0   6   7 1.95570 1.66200   4
   0  -6  -7 1.36101 1.74662   2
   0  -6   7 4.46738 2.27949   1
   0   6   7 0.02895 1.83317   2
   0  -6   7 -1.3239 1.84164   2
   0   6  -7 2.53196 1.99501   1
   0   6   7 2.08085 1.44726   7
   0  -6   7 0.95815 1.82441   1
   0  -6   7 0.25134 1.33479   7
   0  -6   7 0.97537 1.72652   5
   0   6  -7 3.43788 2.22918   2
  -1  -6  -7 1.75615 1.94908   1
  -1   6   7 -0.0672 1.40960   7
   1  -6   7 -0.2910 1.55742   5
  -1   6   7 1.09820 1.71662   2
   1  -6   7 4.65343 1.76858   7
   1   6  -7 0.71444 1.84183   2
  -1   6   7 1.92343 1.87745   1
   1  -6   7 -1.0537 1.78256   2
   1  -6   7 4.48870 2.16453   1
  -1  -6  -7 0.64297 1.93056   2
   1   6   7 2.44909 2.05092   2
   1   6   7 0.98926 1.67989   4
  -1  -6   7 2.48305 2.01703   1
  -1   6  -7 -0.0112 2.17711   1
  -1   6  -7 2.13082 2.02815   2
  -1  -6   7 1.92905 2.17761   2
   1   6   7 0.84304 1.28041   7
  -1  -6   7 2.35357 1.93518   7
   1  -6  -7 1.42145 1.95629   2
  -1  -6   7 1.16281 1.64206   5
  -1  -6   7 2.24396 2.18456   1
   1  -6  -7 4.39123 2.20549   1
  -2   6   7 2.40823 1.98679   2
  -2   6   7 0.18440 1.92308   1
  -2  -6  -7 2.75251 1.84202   1
   2   6  -7 -0.3233 1.64172   2
   2  -6   7 1.75055 2.07322   2
   2   6  -7 2.53691 1.87636   8
  -2  -6  -7 1.29971 1.97970   2
  -2  -6   7 3.63713 2.08843   1
  -2  -6   7 2.89710 1.81413   6
  -2  -6   7 0.36452 1.94559   2
   2  -6  -7 3.49460 2.03690   2
  -2  -6   7 0.67264 1.68784   5
   2   6   7 1.06418 1.56805   2
  -2   6  -7 2.64062 2.22550   2
  -2   6  -7 2.36429 2.38269   1
   2   6   7 1.94991 1.60410   8
   2   6   7 1.78304 1.84662   4
  -3   6   7 125.592 12.6826   1
   3   6  -7 116.933 11.7654   8
   3  -6   7 111.782 11.9050   8
   3  -6   7 123.208 12.9265   2
   3   6  -7 92.1336 12.5503   2
  -3  -6  -7 86.1655 12.2930   7
  -3  -6  -7 96.1629 12.4751   1
  -3   6  -7 113.912 13.0500   1
   3   6   7 97.0227 12.4439   2
   3  -6  -7 130.202 12.9036   2
   3  -6  -7 111.648 11.6769   8
   3   6   7 76.9537 11.3238   8
   3   6   7 90.3814 13.4221   4
  -3  -6   7 124.875 11.8370   6
  -3  -6   7 116.428 12.6520   1
   4   6  -7 -1.7401 1.17283   8
   4  -6   7 -0.9280 1.60907   2
   4  -6   7 3.71936 2.01056   8
  -4  -6  -7 4.25868 2.17359   1
   4   6  -7 2.04462 1.81212   2
  -4   6   7 3.90019 2.04207   1
   4  -6  -7 2.89704 1.99078   2
   4  -6  -7 4.65596 2.01836   8
   4   6   7 4.85306 2.41884   5
   4   6   7 1.54682 2.40953   4
  -4  -6   7 1.86117 2.08460   1
  -4  -6   7 5.75731 1.88874   6
   4   6   7 -1.5350 1.57870   2
  -4   6  -7 1.17013 2.13702   1
   4   6   7 1.96826 1.75510   8
   5   6  -7 0.47314 3.58397   4
   5   6  -7 1.23270 1.79869   8
   5  -6   7 2.72368 2.04038   2
  -5   6   7 2.50437 1.92852   1
   5  -6   7 0.46117 1.72809   8
  -5  -6  -7 2.32956 1.70585   3
   5   6  -7 1.72947 1.66888   2
  -5  -6  -7 0.15905 1.91781   1
   5   6   7 2.63347 1.82237   8
  -5   6  -7 1.26359 2.31018   1
  -5  -6   7 -1.0252 1.77656   6
   5  -6  -7 -0.4292 1.45918   8
   5   6   7 0.37645 1.64194   2
  -5  -6   7 2.03512 2.19893   1
   5  -6  -7 0.95769 1.96871   2
   5   6   7 3.00076 2.66726   4
   6   6  -7 19.5253 5.38663   4
   6   6  -7 21.2683 3.62475   8
   6   6  -7 21.2835 2.81496   2
   6  -6   7 24.1877 4.02678   2
  -6  -6  -7 16.6583 3.74720   1
  -6  -6  -7 17.2174 3.24935   3
  -6   6   7 15.3208 3.69941   1
   6  -6   7 18.5480 3.82528   8
   6  -6  -7 25.7187 3.80036   8
   6   6   7 17.3010 3.45169   8
   6   6   7 12.1975 4.39716   4
  -6  -6   7 13.2513 3.39776   6
   6   6   7 19.3489 3.23905   2
   6  -6  -7 20.5620 3.50702   2
  -6   6  -7 22.9137 4.49227   1
  -6  -6   7 22.6742 4.22406   1
  -7  -6  -7 4.89327 2.51458   1
   7  -6   7 5.51111 1.86506   2
   7  -6   7 5.69521 2.33241   8
   7   6  -7 5.00782 4.11615   4
   7   6  -7 5.05036 2.33030   8
  -7   6   7 4.36440 2.45483   1
  -7  -6  -7 6.55868 2.25936   3
   7   6   7 4.24065 2.06977   8
  -7  -6   7 7.74440 2.89445   1
   7   6   7 6.85843 3.71491   4
   7  -6  -7 8.81032 2.48712   8
  -7  -6   7 7.02503 2.65792   6
  -7   6  -7 2.89877 2.61450   1
  -8  -6  -7 1.16448 1.78480   3
  -8  -6  -7 0.23413 2.12872   1
   8   6  -7 1.46300 1.86752   8
   8   6  -7 1.63311 3.89210   4
   8  -6   7 2.11516 2.13496   8
  -8   6   7 -0.3907 2.08788   1
  -8   6  -7 -0.1586 2.56127   1
  -8  -6   7 -1.3628 1.83772   6
  -8   6  -7 3.44479 2.33334   3
   8   6   7 7.89981 3.34138   4
   8   6   7 -1.4135 1.37785   8
  -8  -6   7 -1.0883 2.12827   1
   8  -6  -7 0.36905 1.85052   8
   9  -6   7 25.9220 4.45618   8
  -9  -6  -7 34.3271 5.29671   1
  -9   6   7 26.2827 4.79310   1
   9   6  -7 30.6944 7.58053   4
   9   6  -7 17.8980 3.99773   8
  -9  -6  -7 22.8756 3.91266   3
  -9   6  -7 30.1352 4.75072   3
  -9  -6   7 27.0184 4.93865   1
  -9  -6   7 26.7213 4.52460   6
   9  -6  -7 23.9756 4.37893   8
   9   6   7 23.3599 4.21311   8
   9   6   7 41.5841 8.26380   4
  -9   6  -7 20.7203 4.96233   1
  10   6  -7 17.4279 3.60290   8
  10  -6   7 16.8696 3.77547   8
 -10  -6  -7 21.5563 3.58371   3
 -10   6   7 19.4958 4.12029   1
 -10  -6  -7 17.5056 4.06901   1
 -10   6  -7 16.7593 3.86099   3
  10   6   7 13.4513 3.31549   8
  10  -6  -7 8.60839 2.99151   8
 -10  -6   7 13.4673 3.80710   1
 -10   6  -7 13.9796 4.11251   1
 -10  -6   7 17.1314 3.68408   6
 -11  -6  -7 43.1005 6.31791   3
 -11  -6  -7 53.1268 7.66289   1
  11  -6   7 44.0637 6.89195   8
  11   6  -7 58.0831 7.12512   8
 -11   6   7 53.0907 7.75422   1
  11  -6  -7 53.8850 7.04987   8
 -11  -6   7 38.8459 6.47602   6
 -11  -6   7 47.9039 7.48024   1
 -11   6  -7 46.0954 6.93684   3
  11   6   7 53.0094 6.87703   8
 -11   6  -7 45.9857 7.72645   1
 -11  -6   7 52.5024 7.48025   1
   0   7  -7 28.1783 4.90354   2
   0  -7   7 24.0048 4.23937   7
   0   7  -7 24.5917 4.54053   1
   0  -7  -7 17.1457 3.88077   2
   0  -7   7 19.9383 4.36403   1
   0  -7  -7 20.4321 4.07718   1
   0   7   7 24.8439 4.29014   2
   0   7   7 20.9755 3.62368   7
   0   7   7 18.6178 3.96734   1
   0  -7   7 15.6765 4.02383   2
  -1  -7  -7 256.398 23.0318   1
  -1   7   7 160.165 22.6698   2
  -1  -7  -7 248.308 23.2373   2
   1  -7   7 229.342 23.3383   2
  -1   7   7 183.669 22.6821   7
   1  -7   7 248.573 23.2208   1
  -1   7   7 182.160 22.5482   1
   1   7  -7 229.497 23.2969   2
  -1   7  -7 217.903 23.2129   2
  -1  -7   7 213.115 22.8650   1
   1   7   7 180.877 24.4084   4
  -1  -7   7 168.553 23.1833   5
  -1  -7   7 184.424 22.9098   2
   1  -7  -7 217.739 23.0014   2
  -1   7  -7 161.878 22.5244   1
   1   7   7 190.958 22.8002   2
  -2  -7  -7 304.712 35.5133   1
   2   7  -7 365.842 36.3417   2
   2  -7   7 343.092 36.1878   2
  -2   7   7 328.110 35.4606   1
  -2   7   7 320.919 35.9757   2
  -2  -7  -7 389.948 36.2539   2
   2   7   7 259.887 38.6216   4
  -2   7  -7 318.145 35.6894   1
  -2  -7   7 301.927 35.4975   1
  -2   7  -7 318.209 35.9656   2
   2   7   7 359.066 35.8965   2
   2  -7  -7 261.316 35.6638   2
  -2  -7   7 348.345 35.7017   1
   3  -7   7 73.6885 9.94589   2
   3   7  -7 88.2458 9.04035   8
  -3  -7  -7 81.5249 9.83814   1
   3   7  -7 79.6697 9.98196   2
  -3   7   7 57.7059 9.38167   1
  -3   7  -7 81.6479 10.1031   1
  -3  -7   7 92.6024 10.1414   1
   3   7   7 85.4520 9.07026   8
   3   7   7 68.2011 9.56158   2
   3  -7  -7 67.8877 9.63551   2
   3   7   7 75.0524 10.5172   4
  -3  -7   7 73.3700 9.62872   1
  -4  -7  -7 517.333 56.8516   1
  -4   7   7 567.169 56.9626   1
   4  -7   7 494.995 57.3445   2
   4   7  -7 451.816 52.7656   8
   4   7  -7 474.093 57.1145   2
  -4  -7   7 549.072 52.5934   6
   4  -7  -7 554.969 57.4206   2
   4   7   7 513.663 52.8933   8
  -4   7  -7 597.464 57.2957   1
   4  -7  -7 572.654 52.9658   8
  -4  -7   7 490.207 56.8538   1
   4   7   7 504.519 62.5954   4
  -4  -7   7 520.478 56.8384   1
   5   7  -7 9.91204 4.08391   4
   5   7  -7 13.1053 2.81925   8
  -5  -7  -7 11.5767 3.14240   1
   5  -7   7 8.15116 2.98148   2
   5  -7   7 12.3936 3.05768   8
   5   7  -7 8.89294 2.58433   2
  -5   7   7 9.50146 3.11427   1
   5   7   7 6.26943 2.50598   8
   5  -7  -7 12.9437 3.18280   2
   5   7   7 12.0771 2.79217   2
  -5  -7   7 14.6138 3.17833   6
  -5   7  -7 4.98710 2.83367   1
   5   7   7 10.0738 3.54299   4
  -5  -7   7 6.08750 2.84454   1
  -5  -7   7 10.9531 3.16085   1
   5  -7  -7 15.4698 3.02394   8
   6  -7   7 35.3019 5.51417   2
  -6  -7  -7 35.7997 5.65615   1
   6   7  -7 37.7332 4.53100   2
  -6   7   7 25.1738 5.32212   1
   6  -7   7 40.9641 5.73544   8
   6   7  -7 41.0392 7.80115   4
   6   7  -7 22.6723 4.61822   8
  -6  -7   7 36.8892 5.83472   1
   6  -7  -7 39.2065 5.25001   2
  -6   7  -7 25.9640 5.51066   1
   6   7   7 19.7808 4.49551   8
   6   7   7 31.3784 6.39468   4
   6  -7  -7 38.1622 5.18692   8
  -6  -7   7 42.6229 5.61153   6
   6   7   7 35.6028 4.93786   2
  -6  -7   7 31.6406 5.56647   1
   7   7  -7 148.279 17.8226   4
   7  -7   7 119.381 13.9491   8
   7  -7   7 142.544 14.4356   2
  -7   7   7 100.787 14.6764   1
  -7  -7  -7 126.617 14.8100   1
  -7  -7  -7 113.400 13.0469   3
   7   7   7 118.408 13.7267   8
  -7  -7   7 119.391 14.8258   1
   7   7   7 91.3527 16.4269   4
  -7  -7   7 119.370 14.8369   1
   7  -7  -7 123.824 13.7494   8
  -7   7  -7 142.086 15.3097   1
  -7  -7   7 124.218 13.7497   6
   7  -7  -7 137.907 14.1889   2
   8  -7   7 6.48024 2.96974   8
  -8  -7  -7 10.7585 2.57758   3
   8   7  -7 2.82912 3.97702   4
  -8   7   7 7.43622 2.96981   1
   8   7  -7 4.12284 2.39954   8
  -8  -7  -7 3.27101 2.45166   1
  -8   7  -7 3.81187 2.91916   1
   8   7   7 3.81329 2.42179   8
   8   7   7 6.42003 4.29312   4
  -8  -7   7 7.84603 3.09954   1
  -8  -7   7 6.46103 3.19897   1
  -8  -7   7 -2.3006 1.86582   6
   8  -7  -7 7.14865 2.41904   8
   9  -7   7 17.7519 3.84001   8
  -9   7   7 18.3088 4.06783   1
  -9  -7  -7 12.3657 2.99574   3
   9   7  -7 16.2758 3.75259   8
   9   7  -7 11.8799 3.62691   4
  -9  -7  -7 12.1513 3.48870   1
   9   7   7 8.27594 4.28228   4
  -9   7  -7 9.70894 3.71382   1
  -9  -7   7 17.6698 4.23703   1
  -9  -7   7 11.1319 3.62224   1
   9   7   7 7.33722 2.81485   8
   9  -7  -7 8.18167 2.83253   8
  -9  -7   7 13.1043 3.33357   6
  10  -7   7 78.1381 8.91871   8
  10   7  -7 69.1558 8.38199   8
 -10  -7  -7 67.5248 7.86099   3
 -10  -7  -7 63.4579 9.06306   1
 -10   7   7 54.8368 8.86629   1
 -10  -7   7 67.6490 9.45341   1
  10   7   7 54.8821 8.18872   8
 -10   7  -7 58.9810 9.30079   1
  10  -7  -7 60.3043 8.47764   8
 -10  -7   7 68.1737 9.08628   1
 -10  -7   7 71.0571 8.30988   6
 -11  -7  -7 1.57149 2.26661   3
  11  -7   7 -1.0815 2.45628   8
  11   7  -7 3.10934 2.39039   8
 -11   7   7 0.60875 2.78259   1
 -11  -7  -7 4.14405 3.16555   1
  11  -7  -7 3.19905 2.73510   8
  11   7   7 2.82164 2.44729   8
 -11  -7   7 3.44635 3.30456   1
 -11  -7   7 2.74702 2.21154   6
 -11   7  -7 2.98873 3.18620   1
   0  -8  -7 -1.7663 1.88147   1
   0  -8  -7 -0.2635 1.85837   2
   0  -8   7 0.35310 2.08646   2
   0  -8   7 -1.5221 1.89782   7
   0  -8   7 -0.5229 2.57730   1
   0   8   7 4.53063 2.24443   7
   0   8   7 -0.5505 1.81181   2
   0   8  -7 -0.1175 2.00649   2
  -1  -8  -7 7.23037 2.83570   1
   1  -8   7 5.26914 2.79988   2
  -1   8   7 6.34112 2.55497   1
   1   8  -7 5.99865 2.86994   2
  -1  -8  -7 6.87599 2.82406   2
  -1   8   7 3.97721 2.04029   2
   1   8   7 6.02443 2.60081   2
   1  -8  -7 7.47434 2.72982   2
  -1  -8   7 5.64557 2.85791   1
  -1  -8   7 4.23657 2.87534   2
  -1   8  -7 3.02172 2.82766   1
  -1   8  -7 4.75496 2.74186   2
   2   8  -7 15.9479 4.05886   2
  -2   8   7 16.5733 3.97958   2
   2  -8   7 16.7815 4.06915   2
  -2   8   7 20.8240 4.02001   1
  -2  -8  -7 21.7583 4.19373   1
   2   8   7 18.4952 4.02543   4
  -2  -8   7 15.8992 4.14754   1
  -2   8  -7 17.6373 4.08217   1
   2   8   7 19.6337 3.96764   2
  -2   8  -7 13.6477 3.73720   2
   2  -8  -7 29.5684 4.63667   2
  -3  -8  -7 8.26487 2.87838   1
  -3   8   7 5.07347 2.55385   1
   3   8  -7 2.96388 2.52874   2
   3  -8   7 9.46657 3.23191   2
   3  -8  -7 4.07346 2.48393   2
  -3   8  -7 3.04895 2.63636   1
   3   8   7 5.92895 2.49653   2
   3   8   7 4.64521 2.32451   4
  -3  -8   7 10.5953 3.05555   1
   4   8  -7 -0.3118 1.75150   8
  -4   8   7 2.61391 2.41969   1
  -4  -8  -7 4.30545 2.46205   1
   4   8  -7 4.15601 2.40776   2
   4  -8   7 3.14110 2.35883   2
   4  -8  -7 2.44550 2.19623   2
  -4   8  -7 4.66554 2.48893   1
  -4  -8   7 -0.3834 2.23627   1
   4   8   7 -0.5103 2.66686   4
   4   8   7 2.32382 2.20747   2
   4   8   7 3.00319 2.23635   8
  -5   8   7 6.06021 2.83317   1
   5   8  -7 6.60432 2.46894   8
  -5  -8  -7 4.93097 2.79892   1
   5  -8   7 5.02309 2.68064   2
   5   8  -7 5.67391 4.20679   4
   5   8  -7 5.17431 2.34011   2
  -5  -8   7 2.14104 2.22046   6
  -5  -8   7 1.40220 2.24206   1
   5  -8  -7 6.97161 2.71881   2
  -5  -8   7 7.69187 3.00406   1
  -5   8  -7 4.30607 2.74747   1
   5   8   7 2.43692 2.95455   4
   5   8   7 6.70553 2.78047   2
   5   8   7 2.56382 2.02400   8
   6  -8   7 112.060 12.7949   2
   6   8  -7 98.3569 11.7947   2
   6   8  -7 109.925 16.1940   4
  -6   8   7 104.801 12.8639   1
  -6  -8  -7 89.7715 12.5558   1
   6   8  -7 100.838 11.7533   8
   6  -8   7 112.597 12.3597   8
   6  -8  -7 108.027 11.8212   8
   6   8   7 94.2537 11.6558   8
  -6  -8   7 112.303 12.9203   1
   6   8   7 94.2375 14.1549   4
  -6  -8   7 92.9045 12.5982   1
   6   8   7 109.897 12.2688   2
   6  -8  -7 109.771 12.4040   2
  -6   8  -7 77.9870 12.5825   1
  -6  -8   7 113.910 11.9608   6
  -7   8   7 25.5235 5.03564   1
  -7  -8  -7 18.5250 4.38266   1
   7  -8   7 17.3084 3.98331   2
   7   8  -7 34.0706 7.79944   4
   7   8  -7 28.2626 4.35752   8
   7  -8   7 20.9828 4.52720   8
  -7   8  -7 12.3608 4.29590   1
  -7  -8   7 22.6930 4.67392   1
  -7  -8   7 19.0623 4.33525   6
   7  -8  -7 28.1396 4.43808   8
   7   8   7 28.8478 4.69709   8
   7  -8  -7 18.8004 3.75331   2
   7   8   7 22.0692 5.80279   4
  -7  -8   7 25.1547 4.88487   1
  -8   8   7 7.34308 3.21363   1
   8  -8   7 4.57862 2.82566   8
  -8  -8  -7 5.77621 2.94687   1
   8   8  -7 7.02043 2.58575   8
   8   8  -7 2.84979 4.64882   4
   8  -8  -7 2.92717 2.58168   8
   8   8   7 3.04529 2.50423   8
  -8   8  -7 4.48349 3.08555   1
   8   8   7 5.58161 4.27722   4
  -8  -8   7 6.61341 2.79325   6
  -8  -8   7 9.68956 3.45670   1
   9   8  -7 1.04324 1.90967   8
   9  -8   7 2.67560 2.69959   8
  -9   8   7 4.01820 3.14145   1
  -9  -8  -7 0.55469 2.49970   1
   9   8  -7 -4.4336 4.30203   4
  -9  -8   7 0.57140 2.35798   6
   9   8   7 -7.1871 3.69771   4
  -9  -8   7 0.58982 2.93991   1
  -9   8  -7 3.82146 3.05446   1
   9  -8  -7 0.93266 2.09760   8
   9   8   7 1.35621 2.27700   8
 -10  -8  -7 13.1524 3.18150   3
  10  -8   7 8.27622 3.50091   8
 -10  -8  -7 5.10192 3.09238   1
 -10   8   7 6.37051 3.31789   1
  10   8  -7 10.3296 3.14200   8
  10   8   7 5.79885 2.54243   8
  10  -8  -7 9.45625 3.24285   8
 -10   8  -7 8.78467 3.81092   1
 -10  -8   7 9.54406 3.21452   6
 -10  -8   7 3.91038 3.24687   1
   0   9  -7 65.5843 9.50642   2
   0   9   7 70.5606 9.42099   2
   0  -9  -7 75.6424 9.59814   1
   0  -9   7 64.6446 9.81110   1
   0  -9   7 81.8552 9.73275   2
   0  -9  -7 60.5241 9.22464   2
  -1   9   7 337.262 38.9065   2
   1  -9   7 387.426 39.3514   2
  -1  -9  -7 394.600 39.3238   2
  -1   9   7 324.719 38.4806   1
  -1  -9  -7 349.452 38.7605   1
   1   9  -7 298.720 39.0663   2
  -1   9  -7 358.815 39.1936   2
   1  -9  -7 369.171 39.1322   2
  -1   9  -7 373.519 38.8864   1
   1   9   7 309.002 38.8792   2
  -2   9   7 71.5451 9.66722   2
  -2   9   7 63.1885 9.36338   1
   2   9  -7 70.5420 9.86165   2
   2  -9   7 73.7817 10.0307   2
  -2  -9  -7 61.6238 9.73828   1
  -2   9  -7 81.8283 9.93250   1
   2  -9  -7 70.3989 9.59707   2
   2   9   7 77.9272 9.68430   2
  -2   9  -7 74.5407 9.81429   2
  -2  -9   7 76.3539 9.99129   1
   3  -9   7 8.61483 3.28501   2
   3   9  -7 14.8846 4.10981   2
  -3   9   7 10.1666 3.33935   1
  -3  -9  -7 14.4505 3.75153   1
  -3   9  -7 12.1222 3.87909   1
   3  -9  -7 14.8666 3.74167   2
  -3  -9   7 16.6624 4.17787   1
   3   9   7 7.62711 3.09102   2
   3   9   7 15.6253 3.96222   4
   4   9  -7 179.184 22.7402   2
  -4  -9  -7 204.834 22.7924   1
  -4   9   7 155.890 22.4599   1
   4  -9   7 196.516 23.0501   2
   4   9   7 155.067 24.5747   4
  -4  -9   7 213.068 23.0175   1
   4   9   7 242.840 23.0925   2
   4  -9  -7 229.177 23.2446   2
  -4   9  -7 224.975 23.0970   1
   5   9  -7 23.9476 4.36224   2
  -5  -9  -7 20.8363 4.75117   1
   5   9  -7 19.0710 3.93179   8
   5  -9   7 20.9344 4.63078   2
  -5   9   7 18.9377 4.81716   1
   5   9  -7 25.0961 7.04885   4
   5   9   7 30.8313 4.90413   2
   5   9   7 32.1539 6.10288   4
  -5   9  -7 20.5503 5.03246   1
  -5  -9   7 22.5020 5.07786   1
   5  -9  -7 24.6989 4.73279   2
   6   9  -7 18.9741 7.08476   4
   6   9  -7 21.0952 4.04106   8
   6   9  -7 20.0122 3.65643   2
  -6   9   7 21.7388 4.88760   1
   6  -9   7 23.0426 4.62680   2
  -6  -9  -7 23.9962 4.89760   1
   6   9   7 22.3193 4.12047   2
   6  -9  -7 18.3506 3.92715   2
   6   9   7 18.3343 4.01264   8
  -6   9  -7 23.5478 4.96011   1
  -6  -9   7 18.5223 4.31158   6
   6   9   7 19.6496 5.49136   4
  -6  -9   7 16.0897 4.58457   1
   7  -9   7 140.982 15.1201   2
  -7   9   7 135.229 15.6308   1
  -7  -9  -7 139.710 15.4423   1
   7   9  -7 112.615 13.8711   8
   7   9  -7 94.0602 18.0777   4
  -7  -9   7 125.946 15.5319   1
   7   9   7 129.403 14.3502   8
   7   9   7 120.071 17.5040   4
   7  -9  -7 110.466 14.5979   2
  -7  -9   7 130.101 14.2096   6
  -7   9  -7 130.435 15.5285   1
   8   9  -7 1.36378 5.33544   4
  -8  -9  -7 4.82459 2.91118   1
   8   9  -7 5.03082 2.55105   8
  -8   9   7 0.93572 2.79486   1
   8   9   7 1.31238 3.84326   4
  -8  -9   7 7.04471 3.39977   1
  -8   9  -7 5.25497 3.37635   1
   8   9   7 -1.7614 2.17746   8
  -8  -9   7 6.04557 2.99307   6
   8  -9  -7 -1.7932 2.30818   8
  -9  -9  -7 113.310 14.9062   1
   9   9  -7 131.392 13.9796   8
   9  -9   7 124.565 14.5041   8
  -9   9   7 101.159 15.0051   1
   9   9  -7 116.449 18.2559   4
  -9  -9   7 143.776 14.1396   6
  -9  -9   7 104.392 15.0597   1
  -9   9  -7 125.456 15.1690   1
   9   9   7 121.342 14.0206   8
   9  -9  -7 131.243 14.2936   8
 -10  -9  -7 61.5902 8.83397   1
 -10   9   7 55.0164 8.74780   1
  10   9  -7 67.6817 8.23455   8
  10  -9   7 41.2926 7.91514   8
 -10   9  -7 46.8616 8.41495   1
  10   9   7 41.3782 7.50367   8
 -10  -9   7 71.1240 8.53464   6
  10  -9  -7 70.0127 8.68395   8
 -10  -9   7 67.3134 9.30522   1
   0  10  -7 0.80327 2.71370   2
   0  10   7 6.19561 2.94668   2
   0 -10  -7 2.16958 2.52781   2
   0 -10   7 4.05239 2.73437   2
   1  10  -7 49.9488 7.92489   2
   1 -10   7 48.8032 7.93664   2
  -1  10   7 53.9013 7.96240   2
  -1 -10  -7 50.4152 7.81346   1
  -1 -10  -7 52.9792 7.90998   2
  -1 -10   7 63.3082 8.67104   1
   1 -10  -7 46.7164 7.48207   2
  -1  10  -7 49.4814 7.73933   2
   1  10   7 51.8767 7.72817   2
  -1 -10   7 39.5490 7.47471   2
  -2 -10  -7 9.29373 3.52636   1
   2  10  -7 12.3300 3.79883   2
  -2  10   7 15.3135 3.80017   1
   2 -10   7 12.5998 3.97613   2
  -2  10   7 10.5905 3.54630   2
  -2 -10   7 7.74966 3.70884   1
   2 -10  -7 12.2501 3.65538   2
   2  10   7 10.2060 3.27804   2
  -2  10  -7 14.0121 4.07147   2
  -2  10  -7 8.87599 3.55887   1
   3 -10   7 27.2541 5.63959   2
  -3  10   7 24.7361 5.17123   1
  -3 -10  -7 27.3399 5.68150   1
   3  10  -7 34.7920 5.90564   2
  -3 -10   7 25.3801 5.58093   1
   3 -10  -7 43.0862 6.32487   2
   3  10   7 29.0030 5.36741   2
  -3  10  -7 28.3681 5.75832   1
   3  10   7 24.3141 5.69896   4
  -4  10   7 47.2764 8.12018   1
  -4 -10  -7 44.7974 7.80508   1
   4  10  -7 57.9699 8.26943   2
   4 -10   7 58.6891 8.47088   2
   4  10   7 50.0059 7.92096   2
   4 -10  -7 51.3498 8.07851   2
   4  10   7 58.0119 9.16785   4
  -4 -10   7 54.1869 8.37549   1
  -4  10  -7 52.2376 8.46179   1
   5  10  -7 17.4184 3.66189   2
  -5 -10  -7 6.82563 3.44276   1
  -5  10   7 12.0470 4.14324   1
   5 -10   7 14.9116 4.14305   2
   5  10  -7 15.8645 6.17756   4
   5  10   7 19.0883 4.70061   4
   5  10   7 14.1086 3.74577   2
   5 -10  -7 6.01710 3.02876   2
  -5 -10   7 14.7032 4.31686   1
  -5  10  -7 18.6765 4.68739   1
   6 -10   7 39.1525 6.95603   2
   6  10  -7 55.0751 6.74287   2
  -6  10   7 43.9437 7.70368   1
   6  10  -7 47.3374 7.12322   8
  -6 -10  -7 36.9341 7.22546   1
   6  10  -7 58.3857 10.8854   4
  -6 -10   7 57.2190 8.30207   1
   6  10   7 43.0982 8.45430   4
   6 -10  -7 46.1065 7.17557   2
  -6  10  -7 47.2663 7.82475   1
   6  10   7 52.0397 7.07786   2
   7  10  -7 20.2528 6.75655   4
   7 -10   7 18.3332 4.10102   2
  -7  10   7 15.3898 4.90634   1
   7  10  -7 17.7039 4.03344   8
  -7 -10  -7 17.0738 4.76884   1
   7  10   7 19.3264 4.42336   8
  -7 -10   7 23.0562 5.33148   1
   7 -10  -7 31.6112 4.72260   2
  -7  10  -7 22.8801 5.25924   1
   7  10   7 16.8860 4.69170   4
  -8 -10  -7 3.81747 3.09906   1
   8  10  -7 2.44735 2.79958   8
  -8  10   7 6.48426 3.85120   1
   8  10  -7 11.7956 5.98637   4
  -8 -10   7 2.12879 3.22228   1
  -8 -10   7 5.07386 3.10354   6
  -8  10  -7 5.66957 3.56344   1
   8  10   7 6.63740 2.97241   8
   8  10   7 7.66222 4.46739   4
  -9 -10  -7 6.36038 3.51583   1
  -9  10   7 4.93782 3.44390   1
   9  10  -7 5.86905 3.14841   8
   9  10   7 8.99204 3.37004   8
  -9 -10   7 6.98755 3.10378   6
  -9  10  -7 10.9848 3.90024   1
  -9 -10   7 5.84908 3.82163   1
   0 -11   7 49.7854 9.21379   2
   0 -11  -7 71.4240 9.97995   2
   0  11  -7 77.4624 9.82705   2
   0  11   7 68.0408 9.24046   2
   1 -11   7 76.2066 10.2617   2
  -1 -11  -7 73.3080 10.5444   2
  -1  11   7 74.7994 10.1419   2
   1  11  -7 74.7164 10.8249   2
  -1 -11  -7 66.2145 10.1966   1
  -1  11  -7 72.8352 10.5053   2
   1 -11  -7 78.7031 10.3503   2
  -1 -11   7 80.6303 11.0174   1
   1  11   7 56.4019 9.84911   2
  -2  11   7 36.8812 6.15368   1
   2  11  -7 40.1755 6.55923   2
   2 -11   7 26.4000 5.88186   2
  -2 -11  -7 31.7915 6.10167   1
   2 -11  -7 29.2404 5.89720   2
   2  11   7 21.7474 5.37059   2
  -2  11  -7 31.1744 6.21598   2
  -2 -11   7 38.0711 6.65650   1
  -3  11   7 11.4278 3.91864   1
   3  11  -7 13.1099 3.91877   2
  -3 -11  -7 17.2767 4.35569   1
   3 -11   7 12.6918 3.93560   2
   3  11   7 11.9360 3.89708   2
  -3 -11   7 15.9014 4.57721   1
   3 -11  -7 12.4219 3.80961   2
  -3  11  -7 14.4925 4.45441   1
   4 -11   7 79.1419 11.4430   2
   4  11  -7 73.9090 10.7426   2
  -4  11   7 78.0061 11.4262   1
  -4 -11  -7 69.1825 11.0003   1
   4  11   7 80.3044 12.7705   4
   4 -11  -7 69.7982 11.1318   2
  -4 -11   7 86.3041 11.4846   1
   4  11   7 105.371 11.4792   2
  -4  11  -7 84.7578 11.2860   1
   5  11  -7 17.4262 6.46861   4
  -5 -11  -7 33.3076 6.17977   1
   5 -11   7 42.3046 6.32350   2
   5  11  -7 24.7062 5.03042   2
  -5  11   7 26.0035 5.78337   1
  -5  11  -7 21.2176 5.57529   1
   5 -11  -7 31.9325 5.63719   2
  -5 -11   7 25.1330 5.58629   1
   5  11   7 21.1059 5.17869   2
   5  11   7 27.6306 6.00642   4
  -6  11   7 6.11818 3.99657   1
   6  11  -7 4.79254 5.89563   4
  -6 -11  -7 14.0428 4.01234   1
   6  11  -7 14.2709 3.33850   2
   6 -11   7 14.0647 3.77055   2
  -6 -11   7 9.00673 3.95765   1
   6  11   7 10.6203 3.26297   2
  -6  11  -7 11.3959 4.17566   1
   6  11   7 6.79646 4.67827   4
   6 -11  -7 11.5466 3.54805   2
  -7  11   7 128.389 15.4455   1
   7  11  -7 108.427 18.5331   4
  -7 -11  -7 90.4907 14.5071   1
   7 -11   7 143.134 14.8747   2
   7 -11  -7 120.664 14.4658   2
  -7  11  -7 121.162 15.2075   1
  -7 -11   7 119.550 15.2330   1
   7  11   7 100.203 17.1153   4
  -8  11   7 2.13659 3.54051   1
  -8 -11  -7 4.88834 3.46031   1
   8  11  -7 2.73988 2.71477   8
  -8  11  -7 3.60039 3.64642   1
  -8 -11   7 9.77148 4.02553   1
   9  11  -7 33.7857 5.93758   8
  -9  11   7 32.5692 6.67839   1
  -9 -11  -7 35.7645 6.57522   1
   9  11   7 26.6520 5.74048   8
  -9 -11   7 34.5039 6.70972   1
  -9  11  -7 37.1925 6.83113   1
   0  12  -7 -2.1653 2.53623   2
   0  12   7 -2.5608 2.50476   2
   0 -12  -7 -1.6093 3.21121   2
   0 -12   7 3.41052 2.87571   2
   1 -12   7 0.72469 2.64692   2
   1  12  -7 3.25211 2.92923   2
  -1  12   7 2.49140 3.11520   2
   1  12   7 3.18465 2.79248   2
   1 -12  -7 0.48576 2.70047   2
  -1  12  -7 2.93020 3.05857   2
   2  12  -7 49.8740 9.59675   2
   2 -12   7 68.6455 10.0186   2
  -2 -12  -7 59.8948 9.90902   1
   2 -12  -7 69.9583 10.1654   2
  -2  12  -7 68.0385 10.4101   2
  -2 -12   7 69.9556 10.2290   1
   2  12   7 62.9544 9.64706   2
  -3  12   7 38.3879 7.66401   1
   3  12  -7 54.7205 8.46298   2
  -3 -12  -7 49.2782 8.19769   1
   3 -12   7 54.3751 8.57666   2
   3  12   7 54.2310 8.47047   2
   3 -12  -7 55.2742 8.62880   2
  -3 -12   7 56.3927 8.62522   1
  -3  12  -7 39.7025 8.05958   1
   4  12  -7 51.8908 11.8732   4
   4 -12   7 63.8957 10.2145   2
  -4 -12  -7 61.3445 10.0210   1
   4  12  -7 71.0582 10.1897   2
  -4  12   7 61.3205 9.96893   1
   4 -12  -7 83.5604 10.3446   2
  -4 -12   7 75.4275 10.6602   1
   4  12   7 59.3901 9.94875   2
  -4  12  -7 85.0375 11.0901   1
  -5  12   7 50.9584 8.42527   1
   5  12  -7 44.8219 7.33765   2
  -5 -12  -7 43.3442 7.82850   1
   5 -12   7 35.8891 7.30001   2
   5  12  -7 55.9468 11.2765   4
  -5 -12   7 49.3241 8.47323   1
  -5  12  -7 45.7043 8.11910   1
   5  12   7 37.2018 7.26289   2
   5 -12  -7 45.6283 7.42643   2
   6 -12   7 7.99908 3.26125   2
  -6 -12  -7 2.50635 3.33081   1
  -6  12   7 1.41770 3.61970   1
   6  12  -7 2.39862 2.31475   2
   6  12   7 0.47929 2.66942   2
   6 -12  -7 2.37029 3.11113   2
  -6  12  -7 8.76367 4.09293   1
  -6 -12   7 7.92295 4.20654   1
   6  12   7 0.97925 3.37700   4
  -7  12   7 99.2141 14.4075   1
   7 -12   7 118.174 13.7339   2
  -7 -12  -7 76.2139 13.7784   1
  -7  12  -7 114.927 14.6758   1
  -7 -12   7 137.575 15.0459   1
   7 -12  -7 106.628 13.5763   2
  -8 -12  -7 2.74904 3.66240   1
  -8  12   7 7.95152 4.02334   1
  -8 -12   7 1.54937 3.18663   1
  -8  12  -7 1.31327 3.59541   1
   0  13   7 3.21019 3.06950   2
   0  13  -7 5.21908 3.74675   2
   0 -13  -7 6.85855 3.83117   2
   0 -13   7 8.91079 3.98814   2
   1  13  -7 -3.2033 2.59380   2
  -1  13   7 3.20607 3.41468   2
   1 -13   7 -1.9897 2.96035   2
  -1  13  -7 1.29861 2.99619   2
   1  13   7 -0.2973 3.09545   2
   1 -13  -7 -1.5814 3.22886   2
  -2 -13  -7 25.5693 6.75688   1
   2  13  -7 30.9088 6.13816   2
   2 -13   7 18.7134 5.65565   2
   2  13   7 31.8452 6.29546   2
   2 -13  -7 16.3728 5.32449   2
  -2 -13   7 29.1448 6.37506   1
  -3 -13  -7 25.1156 6.12760   1
   3  13  -7 32.1121 6.49136   2
   3 -13   7 28.4796 6.41389   2
  -3 -13   7 37.6298 7.30387   1
   3 -13  -7 26.5255 6.21697   2
   3  13   7 29.1653 6.30932   2
  -4 -13  -7 39.3657 7.75873   1
   4  13  -7 39.2808 10.1648   4
  -4  13   7 34.4025 7.57843   1
   4 -13   7 40.5893 7.86664   2
   4  13  -7 52.5172 8.23008   2
   4  13   7 45.1116 7.96250   2
   4 -13  -7 49.0592 8.08886   2
  -4  13  -7 52.7225 8.80888   1
  -4 -13   7 60.3906 8.97944   1
   5 -13   7 14.0629 4.67169   2
  -5  13   7 10.1782 4.37886   1
  -5 -13  -7 15.4208 4.61171   1
   5  13  -7 9.97737 3.84744   2
   5 -13  -7 5.30106 3.60599   2
  -5  13  -7 19.6881 5.59929   1
   5  13   7 11.8939 4.33359   2
  -5 -13   7 10.9911 4.73358   1
  -6  13   7 12.7590 4.70550   1
  -6 -13  -7 17.4537 5.07092   1
   6  13  -7 21.2527 4.00643   2
   6 -13   7 16.8498 4.66401   2
   6 -13  -7 12.5570 4.13472   2
   6  13   7 7.80763 3.62585   2
  -6 -13   7 19.6112 5.62306   1
  -6  13  -7 14.9844 5.30528   1
  -7 -13  -7 -0.8097 3.27347   1
  -7  13   7 0.49857 3.63812   1
   7 -13   7 1.17799 3.34685   2
   7 -13  -7 1.38667 2.67675   2
  -7 -13   7 2.24276 4.01870   1
  -7  13  -7 1.20308 3.89428   1
   0  14  -7 -1.4657 3.09141   2
   0 -14   7 0.81908 2.73015   2
   0 -14  -7 1.12870 4.16204   2
   0  14   7 -3.0449 2.55103   2
  -1  14   7 86.7672 11.5858   2
   1 -14   7 66.9441 10.8329   2
   1  14  -7 64.8759 10.8134   2
   1  14   7 74.0424 11.1863   2
   1 -14  -7 72.0522 11.0241   2
  -1  14  -7 60.3796 10.4270   2
   2  14  -7 45.3800 7.96803   2
   2 -14   7 57.7959 8.80325   2
   2  14   7 26.3117 6.82227   2
   2 -14  -7 45.4207 8.14189   2
  -3 -14  -7 1.58471 3.96340   1
   3  14  -7 2.72642 3.60278   2
   3 -14   7 6.45975 3.78631   2
   3  14   7 8.39656 4.14407   2
   3 -14  -7 5.59333 3.61331   2
  -3 -14   7 -1.4199 3.50976   1
   4 -14   7 17.7828 5.44082   2
  -4 -14  -7 16.4636 5.30376   1
   4  14  -7 30.4544 6.30034   2
   4  14   7 22.5632 5.69212   2
   4 -14  -7 24.5329 5.67915   2
  -4 -14   7 24.2918 6.23705   1
   5  14  -7 18.7403 4.54500   2
   5 -14   7 14.9725 4.80851   2
  -5 -14  -7 13.3255 4.78377   1
  -5  14   7 17.7506 5.01194   1
   5 -14  -7 16.3484 4.81023   2
  -5  14  -7 6.64626 4.60767   1
  -5 -14   7 14.4365 5.11338   1
   5  14   7 16.1362 4.50812   2
  -6  14   7 67.0692 11.2201   1
  -6 -14  -7 68.9207 11.0848   1
   6  14  -7 78.8396 9.85266   2
   6 -14   7 87.7829 11.1818   2
   6  14   7 62.8406 10.0768   2
   6  14   7 77.2818 10.1406   2
   6 -14  -7 81.8699 11.1057   2
  -6  14  -7 60.7433 10.9608   1
  -6 -14   7 60.3932 11.1387   1
   0  15  -7 38.3713 7.54280   2
   0 -15  -7 33.4380 7.25333   2
   0  15   7 27.5378 7.23818   2
   1 -15   7 2.66761 3.76979   2
   1  15  -7 2.69454 3.43957   2
  -1  15   7 3.83213 3.44431   2
   1  15   7 4.86067 3.56742   2
   1 -15  -7 -1.3933 3.27928   2
  -1  15  -7 8.48661 4.69273   2
   2  15  -7 51.9642 8.70285   2
   2 -15   7 48.3414 8.67791   2
   2 -15  -7 42.5020 8.07587   2
   2  15   7 33.8164 7.62655   2
   3  15  -7 15.5828 5.35344   2
   3 -15   7 17.6680 5.38991   2
   3 -15  -7 18.8885 5.27223   2
   3  15   7 7.77519 4.67337   2
   4 -15   7 31.0859 6.80774   2
   4  15  -7 37.5382 7.48897   2
  -4 -15  -7 30.5021 7.38183   1
   4  15   7 37.6431 7.20235   2
   4 -15  -7 26.6233 6.42987   2
  -4 -15   7 26.6201 6.91417   1
   0  16   7 1.91460 3.62297   2
   0  16  -7 -4.2315 3.37727   2
   1  16  -7 6.93387 4.24441   2
   1 -16   7 7.37450 4.27483   2
  -1  16   7 7.56875 4.72481   2
   1  16   7 7.38206 4.00237   2
  -1  16  -7 9.22395 4.80582   2
   1 -16  -7 3.52707 3.77042   2
   0   0  -8 9999.99 1009.55   2
   0   0   8 8810.69 1009.59   2
   0   0   8 9338.76 1015.30   7
  -1   0   8 1.14389 1.44299   1
  -1   0   8 1.16514 1.28991   7
  -1   0  -8 0.33875 1.55412   1
   1   0   8 0.38245 1.15151   7
   1   0  -8 3.21801 1.76478   2
   1   0   8 1.33315 1.50415   2
  -1   0   8 13.0936 2.55731   2
   1   0  -8 1.77446 1.34021   7
   1   0   8 3.06576 1.97639   5
  -1   0  -8 0.12014 1.44388   7
  -1   0  -8 4.97735 1.90426   2
  -2   0  -8 154.854 21.2468   2
   2   0  -8 176.309 21.2633   7
  -2   0   8 161.755 21.3624   7
  -2   0   8 217.289 21.2616   1
   2   0   8 215.818 21.6530   2
  -2   0  -8 198.429 21.4041   1
  -2   0   8 176.910 21.5597   2
  -2   0  -8 182.589 21.4919   7
   2   0  -8 178.319 21.3493   2
   2   0   8 233.856 22.9040   5
   2   0   8 224.588 21.4695   7
   3   0  -8 1.42604 1.55386   2
  -3   0   8 0.67168 1.02171   7
   3   0  -8 0.55296 1.22209   4
  -3   0  -8 -2.7320 1.28467   1
   3   0   8 -1.6667 1.12875   7
   3   0   8 0.55378 2.20594   5
   3   0  -8 0.31481 1.17624   8
   3   0   8 0.77508 1.65024   2
  -3   0  -8 3.30485 1.39370   7
  -3   0  -8 -0.6224 1.60667   2
   3   0   8 0.50245 1.37434   8
  -3   0   8 -0.9516 1.44182   1
  -4   0  -8 287.658 36.0108   1
   4   0   8 390.874 33.6709   8
   4   0  -8 330.289 33.4680   8
   4   0  -8 292.546 36.1902   2
  -4   0  -8 300.894 32.1787   3
   4   0   8 328.875 38.0728   5
  -4   0   8 373.319 36.0943   1
   4   0   8 339.454 36.3145   2
   5   0   8 0.34056 1.20738   8
  -5   0  -8 1.08414 1.23915   3
   5   0   8 0.85517 2.10287   5
  -5   0  -8 -0.2294 1.76053   1
   5   0  -8 2.70324 1.49222   2
   5   0   8 1.41149 1.47060   2
   5   0  -8 4.39171 1.46245   8
  -5   0   8 2.13942 1.61216   1
   6   0  -8 1160.82 117.882   8
  -6   0   8 1167.35 126.639   1
   6   0   8 1371.13 133.048   5
  -6   0  -8 1017.81 126.591   1
   6   0   8 1217.10 117.899   8
   7   0   8 0.73470 1.56615   8
  -7   0  -8 -0.6894 1.63349   1
  -7   0   8 3.79060 1.94809   1
  -7   0  -8 0.19953 1.33835   3
   7   0  -8 5.74027 1.80352   8
  -8   0   8 525.401 59.1873   1
  -8   0  -8 547.377 52.9730   3
   8   0   8 567.240 55.0660   8
  -8   0  -8 501.683 59.2379   1
   8   0  -8 586.919 55.0449   8
   9   0   8 1.99111 1.80015   8
  -9   0  -8 2.91561 2.28148   1
  -9   0  -8 2.28354 1.80911   3
  -9   0   8 3.86761 2.23641   1
   9   0  -8 0.98830 1.63591   8
 -10   0   8 1066.03 102.169   1
 -10   0  -8 880.639 102.216   1
  10   0  -8 1032.02 95.0392   8
  10   0   8 966.161 95.0224   8
  10   0   8 957.352 94.9928   8
 -10   0  -8 792.103 91.2050   3
 -11   0  -8 0.15391 2.64215   1
  11   0   8 0.48256 1.74113   8
 -11   0  -8 3.28621 2.07684   3
  11   0  -8 -0.9621 1.61978   8
 -11   0   8 1.96356 2.33152   1
  12   0   8 294.120 35.9390   8
 -12   0  -8 390.766 34.9458   3
 -12   0   8 338.877 38.7050   1
  12   0  -8 367.391 36.0830   8
 -12   0  -8 384.926 39.2614   1
   0   1   8 -1.9614 1.34224   2
   0   1   8 0.14247 1.52443   1
   0   1   8 0.58040 1.37623   7
   0  -1   8 -0.5427 1.38942   2
   0  -1  -8 1.07385 1.38607   7
   0  -1   8 2.68364 1.63063   7
   0   1  -8 0.19325 1.51876   7
   0  -1   8 0.26370 1.65136   1
   0   1  -8 1.28028 1.57238   2
   0  -1  -8 1.06461 1.54784   2
  -1   1   8 300.492 30.5516   1
   1  -1   8 291.526 30.9242   7
  -1  -1  -8 253.356 30.5842   1
   1   1  -8 280.290 30.8993   7
   1  -1   8 326.021 32.4208   5
  -1  -1  -8 268.939 30.9866   7
   1   1  -8 228.198 30.7502   2
  -1   1   8 246.583 30.9018   7
   1  -1   8 308.513 31.1758   2
  -1  -1  -8 288.785 30.8821   2
  -1   1   8 294.027 31.0406   2
  -1   1  -8 300.422 30.9174   2
   1  -1  -8 237.773 30.8678   7
  -1  -1   8 252.915 30.9424   7
   1  -1  -8 254.327 30.7967   2
   1   1   8 239.691 30.8324   2
  -1  -1   8 312.389 30.6317   1
   1   1   8 331.586 31.1175   7
  -1   1  -8 308.887 30.8877   1
   2   1  -8 41.2427 4.48702   8
  -2   1   8 34.8358 5.05464   2
  -2  -1  -8 30.2779 4.92559   1
  -2   1   8 24.1296 4.53622   1
   2  -1   8 32.6859 4.59277   7
   2  -1   8 36.7974 4.76612   8
  -2  -1  -8 41.3996 5.08579   7
  -2   1   8 26.5063 4.60115   7
   2   1  -8 35.2990 4.48247   7
   2   1  -8 32.3053 4.81845   2
   2  -1   8 31.4815 5.03914   2
  -2  -1  -8 19.9331 4.55188   2
   2  -1   8 42.0058 6.06438   5
  -2   1  -8 34.2338 4.94904   2
   2   1   8 23.7525 4.26875   8
  -2   1  -8 39.8525 5.31428   1
   2   1   8 27.8572 4.41762   7
   2  -1  -8 26.5514 4.26245   8
  -2  -1   8 41.5830 5.30308   2
  -2   1  -8 30.2385 4.79316   7
   2   1   8 37.6755 5.68857   5
  -2  -1   8 34.0844 4.94268   7
   2   1   8 31.3465 4.88466   2
   2  -1  -8 29.5426 4.42009   7
   2  -1  -8 32.3306 5.00677   2
  -2  -1   8 36.0061 4.98434   1
  -3  -1  -8 545.314 56.9036   1
   3  -1   8 518.344 57.4242   2
  -3  -1  -8 485.307 57.5521   7
   3  -1   8 570.958 59.7735   5
   3  -1   8 507.074 57.1912   7
  -3   1   8 538.191 57.6422   7
   3   1  -8 504.071 57.2797   2
   3  -1   8 574.356 53.1667   8
  -3   1   8 588.105 56.9201   1
  -3  -1   8 511.451 57.6720   7
  -3   1  -8 612.359 57.7625   7
  -3   1  -8 519.026 57.5572   2
   3  -1  -8 450.088 57.2758   2
  -3  -1   8 585.016 56.8614   1
   3  -1  -8 442.040 57.0116   7
   3   1   8 525.234 57.3635   2
   3   1   8 500.199 52.8352   8
  -4   1   8 8.78632 2.16828   1
  -4  -1  -8 6.74128 1.79893   3
   4   1  -8 7.07368 2.13883   2
   4  -1   8 9.36584 2.21420   8
   4  -1   8 4.34176 2.60816   5
  -4  -1  -8 5.00439 2.03794   1
   4  -1   8 3.41278 1.96580   2
   4   1  -8 8.26506 2.52325   4
   4   1  -8 5.48520 1.69530   8
   4   1   8 6.90982 2.19973   2
  -4   1  -8 6.61631 2.33228   1
  -4   1  -8 2.67843 1.65636   3
   4  -1  -8 4.89369 1.93823   2
   4   1   8 6.94376 2.96239   5
  -4  -1   8 2.06577 1.69652   1
   4   1   8 5.91243 1.80392   8
   4  -1  -8 8.79683 1.94453   8
   5   1  -8 452.621 54.8289   8
  -5  -1  -8 539.380 52.7137   3
   5   1  -8 567.429 59.3210   2
  -5   1   8 597.096 59.1505   1
   5  -1   8 565.216 55.1102   8
   5  -1   8 543.405 59.4716   2
  -5  -1  -8 498.957 59.0539   1
  -5  -1   8 626.878 59.1421   1
   5   1   8 577.650 55.0396   8
  -5   1  -8 562.114 52.9524   3
   5  -1  -8 473.182 59.2954   2
   5  -1  -8 525.612 54.9533   8
   5   1   8 602.919 62.2868   5
   6  -1   8 182.813 19.2368   8
   6   1  -8 197.042 19.0725   8
  -6  -1  -8 206.651 18.4212   3
   6  -1   8 154.302 22.0880   5
  -6   1   8 162.783 20.4970   1
   6  -1   8 189.634 20.3266   2
  -6  -1  -8 185.917 20.6896   1
   6   1   8 200.706 19.1951   8
   6   1   8 158.680 21.9421   5
  -6  -1   8 185.086 20.5518   1
  -6   1  -8 205.538 18.6887   3
   6  -1  -8 176.951 19.9882   2
   6   1   8 137.748 23.3577   4
   6   1   8 194.567 20.1782   2
  -6   1  -8 168.336 20.7104   1
   6  -1  -8 203.737 19.1205   8
  -7  -1  -8 254.538 25.5263   1
   7   1  -8 198.920 23.3455   8
  -7   1   8 209.919 25.2837   1
   7  -1   8 215.354 23.5781   8
  -7  -1  -8 261.921 22.6848   3
  -7   1  -8 278.936 23.0360   3
   7   1   8 269.328 27.7288   5
   7   1   8 173.892 28.7654   4
  -7  -1   8 250.896 25.3922   1
   7  -1  -8 230.895 23.4949   8
  -7   1  -8 175.201 25.2775   1
   7   1   8 236.616 23.5626   8
  -8   1   8 62.9930 7.76693   1
   8  -1   8 47.4034 6.94232   8
  -8  -1  -8 57.7482 6.74375   3
  -8  -1  -8 59.5164 7.73846   1
   8   1  -8 55.0202 6.83888   8
  -8   1  -8 72.7948 8.24770   1
   8   1   8 58.5239 6.98343   8
   8  -1  -8 55.4619 6.89667   8
  -8   1  -8 57.4471 6.95812   3
  -8  -1   8 62.2004 7.67615   1
   9  -1   8 21.8095 3.89894   8
  -9  -1  -8 15.2168 3.26495   3
   9   1  -8 30.1448 3.98962   8
  -9   1   8 35.2547 4.80769   1
  -9  -1  -8 26.2317 4.60735   1
  -9   1  -8 28.6130 4.06841   3
  -9  -1   8 22.4891 4.16557   1
   9   1   8 23.0313 3.79597   8
  -9   1  -8 27.5490 4.83136   1
   9  -1  -8 21.4525 3.64216   8
  10  -1   8 81.3790 9.28518   8
 -10  -1  -8 80.5391 8.92145   3
 -10   1   8 74.9126 9.97031   1
 -10  -1  -8 71.9723 10.0737   1
  10   1  -8 91.8578 9.18301   8
  10  -1  -8 74.1135 9.02067   8
 -10  -1   8 95.0860 10.1257   1
  10   1   8 73.0845 9.05789   8
 -10   1  -8 65.8574 10.1298   1
 -10   1  -8 85.5707 9.06361   3
 -11  -1  -8 641.877 59.2374   3
 -11   1   8 605.344 66.1493   1
  11  -1   8 688.334 61.7317   8
 -11   1  -8 574.078 66.3293   1
  11  -1  -8 512.537 61.3206   8
 -11   1  -8 706.496 59.3722   3
 -11  -1   8 637.131 66.1271   1
  11   1   8 539.240 61.3678   8
 -12  -1  -8 310.609 37.6653   1
 -12   1   8 352.362 37.4941   1
  12  -1   8 286.251 34.8452   8
  12   1  -8 386.238 34.8664   8
  12  -1  -8 372.427 34.8520   8
 -12   1  -8 319.560 33.6488   3
 -12   1  -8 307.614 37.7441   1
 -12  -1   8 388.043 37.6299   1
  12   1   8 332.566 34.7363   8
   0  -2  -8 340.669 39.7083   1
   0   2   8 382.172 40.3205   7
   0  -2   8 356.603 40.2842   7
   0   2   8 395.971 40.2436   2
   0  -2   8 294.703 41.3813   5
   0  -2  -8 309.466 39.9752   2
   0  -2   8 405.920 40.3055   2
   0   2  -8 382.176 40.2809   7
   0  -2   8 377.509 39.7546   1
   0   2  -8 356.873 40.0936   2
   0   2   8 405.981 39.7200   1
   1   2  -8 25.0659 4.13328   2
  -1   2   8 25.7297 3.94220   7
   1  -2   8 25.0198 4.38516   2
  -1   2   8 16.4477 3.78658   1
   1  -2   8 32.0179 4.99971   5
   1  -2   8 26.6950 4.05503   7
   1   2  -8 25.0711 4.02050   7
  -1  -2  -8 23.6467 4.16305   1
  -1   2   8 30.9494 4.51799   2
  -1  -2  -8 19.7503 3.76989   7
  -1  -2  -8 24.7890 4.07929   2
  -1  -2   8 25.1007 4.12834   1
   1  -2  -8 26.4471 4.18940   2
   1   2   8 23.9949 3.86014   7
  -1   2  -8 23.8059 4.39330   1
  -1  -2   8 26.8456 4.27613   2
  -1  -2   8 20.2432 3.83047   7
   1   2   8 22.5598 4.05913   2
  -1   2  -8 46.5102 4.83627   2
  -1   2  -8 22.2489 4.12723   7
  -2  -2  -8 212.019 26.7021   2
   2  -2   8 203.356 26.8880   2
   2   2  -8 245.833 26.9068   2
  -2  -2  -8 226.034 26.8914   7
   2  -2   8 255.120 26.7362   7
   2  -2   8 274.864 28.2425   5
  -2   2   8 238.274 26.5586   1
  -2   2   8 201.152 26.7700   2
  -2   2   8 231.651 26.8755   7
   2   2  -8 276.444 24.8629   8
  -2  -2  -8 191.734 26.4773   1
   2   2  -8 284.101 26.9385   7
   2  -2  -8 270.240 27.0656   2
   2  -2  -8 202.278 26.6849   7
  -2  -2   8 194.762 26.7257   2
   2  -2  -8 287.242 24.8816   8
   2   2   8 234.831 26.6555   7
  -2  -2   8 238.443 27.0098   7
  -2  -2   8 212.874 26.4985   1
  -2   2  -8 297.272 27.3115   2
   2   2   8 263.191 24.7630   8
  -2   2  -8 248.947 26.8551   1
   2   2   8 263.021 26.9818   2
  -2   2  -8 266.205 27.1420   7
   3  -2   8 4671.51 505.865   8
  -3  -2  -8 5053.80 542.849   1
   3  -2   8 4936.44 566.671   5
  -3   2   8 4992.86 542.752   1
   3  -2   8 5318.92 551.101   7
  -3  -2  -8 5275.77 551.411   7
   3   2  -8 5295.14 505.762   8
  -3   2   8 5742.07 551.510   7
  -3  -2   8 4586.50 551.475   7
  -3   2  -8 4339.24 548.530   2
   3   2   8 5167.21 599.236   4
   3  -2  -8 5542.20 505.890   8
  -3  -2   8 5848.27 542.887   1
   3   2   8 4894.68 505.772   8
   3  -2  -8 5124.44 550.956   7
   3  -2  -8 4909.31 548.281   2
   3   2   8 4893.51 548.354   2
   4   2  -8 1048.84 137.558   4
   4  -2   8 1289.14 130.653   5
  -4  -2  -8 1265.86 124.806   1
  -4   2   8 1167.87 124.629   1
   4   2  -8 1214.40 116.068   8
   4  -2   8 1106.99 125.889   2
   4   2   8 1175.44 116.138   8
   4   2   8 1013.75 137.837   4
   4  -2  -8 1228.59 125.900   2
  -4   2  -8 1169.54 124.877   1
   4   2   8 1213.01 125.894   2
   4  -2  -8 1164.79 116.122   8
   4   2   8 1063.78 130.464   5
   5   2  -8 63.7012 6.77469   2
  -5   2   8 62.5053 7.07413   1
   5   2  -8 46.9065 7.57742   4
   5  -2   8 45.6468 6.67745   8
   5  -2   8 47.6806 6.79614   2
   5   2  -8 47.2739 6.24672   8
  -5  -2  -8 47.5498 6.10394   3
  -5  -2  -8 56.3065 7.05263   1
   5  -2   8 62.6647 8.80489   5
  -5   2  -8 46.4546 7.28863   1
   5   2   8 53.5256 8.26406   5
  -5  -2   8 44.4750 6.80778   1
   5   2   8 58.7975 6.47047   8
   5  -2  -8 57.2031 6.38288   8
   5   2   8 59.9867 6.86055   2
   5  -2  -8 55.0813 6.74264   2
   5   2   8 46.6572 8.56874   4
  -5   2  -8 54.2316 6.22510   3
   6   2  -8 791.025 68.8826   8
  -6   2   8 800.596 74.1135   1
   6  -2   8 648.589 74.3342   2
  -6  -2  -8 691.209 66.1768   3
   6  -2   8 572.163 68.9372   8
  -6  -2  -8 705.491 74.0968   1
  -6   2  -8 667.556 66.2144   3
   6  -2  -8 623.923 74.1014   2
   6  -2  -8 592.083 68.7938   8
   6   2   8 700.452 68.9558   8
  -6  -2   8 731.240 74.0618   1
   6   2   8 727.012 74.1491   2
   6   2   8 616.754 82.3648   4
  -6   2  -8 679.839 74.2195   1
   6   2   8 764.854 77.9003   5
  -7   2   8 129.453 14.0250   1
   7   2  -8 134.391 12.8993   8
   7  -2   8 120.909 13.1890   8
  -7  -2  -8 99.5532 13.9058   1
  -7  -2  -8 111.377 12.4153   3
  -7  -2   8 126.267 14.0484   1
   7   2   8 120.888 16.6208   4
  -7   2  -8 116.611 12.5255   3
  -7   2  -8 111.499 14.1549   1
   7   2   8 114.249 15.2479   5
   7   2   8 121.181 12.9655   8
   7  -2  -8 129.708 12.9987   8
   8   2  -8 94.0198 10.7177   8
  -8  -2  -8 102.391 11.9239   1
   8  -2   8 96.9539 11.0950   8
  -8   2   8 101.848 11.7930   1
  -8  -2  -8 91.0804 10.3964   3
   8   2   8 82.0438 14.6165   4
   8   2   8 103.171 10.9014   8
  -8   2  -8 107.340 10.6819   3
  -8  -2   8 101.236 11.7975   1
  -8   2  -8 111.506 12.2370   1
   8  -2  -8 84.9980 10.7047   8
   9  -2   8 554.774 49.3976   8
  -9  -2  -8 509.234 52.8087   1
   9   2  -8 415.103 48.8258   8
  -9  -2  -8 424.709 46.9298   3
  -9   2   8 502.644 52.7316   1
   9   2   8 539.558 49.1423   8
  -9   2  -8 542.748 47.3576   3
  -9   2  -8 417.013 52.7983   1
   9  -2  -8 479.569 48.9887   8
  -9  -2   8 482.163 52.6761   1
  10  -2   8 139.685 14.0918   8
  10   2  -8 120.645 13.6110   8
 -10  -2  -8 143.791 13.2770   3
 -10  -2  -8 110.395 14.7908   1
 -10   2   8 132.117 14.9371   1
 -10   2  -8 116.748 13.3762   3
  10  -2  -8 121.510 13.6968   8
  10   2   8 131.508 18.6338   4
  10   2   8 108.476 13.5876   8
 -10  -2   8 143.381 15.0364   1
 -10   2  -8 133.556 15.3126   1
  11  -2   8 14.9090 3.46076   8
  11   2  -8 15.9729 3.17468   8
 -11  -2  -8 15.7290 4.00966   1
 -11   2   8 16.2443 3.83954   1
 -11  -2  -8 11.5086 2.80279   3
 -11   2  -8 14.8429 3.35785   3
  11  -2  -8 21.3822 3.48562   8
  11   2   8 13.5717 3.15754   8
 -11   2  -8 18.9085 4.21520   1
 -11  -2   8 21.2139 4.12774   1
  12  -2   8 54.7180 7.65325   8
 -12  -2  -8 61.7498 7.48802   3
  12   2  -8 54.1159 7.18663   8
 -12   2   8 65.1492 8.34072   1
 -12  -2  -8 56.7354 8.53164   1
 -12   2  -8 67.4801 7.63442   3
  12  -2  -8 55.3805 7.51074   8
 -12  -2   8 60.8036 8.20041   1
 -12   2  -8 71.7256 8.94276   1
  12   2   8 49.5548 7.27847   8
   0   3   8 3.54057 1.64932   7
   0  -3   8 0.12125 1.67581   7
   0  -3  -8 -0.2007 1.59934   1
   0   3   8 9.59022 2.38574   2
   0  -3   8 9.27198 2.55295   5
   0  -3   8 -1.5011 1.26611   2
   0   3  -8 -1.2861 1.71135   1
   0   3  -8 2.82292 1.80187   2
   0  -3   8 -1.3252 1.45489   1
   0   3   8 -0.1124 1.59074   1
   0  -3  -8 2.87119 1.91272   2
  -1  -3  -8 459.516 47.1527   2
  -1   3   8 509.130 47.4559   7
   1  -3   8 475.269 48.9118   5
  -1  -3  -8 343.875 46.4351   1
   1  -3   8 443.204 47.1767   2
  -1   3   8 437.297 47.1414   2
  -1  -3  -8 486.614 47.3995   7
   1   3  -8 429.418 47.0768   2
  -1  -3   8 419.112 47.1283   2
  -1   3  -8 431.462 47.3261   2
  -1  -3   8 423.965 46.6704   1
   1   3   8 391.049 51.0991   4
  -1   3  -8 422.762 47.2723   7
   1   3   8 422.533 47.1176   7
   1  -3  -8 370.090 47.0258   2
  -1   3  -8 439.715 46.8149   1
  -1  -3   8 459.009 48.7390   5
  -1  -3   8 366.314 47.2560   7
  -2   3   8 38.6566 6.03397   1
  -2  -3  -8 50.0620 6.17694   1
   2  -3   8 43.3212 6.43260   2
   2   3  -8 41.9786 5.47511   8
  -2  -3  -8 42.5377 6.05218   2
  -2   3   8 49.7154 6.15899   2
   2   3  -8 34.1550 5.86034   2
   2   3  -8 41.0076 5.71642   7
  -2  -3  -8 43.8333 5.75320   7
   2  -3   8 49.9765 5.63852   8
   2  -3   8 41.7205 5.74228   7
   2  -3   8 35.2504 6.38133   5
  -2   3   8 57.8446 5.99714   7
  -2  -3   8 42.1093 6.14500   5
   2   3   8 38.0177 5.49061   7
  -2  -3   8 41.6596 5.96901   7
  -2  -3   8 46.7024 6.02896   1
  -2   3  -8 38.6953 6.38016   2
  -2   3  -8 47.4618 6.51759   7
  -2   3  -8 45.2796 6.60995   1
   2   3   8 45.6932 5.52386   8
   2   3   8 44.8492 6.18714   2
   2  -3  -8 41.6717 6.25353   2
  -2  -3   8 51.2516 6.33729   2
   2   3   8 43.8502 6.58574   4
  -3  -3  -8 66.0185 10.5864   1
  -3  -3  -8 86.5709 10.7178   7
   3   3  -8 84.0047 9.97746   8
   3  -3   8 92.6331 10.4610   7
   3   3  -8 80.5334 10.7905   2
   3  -3   8 101.979 10.1867   8
   3  -3   8 79.8422 10.9598   2
  -3   3   8 104.224 10.8676   1
   3   3   8 81.9498 9.95353   8
   3   3   8 115.970 12.0145   5
   3   3   8 87.4709 12.2296   4
  -3  -3   8 87.2371 10.8200   1
  -3   3  -8 105.954 11.1803   7
  -3   3  -8 97.5626 11.2566   1
   3  -3  -8 79.7279 10.8198   2
   3  -3  -8 84.6927 9.99628   8
   3  -3  -8 104.654 10.4178   7
   3   3   8 106.829 11.1420   2
   4  -3   8 9.20532 3.19321   5
   4   3  -8 11.0922 2.32940   8
  -4   3   8 11.4402 2.57555   1
  -4  -3  -8 15.0396 2.38866   3
   4  -3   8 8.13073 2.23907   8
   4   3  -8 8.42424 3.21122   4
  -4  -3  -8 9.89868 2.79290   1
   4   3  -8 8.50975 2.29762   2
   4  -3   8 26.9154 3.74781   2
   4   3   8 1.45059 2.69346   5
   4   3   8 11.6586 2.78773   2
  -4   3  -8 4.62470 2.38815   1
  -4  -3   8 11.7458 2.72706   1
   4   3   8 11.1308 3.36934   4
  -4   3  -8 10.1557 2.37653   3
   4   3   8 4.18787 1.79306   8
   4  -3  -8 12.2055 2.64292   2
   4  -3  -8 16.8932 2.61693   8
  -5  -3  -8 555.217 63.7452   1
   5   3  -8 638.376 64.0456   2
   5  -3   8 605.117 64.2591   2
   5   3  -8 561.131 59.1607   8
  -5  -3  -8 553.902 56.9060   3
   5  -3  -8 612.603 64.1382   2
   5   3   8 502.523 70.7521   4
  -5   3  -8 595.862 64.0279   1
   5   3   8 648.208 67.0127   5
   5   3   8 551.945 59.2871   8
   5  -3  -8 601.636 59.3602   8
   5   3   8 623.184 64.1154   2
  -5   3  -8 568.493 57.0588   3
  -5  -3   8 621.174 63.7625   1
  -6   3   8 12.0550 3.21688   1
   6   3  -8 21.5969 4.41892   4
   6  -3   8 17.6118 3.11857   2
   6  -3   8 22.5869 3.57954   8
   6   3  -8 19.3773 3.09204   8
  -6  -3  -8 22.3911 3.24238   3
  -6  -3  -8 20.1639 3.69257   1
  -6  -3   8 21.9858 3.75591   1
   6  -3  -8 17.2741 3.18104   8
   6   3   8 20.2729 4.69070   5
   6  -3  -8 14.8282 2.83208   2
  -6   3  -8 14.3329 3.56411   1
   6   3   8 18.6316 4.92443   4
  -6   3  -8 24.0229 3.52501   3
   6   3   8 17.4780 3.26442   8
   6   3   8 14.7029 2.62569   2
  -7  -3  -8 869.982 92.5140   1
  -7  -3  -8 819.010 82.6074   3
   7   3  -8 1011.87 86.1154   8
   7   3   8 906.577 97.1111   5
  -7  -3   8 788.703 92.3923   1
  -7   3  -8 959.205 82.9341   3
   7   3   8 705.364 102.730   4
   7   3   8 817.539 86.0611   8
   7  -3  -8 826.830 86.0295   8
  -7   3  -8 881.240 92.7863   1
  -8   3   8 26.5425 4.69563   1
  -8  -3  -8 29.2230 4.25291   3
  -8  -3  -8 21.0815 4.57379   1
   8   3  -8 24.5927 4.11935   8
   8  -3   8 42.5087 5.13446   8
   8   3   8 32.9878 7.23936   4
  -8  -3   8 29.0262 4.93189   1
  -8   3  -8 38.5863 4.80813   3
   8   3   8 28.4478 4.42557   8
   8  -3  -8 31.5955 4.45058   8
  -8   3  -8 28.2038 5.19206   1
  -9  -3  -8 1347.24 141.057   1
  -9   3   8 1384.74 140.997   1
  -9  -3  -8 1336.08 126.010   3
   9   3   8 1293.28 131.299   8
   9  -3  -8 1333.36 131.297   8
  -9   3  -8 1213.16 126.068   3
  -9  -3   8 1294.58 140.972   1
   9   3   8 1313.96 157.053   4
 -10  -3  -8 4.28132 2.20165   3
 -10   3   8 3.66407 2.34339   1
  10   3  -8 2.39690 1.84868   8
 -10  -3  -8 7.49547 3.03363   1
  10  -3   8 8.60379 2.72001   8
 -10  -3   8 5.25890 2.59822   1
  10  -3  -8 8.98171 2.51319   8
 -10   3  -8 5.83043 2.98950   1
 -10   3  -8 4.25178 2.43369   3
  10   3   8 5.46495 4.80078   4
  10   3   8 5.67661 2.27653   8
  11  -3   8 0.07469 2.09310   8
  11   3  -8 0.41373 1.78759   8
 -11  -3  -8 2.73867 1.88555   3
 -11  -3  -8 1.34680 2.47023   1
 -11   3   8 -1.0981 2.19111   1
  11   3   8 4.60611 2.01826   8
 -11  -3   8 -0.1795 2.34221   1
 -11   3  -8 -0.2845 1.89606   3
  11  -3  -8 4.41253 2.40704   8
 -11   3  -8 -0.3938 2.49274   1
   0   4   8 1700.36 162.962   7
   0   4  -8 1498.78 160.549   1
   0  -4   8 1668.80 167.485   5
   0  -4   8 1358.68 162.915   7
   0   4   8 1433.12 160.333   1
   0  -4  -8 1445.73 160.403   1
   0   4   8 1363.59 162.046   2
   0   4  -8 1525.89 162.342   2
   1   4  -8 473.685 56.5786   2
   1  -4   8 559.830 58.5856   5
  -1   4   8 563.429 55.9693   1
  -1  -4  -8 489.738 56.5449   2
  -1   4   8 556.863 56.8950   7
   1  -4   8 508.197 56.6245   2
   1  -4   8 499.830 56.7403   7
   1  -4  -8 460.759 56.4606   2
   1   4   8 492.823 61.4154   4
  -1  -4   8 519.181 58.4204   5
  -1  -4   8 480.170 56.6194   2
   1   4   8 571.193 56.6728   7
  -1  -4   8 532.472 56.9258   7
  -2   4   8 718.931 70.0976   1
   2  -4   8 633.134 70.9764   7
   2  -4   8 737.444 71.0137   2
  -2  -4  -8 735.046 71.1357   7
  -2   4   8 758.035 71.0375   2
   2   4  -8 695.039 70.8776   2
  -2  -4  -8 539.020 70.0362   1
  -2  -4  -8 605.399 70.7961   2
  -2   4  -8 717.467 70.3318   1
  -2   4  -8 720.179 71.3403   2
   2   4   8 542.363 77.1349   4
  -2  -4   8 578.840 72.9738   5
   2   4   8 642.334 70.8345   2
  -2  -4   8 600.486 70.9630   2
   2  -4  -8 602.938 65.2752   8
  -2  -4   8 590.870 70.1718   1
  -3  -4  -8 132.672 15.0740   7
   3   4  -8 150.637 15.1473   2
   3  -4   8 112.743 15.1051   2
   3  -4   8 118.772 15.8635   5
   3   4  -8 146.533 14.0043   8
  -3  -4  -8 123.270 15.0038   1
   3  -4   8 147.411 14.0479   8
  -3   4  -8 148.690 15.2453   1
   3   4   8 96.0392 14.8570   2
  -3  -4   8 151.596 15.5546   5
   3  -4  -8 142.958 13.9283   8
   3  -4  -8 124.685 14.5573   7
   3  -4  -8 127.790 15.0926   2
  -3   4  -8 134.528 15.2107   7
  -3  -4   8 102.105 14.8512   1
   3   4   8 134.388 13.9091   8
   3   4   8 113.111 16.5014   4
   4  -4   8 452.524 50.7176   2
  -4   4   8 401.566 49.9911   1
  -4  -4  -8 396.500 44.7142   3
   4   4  -8 432.242 50.3587   2
   4  -4   8 479.773 46.7396   8
   4   4  -8 537.944 46.7478   8
  -4  -4  -8 476.001 50.2466   1
  -4  -4   8 471.367 50.1839   1
   4  -4  -8 481.870 46.7394   8
   4   4   8 476.092 46.7023   8
   4   4   8 517.695 52.8713   5
  -4   4  -8 520.534 50.4492   1
   4   4   8 442.370 55.6441   4
   4  -4  -8 424.670 50.4650   2
   4   4   8 428.043 50.4591   2
  -5   4   8 4.15691 2.26639   1
   5   4  -8 6.34722 2.03524   2
   5  -4   8 8.32776 2.50968   2
   5  -4   8 6.80582 2.30670   8
  -5  -4  -8 2.95535 2.21952   1
   5   4  -8 7.34553 2.13985   8
  -5  -4  -8 13.0341 2.40084   3
   5   4  -8 6.50760 3.31107   4
  -5  -4   8 8.32893 2.63964   1
   5   4   8 5.49368 2.01222   8
   5  -4  -8 5.86797 2.04367   8
  -5   4  -8 10.1631 2.91230   1
   5   4   8 8.36267 3.30910   4
   5  -4  -8 8.49839 2.25665   2
   5   4   8 7.36920 2.16468   2
   5   4   8 3.59947 2.99897   5
   6   4  -8 3053.81 317.406   2
  -6   4   8 3241.99 315.178   1
   6   4  -8 2948.69 293.420   8
   6  -4   8 3119.22 293.635   8
   6  -4   8 3042.44 317.982   2
   6   4  -8 2945.33 348.071   4
  -6  -4  -8 2545.38 281.476   3
  -6  -4  -8 2564.42 314.978   1
   6  -4  -8 2804.59 317.788   2
  -6   4  -8 3058.16 315.267   1
   6   4   8 2548.19 317.594   2
   6  -4  -8 3103.18 293.565   8
  -6  -4   8 3307.16 315.210   1
  -6   4  -8 3084.00 281.703   3
   7  -4   8 288.182 33.5771   2
   7   4  -8 256.152 31.3640   8
   7  -4   8 318.927 31.7698   8
  -7  -4  -8 307.357 34.1542   1
  -7   4   8 335.701 34.2128   1
  -7  -4  -8 309.430 30.4869   3
   7   4   8 343.944 31.7414   8
   7   4   8 310.147 38.8083   4
  -7   4  -8 299.706 34.1857   1
  -7   4  -8 337.891 30.6397   3
   7  -4  -8 281.343 31.5581   8
  -7  -4   8 342.137 34.2234   1
   8   4  -8 169.088 18.1482   8
  -8   4   8 183.517 19.9033   1
  -8  -4  -8 165.185 17.6473   3
  -8  -4  -8 143.464 19.6402   1
   8  -4   8 173.522 18.4542   8
  -8   4  -8 191.853 17.9137   3
   8   4   8 192.135 18.4083   8
   8  -4  -8 192.815 18.4264   8
  -8  -4   8 151.564 19.7044   1
  -8   4  -8 171.020 19.9109   1
   8   4   8 173.890 23.1423   4
   9  -4   8 239.368 22.9516   8
  -9  -4  -8 179.832 21.7379   3
   9   4  -8 213.060 22.5644   8
   9   4   8 230.140 22.7785   8
   9  -4  -8 247.115 22.8849   8
   9   4   8 235.877 28.9158   4
  -9   4  -8 182.713 24.4415   1
  -9  -4   8 209.126 24.6065   1
  -9   4  -8 235.120 22.1364   3
  10   4  -8 33.3671 4.68681   8
  10  -4   8 28.2878 4.69845   8
 -10  -4  -8 27.0219 4.36835   3
 -10   4   8 21.5169 4.80788   1
 -10  -4  -8 34.5269 5.42407   1
 -10  -4   8 25.4808 5.24108   1
  10   4   8 38.1952 8.28585   4
 -10   4  -8 35.3663 5.59759   1
  10   4   8 25.3358 4.53682   8
 -10   4  -8 31.7125 4.84071   3
  10  -4  -8 35.0382 4.94277   8
 -11  -4  -8 199.300 23.6840   1
 -11   4   8 229.503 23.7421   1
 -11  -4  -8 210.709 21.1597   3
  11   4  -8 200.691 21.7298   8
  11  -4   8 196.147 21.9778   8
  11   4   8 197.808 21.9004   8
 -11   4  -8 212.774 24.0574   1
 -11   4  -8 205.457 21.3752   3
 -11  -4   8 226.993 24.0297   1
   0   5   8 2.30594 1.79002   1
   0   5   8 -2.1477 1.55256   2
   0  -5   8 1.86192 2.12536   2
   0   5  -8 2.16325 2.20276   1
   0   5   8 1.16104 1.66018   7
   0  -5  -8 1.72873 1.77060   1
   0  -5   8 -0.7678 1.75311   1
   0   5  -8 -0.5004 2.08195   2
   0  -5  -8 1.70517 1.99248   2
   0  -5   8 0.16275 1.94203   5
   1  -5   8 612.836 62.0823   2
   1   5  -8 494.272 61.9538   2
  -1  -5  -8 555.446 61.3090   1
  -1  -5  -8 543.376 61.9221   2
  -1   5   8 584.178 62.1037   7
  -1   5   8 622.043 61.2033   1
   1  -5   8 644.311 61.4352   1
   1  -5   8 585.854 63.9236   5
   1  -5   8 509.492 62.0402   7
  -1  -5   8 579.369 63.7525   5
   1   5   8 468.572 61.7075   2
  -1   5  -8 526.933 62.0875   2
  -1   5  -8 536.239 61.4536   1
  -1  -5   8 562.484 61.2735   1
  -1  -5   8 577.817 62.1414   2
   1   5   8 613.884 61.9971   7
   1  -5  -8 553.302 61.8845   2
  -1  -5   8 605.152 62.3454   7
  -2   5   8 89.8799 10.3116   1
   2  -5   8 74.4370 10.6993   5
  -2  -5  -8 83.9821 10.4067   2
   2   5  -8 76.7990 10.3403   2
   2  -5   8 81.1124 10.4002   2
  -2  -5  -8 108.153 10.5803   1
  -2   5   8 89.3803 10.4923   2
  -2  -5   8 76.3543 10.3569   5
   2   5   8 61.5922 10.1641   2
  -2  -5   8 92.4950 10.4783   1
   2   5   8 77.6073 10.9604   4
  -2   5  -8 97.0257 10.7239   1
  -2  -5   8 66.5829 10.3172   2
  -2   5  -8 95.6858 10.8028   2
   2  -5  -8 97.1483 10.5610   2
   3   5  -8 875.891 95.4376   2
   3  -5   8 817.062 88.2061   8
   3  -5   8 892.870 95.6023   2
   3   5  -8 916.020 88.2370   8
  -3  -5  -8 928.737 94.6668   1
  -3   5   8 813.768 94.4990   1
  -3  -5  -8 887.130 96.0104   7
   3  -5  -8 837.193 95.4979   2
  -3  -5   8 927.121 94.7695   1
  -3   5  -8 956.468 94.8392   1
  -3  -5   8 744.563 98.3389   5
   3   5   8 967.796 88.2251   8
  -4   5   8 113.629 14.7770   1
   4  -5   8 137.939 15.2898   2
   4   5  -8 105.453 13.7018   8
  -4  -5  -8 131.450 14.9282   1
   4   5  -8 118.751 14.8429   2
   4  -5   8 149.906 14.0821   8
  -4  -5   8 93.6876 14.7360   1
   4   5   8 130.230 14.8768   2
   4  -5  -8 138.152 15.0834   2
   4  -5  -8 126.872 13.8834   8
  -4   5  -8 127.098 15.0568   1
   4   5   8 155.734 14.0531   8
   4   5   8 150.812 16.1475   5
   5  -5   8 383.612 48.1605   2
  -5  -5  -8 453.579 42.9280   3
   5   5  -8 411.158 47.7645   2
  -5   5   8 366.153 47.6338   1
   5   5  -8 510.512 44.5998   8
   5  -5   8 485.673 44.6590   8
  -5  -5  -8 432.700 47.7412   1
   5  -5  -8 392.830 47.9535   2
   5   5   8 381.915 50.0760   5
  -5  -5   8 370.074 47.7682   1
   5   5   8 508.853 48.0505   2
  -5   5  -8 472.766 48.0039   1
   5  -5  -8 469.629 44.5362   8
   5   5   8 503.478 44.5849   8
  -6  -5  -8 454.908 42.1408   1
  -6   5   8 409.308 42.1039   1
   6   5  -8 381.333 38.9497   8
  -6  -5  -8 334.089 37.3708   3
   6   5  -8 363.065 46.7911   4
   6  -5   8 342.691 39.0103   8
   6  -5   8 350.210 42.0334   2
   6   5  -8 436.675 41.6095   2
   6   5   8 459.619 39.2215   8
   6   5   8 321.280 41.6713   2
  -6  -5   8 329.465 41.9810   1
  -6   5  -8 431.031 42.2337   1
   6   5   8 373.778 47.0249   4
   7   5  -8 179.501 18.7396   8
   7  -5   8 171.970 19.6835   2
  -7  -5  -8 165.352 20.2023   1
  -7   5   8 153.460 20.2097   1
   7  -5   8 188.292 19.0285   8
   7   5  -8 232.899 23.6327   4
  -7  -5  -8 163.631 18.0535   3
  -7  -5   8 158.241 20.3670   1
   7   5   8 169.678 18.7630   8
   7  -5  -8 204.058 18.9501   8
   7   5   8 212.989 24.0568   4
  -7   5  -8 169.762 20.4028   1
  -8   5   8 98.2788 13.7291   1
   8  -5   8 109.822 12.8569   8
   8   5  -8 109.189 12.6184   8
  -8  -5  -8 132.753 12.5118   3
  -8  -5  -8 118.048 13.8611   1
  -8   5  -8 101.521 13.8245   1
  -8   5  -8 124.632 12.6662   3
   8   5   8 121.714 16.5913   4
   8  -5  -8 130.244 12.9317   8
   8   5   8 93.9748 12.5459   8
  -8  -5   8 142.518 14.3944   1
  -9  -5  -8 86.3888 10.8503   1
   9  -5   8 85.8558 10.0184   8
  -9  -5  -8 82.2434 9.43788   3
   9   5  -8 61.0533 9.43832   8
  -9   5   8 63.4039 10.3781   1
  -9   5  -8 96.4823 11.2073   1
  -9   5  -8 99.5973 10.0135   3
   9  -5  -8 81.3649 9.86575   8
   9   5   8 112.290 15.4282   4
  -9  -5   8 102.254 11.1787   1
   9   5   8 88.2154 9.81511   8
 -10   5   8 295.513 29.6417   1
  10  -5   8 257.177 27.4037   8
 -10  -5  -8 250.936 26.2590   3
 -10  -5  -8 211.727 29.2061   1
  10   5  -8 228.047 27.0731   8
 -10  -5   8 256.690 29.4964   1
 -10   5  -8 276.331 26.7016   3
  10  -5  -8 321.022 27.6153   8
  10   5   8 264.518 27.2629   8
 -10   5  -8 280.228 29.9076   1
 -11   5   8 45.0719 6.84938   1
  11   5  -8 36.0626 5.59266   8
 -11  -5  -8 30.8362 6.00236   1
  11  -5   8 50.2860 6.40771   8
 -11  -5  -8 43.7042 5.84539   3
  11  -5  -8 43.1795 6.09131   8
  11   5   8 34.6107 5.59325   8
 -11  -5   8 52.2214 6.39180   6
 -11   5  -8 30.2543 5.68758   3
 -11  -5   8 43.7253 6.69670   1
 -11   5  -8 35.7465 6.84231   1
   0   6   8 1148.26 124.896   1
   0  -6   8 1258.91 130.437   5
   0  -6   8 1294.03 125.244   1
   0  -6  -8 1112.64 125.085   1
   0   6   8 966.953 126.669   7
   0  -6  -8 1125.68 126.382   2
   0  -6   8 1083.78 125.104   1
   0   6  -8 1036.26 126.499   2
   0  -6   8 1329.31 126.806   2
   0   6  -8 1326.83 125.428   1
  -1   6   8 3.00953 2.17267   2
   1  -6   8 2.64961 2.40084   2
   1   6  -8 5.86738 2.53877   2
  -1  -6  -8 3.04364 2.07270   2
   1  -6   8 7.19256 2.60996   1
  -1   6   8 -2.2707 1.51259   7
  -1   6   8 0.77451 1.85038   1
   1  -6   8 1.94325 2.28895   5
   1  -6   8 0.80007 2.29253   7
  -1  -6  -8 -0.7375 1.78316   1
  -1  -6   8 1.29648 2.02587   1
  -1   6  -8 7.51332 2.87501   1
  -1   6  -8 1.90218 2.36086   2
  -1  -6   8 6.05198 2.26011   5
  -1  -6   8 -2.2378 1.51873   2
   1   6   8 3.66612 2.30759   2
   1  -6  -8 -0.1952 1.82977   2
  -1  -6   8 -1.8593 1.74936   1
   2   6  -8 1100.02 142.510   2
  -2  -6  -8 1311.30 141.074   1
   2  -6   8 1436.21 142.783   2
   2  -6   8 1437.83 147.521   5
  -2   6   8 1439.72 141.199   1
  -2   6   8 1497.71 142.758   2
   2   6   8 1518.17 142.757   2
   2  -6  -8 1421.97 142.674   2
   2   6   8 1273.96 155.354   4
  -2  -6   8 1142.20 146.780   5
  -2   6  -8 1135.34 142.639   2
  -2  -6   8 1159.77 141.009   1
  -2   6  -8 1266.99 141.410   1
   3  -6   8 498.458 50.1905   2
   3   6  -8 423.268 46.0613   8
   3   6  -8 490.467 50.0342   2
  -3  -6  -8 395.099 49.3114   1
   3   6   8 396.879 54.2728   4
   3  -6  -8 552.920 50.2480   2
  -3   6  -8 433.860 49.7814   1
   4  -6   8 153.536 16.2873   8
   4   6  -8 152.841 16.9013   2
  -4  -6  -8 154.712 17.0152   1
  -4   6   8 142.608 16.9682   1
   4  -6   8 130.652 17.0504   2
   4   6   8 130.385 16.8336   2
   4   6   8 156.949 18.9054   4
  -4   6  -8 162.093 17.5283   1
   4  -6  -8 153.076 17.0943   2
   4  -6  -8 136.006 15.6938   8
  -4  -6   8 140.750 16.9739   1
   5   6  -8 6.06099 3.21171   4
  -5   6   8 2.01808 2.07683   1
   5  -6   8 -1.4696 1.87226   8
  -5  -6  -8 6.12074 2.63761   1
   5   6  -8 -1.7045 1.42820   8
   5  -6   8 0.84216 2.09456   2
   5   6  -8 3.52760 2.04910   2
   5  -6  -8 -0.4489 1.64830   8
   5   6   8 0.53330 1.57678   2
   5  -6  -8 0.40019 1.98387   2
  -5  -6   8 -1.2232 2.03076   1
  -5   6  -8 -0.4335 2.58954   1
   5   6   8 0.02403 1.75100   8
   5   6   8 -2.6816 2.15267   4
   6   6  -8 13.4929 2.44963   2
  -6   6   8 10.8217 3.13682   1
  -6  -6  -8 14.0867 3.43404   1
   6   6  -8 11.9393 2.99339   8
   6  -6   8 14.3056 3.37325   2
   6  -6   8 13.6088 3.25186   8
   6   6  -8 5.99443 4.54714   4
   6   6   8 12.9769 2.87096   2
   6  -6  -8 11.5485 2.91541   2
   6   6   8 10.4264 2.84990   8
  -6   6  -8 9.65890 3.54494   1
  -6  -6   8 9.25480 3.33452   1
   6   6   8 15.8863 4.71463   4
   6  -6  -8 13.7075 3.04617   8
   7  -6   8 7.13957 2.71293   8
   7  -6   8 3.03815 1.92109   2
   7   6  -8 6.75769 3.71152   4
  -7   6   8 1.21503 2.19769   1
   7   6  -8 3.47121 2.43464   8
  -7  -6  -8 1.49043 2.27776   1
  -7  -6  -8 3.56070 2.07859   3
   7  -6  -8 5.54892 2.50236   8
  -7   6  -8 5.12348 2.80449   1
  -7  -6   8 3.21135 2.87905   1
   7   6   8 4.17469 3.24939   4
   7  -6  -8 1.67338 1.59998   2
   7   6   8 6.35338 2.28103   8
   8   6  -8 641.871 67.1095   8
  -8  -6  -8 791.062 72.3079   1
  -8   6   8 724.285 72.2978   1
   8   6  -8 623.727 80.6757   4
  -8  -6  -8 773.799 64.6499   3
  -8   6  -8 558.434 72.2278   1
   8  -6  -8 563.045 66.9857   8
  -8  -6   8 649.907 66.5231   6
  -9   6   8 106.057 12.3713   1
  -9  -6  -8 93.9117 12.0198   1
   9   6  -8 104.137 11.2554   8
  -9  -6  -8 88.9329 10.6014   3
   9  -6   8 105.698 11.4455   8
   9  -6  -8 105.365 11.2978   8
  -9  -6   8 84.3096 12.0624   1
  -9   6  -8 81.4078 12.3176   1
  -9  -6   8 97.3872 11.1501   6
   9   6   8 79.6776 14.8613   4
   9   6   8 101.905 11.1630   8
  10   6  -8 454.352 51.4900   8
  10  -6   8 447.903 51.6259   8
 -10   6   8 475.947 55.4557   1
 -10  -6  -8 530.387 55.6030   1
 -10   6  -8 528.453 55.8546   1
 -10  -6   8 545.209 55.6219   1
 -10  -6   8 592.515 51.3858   6
  10  -6  -8 493.940 51.6388   8
 -11  -6  -8 1.94146 2.10862   3
 -11  -6  -8 0.26686 2.69344   1
  11   6  -8 1.52734 2.33535   8
  11  -6   8 -0.4861 2.44787   8
 -11   6   8 3.13717 2.90328   1
  11   6   8 -0.3764 2.26280   8
  11  -6  -8 -1.5758 2.57033   8
 -11  -6   8 0.71327 2.30986   6
 -11   6  -8 2.86873 3.06613   1
 -11  -6   8 1.55183 2.80309   1
   0  -7  -8 14.1899 3.20405   1
   0  -7   8 -1.2281 2.02954   2
   0  -7   8 0.56985 1.87982   7
   0  -7   8 1.76542 2.65694   1
   0   7  -8 6.43981 2.79997   2
   0  -7  -8 2.32764 2.10093   2
   0   7   8 0.44113 1.69035   1
   0  -7   8 5.44701 2.46216   5
   0   7   8 -1.7841 1.39478   2
   0   7   8 3.26366 1.82034   7
  -1  -7  -8 1055.99 122.931   2
   1  -7   8 1155.83 123.235   2
  -1   7   8 1018.28 121.544   1
  -1  -7  -8 1201.53 121.745   1
   1   7   8 1016.47 122.823   2
  -1   7  -8 1288.79 123.427   2
  -1  -7   8 1259.89 126.797   5
   1  -7  -8 1271.66 123.136   2
  -1  -7   8 1138.77 123.177   2
  -1  -7   8 967.662 121.579   1
  -1  -7   8 1150.59 121.833   1
  -1   7  -8 1080.81 121.815   1
  -2  -7  -8 24.4855 4.47096   1
  -2   7   8 17.0667 3.90010   2
   2  -7   8 17.5574 4.26448   2
  -2   7   8 13.7818 3.76086   1
   2   7  -8 26.9520 4.86312   2
  -2  -7   8 20.1639 4.34504   1
  -2   7  -8 20.0511 4.48411   2
  -2   7  -8 24.5786 4.73884   1
  -2  -7   8 23.6334 4.30311   1
   2   7   8 20.4605 3.96519   4
   2  -7  -8 24.9527 4.47950   2
   2   7   8 22.0183 4.22266   2
   3   7  -8 893.190 111.681   2
  -3  -7  -8 1085.11 110.772   1
  -3   7   8 1166.70 110.852   1
   3  -7   8 1092.99 111.935   2
   3  -7  -8 828.159 111.523   2
   3   7   8 1043.34 121.899   4
  -3  -7   8 993.735 110.738   1
   3   7   8 1142.74 111.840   2
  -4   7   8 -0.2001 1.98611   1
  -4  -7  -8 1.61140 2.19547   1
   4   7  -8 3.49679 2.19157   2
   4   7  -8 3.71021 1.87677   8
   4  -7   8 4.34075 2.40629   2
   4  -7  -8 0.99616 2.24960   2
   4   7   8 4.08092 2.58742   4
   4   7   8 4.46238 2.32835   2
  -4   7  -8 3.53144 2.61279   1
  -4  -7   8 4.02362 2.57084   1
   4   7   8 -0.1908 1.80241   8
   5  -7   8 27.2221 4.71173   2
  -5  -7  -8 20.0652 4.37339   1
  -5   7   8 21.6863 4.31478   1
   5   7  -8 13.2923 5.76310   4
   5   7  -8 23.2506 3.99614   2
   5   7  -8 19.2693 3.87385   8
  -5  -7   8 21.2350 4.11995   6
   5  -7  -8 22.3612 4.04778   8
   5   7   8 23.1866 4.98323   4
  -5   7  -8 21.6785 4.84215   1
   5   7   8 21.8320 3.96698   8
   5  -7  -8 24.3385 4.46208   2
  -5  -7   8 14.6989 3.88505   1
   5   7   8 23.6912 4.19153   2
   6   7  -8 297.711 27.3067   8
   6   7  -8 274.484 33.4485   4
  -6   7   8 282.354 29.1702   1
   6  -7   8 231.581 29.0861   2
   6   7  -8 285.319 28.5642   2
   6  -7   8 219.144 27.0738   8
  -6  -7  -8 243.665 28.9893   1
  -6  -7   8 216.753 28.9023   1
   6   7   8 259.658 28.8308   2
   6   7   8 266.848 27.0472   8
  -6  -7   8 292.266 27.1063   6
   6  -7  -8 235.741 28.9200   2
   6  -7  -8 269.253 27.0650   8
   6   7   8 280.986 32.7149   4
  -6   7  -8 237.012 29.3041   1
   7  -7   8 6.54457 3.00241   8
  -7   7   8 4.80067 2.89038   1
   7  -7   8 2.69360 2.12477   2
   7   7  -8 6.67598 2.34736   8
   7   7  -8 5.39598 4.57051   4
  -7  -7  -8 3.11988 2.68766   1
   7  -7  -8 0.30812 2.39319   8
   7   7   8 0.11276 3.42723   4
   7   7   8 3.23268 2.28779   8
  -7  -7   8 3.85685 2.56226   1
   7  -7  -8 6.51225 2.21781   2
  -7  -7   8 2.26277 2.47474   6
  -7   7  -8 4.27167 2.79952   1
   8   7  -8 41.0751 6.00357   8
  -8  -7  -8 47.7508 6.62211   1
   8  -7   8 35.3178 6.11240   8
   8   7  -8 34.7214 7.84081   4
  -8   7   8 42.2549 6.45326   1
   8  -7  -8 34.0765 5.73556   8
   8   7   8 41.6277 8.31915   4
  -8  -7   8 33.1990 5.85433   6
   8   7   8 39.3465 5.72422   8
  -8  -7   8 41.4520 6.50033   1
  -8   7  -8 22.5070 5.81599   1
   9   7  -8 3.77646 2.63092   8
   9  -7   8 -0.2082 2.45750   8
  -9  -7  -8 5.23842 2.89965   1
  -9   7   8 9.27888 3.24392   1
  -9  -7  -8 5.29820 2.56268   3
   9  -7  -8 4.91557 2.52485   8
  -9  -7   8 2.45703 2.85590   1
  -9  -7   8 8.96149 3.44398   1
  -9  -7   8 2.11309 2.50886   6
  -9   7  -8 9.06016 3.59699   1
   9   7   8 -0.0266 5.13330   4
   9   7   8 8.96793 2.89456   8
 -10  -7  -8 56.0827 8.21275   3
  10  -7   8 71.7608 9.28417   8
  10   7  -8 73.0825 9.28999   8
 -10   7   8 71.2355 9.84349   1
 -10  -7  -8 67.9826 9.31179   1
 -10   7  -8 64.7027 9.80520   1
 -10  -7   8 57.6038 9.29282   1
  10   7   8 75.4864 8.76578   8
 -10  -7   8 71.4928 10.0562   1
  10  -7  -8 72.9805 9.18940   8
 -10  -7   8 60.2876 8.68219   6
   0  -8   8 112.436 15.4583   2
   0  -8  -8 150.338 15.4076   1
   0  -8   8 145.565 15.7044   1
   0   8  -8 136.549 15.7582   2
   0  -8  -8 100.094 15.0460   2
  -1   8   8 878.987 91.0410   2
  -1  -8  -8 886.077 91.1010   2
  -1  -8  -8 934.416 90.1971   1
   1  -8   8 729.581 91.0251   2
   1   8  -8 812.976 91.1665   2
   1   8   8 774.636 90.7654   2
  -1  -8   8 889.398 91.2027   2
  -1  -8   8 784.366 90.1042   1
  -1   8  -8 754.541 89.9990   1
   1  -8  -8 892.795 91.0718   2
  -2   8   8 534.018 55.1371   2
  -2   8   8 426.701 54.1856   1
   2  -8   8 528.765 55.3012   2
  -2  -8  -8 449.609 54.2955   1
   2   8  -8 511.374 55.2573   2
  -2   8  -8 421.836 54.3428   1
   2   8   8 542.432 54.9823   2
  -2  -8   8 571.602 54.7379   1
  -2   8  -8 483.128 55.1735   2
   2  -8  -8 523.156 55.0398   2
  -3   8   8 345.699 43.8169   1
   3   8  -8 424.242 44.6893   2
   3  -8   8 359.254 44.4689   2
  -3  -8  -8 458.067 44.3372   1
   3  -8  -8 371.822 44.3508   2
   3   8   8 462.240 44.5725   2
   3   8   8 451.682 48.3947   4
  -3   8  -8 359.107 44.1134   1
  -3  -8   8 429.978 44.2438   1
  -3  -8   8 346.957 43.9324   1
  -4  -8  -8 257.857 34.5807   1
   4  -8   8 316.137 35.1478   2
  -4   8   8 365.388 34.9595   1
   4   8  -8 279.846 34.8057   2
   4   8   8 259.327 37.9428   4
   4  -8  -8 362.483 35.2835   2
  -4  -8   8 343.416 35.0778   1
  -4   8  -8 326.798 35.1009   1
  -4  -8   8 325.447 34.9300   1
  -5   8   8 1.61868 2.50992   1
   5  -8   8 25.8166 4.31793   2
   5   8  -8 5.50349 2.29097   2
   5   8  -8 3.26267 4.62020   4
   5   8  -8 1.06160 1.86686   8
  -5  -8  -8 2.01896 2.74641   1
  -5  -8   8 6.34525 2.89642   1
  -5   8  -8 3.64709 2.97121   1
   5   8   8 5.35424 3.14498   4
   5  -8  -8 2.33046 2.26514   2
   5   8   8 7.79095 2.73686   8
  -5  -8   8 5.35804 2.97900   1
   5   8   8 4.85244 2.70041   2
  -6   8   8 329.551 36.8923   1
   6   8  -8 365.156 42.2948   4
   6   8  -8 397.664 34.6384   8
  -6  -8  -8 259.579 36.6336   1
   6   8   8 361.995 41.2083   4
   6   8   8 328.527 34.3376   8
  -6   8  -8 327.479 37.1655   1
  -6  -8   8 371.528 34.3985   6
  -6  -8   8 303.580 36.8756   1
   6  -8  -8 348.109 36.9648   2
  -6  -8   8 284.331 36.8550   1
  -7   8   8 493.477 52.7969   1
  -7  -8  -8 524.220 52.9257   1
   7   8  -8 419.606 48.9352   8
   7  -8   8 531.936 52.9883   2
   7   8  -8 407.936 58.9740   4
  -7  -8   8 590.378 49.1206   6
  -7   8  -8 430.596 52.8110   1
   7  -8  -8 465.271 52.5867   2
   7   8   8 533.370 58.9846   4
  -7  -8   8 461.529 52.7750   1
   7   8   8 567.905 49.3547   8
  -7  -8   8 388.575 52.5784   1
   7  -8  -8 452.962 49.0613   8
   8   8  -8 162.553 18.3742   8
   8   8  -8 154.633 22.9531   4
  -8   8   8 164.232 19.7826   1
  -8  -8  -8 160.988 19.6633   1
   8  -8   8 169.596 18.8993   8
  -8  -8   8 155.470 19.7630   1
   8  -8  -8 176.061 18.5079   8
  -8   8  -8 173.634 20.1033   1
   8   8   8 159.659 18.3311   8
  -8  -8   8 171.180 18.3534   6
  -8  -8   8 177.393 20.0408   1
   8   8   8 200.080 23.3012   4
   9  -8   8 525.419 48.1338   8
  -9  -8  -8 467.666 50.9888   1
   9   8  -8 521.132 47.7694   8
  -9   8   8 498.300 51.1635   1
  -9  -8   8 432.929 46.9950   6
   9   8   8 470.823 47.4911   8
  -9  -8   8 379.482 50.8302   1
   9  -8  -8 427.630 47.4633   8
 -10  -8  -8 96.2250 12.0716   1
  10  -8   8 95.4558 11.6516   8
 -10   8   8 83.6150 12.0430   1
  10   8  -8 76.8053 10.9548   8
 -10  -8   8 89.5940 11.1472   6
 -10   8  -8 95.8035 12.4087   1
  10  -8  -8 97.3847 11.4242   8
  10   8   8 94.8770 11.2207   8
 -10  -8   8 108.413 12.6425   1
   0   9   8 4.08859 2.61285   2
   0   9  -8 0.23100 2.44878   2
   0  -9   8 0.25289 2.62743   1
   0  -9  -8 -2.1446 2.12077   2
   0  -9   8 0.10119 2.50411   2
  -1   9   8 516.180 54.6183   2
   1  -9   8 455.686 54.7141   2
  -1  -9  -8 476.424 54.6317   2
   1   9  -8 512.403 54.8957   2
  -1  -9  -8 511.100 54.1626   1
  -1  -9   8 520.015 54.8758   2
   1  -9  -8 508.237 54.6904   2
  -1  -9   8 494.977 54.2730   1
   1   9   8 525.439 54.6516   2
  -1   9  -8 412.900 54.5908   2
  -2  -9  -8 331.063 37.9043   1
  -2   9   8 362.888 37.9061   1
  -2   9  -8 319.260 37.8313   1
   2   9   8 297.680 37.9600   2
  -2  -9   8 364.067 38.1868   1
  -2   9  -8 371.418 38.6329   2
   2  -9  -8 343.551 38.2228   2
  -3   9   8 59.3858 7.83894   1
  -3  -9  -8 56.9353 8.04524   1
   3  -9   8 50.2285 7.89858   2
   3   9  -8 48.7182 7.76101   2
  -3   9  -8 44.4092 7.67400   1
   3   9   8 45.0904 7.29173   2
   3  -9  -8 38.8926 7.13619   2
  -3  -9   8 48.0501 7.73608   1
   4  -9   8 249.075 24.3785   2
  -4   9   8 225.043 23.9076   1
  -4  -9  -8 218.259 24.0711   1
   4   9  -8 188.728 23.8060   2
  -4   9  -8 218.243 24.1072   1
   4  -9  -8 160.405 23.7577   2
   4   9   8 251.494 24.1985   2
   4   9   8 206.472 26.0888   4
  -4  -9   8 165.782 23.7172   1
  -5   9   8 54.3567 9.31865   1
  -5  -9  -8 63.2760 9.66188   1
   5   9  -8 89.3991 13.9091   4
   5  -9   8 68.5431 9.42512   2
   5   9  -8 75.5825 9.07702   2
  -5   9  -8 65.9880 10.0083   1
   5  -9  -8 90.0370 9.93634   2
   5   9   8 47.1948 9.88542   4
  -5  -9   8 67.7379 10.0137   1
   5   9   8 81.6514 9.53349   2
   6   9  -8 98.4042 13.1794   8
  -6  -9  -8 113.535 14.6355   1
   6   9  -8 73.6325 16.6793   4
   6   9  -8 108.972 13.7517   2
  -6   9   8 120.276 14.6221   1
   6  -9   8 152.331 15.0016   2
  -6  -9   8 132.927 15.0921   1
   6   9   8 138.913 14.4074   2
   6   9   8 104.147 16.1145   4
   6  -9  -8 132.950 14.4564   2
  -6   9  -8 118.875 14.8505   1
   7  -9   8 429.794 46.7782   2
  -7   9   8 425.306 46.7089   1
   7   9  -8 462.332 43.4299   8
   7   9  -8 401.639 52.6774   4
  -7  -9  -8 402.372 46.6139   1
   7  -9  -8 410.817 46.4552   2
   7   9   8 406.888 51.8278   4
  -7  -9   8 367.765 46.6088   1
  -7   9  -8 451.149 46.9343   1
   7   9   8 452.307 43.5628   8
   8   9  -8 70.8592 12.8465   4
  -8  -9  -8 80.6644 10.2803   1
   8   9  -8 78.3774 9.38839   8
  -8   9   8 63.4504 9.97806   1
   8   9   8 69.5414 12.2379   4
  -8  -9   8 60.1863 10.1335   1
   8   9   8 75.5540 9.43108   8
  -8   9  -8 60.9716 10.1107   1
  -8  -9   8 80.1413 9.51008   6
  -9  -9  -8 871.093 94.0645   1
   9   9  -8 943.440 87.6891   8
  -9   9   8 941.884 94.2517   1
   9   9   8 827.812 87.5306   8
  -9  -9   8 725.081 86.4384   6
  -9   9  -8 917.929 94.2821   1
  -9  -9   8 854.914 94.2564   1
   0  10   8 10.9610 3.56297   2
   0 -10   8 17.2644 4.60926   2
   0 -10  -8 18.8412 4.29572   2
   0  10  -8 12.8922 3.95706   2
  -1 -10  -8 18.8340 4.84041   2
  -1  10   8 21.4840 4.93746   2
   1 -10   8 15.6476 4.79030   2
   1  10  -8 28.1785 5.73832   2
  -1 -10  -8 30.9785 5.70172   1
  -1 -10   8 27.8611 5.43333   1
   1  10   8 23.9495 5.11119   2
  -1  10  -8 23.3418 5.36051   2
   1 -10  -8 34.5808 5.65698   2
   2  10  -8 8.59898 3.40124   2
  -2 -10  -8 11.0445 3.62165   1
  -2  10   8 6.27895 3.24229   1
   2 -10   8 3.46218 2.95946   2
  -2  10  -8 16.8971 4.20671   2
   2 -10  -8 11.4037 3.66921   2
  -2 -10   8 11.8232 3.98459   1
  -2  10  -8 12.7890 4.17344   1
   2  10   8 8.81182 3.22881   2
  -3  10   8 838.345 83.1855   1
  -3 -10  -8 672.422 83.0476   1
   3 -10   8 779.594 84.2189   2
   3  10  -8 657.844 83.8663   2
   3 -10  -8 827.317 84.1260   2
  -3  10  -8 825.300 83.3832   1
   4 -10   8 1819.88 196.788   2
   4  10  -8 1853.48 196.648   2
  -4  10   8 1716.65 194.608   1
  -4 -10  -8 1770.50 194.821   1
  -4 -10   8 1519.28 194.651   1
   4 -10  -8 1987.34 196.941   2
   4  10   8 2045.29 196.784   2
  -5  10   8 42.4598 7.48028   1
   5  10  -8 45.7037 7.09597   2
   5  10  -8 48.5836 10.7267   4
   5 -10   8 55.9351 7.88113   2
  -5 -10  -8 61.5352 8.34590   1
   5  10   8 41.0191 7.27285   2
  -5  10  -8 55.6551 8.38941   1
   5  10   8 60.3075 9.05536   4
  -5 -10   8 33.5396 7.48273   1
   5 -10  -8 48.3797 7.78789   2
   6  10  -8 1239.16 143.075   2
   6 -10   8 1450.87 143.778   2
  -6 -10  -8 1460.07 142.742   1
  -6  10   8 1371.28 142.603   1
  -6  10  -8 1396.79 142.696   1
   6  10   8 1269.01 143.380   2
  -6 -10   8 1174.33 142.505   1
   6 -10  -8 1445.76 143.623   2
   6  10   8 1114.17 157.004   4
  -7  10   8 28.5741 5.97055   1
   7 -10   8 29.3032 5.50116   2
   7  10  -8 28.2205 7.19672   4
  -7 -10  -8 28.1773 5.84668   1
  -7  10  -8 33.0048 6.32175   1
   7  10   8 34.7117 7.20358   4
  -7 -10   8 24.0391 5.76623   1
   7 -10  -8 31.6873 5.48128   2
   8  10  -8 107.020 12.1805   8
   8  10  -8 116.031 18.7207   4
  -8  10   8 96.9902 13.0665   1
  -8 -10  -8 85.6898 12.7814   1
   8  10   8 111.978 12.6712   8
  -8  10  -8 109.845 13.3705   1
  -8 -10   8 81.4429 13.3402   1
  -9  10   8 19.0734 4.82239   1
   9  10  -8 15.1735 4.30976   8
  -9 -10  -8 16.6817 4.62111   1
  -9 -10   8 14.2453 4.05670   6
  -9  10  -8 16.2827 5.04100   1
   9  10   8 19.6212 4.45415   8
  -9 -10   8 19.3392 5.25185   1
   0  11  -8 -0.4342 2.58195   2
   0 -11   8 0.25339 3.16294   2
   0 -11  -8 1.51545 2.56228   2
   0  11   8 -0.1954 2.57767   2
   1  11  -8 4.45742 3.36845   2
  -1  11   8 3.79690 2.85739   2
   1 -11   8 6.19894 3.35509   2
   1  11   8 4.44085 2.82875   2
   1 -11  -8 -2.9620 2.72428   2
  -1 -11   8 0.35983 2.93657   1
  -1  11  -8 -1.0765 2.73659   2
   2 -11   8 37.8051 8.38855   2
   2  11  -8 63.8231 9.33656   2
  -2 -11  -8 60.6149 9.13014   1
   2 -11  -8 65.7378 9.34725   2
  -2 -11   8 69.0181 9.76206   1
   2  11   8 53.7928 8.80234   2
  -2  11  -8 62.5146 9.45629   2
  -3 -11  -8 180.872 20.9460   1
   3 -11   8 189.127 21.3609   2
  -3  11   8 175.921 20.6428   1
   3  11  -8 204.945 21.5127   2
   3  11   8 153.868 20.6048   2
  -3 -11   8 197.823 21.3913   1
   3 -11  -8 133.645 20.5578   2
  -3  11  -8 182.734 21.0474   1
  -4  11   8 6.96659 3.41174   1
  -4 -11  -8 1.31866 3.13976   1
   4 -11   8 4.42110 3.27825   2
   4  11  -8 3.12429 3.17689   2
  -4 -11   8 4.94423 3.45559   1
   4 -11  -8 4.54988 2.94057   2
   4  11   8 23.7295 4.73805   2
  -4  11  -8 7.37521 3.37500   1
   5  11  -8 705.095 77.3489   2
   5  11  -8 664.898 86.6792   4
  -5 -11  -8 768.546 77.4048   1
  -5  11   8 754.611 77.2579   1
   5 -11   8 781.521 77.8734   2
   5  11   8 604.670 77.4461   2
  -5 -11   8 760.904 77.6045   1
   5 -11  -8 638.595 77.5936   2
  -5  11  -8 691.302 77.2409   1
  -6 -11  -8 176.984 21.3287   1
   6  11  -8 186.345 20.5351   2
   6 -11   8 193.342 21.2990   2
   6  11  -8 158.213 24.1799   4
  -6  11   8 165.112 21.2258   1
   6 -11  -8 173.443 20.9968   2
  -6 -11   8 200.134 21.8807   1
   6  11   8 164.151 23.3049   4
  -6  11  -8 186.446 21.6083   1
   6  11   8 174.883 20.8669   2
  -7  11   8 472.222 55.0759   1
  -7 -11  -8 577.913 55.4395   1
   7 -11   8 394.764 54.8680   2
   7 -11  -8 504.996 55.0493   2
  -7  11  -8 483.173 55.1783   1
   7  11   8 597.232 61.5207   4
  -7 -11   8 496.224 55.4067   1
  -8 -11  -8 2.40407 3.30987   1
  -8  11   8 7.43955 3.97248   1
  -8  11  -8 3.94061 3.13845   1
  -8 -11   8 5.23681 3.67683   1
   0  12   8 3894.69 381.662   2
   0 -12  -8 3483.98 381.496   2
   0 -12   8 3224.11 381.454   2
  -1  12   8 224.030 27.2593   2
   1 -12   8 227.502 27.5695   2
   1  12  -8 258.320 27.9567   2
   1  12   8 204.950 27.2179   2
  -1  12  -8 266.924 28.0254   2
   1 -12  -8 236.705 27.4489   2
  -2 -12  -8 35.3383 7.33612   1
   2  12  -8 43.3433 7.72658   2
   2 -12   8 49.9127 8.11807   2
   2 -12  -8 56.5795 8.51516   2
   2  12   8 36.3716 7.24737   2
  -2 -12   8 43.7193 7.76825   1
   3 -12   8 294.629 33.9994   2
   3 -12  -8 293.160 33.8158   2
  -3 -12   8 338.121 34.0912   1
   3  12   8 259.044 33.4789   2
   4 -12   8 192.853 25.9263   2
  -4 -12  -8 237.632 26.1289   1
  -4  12   8 235.495 25.8875   1
   4  12  -8 207.243 25.9120   2
  -4 -12   8 216.849 26.1682   1
   4 -12  -8 224.199 26.1623   2
  -4  12  -8 257.711 26.3922   1
   4  12   8 205.388 25.9010   2
   5  12  -8 30.2576 5.40282   2
   5  12  -8 39.0396 9.12766   4
  -5  12   8 32.0737 6.28288   1
   5 -12   8 38.1274 6.38251   2
  -5 -12  -8 20.7269 5.86987   1
  -5 -12   8 21.9809 5.93324   1
  -5  12  -8 34.9840 6.84836   1
   5 -12  -8 26.4589 5.77051   2
   5  12   8 28.5793 5.99138   2
  -6 -12  -8 87.7789 12.4122   1
   6 -12   8 66.6374 11.2955   2
  -6  12   8 75.1142 11.9714   1
   6  12  -8 87.7666 10.7949   2
  -6  12  -8 82.5387 12.3376   1
   6  12   8 103.520 11.5635   2
   6 -12  -8 106.009 12.0150   2
  -6 -12   8 67.7852 12.1780   1
   7 -12   8 235.221 23.0338   2
  -7  12   8 199.981 23.0745   1
  -7 -12  -8 206.621 23.1629   1
  -7 -12   8 157.665 22.8680   1
   7 -12  -8 171.907 22.3391   2
  -7  12  -8 183.526 23.0551   1
   0  13   8 5.16441 3.60070   2
   0  13  -8 -0.0556 2.90220   2
   0 -13   8 2.49233 3.36888   2
   0 -13  -8 -2.7632 3.05304   2
   1 -13   8 205.027 23.4367   2
   1  13  -8 182.048 23.2494   2
   1  13   8 163.614 22.7024   2
   1 -13  -8 201.413 23.2194   2
  -1  13  -8 212.899 23.6423   2
   2  13  -8 169.794 20.7961   2
   2 -13   8 156.142 20.8200   2
   2  13   8 165.663 20.5368   2
   2 -13  -8 181.674 20.8872   2
   3  13  -8 369.616 41.7024   2
   3 -13   8 340.430 41.5899   2
  -3 -13  -8 333.076 41.0949   1
   3 -13  -8 358.410 41.5938   2
   3  13   8 404.867 41.7839   2
  -3 -13   8 381.704 41.4303   1
  -4  13   8 120.140 14.3163   1
   4  13  -8 109.898 14.2006   2
  -4 -13  -8 115.220 14.4727   1
   4 -13   8 90.9642 14.3323   2
   4 -13  -8 89.3394 13.8102   2
   4  13   8 89.1748 13.7492   2
  -4 -13   8 138.778 15.0337   1
   5  13  -8 246.203 28.4550   2
   5 -13   8 220.549 28.6015   2
  -5 -13  -8 240.484 28.9395   1
  -5  13   8 250.183 28.7608   1
  -5 -13   8 300.048 29.6361   1
   5 -13  -8 255.587 28.8127   2
   5  13   8 242.649 28.8135   2
  -5  13  -8 231.409 29.0469   1
  -6  13   8 27.6555 6.25377   1
  -6 -13  -8 25.1460 6.13410   1
   6 -13   8 33.9213 6.18307   2
   6  13  -8 22.2388 4.93449   2
   6 -13  -8 21.8249 5.83434   2
  -6  13  -8 28.2901 6.66175   1
   6  13   8 29.9976 5.79950   2
  -6 -13   8 29.3742 6.64349   1
   0 -14  -8 821.047 81.3079   2
   0 -14   8 670.665 80.8798   2
   0  14  -8 704.872 81.0665   2
   1  14  -8 36.8824 7.41065   2
   1 -14   8 36.1092 7.40777   2
  -1  14   8 30.8174 6.78728   2
  -1  14  -8 39.8885 7.69828   2
   1 -14  -8 28.5854 6.66038   2
   1  14   8 35.1957 7.00334   2
   2 -14   8 360.324 46.4820   2
   2  14  -8 383.270 46.4724   2
   2 -14  -8 433.838 46.8164   2
   2  14   8 468.408 46.9701   2
   3  14  -8 1132.17 147.704   2
   3 -14   8 1538.44 148.579   2
  -3 -14   8 1507.60 147.112   1
   3  14   8 1276.79 147.951   2
   4 -14   8 53.9543 9.37032   2
  -4 -14  -8 69.9602 10.2823   1
   4  14  -8 47.9493 8.71447   2
   4  14   8 60.5797 9.46832   2
   4 -14  -8 44.9714 8.50181   2
  -4 -14   8 50.4673 9.36789   1
   5 -14   8 76.4178 11.4247   2
  -5 -14  -8 73.8464 11.6991   1
  -5  14   8 76.8337 11.6172   1
   5  14  -8 80.3447 10.8475   2
  -5 -14   8 92.0894 12.8506   1
   5  14   8 78.9854 11.4449   2
   5 -14  -8 63.0769 10.8057   2
   0  15  -8 3.22560 3.71428   2
   0  15   8 0.24255 3.14708   2
   0 -15  -8 4.54253 3.43942   2
   1 -15   8 589.766 67.9718   2
  -1  15   8 634.539 67.9911   2
   1  15  -8 609.675 68.1158   2
  -1  15  -8 504.232 67.6836   2
   1  15   8 654.828 68.1953   2
   1 -15  -8 661.766 68.2899   2
   2  15  -8 0.60015 3.77646   2
   2 -15   8 13.4945 5.13461   2
   2 -15  -8 11.0581 4.46532   2
   2  15   8 6.41435 4.08608   2
   3  15  -8 71.1491 10.9882   2
   3 -15   8 70.5599 11.3330   2
   3  15   8 63.2107 10.7757   2
   3 -15  -8 66.8626 10.7407   2
   0   0   9 1.25369 1.60864   1
   0   0  -9 -1.0436 1.99782   1
   0   0   9 -1.5351 1.43727   2
   0   0   9 0.39987 1.45848   7
   0   0  -9 4.17560 1.87128   2
   1   0   9 29.4435 5.45461   5
  -1   0   9 40.6252 5.15866   7
  -1   0   9 41.0001 5.71995   2
   1   0   9 24.0141 4.83878   2
  -1   0  -9 35.9154 5.38909   1
  -1   0   9 42.7976 5.15340   1
   1   0  -9 28.7966 4.85038   2
   1   0   9 33.4025 4.96652   7
  -1   0  -9 36.8210 5.40407   2
  -2   0  -9 3.18097 1.51913   7
   2   0   9 0.10425 1.64750   2
   2   0   9 1.50224 1.64969   8
   2   0   9 -0.8278 1.22829   7
  -2   0   9 0.34021 1.52609   1
   2   0  -9 0.09929 1.61057   2
  -2   0  -9 1.28358 1.80203   2
   2   0  -9 -0.1698 1.14954   8
   2   0   9 -1.6764 2.20639   5
  -2   0  -9 0.63226 1.69589   1
  -2   0   9 0.45975 1.80444   2
  -2   0   9 0.55165 1.40480   7
   3   0  -9 936.255 86.9889   8
   3   0   9 858.760 87.0637   8
   3   0   9 749.424 97.7183   5
  -3   0  -9 830.284 93.4491   1
  -3   0   9 835.351 93.2342   1
  -3   0  -9 897.070 94.7960   7
   3   0  -9 879.807 94.1928   7
   3   0  -9 803.583 94.2018   2
   3   0   9 999.276 94.4589   7
   4   0  -9 3.07800 1.92868   2
  -4   0   9 -0.7821 1.34911   1
   4   0   9 4.63203 2.05182   2
  -4   0  -9 -1.9609 1.58836   1
   4   0   9 4.39349 2.59918   5
   4   0   9 -0.7162 1.52057   8
   4   0  -9 0.01340 1.25961   8
   5   0   9 23.9645 3.73776   8
   5   0   9 25.8779 3.98563   2
  -5   0  -9 18.2191 3.42631   3
  -5   0  -9 21.6149 4.14243   1
   5   0  -9 12.7286 3.13841   8
  -5   0   9 26.4613 4.07189   1
   5   0   9 24.1215 5.01235   5
   5   0  -9 27.0468 3.79026   2
   6   0  -9 1.20026 1.27233   2
  -6   0  -9 -2.0404 1.48175   1
  -6   0  -9 -1.5628 1.48768   3
  -6   0   9 -1.0136 1.66749   1
   6   0   9 0.90172 1.41543   2
   6   0   9 1.65129 3.03268   5
   6   0  -9 1.13413 1.65612   8
   6   0   9 1.95407 1.69977   8
  -7   0   9 400.847 45.0629   1
   7   0   9 475.689 48.2869   5
   7   0   9 380.326 41.8900   8
  -7   0  -9 411.391 45.2747   1
  -7   0  -9 417.370 40.4376   3
  -8   0  -9 1.95281 2.16127   1
   8   0  -9 2.40822 1.92720   8
   8   0   9 -0.9712 1.67411   8
  -8   0  -9 -2.2938 1.68414   3
  -8   0   9 1.62637 2.24652   1
  -9   0   9 233.984 25.2411   1
   9   0   9 259.198 23.5998   8
  -9   0  -9 190.380 22.5019   3
   9   0  -9 237.416 23.4693   8
  -9   0  -9 201.807 25.3458   1
  10   0   9 -1.0339 1.91676   8
  10   0  -9 4.56074 2.16993   8
 -10   0   9 -0.5391 2.16271   1
 -10   0  -9 2.19350 2.82562   1
 -10   0  -9 1.24585 1.94722   3
 -11   0  -9 34.7666 5.43194   3
  11   0  -9 37.9841 5.44239   8
 -11   0  -9 44.2402 6.83136   1
  11   0   9 33.0393 5.30200   8
 -11   0   9 35.7364 5.98498   1
   0  -1   9 232.091 23.5889   7
   0  -1   9 207.661 23.2142   1
   0   1   9 218.745 23.4202   7
   0  -1  -9 240.814 23.5772   1
   0   1  -9 218.204 23.5048   1
   0   1   9 233.940 23.2749   1
   0  -1  -9 164.921 23.2167   2
   0   1  -9 199.345 23.4647   2
   0  -1   9 198.521 23.6129   2
   0   1   9 178.372 23.3837   2
  -1   1   9 3.63786 1.80140   1
  -1   1   9 3.86905 1.73417   7
   1  -1   9 6.07322 2.31101   2
  -1  -1  -9 3.29024 1.60776   2
   1  -1   9 -0.0524 1.34865   7
  -1   1   9 5.52379 2.08215   2
   1   1  -9 5.73470 2.07313   2
   1  -1   9 3.78153 2.50735   5
  -1  -1  -9 3.26607 1.97611   1
   1   1   9 3.09658 2.10490   2
  -1   1  -9 2.41978 2.05415   1
  -1  -1   9 2.25490 1.77023   7
  -1  -1   9 3.33715 2.04794   2
   1   1   9 1.96120 1.80761   7
  -1   1  -9 2.76251 1.77052   2
  -1  -1   9 5.48664 2.08083   1
   1  -1  -9 1.03685 1.66197   2
  -2   1   9 179.839 19.6330   2
  -2   1   9 171.775 19.1586   1
  -2  -1  -9 170.978 19.4236   2
   2   1  -9 188.411 19.4195   2
   2   1  -9 202.465 17.9545   8
   2  -1   9 209.607 18.2496   8
   2  -1   9 152.531 20.4036   5
  -2   1   9 160.891 19.3462   7
  -2  -1  -9 167.094 19.4420   7
   2  -1   9 160.293 19.5045   2
  -2  -1  -9 178.155 19.4042   1
   2  -1   9 142.509 19.1347   7
  -2   1  -9 152.340 19.2899   2
  -2   1  -9 205.169 19.6728   7
   2  -1  -9 165.343 17.8221   8
   2   1   9 154.583 19.4042   2
   2   1   9 168.528 19.2692   7
  -2  -1   9 136.494 19.2600   7
   2  -1  -9 181.375 19.4947   2
   2   1   9 195.927 20.6232   5
  -2   1  -9 163.145 19.3866   1
   2   1   9 159.301 17.9111   8
   3   1  -9 219.079 20.6635   8
   3  -1   9 217.001 23.7953   5
  -3  -1  -9 206.785 22.4784   7
   3  -1   9 214.513 20.9549   8
  -3  -1  -9 218.283 22.4316   1
   3   1  -9 199.175 22.3871   2
  -3   1   9 168.099 22.0651   1
   3  -1   9 201.087 22.0736   7
   3  -1  -9 182.533 21.8948   7
  -3  -1   9 189.838 22.1439   1
  -3   1  -9 243.950 22.7209   1
   3   1   9 172.543 20.6009   8
   3  -1  -9 174.202 20.5689   8
   3   1   9 212.163 22.5135   2
  -3   1  -9 165.586 22.3302   7
   3  -1  -9 229.756 22.6546   2
   4  -1   9 4.54443 2.29338   2
   4  -1   9 8.51210 2.36026   8
   4  -1   9 5.19171 2.89516   5
  -4  -1  -9 11.4279 2.79970   1
   4   1  -9 6.81100 2.11968   2
  -4   1   9 6.08748 2.28911   1
   4   1  -9 7.40543 2.08060   8
   4   1   9 8.66029 2.26821   8
   4   1   9 4.95266 2.69748   5
   4   1   9 7.29281 2.46628   2
   4  -1  -9 8.83714 2.40734   2
   4  -1  -9 5.52034 1.94545   8
  -4  -1   9 7.31820 2.35205   1
  -4   1  -9 2.86176 2.05632   1
  -5  -1  -9 34.4674 5.77410   1
  -5  -1  -9 35.0634 5.06435   3
  -5   1   9 49.3452 5.91629   1
   5  -1   9 48.1014 7.22148   5
   5   1  -9 33.9156 5.30694   2
   5   1  -9 46.9814 5.19795   8
   5  -1   9 42.5600 5.65148   2
   5  -1   9 41.9472 5.54312   8
   5   1   9 43.5856 5.67846   2
  -5   1  -9 31.6701 5.77146   1
   5   1   9 42.0577 5.32275   8
   5   1   9 37.8855 6.71860   5
   5  -1  -9 33.8747 5.14945   8
  -5   1  -9 30.8756 5.05820   3
  -5  -1   9 36.6632 5.66899   1
   5  -1  -9 38.9861 5.39296   2
   6  -1   9 30.0025 4.08893   2
  -6  -1  -9 26.4364 3.97423   3
   6  -1   9 26.0519 4.21970   8
  -6   1   9 14.3883 3.86645   1
   6   1  -9 29.9295 4.09581   8
   6  -1   9 22.0536 5.37334   5
  -6  -1  -9 24.0174 4.47897   1
   6   1  -9 28.2092 3.58665   2
  -6   1  -9 22.3274 3.98670   3
  -6  -1   9 26.8201 4.47810   1
  -6   1  -9 21.2647 4.40234   1
   6   1   9 31.3436 5.99254   5
   6  -1  -9 27.7579 3.70396   2
   6   1   9 27.3560 4.12480   8
   6  -1  -9 20.2420 3.78967   8
   6   1   9 30.3021 4.02753   2
  -7  -1  -9 1.73481 1.65999   3
  -7   1   9 0.68937 1.79386   1
   7  -1   9 0.06621 1.88786   8
  -7  -1  -9 -0.6562 1.92172   1
   7   1  -9 -0.3266 1.58789   8
   7  -1  -9 -0.0710 1.49375   8
  -7   1  -9 -0.6558 1.31669   3
   7   1   9 -0.4448 1.60888   8
  -7  -1   9 -1.0316 1.78619   1
  -7   1  -9 4.16135 2.60707   1
   7   1   9 6.08872 3.16898   5
  -8   1   9 226.236 22.7917   1
  -8  -1  -9 193.983 22.6782   1
  -8  -1  -9 217.938 20.3093   3
   8  -1   9 219.833 21.1950   8
   8   1  -9 169.677 20.7504   8
   8  -1  -9 192.636 20.8899   8
  -8  -1   9 204.371 22.5926   1
  -8   1  -9 186.183 20.2434   3
  -8   1  -9 195.470 22.7985   1
   8   1   9 199.768 20.9576   8
  -9   1   9 151.730 20.3792   1
  -9  -1  -9 166.792 20.5896   1
   9   1  -9 193.322 19.0293   8
  -9  -1  -9 139.951 18.1443   3
   9  -1   9 214.040 19.3514   8
  -9   1  -9 167.574 18.3976   3
  -9  -1   9 190.536 20.5850   1
   9  -1  -9 207.248 19.1513   8
  -9   1  -9 177.177 20.7885   1
   9   1   9 196.284 19.0996   8
  10   1  -9 16.9298 3.29539   8
 -10  -1  -9 14.9050 3.33931   3
  10  -1   9 15.7813 3.50990   8
 -10   1   9 12.9813 3.52826   1
 -10  -1  -9 17.3870 4.03516   1
 -10   1  -9 18.6584 4.30838   1
  10   1   9 12.4908 3.24453   8
 -10   1  -9 12.2420 3.19798   3
  10  -1  -9 19.9601 3.59005   8
 -10  -1   9 19.2730 3.96495   1
 -11  -1  -9 28.9318 5.42011   1
 -11   1   9 30.2791 5.26268   1
  11   1  -9 32.8850 4.79385   8
 -11  -1  -9 37.2851 5.08725   3
  11  -1   9 21.9920 4.56184   8
 -11   1  -9 29.8477 4.83552   3
 -11   1  -9 31.0621 5.62544   1
 -11  -1   9 22.9164 4.67383   1
  11  -1  -9 27.4186 4.66920   8
  11   1   9 35.9686 4.86772   8
   0  -2   9 1.34573 2.14631   5
   0   2   9 2.21534 1.72247   1
   0   2  -9 3.71303 1.88678   2
   0  -2   9 1.38664 1.90964   1
   0  -2  -9 2.03254 1.69998   2
   0  -2   9 1.38916 1.54386   7
   0   2   9 1.73861 1.31587   7
   0   2   9 0.92156 1.77474   2
   0   2  -9 -0.0551 1.84512   1
   0  -2  -9 1.10066 1.91000   1
   0  -2   9 -1.1294 1.17651   2
   1   2  -9 84.7113 10.2216   2
   1  -2   9 71.6602 10.6977   5
  -1   2   9 80.9089 9.93000   7
  -1   2   9 85.9328 10.0301   1
  -1   2   9 95.7476 10.4088   2
  -1  -2  -9 87.0457 10.1312   1
   1  -2   9 84.2830 10.0791   7
  -1  -2  -9 87.3713 10.1144   2
   1   2   9 63.5145 9.90182   2
  -1  -2   9 89.2928 10.3759   2
   1   2   9 90.8376 10.1265   7
  -1  -2   9 91.1956 10.1287   1
  -1  -2   9 70.5276 9.98057   7
  -1   2  -9 93.0540 10.4768   1
  -1   2  -9 69.1025 10.0479   2
   1  -2  -9 81.1783 10.1033   2
  -2  -2  -9 8.63893 2.34668   2
  -2   2   9 7.05798 2.20392   7
   2  -2   9 9.70387 2.86444   2
  -2  -2  -9 5.76590 2.35796   1
   2  -2   9 4.77061 2.64004   5
   2   2  -9 10.1146 2.34071   8
  -2   2   9 2.62139 1.87756   1
   2   2  -9 9.86955 2.49570   2
   2  -2   9 4.97568 2.13299   7
  -2   2   9 7.15758 2.62882   2
  -2  -2  -9 7.71950 2.38482   7
  -2   2  -9 11.6792 2.82716   2
   2   2   9 9.01649 2.56325   2
  -2  -2   9 5.74066 2.29421   1
   2  -2  -9 8.77188 2.51498   2
  -2  -2   9 8.32612 2.59260   2
  -2   2  -9 6.59291 2.63711   1
   2   2   9 6.89111 2.08321   8
   2  -2  -9 6.74480 2.11053   8
   3   2  -9 119.012 15.5456   8
   3  -2   9 166.636 18.3507   5
   3   2  -9 136.785 16.9645   2
  -3  -2  -9 138.628 17.0475   7
   3  -2   9 110.979 15.6545   8
   3  -2   9 161.294 17.4328   2
  -3  -2  -9 182.153 17.3548   1
  -3   2   9 158.205 17.0584   1
   3   2   9 160.636 15.7907   8
  -3   2  -9 173.310 17.4396   1
   3  -2  -9 187.740 17.4713   2
   3  -2  -9 145.886 16.6151   7
  -3  -2   9 128.321 16.8517   1
  -3   2  -9 163.703 17.3056   7
   3   2   9 114.688 17.8631   5
   3   2   9 170.193 17.4035   2
   4  -2   9 61.0713 9.69677   5
  -4   2   9 90.7628 9.28084   1
   4  -2   9 59.2356 8.94978   2
   4   2  -9 83.3006 10.2831   4
   4   2  -9 55.3406 8.69597   2
  -4  -2  -9 63.9515 9.07593   1
   4  -2   9 87.1391 8.75244   8
   4   2  -9 65.2706 8.18029   8
   4   2   9 82.6353 9.24665   2
   4   2   9 70.2480 10.2287   5
  -4   2  -9 69.7214 9.30152   1
   4  -2  -9 87.5023 8.51835   8
  -4  -2   9 82.5780 9.10658   1
   4  -2  -9 66.3212 8.95006   2
   4   2   9 72.3590 8.30544   8
   5   2  -9 80.3816 7.44978   8
   5  -2   9 63.9567 7.92717   2
  -5  -2  -9 67.1726 7.09195   3
   5   2  -9 55.7650 7.59709   2
  -5   2   9 50.6975 7.77946   1
   5  -2   9 59.9818 9.43707   5
  -5  -2  -9 65.6391 8.16993   1
   5  -2   9 50.0007 7.46075   8
   5   2   9 67.8946 7.41122   8
   5   2   9 61.7995 10.0317   4
  -5   2  -9 82.1384 8.64597   1
   5   2   9 51.7702 7.72378   2
   5  -2  -9 58.9778 7.69939   2
   5  -2  -9 47.6767 7.12108   8
   5   2   9 65.3730 9.07465   5
  -6   2   9 557.570 65.7339   1
   6  -2   9 582.451 66.0694   2
  -6  -2  -9 528.908 65.7590   1
  -6  -2  -9 640.496 58.8208   3
   6   2  -9 538.862 65.7101   2
   6  -2   9 691.783 69.7661   5
   6   2   9 660.450 73.7247   4
  -6   2  -9 657.723 59.0237   3
   6  -2  -9 648.777 61.2948   8
   6   2   9 626.476 69.2410   5
  -6   2  -9 593.147 66.0152   1
   6  -2  -9 513.827 65.8185   2
   6   2   9 668.239 65.9886   2
   6   2   9 677.128 61.3733   8
  -7   2   9 201.775 22.6959   1
  -7  -2  -9 188.482 22.6869   1
   7   2  -9 170.558 20.8148   8
  -7  -2  -9 210.547 20.2354   3
   7   2   9 186.599 24.3056   5
  -7   2  -9 229.922 20.5261   3
   7   2   9 199.038 21.0166   8
  -7   2  -9 219.001 23.0503   1
   7  -2  -9 204.465 21.0047   8
   7   2   9 208.392 26.3429   4
   8  -2   9 7.13844 2.32373   8
  -8   2   9 6.73654 2.71946   1
   8   2  -9 9.23951 2.33462   8
  -8  -2  -9 5.20676 2.66638   1
  -8  -2  -9 7.24304 2.23878   3
  -8  -2   9 8.25877 2.60609   1
  -8   2  -9 5.49984 2.21699   3
   8   2   9 8.84403 4.54429   4
   8   2   9 3.38051 2.07524   8
  -8   2  -9 7.56546 2.91877   1
   8  -2  -9 4.69954 2.17906   8
  -9  -2  -9 62.5904 8.80684   1
   9   2  -9 73.6987 7.95738   8
  -9  -2  -9 71.1764 7.83756   3
   9  -2   9 56.2229 8.32970   8
  -9   2   9 85.9124 9.13031   1
   9  -2  -9 70.3883 8.04882   8
  -9  -2   9 71.2131 8.90721   1
  -9   2  -9 65.7118 7.99244   3
   9   2   9 59.8802 7.95323   8
  -9   2  -9 44.9868 8.78701   1
 -10  -2  -9 54.8391 7.41064   1
 -10  -2  -9 38.1530 5.83732   3
  10   2  -9 60.8964 6.30304   8
  10  -2   9 52.5155 6.82863   8
 -10   2   9 44.8843 7.02204   1
 -10  -2   9 34.2257 6.56835   1
  10   2   9 39.3548 6.05005   8
 -10   2  -9 41.8821 6.13690   3
 -10   2  -9 55.5167 7.76109   1
  10  -2  -9 47.6409 6.28068   8
 -11  -2  -9 4.72573 2.27532   3
 -11   2   9 2.14141 2.64705   1
  11   2  -9 2.82848 2.09429   8
  11  -2   9 5.84694 2.52627   8
 -11  -2  -9 4.75053 2.74960   1
 -11   2  -9 4.44547 3.10277   1
  11   2   9 3.17484 2.21219   8
  11  -2  -9 5.39108 2.39551   8
 -11  -2   9 2.77018 2.84145   1
 -11   2  -9 5.04192 2.56224   3
   0   3   9 60.1280 9.49139   1
   0  -3   9 84.1607 10.0477   2
   0   3   9 89.9649 10.0301   2
   0  -3  -9 73.1625 9.79168   2
   0  -3   9 72.4911 10.3140   5
   0  -3   9 77.0713 9.76032   7
   0   3  -9 100.672 10.1947   1
   0  -3   9 66.7026 9.75119   1
   0   3  -9 97.9249 10.2384   2
   0   3   9 90.4177 9.90695   7
   0  -3  -9 72.3347 9.76774   1
   1  -3   9 118.899 14.5013   1
  -1  -3  -9 132.976 14.5940   1
   1   3  -9 119.972 14.4522   2
   1  -3   9 114.249 14.3618   7
   1  -3   9 110.009 15.0652   5
   1  -3   9 147.202 14.9191   2
  -1   3   9 115.334 14.5221   2
  -1   3   9 141.247 14.6490   7
  -1  -3  -9 148.143 14.7075   2
  -1  -3   9 129.332 14.4956   1
  -1  -3   9 123.534 14.5289   7
  -1  -3   9 112.894 14.5222   2
  -1   3  -9 115.396 14.5433   1
  -1   3  -9 104.342 14.5206   2
   1  -3  -9 137.681 14.7138   2
  -1  -3   9 134.764 15.1673   5
   1   3   9 105.575 14.1499   7
   2   3  -9 302.946 31.6614   2
   2  -3   9 299.143 32.9905   5
  -2   3   9 234.066 31.4665   2
   2   3  -9 295.870 29.1716   8
  -2  -3  -9 319.433 31.7368   2
  -2  -3  -9 284.262 31.3672   1
   2  -3   9 347.265 32.0695   2
  -2   3   9 330.829 31.4161   1
  -2  -3   9 267.830 32.5340   5
   2   3   9 245.459 31.5116   2
  -2  -3   9 260.613 31.5993   2
  -2   3  -9 267.397 31.4934   1
  -2  -3   9 345.016 31.4824   1
   2  -3  -9 235.150 31.4536   2
  -2   3  -9 240.326 31.6503   2
   3   3  -9 5.84321 2.14331   2
  -3  -3  -9 5.84182 1.74804   7
   3  -3   9 1.95052 1.82658   8
   3   3  -9 0.58039 1.64879   8
  -3  -3  -9 3.90626 2.09057   1
   3  -3   9 3.46327 2.59407   5
   3  -3   9 3.07011 2.11642   2
  -3   3   9 0.73168 1.77827   1
  -3  -3   9 3.54196 2.12229   1
   3   3   9 4.36728 2.24191   2
  -3   3  -9 3.31643 1.85258   7
   3  -3  -9 4.17514 1.85676   8
  -3   3  -9 3.25970 2.49104   1
   3   3   9 4.89380 1.81293   8
   3   3   9 4.06454 2.66259   4
   3   3   9 0.01650 2.36817   5
   3  -3  -9 2.26720 1.80816   2
  -4   3   9 33.3133 4.75455   1
  -4  -3  -9 25.1403 4.62044   1
   4   3  -9 30.1743 5.68231   4
   4  -3   9 32.8419 5.09231   2
   4  -3   9 32.3095 4.42421   8
   4  -3   9 22.5474 5.09918   5
   4   3  -9 25.7025 4.07174   8
   4   3  -9 31.3731 4.52447   2
   4  -3  -9 29.8901 4.67948   2
   4   3   9 34.6957 5.86716   5
   4   3   9 33.8366 5.92344   4
  -4  -3   9 29.4930 4.71579   1
   4   3   9 34.9129 4.52860   8
   4  -3  -9 20.5112 3.93145   8
   4   3   9 20.5121 4.34231   2
  -4   3  -9 18.9165 4.56727   1
   5  -3   9 4.71923 2.53290   5
   5  -3   9 1.50958 1.64977   8
  -5  -3  -9 -0.0985 1.55743   3
  -5   3   9 0.77062 1.79187   1
   5  -3   9 0.34621 1.82510   2
  -5  -3  -9 7.04976 2.42165   1
   5   3  -9 0.40441 1.48012   8
   5   3  -9 3.43567 1.75352   2
   5   3   9 1.34307 1.71045   8
   5  -3  -9 3.36062 1.80642   8
   5   3   9 -1.4666 2.56409   4
   5   3   9 2.32706 3.04257   5
  -5  -3   9 1.43446 1.95490   1
   5  -3  -9 0.64369 1.69212   2
   5   3   9 2.54639 1.97032   2
  -5   3  -9 1.69667 2.19810   1
   6   3  -9 515.342 47.1900   8
   6  -3   9 459.693 50.9063   2
  -6   3   9 467.949 50.6907   1
  -6  -3  -9 450.423 45.3513   3
   6   3  -9 429.470 50.4630   2
  -6  -3  -9 489.966 50.8538   1
  -6  -3   9 474.615 50.7932   1
   6  -3  -9 496.283 47.2753   8
   6   3   9 546.878 57.1694   4
   6  -3  -9 492.110 50.7720   2
   6   3   9 479.942 53.4833   5
   6   3   9 425.372 50.6662   2
   6   3   9 373.432 47.0418   8
   7   3  -9 15.9456 3.08809   8
  -7  -3  -9 14.2844 2.94004   3
   7  -3   9 13.5665 3.18552   8
   7  -3   9 15.4440 2.48113   2
  -7   3   9 17.3964 3.46939   1
  -7  -3  -9 13.2743 3.47135   1
   7   3   9 16.1950 5.00656   4
   7  -3  -9 14.3514 3.13821   8
   7   3   9 11.6229 2.91722   8
  -7  -3   9 12.6132 3.46850   1
  -7   3  -9 12.2707 3.07550   3
  -7   3  -9 12.2303 3.59649   1
   7   3   9 18.5894 4.46608   5
   8  -3   9 3.18781 2.32800   8
   8   3  -9 -0.2121 1.68896   8
  -8   3   9 4.57234 2.59126   1
  -8  -3  -9 1.20121 2.31708   1
  -8  -3  -9 3.28034 1.89305   3
  -8   3  -9 3.38240 2.21955   3
   8  -3  -9 2.04980 2.04036   8
   8   3   9 3.32691 2.04919   8
  -8   3  -9 0.41252 2.43175   1
   8   3   9 1.43470 3.34745   4
  -8  -3   9 1.91597 2.34734   1
  -9  -3  -9 188.833 18.8227   3
  -9  -3  -9 183.132 21.1821   1
   9   3  -9 172.621 19.3198   8
  -9   3   9 174.959 20.9925   1
   9  -3   9 204.031 19.8899   8
   9  -3  -9 184.628 19.5713   8
   9   3   9 166.821 19.3914   8
  -9  -3   9 155.889 20.8962   1
  -9   3  -9 232.429 19.3369   3
  -9   3  -9 164.748 21.2348   1
   9   3   9 240.911 25.7647   4
 -10  -3  -9 88.6438 12.1642   1
 -10   3   9 113.066 12.4083   1
  10   3  -9 100.886 11.0988   8
 -10  -3  -9 101.221 10.8156   3
  10  -3   9 80.1041 11.1586   8
 -10   3  -9 107.428 11.1720   3
 -10   3  -9 109.214 12.5587   1
  10  -3  -9 101.848 11.3352   8
 -10  -3   9 78.6173 11.9650   1
  10   3   9 105.430 11.2890   8
 -11   3   9 15.4143 3.95713   1
 -11  -3  -9 14.0039 3.29187   3
 -11  -3  -9 16.9834 4.23120   1
  11  -3   9 13.6604 3.59455   8
  11   3  -9 17.7688 3.31319   8
 -11  -3   9 10.7623 3.57890   1
  11   3   9 10.5057 3.20919   8
 -11   3  -9 17.3258 3.70425   3
 -11   3  -9 15.5192 4.27330   1
  11  -3  -9 15.5996 3.40957   8
   0  -4  -9 -0.0079 1.77062   2
   0  -4   9 1.71969 1.57417   7
   0  -4   9 1.52909 1.97715   2
   0  -4   9 2.38309 2.23889   5
   0   4   9 1.76453 1.58990   1
   0  -4   9 -1.9552 1.72214   1
   0   4   9 -1.3704 1.64314   7
   0   4  -9 3.98783 2.27279   2
   0   4   9 -0.3180 1.79646   2
   0   4  -9 -0.2098 2.13788   1
   0  -4  -9 0.88422 1.83099   1
   1  -4   9 81.8269 10.7133   5
  -1  -4  -9 81.9438 10.4042   2
  -1   4   9 79.4264 10.0451   7
  -1  -4  -9 89.9412 10.3551   1
   1  -4   9 90.2336 10.2678   7
   1  -4   9 89.4749 10.4519   2
  -1   4   9 79.9827 10.0312   1
  -1   4   9 88.4860 10.4029   2
   1  -4   9 103.916 10.5321   1
   1   4  -9 101.215 10.6083   2
  -1  -4   9 80.9472 10.3930   2
  -1  -4   9 71.3115 10.1667   7
   1  -4  -9 100.886 10.8230   1
  -1  -4   9 69.7619 10.5109   5
   1   4   9 81.5404 9.93115   7
  -1  -4   9 64.6826 10.0396   1
   1  -4  -9 87.0215 10.4328   2
   1   4   9 81.3958 10.3188   2
  -1   4  -9 67.6167 10.0423   1
   1   4   9 73.4021 10.7310   4
  -1   4  -9 84.2424 10.6898   2
  -2   4   9 7.30003 2.67476   2
   2  -4   9 8.51766 2.82282   2
  -2  -4  -9 9.43351 2.67369   2
   2   4  -9 10.9880 2.82083   2
  -2   4   9 11.6336 2.82846   1
  -2  -4  -9 7.05702 2.59948   1
   2  -4   9 12.6479 3.44655   5
  -2  -4   9 6.17907 2.89016   2
  -2  -4   9 10.6581 2.89824   5
   2  -4  -9 5.83964 2.51973   2
   2   4   9 7.39616 2.73212   4
  -2   4  -9 11.4138 2.97419   2
  -2  -4   9 4.34002 2.43698   1
  -2   4  -9 11.1678 2.97966   1
   2   4   9 12.1636 3.05119   2
  -3  -4  -9 3.41719 2.15646   1
   3   4  -9 8.99564 2.45875   8
  -3   4   9 7.14359 2.39165   1
   3  -4   9 4.48251 2.75744   5
   3   4  -9 1.32299 1.98747   2
   3  -4   9 6.90376 2.61922   2
  -3  -4   9 5.27313 2.45465   1
   3   4   9 5.47172 1.97861   8
  -3   4  -9 3.92929 2.48189   1
   3   4   9 10.7355 2.80600   2
   3  -4  -9 6.57266 2.31427   8
   3   4   9 7.82826 3.17089   4
   3  -4  -9 11.5839 2.89774   2
  -3  -4   9 10.1832 2.85053   5
   4  -4   9 63.0917 6.68177   8
   4  -4   9 41.3207 7.04651   2
   4   4  -9 46.8758 6.46454   8
  -4  -4  -9 61.5076 7.24264   1
   4  -4   9 50.6114 8.23195   5
  -4   4   9 50.0477 6.83324   1
   4   4  -9 46.9675 6.63041   2
  -4   4  -9 63.6778 7.44314   1
   4   4   9 41.6239 8.03733   4
   4   4   9 54.9532 8.27030   5
   4  -4  -9 45.5058 6.90692   2
  -4  -4   9 53.7368 7.09384   1
   4   4   9 38.1993 6.73510   2
   4  -4  -9 51.7818 6.42134   8
   5   4  -9 154.221 17.6449   2
   5  -4   9 145.558 17.9764   2
  -5  -4  -9 155.135 17.9953   1
   5   4  -9 147.349 20.0435   4
   5  -4   9 164.565 16.7162   8
  -5   4   9 168.794 17.8839   1
   5   4  -9 129.499 16.3627   8
   5   4   9 159.331 19.2578   5
  -5  -4   9 150.497 17.8742   1
  -5   4  -9 154.644 18.1504   1
   5  -4  -9 151.102 17.7930   2
   5   4   9 179.861 16.7614   8
   5   4   9 161.837 17.7594   2
   5   4   9 146.106 20.2644   4
   5  -4  -9 158.572 16.5966   8
   6   4  -9 12.9970 2.41247   2
  -6   4   9 10.3485 3.07586   1
   6  -4   9 15.6353 3.14265   8
  -6  -4  -9 12.8734 2.79385   3
   6  -4   9 11.2663 2.92948   2
   6   4  -9 10.5651 2.60671   8
  -6  -4  -9 12.2896 3.31401   1
   6   4   9 9.60904 2.75328   8
   6   4   9 8.22936 3.90723   5
   6   4   9 7.95324 2.39347   2
  -6  -4   9 10.5512 3.27473   1
  -6   4  -9 11.4797 3.36331   1
   6   4   9 15.8070 4.64783   4
   6  -4  -9 12.5559 2.73810   2
   6  -4  -9 15.4331 3.07482   8
  -7  -4  -9 13.0006 3.23995   1
  -7  -4  -9 8.01144 2.41794   3
   7  -4   9 13.6006 2.48760   2
  -7   4   9 9.97021 3.14196   1
   7   4  -9 12.6667 2.87682   8
   7  -4   9 15.3589 3.22756   8
   7   4   9 13.5473 4.67289   4
  -7   4  -9 6.74678 3.29186   1
  -7  -4   9 14.5988 3.57211   1
   7  -4  -9 8.51136 2.84672   8
   7   4   9 13.0538 2.99082   8
  -8  -4  -9 4.76038 2.30632   3
  -8   4   9 6.26858 2.72783   1
  -8  -4  -9 5.93457 2.87664   1
   8   4  -9 5.81315 2.28469   8
   8  -4   9 7.60398 2.77131   8
   8   4   9 0.49095 4.83001   4
   8  -4  -9 6.99546 2.45972   8
  -8   4  -9 3.31223 2.73727   1
  -8  -4   9 5.37902 2.75944   1
   8   4   9 6.20035 2.39858   8
  -9   4   9 455.599 48.2828   1
   9  -4   9 500.969 45.1981   8
   9   4  -9 379.307 44.6806   8
  -9  -4  -9 448.661 43.2091   3
  -9  -4  -9 427.987 48.3425   1
   9   4   9 399.482 54.5178   4
  -9   4  -9 458.592 48.5108   1
   9   4   9 457.688 45.0324   8
  -9   4  -9 465.705 43.4891   3
  -9  -4   9 459.028 48.5350   1
   9  -4  -9 401.838 44.9131   8
  10  -4   9 64.4291 7.70864   8
 -10  -4  -9 65.4987 7.40325   3
 -10   4   9 62.0649 8.19146   1
 -10  -4  -9 45.7042 7.99569   1
  10   4  -9 58.1107 7.34772   8
  10  -4  -9 61.0282 7.59492   8
 -10   4  -9 59.3626 7.65976   3
 -10   4  -9 62.3958 8.52754   1
  10   4   9 42.0981 7.20648   8
 -10  -4   9 58.4428 8.67920   1
  11  -4   9 20.5483 4.48276   8
  11   4  -9 28.4080 4.46855   8
 -11  -4  -9 24.5031 4.24364   3
 -11  -4  -9 18.3046 4.87456   1
 -11   4   9 24.5373 4.85171   1
 -11   4  -9 26.6944 5.20212   1
 -11   4  -9 22.4415 4.48258   3
 -11  -4   9 23.3665 5.05831   1
  11  -4  -9 19.4694 4.34101   8
  11   4   9 29.3227 4.52925   8
   0   5   9 661.094 63.6496   7
   0   5  -9 564.515 63.0407   1
   0   5   9 499.921 63.2917   2
   0   5  -9 533.373 63.5631   2
   0  -5  -9 667.512 62.9570   1
   0  -5   9 581.069 62.7992   1
   0   5   9 580.034 62.6881   1
   0  -5   9 539.942 65.3317   5
  -1   5   9 138.749 14.7540   7
   1  -5   9 122.971 14.6679   1
   1  -5   9 125.571 14.7321   1
   1   5  -9 126.523 14.9489   2
  -1  -5  -9 119.031 14.6175   1
  -1  -5  -9 122.890 14.8013   2
   1  -5   9 135.641 14.7547   7
   1  -5   9 121.685 14.8054   2
   1  -5   9 120.174 15.1334   5
  -1   5   9 118.780 14.7488   2
   1   5   9 124.224 14.7547   2
  -1   5  -9 123.211 15.0975   2
  -1   5  -9 121.356 14.8056   1
  -1  -5   9 98.8751 14.6875   2
   1  -5  -9 123.727 14.6742   2
  -1  -5   9 129.587 15.0760   5
  -2  -5  -9 11.2618 2.98272   2
   2  -5   9 9.33348 3.12819   5
  -2   5   9 9.95647 2.90064   2
  -2  -5  -9 7.47670 2.91603   1
   2   5  -9 9.81910 2.91194   2
  -2   5   9 2.63455 1.96931   1
   2  -5   9 6.66404 2.76846   2
   2  -5  -9 11.1133 2.97585   2
   2   5   9 14.3813 3.05169   4
   2   5   9 11.0732 2.85191   2
  -2   5  -9 5.49351 2.80741   1
  -2  -5   9 7.34955 2.48792   5
  -2   5  -9 9.20091 3.27110   2
  -2  -5   9 4.37091 2.37221   1
  -3   5   9 344.828 34.8267   1
   3  -5   9 350.198 35.4284   2
   3   5  -9 336.323 32.5952   8
   3  -5   9 293.240 36.5411   5
   3   5  -9 351.529 35.1651   2
  -3  -5  -9 378.834 35.2098   1
  -3  -5   9 334.589 35.0618   1
  -3  -5   9 312.005 36.1273   5
   3  -5  -9 251.875 34.9081   2
  -3   5  -9 310.516 34.9386   1
   3   5   9 269.728 38.2642   4
   3   5   9 270.311 35.0428   2
   4  -5   9 348.115 33.8460   2
  -4   5   9 287.073 33.0620   1
  -4  -5  -9 288.358 33.1822   1
   4   5  -9 252.787 30.7038   8
   4   5  -9 270.759 33.2170   2
   4   5   9 320.709 35.0050   5
   4   5   9 232.021 30.5806   8
   4  -5  -9 323.524 30.9035   8
   4  -5  -9 344.393 33.5689   2
  -4  -5   9 369.516 33.6725   1
  -4   5  -9 331.068 33.4063   1
   4   5   9 260.066 36.6613   4
   5   5  -9 48.0585 6.73453   2
   5   5  -9 68.5820 9.87545   4
   5   5  -9 54.4230 6.73984   8
  -5   5   9 50.1451 7.40378   1
   5  -5   9 58.6998 7.63110   2
   5  -5   9 56.3153 7.12195   8
  -5  -5  -9 54.1737 7.71597   1
   5   5   9 64.7966 9.60790   4
   5   5   9 56.3595 8.68394   5
   5   5   9 49.7005 6.82145   8
   5   5   9 42.2705 6.91513   2
  -5   5  -9 56.1191 7.82093   1
  -5  -5   9 42.8836 7.42967   1
   5  -5  -9 47.5816 7.15932   2
   5  -5  -9 49.2677 6.83790   8
   6   5  -9 79.6892 10.8021   4
   6  -5   9 68.2432 8.29195   8
  -6  -5  -9 65.2355 8.91659   1
   6   5  -9 80.0671 8.11459   2
  -6   5   9 46.8659 8.54991   1
   6   5  -9 55.2617 7.86782   8
   6  -5   9 67.4198 8.61249   2
   6   5   9 63.5597 8.21394   2
   6   5   9 74.5268 8.24383   8
   6  -5  -9 59.5227 8.33683   2
  -6  -5   9 71.1360 9.14312   1
  -6   5  -9 74.6291 9.15360   1
   6  -5  -9 68.5032 8.21506   8
   6   5   9 51.2173 10.2469   4
   7  -5   9 37.3923 5.30337   8
   7  -5   9 34.4886 4.76055   2
   7   5  -9 40.3439 5.26116   8
  -7  -5  -9 37.1144 5.75890   1
  -7   5   9 26.9499 5.28335   1
  -7   5  -9 32.0633 5.64281   1
   7  -5  -9 27.8647 4.86240   8
  -7  -5   9 25.4778 5.38795   1
   7  -5  -9 27.8629 4.23615   2
   7   5   9 33.8530 7.84670   4
   7   5   9 35.2999 5.10566   8
  -8  -5  -9 25.3008 5.12945   1
   8  -5   9 36.0643 5.29268   8
   8   5  -9 24.9084 4.51605   8
  -8   5   9 25.1572 5.12259   1
  -8  -5  -9 27.7133 4.53138   3
   8   5   9 31.4508 4.81722   8
   8  -5  -9 34.1775 5.12944   8
   8   5   9 23.8984 6.72021   4
  -8  -5   9 29.7048 5.52768   1
  -8   5  -9 32.9896 5.63878   1
  -9   5   9 4.38723 2.78170   1
  -9  -5  -9 7.50312 2.65182   3
   9  -5   9 11.2028 3.24086   8
  -9  -5  -9 6.57233 2.82722   1
   9   5  -9 7.70123 2.70785   8
  -9   5  -9 2.12740 2.96846   1
   9   5   9 2.63136 2.38135   8
  -9  -5   9 5.66144 3.01355   1
   9   5   9 7.88509 4.83638   4
   9  -5  -9 4.25423 2.62795   8
 -10  -5  -9 56.1891 6.90999   3
 -10   5   9 50.7830 7.68048   1
  10  -5   9 60.8307 7.53572   8
  10   5  -9 53.4938 6.99498   8
 -10  -5  -9 50.7908 7.68845   1
 -10  -5   9 41.4976 7.48441   1
  10  -5  -9 55.8032 7.27477   8
  10   5   9 40.5556 6.71174   8
 -10   5  -9 43.8792 7.85327   1
 -11  -5  -9 0.18314 2.83654   1
  11   5  -9 3.07351 2.53434   8
 -11  -5  -9 1.89501 2.53885   3
  11  -5   9 3.24035 2.82726   8
 -11   5   9 5.40495 2.95712   1
  11  -5  -9 6.98225 3.01455   8
 -11  -5   9 5.60043 3.29210   1
 -11  -5   9 2.44820 2.64792   6
  11   5   9 11.8376 3.14848   8
 -11   5  -9 2.11222 3.02033   1
   0   6   9 0.12688 2.06228   2
   0   6   9 -1.5886 1.79932   1
   0   6  -9 -0.3263 2.12233   2
   0   6   9 -0.6621 1.80055   7
   0  -6   9 -0.9744 1.95889   1
   0  -6   9 0.46312 2.20938   1
   0  -6   9 0.46365 1.69927   7
   0  -6   9 2.03313 2.53362   2
   0  -6   9 3.27946 2.27297   5
   0  -6  -9 2.25355 2.12583   1
   0  -6  -9 2.33470 2.31971   2
  -1   6   9 66.5864 10.4249   1
  -1  -6  -9 88.0759 11.0155   2
   1  -6   9 100.116 11.4013   2
   1   6  -9 103.406 11.5635   2
   1  -6   9 74.1863 11.1484   5
  -1  -6  -9 111.294 11.4107   1
  -1   6   9 100.127 11.2502   2
  -1   6  -9 87.9927 11.4273   2
  -1  -6   9 93.7506 11.1377   5
   1   6   9 78.1894 10.9138   2
   1  -6  -9 97.2177 11.1768   2
  -1   6  -9 72.4057 11.0184   1
  -1  -6   9 120.343 11.8366   2
  -1  -6   9 63.5338 10.5819   1
  -2   6   9 23.7826 4.47091   2
  -2   6   9 17.8193 3.79916   1
   2  -6   9 13.4025 4.00590   5
  -2  -6  -9 16.9216 3.79358   1
   2  -6   9 25.2898 4.62963   2
   2   6  -9 19.5331 4.37548   2
   2   6   9 14.9372 3.73106   2
  -2  -6   9 23.7422 4.16071   5
  -2   6  -9 18.2045 4.33384   1
  -2   6  -9 22.4561 4.52187   2
  -2  -6   9 15.5839 3.69086   1
   2  -6  -9 19.0825 4.19659   2
  -3   6   9 21.0923 4.06963   1
   3  -6   9 15.9090 4.07116   5
   3  -6   9 16.3024 4.03458   2
   3   6  -9 21.7923 4.11836   2
  -3  -6  -9 17.3238 3.89908   1
  -3  -6   9 19.8901 4.18003   1
  -3   6  -9 19.0939 4.52178   1
   3   6   9 19.9105 3.94938   2
   3  -6  -9 17.6864 3.97134   2
   3   6   9 21.5625 4.53413   4
   4  -6   9 8.74879 3.22153   2
   4   6  -9 5.05793 2.52268   2
   4   6  -9 8.32382 2.45201   8
  -4   6   9 11.2225 3.12043   1
  -4  -6  -9 6.09480 2.91815   1
   4   6   9 11.6684 3.02239   2
  -4  -6   9 8.05432 3.04642   1
   4  -6  -9 11.6376 3.05073   2
   4   6   9 10.8980 2.77512   8
   4   6   9 11.3254 3.52288   4
   4   6   9 9.48420 3.95337   5
  -4   6  -9 10.9932 3.56167   1
   5   6  -9 120.930 17.4674   4
   5   6  -9 133.042 14.3519   2
  -5   6   9 132.344 14.7735   1
  -5  -6  -9 113.938 14.5826   1
   5   6  -9 121.371 13.6750   8
   5  -6   9 154.280 15.1836   2
   5   6   9 115.354 16.5136   4
   5   6   9 101.896 13.3668   8
  -5   6  -9 84.5961 14.5360   1
  -5  -6   9 132.399 14.9520   1
   5  -6  -9 102.844 14.3632   2
   5  -6  -9 134.109 13.7369   8
   5   6   9 141.346 14.5451   2
   5   6   9 133.549 16.1355   5
   6  -6   9 43.1072 6.62249   2
  -6  -6  -9 41.3601 6.61497   1
   6  -6   9 42.0657 6.31442   8
   6   6  -9 41.9295 8.69428   4
   6   6  -9 39.8564 5.70446   2
  -6   6   9 35.8110 6.46311   1
   6   6  -9 48.9867 6.32325   8
  -6  -6   9 48.7924 7.03182   1
   6   6   9 52.4788 9.17318   4
   6  -6  -9 32.2937 5.94479   2
   6   6   9 53.0501 6.23836   2
   6  -6  -9 45.4083 6.21718   8
   6   6   9 53.4833 6.48292   8
  -6   6  -9 26.6083 6.39103   1
   7   6  -9 10.9942 3.00120   8
  -7  -6  -9 9.28657 3.28680   1
  -7   6   9 7.90196 3.02684   1
   7  -6   9 12.0801 2.83054   2
   7  -6   9 6.30871 2.94344   8
   7   6   9 6.57408 2.52643   8
   7  -6  -9 11.1694 3.08304   8
   7   6   9 6.24988 3.96888   4
  -7   6  -9 14.0399 3.91334   1
  -7  -6   9 8.80925 3.48180   1
   7  -6  -9 10.6367 2.40238   2
  -8   6   9 7.96575 3.31895   1
  -8  -6  -9 9.28581 3.50592   1
   8   6  -9 7.46718 2.83523   8
   8  -6   9 8.23472 3.25999   8
   8   6   9 18.0346 4.87506   4
  -8   6  -9 9.12648 3.73976   1
   8  -6  -9 7.37012 2.79706   8
   8   6   9 9.69913 3.01171   8
  -8  -6   9 8.89790 3.58786   1
   9   6  -9 8.42629 3.06522   8
  -9  -6  -9 8.91717 3.35612   1
   9  -6   9 5.35985 2.92272   8
  -9   6   9 8.94169 3.43421   1
  -9   6  -9 6.19820 3.40322   1
   9   6   9 -2.1177 4.71254   4
  -9  -6   9 12.1180 3.81713   1
  -9  -6   9 10.4682 3.35987   6
   9   6   9 11.1302 3.04122   8
   9  -6  -9 11.4590 3.22126   8
  10   6  -9 0.68868 2.50173   8
 -10   6   9 0.95712 2.64979   1
 -10  -6  -9 -0.0674 2.09934   3
 -10  -6  -9 3.28278 2.86921   1
  10  -6   9 1.90223 2.51802   8
 -10  -6   9 0.32874 2.42675   6
 -10  -6   9 2.19210 2.72630   1
  10  -6  -9 0.81579 2.56780   8
  10   6   9 0.23480 2.40711   8
 -10   6  -9 -2.5138 2.71110   1
   0   7  -9 708.266 91.7078   2
   0  -7   9 939.433 90.9872   1
   0  -7  -9 820.549 91.6552   2
   0  -7   9 848.867 94.4392   5
   0  -7   9 775.958 91.7570   2
   0   7   9 915.168 91.8714   2
   0  -7  -9 872.165 90.8616   1
  -1   7   9 42.9274 7.49241   2
   1  -7   9 60.3037 8.42962   2
  -1  -7  -9 51.0051 7.86445   2
   1   7  -9 48.6990 7.92006   2
  -1  -7  -9 60.8453 7.67410   1
   1  -7   9 40.6023 7.61104   5
  -1   7   9 55.5305 7.64315   1
   1  -7  -9 51.2070 7.63552   2
  -1   7  -9 53.4882 8.03084   2
  -1  -7   9 57.3656 7.90442   1
   1   7   9 54.5449 7.86592   2
  -1  -7   9 53.8531 8.29976   2
  -1  -7   9 48.5295 7.29508   5
  -1   7  -9 60.1383 8.15024   1
  -1  -7   9 46.5643 7.61852   1
   2  -7   9 2.23196 2.47784   2
  -2   7   9 -0.5660 2.32749   2
  -2  -7  -9 0.99925 2.25936   1
   2   7  -9 3.72753 2.66842   2
  -2   7   9 0.05695 2.15807   1
  -2   7  -9 5.02630 3.20812   2
  -2  -7   9 6.36378 2.63272   1
  -2  -7   9 2.04507 2.44518   1
   2   7   9 2.69218 1.96757   2
   2  -7  -9 6.89215 2.74988   2
  -2   7  -9 3.43831 2.55216   1
   3  -7   9 227.010 29.9165   2
   3   7  -9 224.620 29.8310   2
  -3  -7  -9 305.423 29.9163   1
  -3   7   9 305.558 29.9593   1
  -3   7  -9 282.607 30.2560   1
   3   7   9 293.410 30.0343   2
  -3  -7   9 284.815 29.8999   1
   3  -7  -9 217.528 29.7917   2
   4  -7   9 374.801 39.9028   2
   4   7  -9 386.670 39.6081   2
  -4   7   9 320.018 39.2866   1
  -4  -7  -9 381.334 39.4962   1
   4  -7  -9 294.948 39.4646   2
   4   7   9 353.353 39.6478   2
  -4  -7   9 350.267 39.4563   1
   4   7   9 354.264 43.4560   4
  -4   7  -9 405.631 40.0859   1
  -5   7   9 5.31892 3.10580   1
   5   7  -9 14.0141 5.76340   4
   5   7  -9 10.8802 3.09449   8
   5   7  -9 5.83980 2.57028   2
  -5  -7  -9 7.72026 3.14909   1
   5  -7   9 5.96261 2.69535   2
   5  -7  -9 12.4754 3.32995   2
  -5  -7   9 11.4432 3.46657   1
  -5   7  -9 3.12598 3.08509   1
   5   7   9 9.03364 3.97156   4
   5   7   9 4.57047 2.36179   2
   5   7   9 3.86845 2.35851   8
   6  -7   9 4.12845 2.65130   2
   6   7  -9 5.62614 2.26469   2
  -6  -7  -9 4.08617 2.72942   1
   6   7  -9 3.67033 2.49597   8
   6   7  -9 5.64488 4.73454   4
  -6   7   9 5.29655 2.79275   1
   6   7   9 4.63626 2.54244   8
   6  -7  -9 3.02076 2.57599   2
   6   7   9 6.89491 3.39608   4
  -6   7  -9 2.75541 2.88737   1
  -6  -7   9 2.05233 2.44381   6
   6   7   9 5.31979 2.18916   2
  -6  -7   9 1.20877 2.55374   1
  -7  -7  -9 12.2191 3.52232   1
  -7   7   9 8.14523 3.46174   1
   7  -7   9 15.1503 3.19402   2
   7   7  -9 5.94352 2.91382   8
   7  -7   9 9.13302 3.64896   8
   7   7  -9 12.8901 4.77076   4
   7  -7  -9 14.9841 3.57605   8
   7   7   9 17.1681 5.42302   4
   7   7   9 6.00795 2.74361   8
  -7  -7   9 13.0239 3.51639   6
   7  -7  -9 15.1915 3.02056   2
  -7   7  -9 12.2513 4.20531   1
  -7  -7   9 14.7912 4.07974   1
  -8   7   9 41.8306 8.02733   1
   8   7  -9 60.9142 8.05553   8
   8  -7   9 69.8928 8.55571   8
  -8  -7  -9 45.9643 7.93642   1
   8   7   9 65.9323 11.6893   4
  -8  -7   9 59.8628 7.97270   6
  -8   7  -9 47.0409 8.34953   1
  -8  -7   9 52.8046 8.33157   1
   8   7   9 57.7944 7.67804   8
   8  -7  -9 61.7508 7.95112   8
   9   7  -9 -1.7776 2.18093   8
   9  -7   9 4.06398 3.10120   8
  -9   7   9 -0.4742 2.26532   1
  -9  -7  -9 1.03662 2.31584   1
  -9   7  -9 -0.6018 2.46764   1
  -9  -7   9 5.00260 3.23034   1
   9   7   9 -1.4097 1.93612   8
   9  -7  -9 5.25235 2.84105   8
  -9  -7   9 0.79675 2.23629   6
  10   7  -9 10.9778 3.72895   8
 -10   7   9 15.8926 4.33805   1
 -10  -7  -9 12.5462 4.14919   1
  10  -7   9 9.67632 3.98425   8
  10  -7  -9 21.5912 4.40526   8
 -10  -7   9 12.7755 4.22004   1
  10   7   9 14.5622 3.74589   8
 -10  -7   9 9.99881 3.86500   1
 -10   7  -9 13.9909 4.25391   1
 -10  -7   9 15.8735 3.91421   6
   0   8  -9 1.37250 2.41105   2
   0  -8  -9 4.35090 2.86759   2
   0   8   9 -4.0315 1.74934   2
   0  -8   9 5.61685 3.14941   1
   0  -8   9 4.00393 2.52911   2
   1  -8   9 271.981 26.7917   2
  -1  -8  -9 243.222 25.9875   1
  -1   8   9 214.634 26.1331   2
  -1   8   9 205.661 25.6686   1
  -1  -8  -9 193.199 25.9976   2
   1   8  -9 276.844 26.9678   2
  -1   8  -9 223.036 26.4274   2
   1  -8  -9 169.780 25.8118   2
  -1  -8   9 241.797 26.8025   5
  -1  -8   9 247.810 26.6637   2
  -1  -8   9 256.810 26.3028   1
  -2   8   9 23.1808 5.00997   2
   2  -8   9 18.5079 4.68644   2
  -2   8   9 25.7463 4.97221   1
   2   8  -9 24.6802 5.28652   2
  -2  -8  -9 24.4317 4.92456   1
  -2  -8   9 30.3583 5.17212   1
   2   8   9 24.6750 4.74880   2
  -2   8  -9 30.7629 5.75189   2
  -2  -8   9 24.7897 5.00598   1
  -2   8  -9 27.1296 5.47980   1
   2  -8  -9 24.7432 4.87837   2
  -3   8   9 26.7387 5.27159   1
   3   8  -9 22.8928 4.91190   2
  -3  -8  -9 23.9002 4.93706   1
   3  -8   9 31.6013 5.44475   2
   3  -8  -9 25.4572 5.06025   2
   3   8   9 27.3262 4.97800   2
  -3  -8   9 24.6920 5.12429   1
  -3   8  -9 31.2034 6.03799   1
  -3  -8   9 27.5287 5.32856   1
  -4  -8  -9 15.5713 4.08658   1
   4  -8   9 12.2865 3.63212   2
  -4   8   9 10.2981 3.53896   1
   4   8  -9 15.3111 3.78715   2
   4  -8  -9 17.0875 3.98191   2
   4   8   9 14.7671 3.79912   2
   4   8   9 14.7843 4.13326   4
  -4  -8   9 17.3311 4.21992   1
  -4   8  -9 20.4592 4.89061   1
  -4  -8   9 18.2149 4.49045   1
   5   8  -9 23.9937 7.81585   4
   5  -8   9 26.9503 5.48477   2
  -5  -8  -9 29.9864 5.61960   1
   5   8  -9 31.9047 5.27900   2
  -5   8   9 34.0939 5.96990   1
   5   8   9 32.5625 5.49179   2
   5   8   9 37.8938 6.92577   4
   5  -8  -9 30.1099 5.52155   2
  -5   8  -9 24.0116 5.71747   1
  -5  -8   9 31.0878 5.75833   1
  -5  -8   9 33.2401 5.98204   1
   6   8  -9 4.44705 2.70823   8
  -6  -8  -9 1.75670 2.67713   1
   6   8  -9 1.99935 2.28095   2
  -6   8   9 9.27056 3.49586   1
   6  -8   9 3.32052 2.85354   2
   6   8   9 -3.4572 2.99806   4
   6   8   9 2.09485 2.54327   2
   6  -8  -9 6.36390 2.85641   2
  -6  -8   9 8.61504 3.35765   1
   6   8   9 3.25252 2.56975   8
  -6   8  -9 7.00322 3.40876   1
  -6  -8   9 4.81270 3.35757   1
   7  -8   9 -3.2868 2.16737   2
   7   8  -9 -0.3877 1.81881   8
   7   8  -9 5.78605 4.08880   4
  -7   8   9 0.80022 2.97753   1
  -7  -8  -9 3.39315 2.61076   1
  -7  -8   9 3.16462 2.96775   1
   7   8   9 6.93453 3.87422   4
  -7  -8   9 0.24866 2.86124   1
   7  -8  -9 1.91571 2.32174   2
   7   8   9 2.89058 2.56325   8
  -7   8  -9 -0.3082 2.88782   1
  -7  -8   9 2.42395 2.48455   6
  -8  -8  -9 6.73513 3.17321   1
   8   8  -9 3.70393 2.98457   8
  -8   8   9 4.54836 3.23957   1
  -8   8  -9 0.49009 2.91643   1
   8   8   9 -0.6486 2.29713   8
  -8  -8   9 3.40065 3.19711   1
  -8  -8   9 2.84034 2.77371   6
  -8  -8   9 6.83389 3.69065   1
   8   8   9 2.28860 3.25427   4
  -9   8   9 58.4036 10.0109   1
  -9  -8  -9 69.9068 10.1437   1
   9   8  -9 67.9301 9.52948   8
   9  -8  -9 74.8463 9.69954   8
  -9  -8   9 74.0407 10.4678   1
  -9  -8   9 74.9925 10.6523   1
  -9  -8   9 77.7177 9.47751   6
  -9   8  -9 74.3490 10.7668   1
   9   8   9 73.1580 9.31779   8
  10   8  -9 52.5473 6.98928   8
 -10   8   9 36.0777 6.75996   1
  10  -8   9 52.3808 7.86339   8
 -10  -8  -9 26.6118 6.20922   1
  10  -8  -9 51.0687 7.01354   8
  10   8   9 39.5739 6.25072   8
 -10  -8   9 38.0298 6.20216   6
 -10  -8   9 41.6670 7.12033   1
 -10   8  -9 29.0375 6.47426   1
   0   9   9 197.096 21.6536   2
   0  -9   9 182.730 21.9327   2
   0   9  -9 173.713 21.8890   2
   0  -9  -9 181.416 21.6178   2
   1  -9   9 138.818 15.9515   2
  -1  -9  -9 139.701 15.5812   1
   1   9  -9 113.907 15.7752   2
  -1  -9  -9 113.875 15.3652   2
  -1  -9   9 125.553 15.9927   2
  -1   9  -9 127.337 15.9643   2
   1  -9  -9 102.049 15.1831   2
   1   9   9 130.678 15.4710   2
  -1  -9   9 154.395 16.0382   1
  -2   9   9 130.958 14.1951   1
   2   9  -9 81.4066 13.8656   2
   2  -9   9 121.100 14.4460   2
  -2  -9  -9 95.7439 13.7404   1
  -2   9  -9 118.044 14.5761   2
   2   9   9 96.5855 13.7472   2
  -2  -9   9 100.896 13.9442   1
   2  -9  -9 137.177 14.3866   2
  -2   9  -9 150.223 14.7483   1
   3   9  -9 139.699 16.8749   2
  -3  -9  -9 169.926 17.0574   1
  -3   9   9 134.330 16.5630   1
   3  -9   9 113.520 16.5669   2
  -3  -9   9 129.218 16.6949   1
   3   9   9 152.317 16.7389   2
   3  -9  -9 128.778 16.6354   2
  -3   9  -9 139.668 16.9152   1
   4   9  -9 22.0993 4.44374   2
  -4  -9  -9 26.6556 5.05276   1
   4  -9   9 20.2713 4.51851   2
  -4   9   9 19.3543 4.60150   1
   4  -9  -9 22.3785 4.60618   2
  -4  -9   9 25.9521 5.24717   1
   4   9   9 8.09109 3.36015   2
  -4   9  -9 18.9330 4.80124   1
   5   9  -9 -2.9588 4.32763   4
  -5  -9  -9 0.04738 2.60371   1
   5   9  -9 -1.5724 2.05343   2
   5  -9   9 1.51176 2.74118   2
  -5   9   9 -1.2476 2.48004   1
   5   9   9 3.82490 2.95642   2
  -5  -9   9 2.77974 2.86392   1
   5  -9  -9 1.94006 2.40634   2
   5   9   9 0.31564 3.15361   4
  -5   9  -9 3.59626 2.67853   1
   6   9  -9 356.412 39.8511   2
   6   9  -9 373.843 46.1376   4
  -6   9   9 359.647 40.3156   1
  -6  -9  -9 378.781 40.3723   1
  -6  -9   9 372.261 40.5473   1
   6   9   9 342.744 40.1271   2
   6  -9  -9 353.690 40.3300   2
  -7   9   9 29.2856 6.23513   1
   7   9  -9 33.2238 5.85695   8
  -7  -9  -9 38.4082 6.56889   1
   7   9  -9 51.6140 9.29712   4
   7  -9   9 36.2374 6.02534   2
  -7   9  -9 30.1742 6.30177   1
   7  -9  -9 36.4815 5.70548   2
  -7  -9   9 34.3158 6.50407   1
   7   9   9 22.5723 7.11859   4
  -8   9   9 9.06612 3.96913   1
  -8  -9  -9 5.08906 3.03850   1
   8   9  -9 7.20692 3.14060   8
   8   9  -9 15.9339 6.17433   4
   8   9   9 13.1641 4.19545   4
  -8   9  -9 7.04523 3.83547   1
   8   9   9 15.6603 3.91391   8
  -8  -9   9 9.10730 4.00147   1
  -9  -9  -9 27.3029 5.62529   1
  -9   9   9 29.9285 6.19019   1
   9   9  -9 22.8863 4.96580   8
   9   9   9 42.1191 6.10760   8
  -9  -9   9 26.0497 5.36132   6
  -9   9  -9 22.8487 5.52228   1
  -9  -9   9 24.9038 5.70784   1
   0 -10   9 6.23413 3.14821   2
   0  10   9 1.77690 2.69637   2
   0 -10  -9 0.96729 2.65529   2
   0  10  -9 -1.3946 2.14279   2
   1 -10   9 120.829 14.8959   2
  -1  10   9 121.593 14.4373   2
  -1 -10  -9 132.948 14.7694   2
   1  10  -9 116.539 14.7695   2
   1 -10  -9 137.697 14.7215   2
  -1 -10   9 91.2666 14.1320   1
   1  10   9 89.6031 13.9819   2
  -1  10  -9 111.380 14.7449   2
  -2 -10  -9 3.57574 3.35345   1
   2 -10   9 8.51794 3.79563   2
   2  10  -9 9.20499 3.81121   2
  -2  10   9 3.98683 2.80302   1
  -2  10  -9 3.90907 3.14064   2
   2  10   9 5.46715 3.23431   2
   2 -10  -9 6.99650 3.41362   2
  -2 -10   9 7.11800 3.73104   1
  -3 -10  -9 87.0880 11.0827   1
   3  10  -9 79.4742 11.0600   2
  -3  10   9 89.0235 11.0780   1
   3 -10   9 67.2841 11.0013   2
   3  10   9 75.0480 10.7973   2
  -3 -10   9 66.6927 11.1304   1
  -3  10  -9 82.8951 11.5086   1
   3 -10  -9 95.2742 11.2174   2
  -4 -10  -9 68.6560 11.6063   1
   4 -10   9 91.2313 11.7199   2
  -4  10   9 94.1129 11.7615   1
  -4 -10   9 84.8552 12.1777   1
  -4  10  -9 87.9549 12.1173   1
   4  10   9 78.1946 11.2733   2
   4 -10  -9 98.2396 11.8335   2
   5  10  -9 16.6156 7.47851   4
   5 -10   9 12.8613 3.87945   2
   5  10  -9 19.4962 4.00241   2
  -5  10   9 14.1552 4.24372   1
  -5 -10  -9 6.89556 3.90449   1
   5 -10  -9 18.4531 4.56380   2
   5  10   9 20.4608 4.58902   2
  -5  10  -9 14.5575 4.66393   1
  -5 -10   9 12.0994 4.52321   1
   6  10  -9 123.847 18.9394   4
   6  10  -9 97.4369 13.5414   2
   6 -10   9 132.161 14.7741   2
  -6 -10  -9 115.695 14.5224   1
  -6  10   9 81.8981 14.0093   1
  -6  10  -9 123.637 14.9391   1
  -6 -10   9 133.305 15.1624   1
   6 -10  -9 143.278 14.5552   2
   6  10   9 103.212 13.9637   2
  -7  10   9 84.1687 12.9906   1
   7 -10   9 87.5623 12.7676   2
  -7 -10  -9 114.256 13.4319   1
   7  10  -9 108.589 17.1091   4
  -7 -10   9 97.6114 13.5516   1
  -7  10  -9 98.9985 13.4542   1
   7 -10  -9 119.945 12.9242   2
   7  10   9 97.4394 15.0324   4
  -8 -10  -9 2.75524 3.41498   1
  -8  10   9 3.77603 3.28256   1
  -8 -10   9 0.00931 3.11256   1
  -8  10  -9 2.22106 3.46237   1
   0 -11  -9 10.8978 4.12006   2
   0 -11   9 3.60033 3.63904   2
   0  11   9 13.4608 3.87766   2
   0  11  -9 7.08867 4.18102   2
   1  11  -9 8.17216 3.86562   2
   1 -11   9 -0.5820 2.80495   2
  -1  11   9 0.89606 2.40821   2
   1 -11  -9 2.81289 3.18026   2
   1  11   9 -0.8346 2.64532   2
  -1  11  -9 2.03285 2.94506   2
   2  11  -9 122.533 14.0728   2
  -2 -11  -9 106.747 13.1177   1
   2 -11   9 99.5139 13.2613   2
   2  11   9 96.9394 12.9855   2
   2 -11  -9 79.6905 12.6717   2
  -2 -11   9 95.7119 13.3060   1
   3  11  -9 347.941 34.7208   2
  -3 -11  -9 266.963 33.8271   1
   3 -11   9 331.972 34.6450   2
  -3  11   9 306.767 33.9455   1
  -3 -11   9 321.214 34.3216   1
  -3  11  -9 293.149 34.0904   1
   3  11   9 289.121 34.1001   2
   3 -11  -9 250.103 33.8916   2
   4 -11   9 2.27702 3.36419   2
   4  11  -9 -0.9024 2.54819   2
  -4  11   9 2.25687 2.91928   1
  -4 -11  -9 3.12681 3.57655   1
   4  11   9 -0.7365 2.46690   2
  -4  11  -9 3.06004 3.26814   1
   4 -11  -9 0.09748 2.72238   2
  -4 -11   9 7.09992 3.68647   1
   5  11  -9 -0.6095 5.54787   4
   5 -11   9 6.01879 3.50166   2
  -5 -11  -9 10.1912 4.28994   1
   5  11  -9 7.27647 3.16633   2
  -5  11   9 9.64392 3.85291   1
   5  11   9 8.85716 3.64789   2
  -5  11  -9 8.29881 4.04739   1
  -5 -11   9 13.5836 4.65450   1
   5 -11  -9 12.0439 3.94214   2
   6  11  -9 46.9141 7.10877   2
   6 -11   9 52.7861 7.94673   2
  -6 -11  -9 63.1948 8.90842   1
   6  11  -9 50.2697 11.0011   4
  -6  11   9 33.9369 7.48888   1
   6  11   9 49.2285 7.56417   2
  -6 -11   9 49.7650 8.47178   1
   6 -11  -9 49.1201 7.66923   2
  -6  11  -9 36.4127 7.90015   1
  -7  11   9 5.94457 3.63221   1
   7 -11   9 -1.9719 2.40993   2
  -7 -11  -9 -1.2859 2.91079   1
   7 -11  -9 1.82555 2.57521   2
  -7  11  -9 -2.2064 3.26632   1
  -7 -11   9 -1.6403 2.93810   1
  -8  11   9 102.076 14.7746   1
  -8 -11  -9 130.975 15.1905   1
  -8 -11   9 98.8445 14.8628   1
  -8  11  -9 130.168 15.3131   1
   0 -12  -9 0.87497 2.82778   2
   0 -12   9 1.95744 3.06918   2
   0  12  -9 1.10698 3.64640   2
   0  12   9 -1.7512 2.91322   2
   1 -12   9 9.00529 3.84859   2
  -1  12   9 9.12149 3.96675   2
   1  12  -9 11.1163 4.57844   2
   1 -12  -9 8.52754 3.69251   2
  -1  12  -9 17.8439 5.03542   2
   1  12   9 3.93529 3.12040   2
   2  12  -9 11.4856 4.44047   2
   2 -12   9 10.6405 4.17281   2
   2 -12  -9 8.08558 3.86327   2
  -2 -12   9 8.32149 3.97740   1
   2  12   9 12.2292 4.23048   2
   3  12  -9 273.426 32.7444   2
  -3 -12  -9 328.167 32.9428   1
   3 -12   9 267.887 32.7718   2
  -3 -12   9 236.331 32.4508   1
   3 -12  -9 259.030 32.6076   2
   3  12   9 345.163 33.0993   2
   4  12  -9 6.63805 3.79566   2
  -4 -12  -9 4.50208 3.76561   1
   4 -12   9 8.95868 3.58601   2
  -4  12   9 7.09167 3.71155   1
  -4 -12   9 1.73814 3.56978   1
  -4  12  -9 3.11825 3.71237   1
   4  12   9 1.78394 3.54888   2
   4 -12  -9 0.70805 3.64406   2
   5  12  -9 16.1854 4.38921   2
   5 -12   9 16.8625 4.63414   2
  -5  12   9 20.6834 5.27136   1
  -5 -12  -9 25.0648 5.84362   1
  -5 -12   9 15.0883 5.25926   1
   5 -12  -9 20.5939 4.98277   2
   5  12   9 16.1815 4.57290   2
  -5  12  -9 21.4823 5.68998   1
  -6  12   9 1.26549 3.59567   1
  -6 -12  -9 -1.6778 3.18835   1
   6  12  -9 1.53860 2.64887   2
   6 -12   9 7.24137 3.88326   2
  -6  12  -9 1.63541 3.78459   1
   6  12   9 0.08965 3.17291   2
  -6 -12   9 5.13918 3.68058   1
   6 -12  -9 4.80996 3.10633   2
  -7  12   9 173.384 22.9495   1
  -7 -12  -9 196.194 23.2245   1
   7 -12   9 174.112 22.5426   2
  -7  12  -9 204.124 23.4947   1
  -7 -12   9 186.628 23.4288   1
   7 -12  -9 221.786 22.9382   2
   0 -13  -9 334.269 38.8624   2
   0 -13   9 352.847 39.1176   2
   0  13  -9 328.717 39.1318   2
  -1  13   9 2.93041 3.90036   2
   1 -13   9 3.82543 3.51007   2
   1  13  -9 8.12341 4.05686   2
   1  13   9 2.80900 3.68683   2
  -1  13  -9 3.25791 3.38557   2
   1 -13  -9 3.02710 3.22406   2
   2  13  -9 49.8958 8.79676   2
   2 -13   9 49.7142 8.91477   2
   2 -13  -9 44.9196 8.37398   2
   2  13   9 53.6936 8.71180   2
   3 -13   9 4.79253 3.81883   2
   3  13  -9 9.25155 3.69023   2
  -3 -13  -9 8.34907 4.46863   1
  -3 -13   9 6.65543 4.04545   1
   3  13   9 8.68536 3.75569   2
   3 -13  -9 8.89152 4.12096   2
  -4 -13  -9 34.2610 7.10337   1
   4  13  -9 21.4755 5.58269   2
   4 -13   9 26.7737 6.10684   2
   4 -13  -9 33.0434 6.39233   2
   4  13   9 27.2288 6.13225   2
  -4 -13   9 31.5167 6.94173   1
   5 -13   9 32.3584 6.29453   2
   5  13  -9 40.6803 6.29980   2
  -5  13   9 21.5986 5.93788   1
  -5 -13  -9 27.7429 6.66179   1
   5  13   9 27.7570 6.02290   2
  -5 -13   9 21.3685 6.48541   1
   5 -13  -9 37.4898 6.52706   2
  -5  13  -9 17.6957 6.03013   1
   6 -13   9 49.2698 8.32424   2
  -6  13   9 46.0149 8.55279   1
  -6 -13  -9 50.7544 9.05740   1
   6  13  -9 38.0412 6.91685   2
   6  13   9 54.1212 7.98309   2
   6 -13  -9 47.8094 8.12033   2
  -6 -13   9 54.2986 9.55803   1
  -6  13  -9 51.7077 9.03447   1
   0  14  -9 0.92350 3.77933   2
   0  14   9 0.95633 3.14952   2
   0 -14  -9 1.17832 3.36963   2
  -1  14   9 18.8281 5.34072   2
   1  14  -9 22.7801 5.87625   2
   1 -14   9 21.0768 5.72841   2
   1 -14  -9 14.1510 4.80187   2
   1  14   9 18.7103 5.66358   2
  -1  14  -9 16.5402 5.24061   2
   2 -14   9 7.00146 4.60823   2
   2  14  -9 10.9522 4.88490   2
   2  14   9 5.85190 3.80530   2
   2 -14  -9 16.0078 4.94704   2
   3  14  -9 68.0393 10.7001   2
   3 -14   9 81.3752 11.6813   2
   3  14   9 76.5926 11.2155   2
   3 -14  -9 51.5339 10.0750   2
   4 -14   9 20.3806 5.17338   2
   4  14  -9 12.2709 4.62765   2
  -4 -14  -9 15.5951 5.64709   1
  -4 -14   9 17.1735 5.93885   1
   4  14   9 18.7367 5.51476   2
   4 -14  -9 27.9110 5.69836   2
   0  15   9 16.8824 5.54146   2
   0  15  -9 25.2609 6.67744   2
   0 -15  -9 17.3341 6.05422   2
  -1  15   9 8.03617 4.52834   2
   1 -15   9 7.36711 4.28145   2
   1  15  -9 -2.4454 3.70577   2
   1 -15  -9 9.03956 4.70547   2
  -1  15  -9 5.78425 4.05381   2
   1  15   9 1.39792 3.13053   2
   2  15  -9 150.654 18.3666   2
   2 -15   9 131.239 18.1356   2
   2 -15  -9 110.012 17.3084   2
   2  15   9 168.586 18.5630   2
   0   0  10 6.63181 2.06988   7
   0   0  10 9.93605 2.66835   1
   0   0  10 6.95594 2.57178   2
   0   0 -10 9.00659 2.94955   1
   0   0 -10 8.91901 2.58000   2
  -1   0 -10 1.40546 1.84475   2
   1   0  10 -1.3972 1.54596   7
  -1   0  10 1.87850 1.78403   2
   1   0  10 -1.3855 1.70339   2
  -1   0  10 1.55116 1.43010   7
   1   0  10 0.82930 2.36139   5
  -1   0  10 -1.0230 1.54808   1
   1   0 -10 1.21236 1.65635   2
   1   0  10 7.43022 2.39156   1
  -1   0 -10 5.39631 2.51516   1
   2   0 -10 99.6698 11.7335   2
  -2   0  10 94.5426 11.8546   2
   2   0  10 108.503 11.9693   2
   2   0  10 108.270 12.8026   5
  -2   0 -10 103.163 11.9303   2
  -2   0 -10 92.1117 11.7455   1
  -2   0  10 76.9504 11.3165   1
  -3   0 -10 -0.7867 1.80206   1
  -3   0  10 0.53512 1.90738   1
   3   0  10 -0.4509 1.90944   2
   3   0 -10 1.83054 1.89333   2
   3   0 -10 5.34376 1.22536   7
   3   0  10 -0.1171 2.52755   5
   3   0 -10 2.76656 1.81790   8
   3   0  10 3.30837 2.13109   8
  -4   0  10 62.2086 7.04777   1
   4   0  10 51.5149 7.10770   2
   4   0  10 45.3481 7.89071   5
   4   0  10 62.6252 6.77059   8
   4   0 -10 40.2322 6.79817   2
  -4   0 -10 37.9672 6.91100   1
  -5   0 -10 1.72544 2.40720   1
  -5   0  10 -0.4146 1.75732   1
   5   0 -10 0.84971 1.68573   2
   5   0 -10 0.25800 1.50533   8
   5   0  10 6.86550 2.49671   2
   5   0  10 1.44429 2.90519   5
   6   0 -10 173.052 20.8042   8
   6   0 -10 239.492 22.2868   2
   6   0  10 200.100 24.2436   5
  -6   0  10 163.117 22.2722   1
   6   0  10 213.682 21.1667   8
   6   0  10 199.658 22.3520   2
  -6   0 -10 200.302 22.7737   1
   7   0  10 4.92231 3.31500   5
  -7   0 -10 -0.0014 2.20331   1
   7   0 -10 1.41179 1.73160   8
   7   0  10 3.64639 2.07788   8
  -7   0 -10 0.39216 1.49046   3
  -7   0  10 -2.0895 1.68976   1
  -8   0 -10 850.323 92.2953   1
   8   0 -10 920.533 85.7784   8
   8   0  10 848.286 85.8756   8
  -8   0 -10 790.914 82.3878   3
   9   0 -10 1.54514 2.16949   8
  -9   0 -10 0.62672 2.59226   1
   9   0  10 2.05959 2.16425   8
  -9   0  10 2.06003 2.49020   1
  -9   0 -10 -0.0180 1.91034   3
 -10   0 -10 254.887 29.4884   1
 -10   0  10 256.579 29.2021   1
 -10   0 -10 240.139 26.1914   3
  10   0  10 247.720 27.2028   8
  10   0 -10 298.569 27.2622   8
 -11   0 -10 -3.9411 2.01725   3
 -11   0 -10 -0.5700 2.83830   1
  11   0  10 1.51284 2.25734   8
 -11   0  10 1.79892 2.45940   1
  11   0 -10 -2.7924 1.88090   8
   0   1  10 1.73793 1.56980   7
   0  -1  10 5.51124 2.55044   5
   0  -1 -10 0.37232 1.59688   2
   0   1 -10 2.55836 2.14945   2
   0  -1  10 0.95747 1.90328   1
   0  -1 -10 -1.0610 2.08596   1
   0  -1  10 10.8306 2.90432   2
   0   1  10 6.87174 2.34764   2
   0  -1  10 2.92599 1.88256   7
   0   1  10 0.70609 1.82489   1
   0   1 -10 7.19864 2.68316   1
  -1   1  10 29.8382 4.68990   1
  -1   1  10 28.2255 4.53879   7
   1  -1  10 20.2461 4.60000   2
   1  -1  10 13.3006 4.48991   5
  -1  -1 -10 37.1136 5.00001   2
   1   1 -10 27.7588 4.64109   2
   1  -1  10 43.7245 5.36584   1
  -1   1  10 30.9062 4.92837   2
   1  -1  10 35.7269 4.80733   7
  -1  -1 -10 33.8702 5.14201   1
   1   1  10 27.6782 4.65502   1
  -1  -1  10 29.5490 4.56323   7
  -1  -1  10 31.0528 4.87810   1
   1   1  10 33.1820 4.92782   7
  -1  -1  10 26.7696 4.99302   2
  -1   1 -10 23.7237 4.50284   2
   1   1  10 33.3671 5.10764   2
   1  -1 -10 25.2681 4.63803   2
   2  -1  10 310.572 32.0197   5
  -2   1  10 241.318 29.7343   1
   2  -1  10 290.922 30.4828   2
   2   1 -10 243.012 30.0490   2
  -2  -1 -10 224.262 29.8855   1
  -2  -1  10 262.879 29.8686   1
   2   1  10 314.943 31.8378   5
   2   1  10 260.247 30.2596   2
   2  -1 -10 292.030 30.3542   2
  -2   1 -10 269.437 30.2227   2
  -2   1 -10 291.184 30.2893   1
   3   1 -10 811.333 86.6015   2
  -3   1  10 817.449 85.7186   1
   3  -1  10 897.736 90.1420   5
  -3  -1 -10 765.791 85.8702   1
   3  -1  10 802.433 86.7053   2
   3   1 -10 858.011 79.8805   8
  -3   1 -10 731.827 85.8752   1
   3   1  10 830.407 86.6898   2
   3  -1 -10 717.895 86.5612   2
   3  -1 -10 836.209 79.8638   8
  -3  -1  10 693.822 85.6063   1
   4   1 -10 190.605 19.2288   2
   4   1 -10 144.764 17.4453   8
   4  -1  10 128.579 17.5747   8
   4  -1  10 180.926 20.5356   5
  -4  -1 -10 187.970 19.3457   1
  -4   1  10 181.312 19.0758   1
   4   1  10 159.704 17.6908   8
   4  -1 -10 139.984 18.9172   2
   4  -1 -10 159.194 17.6315   8
   4   1  10 149.230 19.0474   2
  -4  -1  10 183.476 19.0978   1
  -4   1 -10 220.285 19.7202   1
   4   1  10 171.374 20.4915   5
   5  -1  10 89.7652 10.0764   8
  -5  -1 -10 86.5458 10.7390   1
   5   1 -10 76.2473 9.58883   8
   5  -1  10 89.5255 10.5272   2
   5  -1  10 102.490 11.8811   5
  -5   1  10 74.0060 10.3920   1
   5   1 -10 75.0747 10.2305   2
   5   1  10 103.711 9.99020   8
  -5  -1  10 58.4901 10.1471   1
   5   1  10 105.175 10.7218   2
   5   1  10 85.1430 11.7039   5
   5  -1 -10 90.7064 10.4084   2
  -5   1 -10 104.786 11.1810   1
   5  -1 -10 71.9834 9.57992   8
   6   1 -10 341.383 37.5177   2
  -6   1  10 312.612 37.7244   1
   6  -1  10 338.162 35.3598   8
  -6  -1 -10 365.339 38.0133   1
   6  -1  10 347.517 37.8078   2
   6   1 -10 275.696 34.8411   8
   6  -1  10 337.753 40.1247   5
   6   1  10 364.000 37.8204   2
   6   1  10 337.768 39.9295   5
   6  -1 -10 380.178 35.2157   8
   6  -1 -10 307.003 37.5253   2
  -6   1 -10 389.552 38.2042   1
   6   1  10 346.970 35.1361   8
  -6  -1  10 378.523 37.8878   1
  -7   1  10 358.545 43.2020   1
   7  -1  10 402.495 42.7682   2
  -7  -1 -10 378.680 38.7485   3
   7   1 -10 444.920 40.2422   8
  -7  -1 -10 359.563 43.2753   1
   7  -1  10 348.099 40.3029   8
   7  -1  10 314.808 45.6163   5
   7   1  10 446.983 46.2158   5
  -7  -1  10 446.386 43.4035   1
  -7   1 -10 398.195 43.5018   1
   7   1  10 431.439 40.3036   8
   8   1 -10 93.6981 10.6293   8
  -8   1  10 80.6968 11.4513   1
  -8  -1 -10 97.1273 10.5508   3
   8  -1  10 86.0539 10.8998   8
  -8  -1 -10 76.6431 11.5193   1
   8   1  10 108.676 10.8722   8
  -8  -1  10 76.3621 11.3786   1
   8  -1 -10 121.034 11.0049   8
  -8   1 -10 108.219 12.1835   1
  -8   1 -10 90.7251 10.4467   3
  -9   1  10 75.5274 9.54576   1
  -9  -1 -10 73.9722 8.58290   3
  -9  -1 -10 57.9314 9.51327   1
   9  -1  10 67.6168 9.12098   8
   9   1 -10 71.9778 8.61533   8
   9   1  10 79.0349 8.81521   8
  -9   1 -10 77.6943 9.97347   1
  -9  -1  10 66.5354 9.44712   1
  -9   1 -10 73.6496 8.49617   3
   9  -1 -10 66.7416 8.71204   8
 -10  -1 -10 4.30699 3.00530   1
 -10  -1 -10 2.91491 2.45168   3
 -10   1  10 -1.7297 2.41889   1
  10   1 -10 0.79888 2.05155   8
  10  -1  10 2.16985 2.37853   8
 -10   1 -10 3.04826 2.41379   3
  10  -1 -10 3.48245 2.42166   8
 -10   1 -10 0.04227 2.85292   1
 -10  -1  10 0.49945 2.48653   1
  10   1  10 0.38065 2.04442   8
  11  -1  10 89.2460 10.2797   8
 -11   1  10 84.5066 10.7935   1
 -11  -1 -10 97.1847 11.5844   1
  11   1 -10 79.0324 9.78527   8
 -11  -1 -10 90.5856 10.0390   3
  11  -1 -10 63.9293 9.65517   8
 -11   1 -10 73.7978 10.0237   3
  11   1  10 93.9983 10.1643   8
 -11   1 -10 96.7566 11.4985   1
 -11  -1  10 70.3781 10.7007   1
   0  -2  10 29.1546 4.39117   7
   0  -2  10 20.5025 4.41153   2
   0  -2  10 20.4021 4.24909   1
   0  -2 -10 22.5815 4.26608   2
   0   2 -10 21.7559 4.85532   1
   0   2 -10 19.1032 4.00556   2
   0   2  10 33.4935 4.87991   2
   0  -2 -10 31.4549 4.96797   1
   0  -2  10 25.2972 4.99356   5
   0   2  10 21.6586 4.12717   1
   0   2  10 28.4513 4.19640   7
  -1   2  10 109.520 13.2535   1
  -1   2  10 110.402 13.2976   7
   1   2 -10 125.312 13.6939   2
  -1  -2 -10 116.446 13.4686   2
  -1   2  10 112.201 13.5576   2
  -1  -2 -10 95.6816 13.3640   1
   1  -2  10 113.773 14.3996   5
   1  -2  10 114.491 13.5827   1
   1  -2  10 121.172 13.4477   7
   1  -2  10 118.918 13.8218   2
   1   2  10 91.1498 13.3386   2
  -1  -2  10 123.783 13.4518   1
  -1   2 -10 126.530 13.9173   1
   1   2  10 133.523 13.6155   7
  -1   2 -10 109.174 13.4558   2
  -1  -2  10 106.865 13.5108   7
   1  -2 -10 98.2711 13.3372   2
  -1  -2  10 112.620 14.0330   5
   2   2 -10 12.6008 3.11627   2
  -2  -2 -10 13.2484 3.02165   2
  -2  -2 -10 12.0774 3.20890   1
  -2   2  10 16.8735 3.30953   1
  -2   2  10 12.6633 3.17215   2
   2  -2  10 10.9686 3.14983   2
   2  -2  10 11.4938 3.67131   5
  -2  -2  10 11.7349 3.14282   1
   2   2  10 14.1394 3.33712   2
   2   2  10 10.8164 3.58384   5
  -2   2 -10 8.35642 3.33079   1
  -2  -2  10 13.5691 3.40928   2
  -2   2 -10 17.6176 3.67564   2
   2  -2 -10 13.5878 3.29396   2
   3   2 -10 50.3621 6.15936   8
   3  -2  10 59.7726 7.17508   2
   3  -2  10 63.6221 8.43632   5
   3   2 -10 43.7136 6.65322   2
  -3  -2 -10 53.0329 7.22532   1
  -3   2  10 47.0714 6.83909   1
   3  -2 -10 28.3224 5.75696   8
  -3  -2  10 40.5533 6.62772   1
   3  -2 -10 43.8034 6.80536   2
  -3   2 -10 72.0914 7.62158   1
   3   2  10 47.8607 7.98839   5
   3   2  10 49.5179 6.98806   2
  -4   2  10 633.238 63.6527   1
   4   2 -10 506.829 58.9092   8
  -4  -2 -10 584.509 63.6148   1
   4  -2  10 649.547 64.2837   2
   4  -2  10 623.515 66.8119   5
   4   2  10 576.626 59.0538   8
   4   2  10 581.576 59.0912   8
   4  -2 -10 520.669 63.9322   2
  -4  -2  10 632.544 63.5908   1
   4  -2 -10 657.412 59.2318   8
   4   2  10 487.236 66.6278   5
   5   2 -10 219.772 22.5264   2
   5  -2  10 197.061 22.5531   2
   5   2 -10 171.643 20.6189   8
  -5  -2 -10 224.296 22.7435   1
   5  -2  10 224.107 21.2499   8
  -5   2  10 177.481 22.3686   1
   5  -2  10 173.848 23.8676   5
   5  -2 -10 196.101 22.4150   2
  -5   2 -10 199.598 22.7544   1
   5   2  10 204.451 22.5660   2
   5   2  10 152.308 23.5522   5
  -5  -2  10 221.582 22.5763   1
   5   2  10 219.250 20.9393   8
  -6   2  10 84.8578 10.7472   1
  -6  -2 -10 95.6399 10.9816   1
   6   2 -10 70.1153 9.56849   8
   6  -2  10 94.7601 10.4938   2
   6  -2  10 72.8322 12.1936   5
   6  -2  10 83.1407 10.0138   8
   6   2 -10 78.3697 9.98835   2
  -6  -2  10 90.4196 10.8199   1
   6   2  10 71.6584 10.0659   2
   6  -2 -10 102.797 10.3489   2
   6  -2 -10 84.4296 9.84385   8
   6   2  10 86.4211 9.90397   8
  -6   2 -10 109.697 11.3527   1
   6   2  10 80.8211 11.9062   5
  -7   2  10 172.035 20.0199   1
   7   2 -10 153.917 18.3024   8
   7  -2  10 191.034 19.3324   2
  -7  -2 -10 150.756 19.8641   1
   7  -2  10 157.319 18.6658   8
  -7   2 -10 188.040 20.3734   1
   7   2  10 174.696 18.5365   8
   7   2  10 160.762 21.4767   5
   7  -2 -10 202.458 18.7446   8
  -7  -2  10 176.066 20.0006   1
   8  -2  10 126.356 15.1793   8
  -8  -2 -10 125.023 14.2324   3
   8   2 -10 116.347 14.7203   8
  -8  -2 -10 145.349 16.3337   1
  -8   2  10 132.913 16.1548   1
   8   2  10 161.976 18.4770   5
   8   2  10 149.487 15.0355   8
  -8  -2  10 163.882 16.3888   1
   8  -2 -10 108.272 14.7183   8
  -8   2 -10 165.224 16.7890   1
  -9   2  10 1.47892 2.58203   1
   9  -2  10 1.50528 2.48303   8
   9   2 -10 -0.6913 1.81826   8
  -9  -2 -10 5.22365 2.40102   3
  -9  -2 -10 7.77706 3.20850   1
  -9   2 -10 3.01519 2.88315   1
   9   2  10 8.11059 2.59332   8
  -9   2 -10 5.49893 2.66740   3
   9  -2 -10 7.30136 2.65087   8
  -9  -2  10 4.61780 2.86097   1
 -10   2  10 8.74342 3.20101   1
 -10  -2 -10 6.52584 3.11355   1
  10   2 -10 10.4704 2.84889   8
  10  -2  10 11.4489 3.07424   8
 -10  -2 -10 10.9619 2.94058   3
 -10   2 -10 11.2518 3.17997   3
 -10  -2  10 11.1418 3.49070   1
 -10   2 -10 9.94930 3.82981   1
  10   2  10 8.41333 2.94603   8
  10  -2 -10 6.39497 2.70119   8
 -11  -2 -10 323.157 31.2011   3
  11  -2  10 359.385 32.6942   8
 -11  -2 -10 335.796 35.0501   1
 -11   2  10 289.230 34.6156   1
  11   2 -10 281.972 32.0431   8
 -11  -2  10 333.859 34.8033   1
  11   2  10 334.159 32.2222   8
  11  -2 -10 296.872 32.2152   8
 -11   2 -10 285.459 31.0991   3
 -11   2 -10 275.361 34.8633   1
   0  -3 -10 5.67819 2.39346   1
   0  -3  10 1.48976 1.78828   7
   0  -3  10 2.36056 2.30947   2
   0   3  10 2.58863 2.13585   1
   0  -3 -10 0.74106 1.71322   2
   0  -3  10 -1.3802 1.84008   1
   0   3 -10 -1.1166 1.47005   2
   0   3  10 0.28458 2.00220   2
   0   3  10 -1.3507 1.55564   7
   0   3 -10 -0.8981 2.12397   1
   0  -3  10 -1.7219 1.71772   5
  -1   3  10 1137.69 125.332   1
  -1   3  10 1111.86 127.254   7
  -1   3  10 984.208 126.521   2
  -1  -3 -10 1366.41 126.866   2
  -1  -3 -10 1267.50 125.553   1
   1  -3  10 1023.57 130.875   5
   1   3  10 1178.13 126.699   2
  -1   3 -10 1200.78 125.646   1
  -1  -3  10 1272.12 125.580   1
   1  -3 -10 1150.58 126.720   2
   2  -3  10 136.302 17.6603   5
  -2  -3 -10 160.414 16.9881   1
  -2   3  10 154.034 16.7686   1
  -2   3  10 125.823 16.8446   2
   2   3 -10 136.324 16.8956   2
   2  -3  10 140.867 17.0654   2
  -2  -3 -10 120.960 16.7191   2
  -2  -3  10 140.778 17.3950   5
  -2  -3  10 152.215 17.4788   2
   2  -3 -10 139.435 16.9521   2
  -2   3 -10 130.799 16.9022   1
   2   3  10 163.196 17.1875   2
  -2   3 -10 161.921 17.2845   2
  -2  -3  10 167.100 16.9101   1
   3  -3  10 26.4302 5.24574   5
   3  -3  10 30.4584 5.05843   2
   3   3 -10 25.8574 4.09739   8
  -3   3  10 20.4233 4.09904   1
   3   3 -10 24.6074 4.27582   2
  -3  -3 -10 29.1206 4.77936   1
   3  -3 -10 24.3778 4.24537   2
  -3   3 -10 26.2713 4.91782   1
  -3  -3  10 21.2792 4.23755   1
   3   3  10 16.6163 4.01773   2
   3   3  10 13.7279 4.45795   5
  -4  -3 -10 39.8465 7.56155   1
   4   3 -10 62.6619 7.64197   2
   4  -3  10 66.7950 8.78549   5
   4  -3  10 62.7699 7.26102   8
   4  -3  10 67.8971 8.03730   2
  -4   3  10 45.5424 7.55808   1
   4   3 -10 52.3261 7.20618   8
   4  -3 -10 51.0608 7.74346   2
  -4   3 -10 53.2369 8.22063   1
   4   3  10 56.8760 9.10273   4
   4   3  10 68.7528 7.92770   2
  -4  -3  10 51.8964 7.84526   1
   4   3  10 59.8596 9.16470   5
   4   3  10 57.0444 7.03865   8
   5  -3  10 291.899 27.6201   8
  -5   3  10 242.604 29.3418   1
   5   3 -10 270.283 27.3072   8
   5   3 -10 261.632 29.3905   2
  -5  -3 -10 236.890 29.4351   1
   5  -3  10 302.487 31.6979   5
   5  -3  10 278.983 29.6969   2
   5   3  10 275.082 33.1490   4
  -5  -3  10 287.782 29.5641   1
   5   3  10 208.798 30.8616   5
   5  -3 -10 249.038 27.3297   8
   5  -3 -10 255.334 29.4590   2
   5   3  10 281.798 27.4408   8
   6   3 -10 482.905 43.4276   8
  -6   3  10 405.387 46.6015   1
   6  -3  10 410.682 46.7689   2
   6   3 -10 464.197 46.4824   2
   6  -3  10 377.280 43.4465   8
   6   3  10 409.396 49.1778   5
   6  -3 -10 444.689 46.6644   2
  -6   3 -10 336.983 46.6598   1
   6   3  10 401.235 43.3223   8
   6   3  10 448.049 46.6153   2
   6  -3 -10 433.030 43.4610   8
  -6  -3  10 471.806 46.8192   1
   6   3  10 431.180 52.2987   4
  -7  -3 -10 46.3558 6.66682   1
   7  -3  10 38.5736 5.41591   2
   7   3 -10 39.1363 5.59663   8
   7  -3  10 34.1192 6.00630   8
  -7   3  10 32.3350 6.02084   1
  -7   3 -10 36.9190 6.64284   1
  -7  -3  10 42.3436 6.49040   1
   7   3  10 34.0378 7.93518   4
   7   3  10 55.8162 8.37355   5
   7  -3 -10 48.2408 6.07128   8
   7   3  10 44.7481 5.97112   8
   8   3 -10 152.843 15.1644   8
  -8   3  10 126.260 16.3396   1
   8  -3  10 125.736 15.3319   8
  -8  -3 -10 135.498 16.4941   1
  -8  -3 -10 157.986 14.8957   3
   8   3  10 177.764 20.2317   4
  -8   3 -10 110.082 16.5111   1
   8  -3 -10 130.510 15.0853   8
   8   3  10 142.399 15.2272   8
  -8  -3  10 145.319 16.5215   1
  -9  -3 -10 353.448 35.9689   1
  -9   3  10 304.389 35.6758   1
  -9  -3 -10 337.665 31.8977   3
   9   3 -10 301.951 33.0368   8
   9  -3  10 308.021 33.4097   8
  -9   3 -10 279.880 35.8495   1
   9   3  10 258.196 40.3650   4
  -9  -3  10 345.146 35.8854   1
   9   3  10 363.391 33.3461   8
   9  -3 -10 348.121 33.2965   8
 -10  -3 -10 98.1075 12.4532   1
 -10  -3 -10 95.0177 10.8488   3
  10  -3  10 102.307 11.6113   8
 -10   3  10 107.779 12.5107   1
  10   3 -10 92.2915 11.1643   8
 -10  -3  10 105.307 12.4493   1
 -10   3 -10 114.257 12.8302   1
  10   3  10 77.4827 11.1055   8
  10  -3 -10 94.0908 11.2773   8
 -11  -3 -10 443.519 37.9994   3
  11  -3  10 393.064 39.4175   8
  11   3 -10 379.557 39.0977   8
 -11  -3 -10 412.238 42.5260   1
 -11   3 -10 371.968 42.3318   1
 -11  -3  10 347.792 42.1338   1
  11  -3 -10 408.762 39.3422   8
  11   3  10 310.854 38.9720   8
   0   4 -10 367.033 34.8414   1
   0   4  10 332.405 34.5390   1
   0  -4  10 350.514 35.0686   2
   0   4  10 376.517 35.0753   7
   0   4  10 258.920 34.6858   2
   0  -4 -10 287.151 34.8421   2
   0  -4  10 327.254 35.0017   7
   0   4 -10 251.757 34.7045   2
   0  -4  10 271.371 35.8645   5
  -1  -4 -10 321.932 36.0328   1
   1  -4  10 283.988 36.2686   7
   1  -4  10 296.229 36.2774   2
   1   4 -10 360.508 36.4477   2
  -1   4  10 288.442 35.7599   1
   1  -4  10 352.591 37.7365   5
  -1   4  10 303.428 36.2429   2
  -1  -4  10 304.307 36.3137   2
  -1   4 -10 338.424 36.0943   1
  -1   4 -10 396.321 36.8538   2
  -1  -4  10 323.734 37.5619   5
   1  -4 -10 358.582 36.5254   2
  -2  -4 -10 203.003 20.4294   2
  -2   4  10 179.759 20.2292   2
  -2  -4 -10 174.889 20.0447   1
   2  -4  10 138.016 20.0742   2
  -2   4  10 202.059 20.1354   1
   2   4 -10 139.882 19.8686   2
   2  -4  10 201.024 21.2627   5
  -2   4 -10 198.777 20.3371   1
  -2   4 -10 189.272 20.6352   2
   2   4  10 152.038 20.0584   2
  -2  -4  10 147.784 20.6164   5
  -2  -4  10 159.551 20.1090   1
   2  -4 -10 208.491 20.3616   2
   3   4 -10 51.5719 7.13051   2
   3  -4  10 39.8571 6.90367   2
  -3  -4 -10 58.3647 7.20768   1
   3  -4  10 34.3494 7.07285   5
  -3   4  10 53.0543 7.14437   1
   3  -4 -10 39.4768 6.76647   2
  -3   4 -10 51.2150 7.23878   1
   3   4  10 46.7501 7.72227   5
  -3  -4  10 39.5794 6.91175   1
   3   4  10 57.3297 8.27770   4
   3   4  10 49.5384 7.03525   2
  -3  -4  10 53.2994 7.39066   5
   4   4 -10 516.467 51.5531   2
   4  -4  10 463.571 53.8532   5
  -4   4  10 460.544 51.1043   1
  -4  -4 -10 487.132 51.2973   1
  -4  -4  10 421.391 53.0979   5
  -4   4 -10 497.653 51.5089   1
   4   4  10 473.838 56.7410   4
   4   4  10 446.682 51.6593   2
   4  -4 -10 404.993 51.4357   2
   4  -4 -10 456.747 47.7083   8
  -4  -4  10 496.050 51.3548   1
   4   4  10 470.863 53.9114   5
   4   4  10 506.059 47.6973   8
   5  -4  10 109.034 13.7152   5
  -5   4  10 86.5459 12.0000   1
   5  -4  10 118.269 11.5697   8
  -5  -4 -10 91.9658 12.1543   1
   5   4 -10 94.4695 11.8392   2
   5   4 -10 108.393 11.3070   8
   5  -4  10 89.4763 12.1291   2
  -5  -4  10 81.0176 12.0419   1
   5  -4 -10 87.9880 11.1627   8
   5   4  10 112.672 13.6608   5
   5   4  10 113.056 11.3589   8
  -5   4 -10 94.5481 12.4389   1
   5   4  10 112.473 14.2711   4
   5  -4 -10 100.878 12.0561   2
   6   4 -10 69.0445 8.30764   2
  -6  -4 -10 73.2689 9.16043   1
   6  -4  10 60.9646 8.60252   2
  -6   4  10 64.6562 8.84205   1
   6   4 -10 74.0182 8.30856   8
   6  -4  10 81.5164 8.59968   8
   6  -4 -10 59.1136 8.40158   2
   6  -4 -10 65.6599 8.21089   8
   6   4  10 73.8178 8.32070   8
   6   4  10 59.0515 8.31837   2
  -6  -4  10 72.6826 9.16815   1
   6   4  10 75.5457 10.7400   5
   6   4  10 62.4700 10.9286   4
  -6   4 -10 54.3888 9.02435   1
   7   4 -10 500.450 49.6730   8
  -7  -4 -10 429.957 53.2965   1
   7  -4  10 489.801 49.7835   8
   7  -4  10 434.943 53.1795   2
  -7   4  10 519.745 53.4148   1
  -7  -4  10 507.087 53.5408   1
   7  -4 -10 568.807 49.8642   8
   7   4  10 552.974 60.1430   4
   7  -4 -10 428.682 53.0293   2
   7   4  10 466.860 49.6636   8
  -7   4 -10 533.853 53.7476   1
   8  -4  10 15.7847 3.74947   8
  -8   4  10 25.8773 4.49581   1
  -8  -4 -10 19.4383 4.28465   1
   8   4 -10 13.0095 3.35666   8
  -8  -4  10 9.43124 3.91021   1
   8   4  10 19.6273 5.76605   4
   8   4  10 16.5001 3.64009   8
   8  -4 -10 22.4468 4.03775   8
  -8   4 -10 27.0174 4.95422   1
  -9   4  10 92.8664 13.1113   1
   9   4 -10 120.590 12.3865   8
  -9  -4 -10 95.4517 13.3163   1
   9  -4  10 107.237 12.4771   8
  -9  -4  10 127.880 13.8310   1
   9   4  10 116.401 12.4652   8
   9   4  10 116.537 16.7603   4
   9  -4 -10 91.1205 12.2006   8
  -9   4 -10 109.809 13.5511   1
 -10  -4 -10 7.19570 3.34771   1
  10  -4  10 7.42185 2.91534   8
  10   4 -10 6.02950 2.73040   8
 -10   4  10 11.5174 3.52893   1
 -10  -4 -10 7.17490 2.77447   3
 -10   4 -10 7.13000 3.65174   1
  10   4  10 5.91864 2.63373   8
 -10  -4  10 6.96998 3.41954   1
  10  -4 -10 12.6857 3.27940   8
 -11  -4 -10 1.98677 2.56806   3
  11  -4  10 6.59999 2.82533   8
 -11  -4 -10 7.76308 3.25063   1
  11   4 -10 1.91228 2.39258   8
 -11   4  10 5.50215 3.13571   1
 -11  -4  10 8.12386 3.60603   1
 -11   4 -10 1.33062 3.06538   1
  11   4  10 0.12416 2.19040   8
  11  -4 -10 3.75121 2.84351   8
   0   5  10 1.55768 1.97857   1
   0   5 -10 0.58346 2.47576   2
   0  -5 -10 1.06113 2.22981   1
   0   5  10 0.14066 1.85352   7
   0  -5  10 4.35589 1.95476   7
   0   5  10 -0.9147 1.51716   2
   0  -5  10 0.34115 2.17667   5
   0  -5  10 -1.3941 1.79146   1
   0  -5 -10 2.38499 2.26625   2
   0  -5  10 1.16708 2.16652   2
   1   5 -10 5.43901 2.59755   2
   1  -5  10 5.97301 2.93963   2
  -1  -5 -10 8.48966 3.03995   2
  -1   5  10 5.69599 2.96715   2
  -1   5  10 5.26277 2.45132   1
  -1  -5 -10 5.83248 2.85678   1
   1  -5  10 11.2945 3.43870   5
  -1   5 -10 7.68728 3.21344   1
  -1   5 -10 14.0573 3.70898   2
  -1  -5  10 6.57671 2.92414   1
  -1  -5  10 8.49453 3.07425   5
   1  -5 -10 6.26712 2.65194   2
   1   5  10 4.50528 2.67068   2
  -1  -5  10 5.73669 2.94072   2
   2  -5  10 1159.92 120.364   5
  -2  -5 -10 1239.58 115.398   1
   2  -5  10 1089.74 116.452   2
   2   5 -10 880.769 116.054   2
  -2   5  10 1106.22 115.118   1
  -2   5  10 909.946 116.227   2
  -2  -5  10 1141.79 115.367   1
   2   5  10 1159.30 116.469   2
  -2  -5  10 1013.23 119.978   5
  -2   5 -10 1231.63 115.506   1
   2  -5 -10 919.854 116.196   2
  -2   5 -10 1028.51 116.661   2
  -3  -5 -10 0.22084 1.92647   1
   3   5 -10 3.16351 2.21852   2
   3  -5  10 -0.8419 2.56837   5
   3  -5  10 5.79210 2.59675   2
  -3   5  10 1.29698 2.25835   1
  -3   5 -10 6.39703 2.96205   1
  -3  -5  10 -0.4803 2.03243   1
  -3  -5  10 2.05734 2.22495   5
   3   5  10 4.39568 2.86307   4
   3   5  10 2.33402 2.44608   2
   3  -5 -10 4.23414 2.48676   2
   4   5 -10 148.870 13.8843   8
   4  -5  10 110.823 15.7077   5
   4   5 -10 132.317 14.6134   2
  -4  -5 -10 127.716 14.7899   1
   4  -5  10 113.627 14.7342   2
  -4   5  10 107.673 14.2765   1
   4   5  10 117.109 15.5279   5
  -4   5 -10 146.213 15.0228   1
  -4  -5  10 107.626 14.6423   1
   4  -5 -10 118.069 14.5912   2
   4   5  10 109.999 14.5023   2
   4   5  10 128.210 16.4103   4
   5  -5  10 828.969 98.2056   2
   5   5 -10 1005.00 97.9189   2
  -5   5  10 1023.34 97.2946   1
   5   5 -10 975.687 90.7141   8
   5   5 -10 936.098 108.158   4
   5  -5 -10 865.249 90.5053   8
   5   5  10 876.034 101.998   5
  -5  -5  10 767.667 97.2906   1
  -5   5 -10 790.585 97.2005   1
   5   5  10 942.156 107.894   4
  -6   5  10 2.01646 2.39443   1
   6  -5  10 3.35101 2.48489   8
   6   5 -10 1.84586 1.96317   8
   6   5 -10 1.68367 1.78168   2
  -6  -5 -10 1.02146 2.22895   1
   6  -5  10 2.57757 2.41123   2
   6   5  10 3.50082 3.49298   4
   6   5  10 2.75764 2.02460   2
   6  -5 -10 1.29024 2.07878   8
   6   5  10 2.48378 2.08933   8
  -6   5 -10 2.57170 2.66105   1
   6  -5 -10 0.49746 2.09200   2
  -6  -5  10 -1.3461 2.15217   1
  -7   5  10 7.84013 3.07668   1
   7   5 -10 9.06029 2.78254   8
   7  -5  10 10.7817 2.85112   2
  -7  -5 -10 11.8675 3.49211   1
   7  -5  10 4.99350 2.93470   8
   7  -5 -10 13.5555 2.64132   2
  -7  -5  10 10.7669 3.76610   1
   7   5  10 12.5671 3.27862   8
   7   5  10 5.01594 4.33728   4
   7  -5 -10 18.9075 3.57284   8
  -7   5 -10 9.06423 3.55582   1
  -8  -5 -10 720.284 69.4653   1
   8  -5  10 679.598 64.6864   8
   8   5 -10 681.801 64.5092   8
  -8   5  10 642.038 69.1388   1
   8  -5 -10 524.862 64.3169   8
  -8   5 -10 642.176 69.3606   1
  -8  -5  10 544.774 69.3047   1
   8   5  10 663.575 64.5587   8
  -9   5  10 284.980 38.5551   1
   9  -5  10 324.562 36.2507   8
  -9  -5 -10 403.813 39.2338   1
  -9   5 -10 357.876 39.1237   1
   9   5  10 378.618 36.3392   8
   9  -5 -10 341.148 36.3057   8
  -9  -5  10 370.611 39.3418   1
   9   5  10 357.545 44.3753   4
 -10   5  10 39.7470 6.70658   1
  10  -5  10 52.4437 6.87123   8
  10   5 -10 45.6442 6.39389   8
 -10  -5 -10 28.1608 6.47373   1
  10  -5 -10 38.0336 6.23458   8
 -10   5 -10 40.3596 7.22375   1
 -10  -5  10 50.0925 7.63086   1
  10   5  10 39.5200 6.29767   8
   0  -6  10 426.405 47.0578   1
   0  -6 -10 393.075 47.4042   2
   0  -6 -10 398.745 46.9498   1
   0   6  10 410.927 47.5097   2
   0  -6  10 520.704 47.9518   2
   0  -6  10 444.600 48.9272   5
   0   6 -10 396.353 47.7302   2
   0  -6  10 446.868 47.2181   1
   1   6 -10 0.89729 2.55456   2
  -1   6  10 0.11343 2.01926   1
   1  -6  10 -1.0400 2.29408   5
  -1  -6 -10 0.48759 1.99034   1
  -1  -6 -10 5.11817 2.66888   2
   1  -6  10 -1.1144 2.35029   2
  -1   6  10 -1.1828 2.07974   2
  -1   6 -10 0.35522 2.31708   1
  -1  -6  10 3.84412 2.68407   2
   1  -6 -10 2.00308 2.39259   2
   1   6  10 1.63437 2.21245   2
  -1  -6  10 3.53103 2.39199   5
  -1   6 -10 0.65949 2.30257   2
  -1  -6  10 8.40716 2.80675   1
   2  -6  10 799.951 85.9423   2
  -2   6  10 916.288 85.0446   1
  -2   6  10 669.743 85.7047   2
   2  -6  10 892.771 88.9908   5
  -2  -6  10 729.512 88.2900   5
   2   6  10 788.406 85.9709   2
   2  -6 -10 655.914 85.6450   2
  -2  -6  10 855.935 85.1654   1
  -3  -6 -10 2.07214 2.33340   1
   3  -6  10 8.57470 3.02701   2
  -3   6  10 3.38519 2.42709   1
   3  -6  10 4.04956 3.21743   5
   3   6 -10 7.20960 2.78166   2
  -3   6 -10 4.24889 3.14731   1
   3  -6 -10 2.89922 2.29746   2
   3   6  10 -0.7783 2.27107   2
  -3  -6  10 -0.2282 1.99153   1
   4   6 -10 242.413 27.5761   2
  -4  -6 -10 242.961 27.5947   1
  -4   6  10 257.868 27.4199   1
   4  -6  10 192.425 27.5385   2
  -4  -6  10 289.084 27.8513   1
   4   6  10 220.642 30.2693   4
  -4   6 -10 261.002 27.9176   1
   4   6  10 258.222 29.0383   5
   4  -6 -10 231.846 27.5540   2
   4   6  10 245.558 27.5181   2
   5   6 -10 11.5856 3.29414   2
  -5  -6 -10 19.7325 4.44571   1
   5   6 -10 19.2175 3.97851   8
   5   6 -10 16.8023 5.91465   4
  -5   6  10 13.2745 3.53215   1
   5  -6  10 11.5091 3.72114   2
   5   6  10 17.4351 3.66891   2
  -5   6 -10 15.9837 4.46048   1
  -5  -6  10 26.6012 4.95483   1
   5  -6 -10 21.1025 4.01331   2
   5   6  10 12.4642 4.45981   5
   5   6  10 15.7044 4.47143   4
  -6  -6 -10 257.566 26.5930   1
  -6   6  10 209.757 26.0954   1
   6   6 -10 182.426 24.1885   8
   6   6 -10 271.982 25.9152   2
   6  -6  10 220.427 26.3263   2
  -6   6 -10 283.415 27.0019   1
   6  -6 -10 261.215 26.3360   2
   6   6  10 203.746 25.8738   2
  -6  -6  10 206.409 26.3226   1
   6   6  10 210.692 24.3415   8
   6   6  10 256.233 30.0063   4
  -7  -6 -10 15.1801 4.26016   1
  -7   6  10 12.3732 3.87068   1
   7   6 -10 19.1540 4.11570   8
   7  -6  10 20.2907 4.02122   2
  -7   6 -10 20.3224 4.87322   1
   7  -6 -10 27.1316 4.57323   8
   7   6  10 22.3010 6.33054   4
  -7  -6  10 20.0050 4.69610   1
   7   6  10 22.8465 4.20477   8
   7  -6 -10 19.2984 3.59560   2
   8   6 -10 25.0912 4.83558   8
  -8   6  10 16.9572 4.51277   1
  -8  -6 -10 22.4209 5.07878   1
   8  -6  10 29.9732 5.13263   8
   8   6  10 27.6940 4.77164   8
  -8  -6  10 25.7696 5.47726   1
   8   6  10 26.3458 6.87458   4
  -8   6 -10 26.8914 5.62278   1
   8  -6 -10 24.7770 4.79593   8
   9   6 -10 2.65575 2.94331   8
   9  -6  10 2.39997 2.77284   8
  -9  -6 -10 5.35357 3.11208   1
  -9   6  10 -0.3512 2.58956   1
  -9   6 -10 4.42210 3.24861   1
   9  -6 -10 0.38420 2.49374   8
  -9  -6  10 -0.0983 2.42469   6
   9   6  10 2.81726 2.43795   8
  -9  -6  10 5.59883 3.15921   1
  10   6 -10 825.512 74.1541   8
 -10   6  10 810.190 79.3291   1
  10  -6  10 652.797 73.8611   8
 -10  -6 -10 796.070 79.4760   1
 -10   6 -10 675.559 79.5882   1
  10   6  10 690.327 73.7802   8
 -10  -6  10 736.992 79.4249   1
  10  -6 -10 709.602 73.9534   8
 -10  -6  10 669.343 73.0297   6
   0  -7  10 1.33101 2.54381   5
   0   7  10 2.69406 2.16615   2
   0   7 -10 4.16896 2.79584   2
   0  -7  10 1.87274 2.47912   1
   0  -7  10 2.38678 2.54683   1
   0  -7  10 6.36938 2.96788   2
   0  -7 -10 0.78503 2.44012   2
   1  -7  10 114.365 14.5391   2
  -1  -7 -10 120.247 14.5334   2
  -1   7  10 129.600 14.3580   1
   1   7 -10 116.937 14.8254   2
  -1  -7 -10 92.3083 14.1378   1
   1  -7 -10 113.386 14.5232   2
  -1  -7  10 142.007 14.8687   1
  -1  -7  10 113.339 14.8011   2
  -1  -7  10 123.002 14.3716   1
   1   7  10 112.306 14.5353   2
  -1  -7  10 101.137 14.4301   5
  -1   7 -10 151.038 15.5857   2
  -1   7 -10 125.612 14.9643   1
  -2  -7 -10 530.933 53.5454   1
   2   7 -10 540.345 54.0917   2
  -2   7  10 502.209 53.1298   1
   2  -7  10 430.582 53.7024   2
   2  -7  10 551.473 55.8961   5
   2   7  10 494.435 53.8309   2
  -2   7 -10 490.074 53.6084   1
   2  -7 -10 404.449 53.5583   2
  -2  -7  10 528.030 53.4192   1
  -2   7 -10 448.519 54.0951   2
  -2  -7  10 441.324 53.2068   1
   3   7 -10 21.8774 4.34239   2
   3  -7  10 21.2739 4.59314   2
  -3   7  10 14.6930 3.83022   1
  -3  -7 -10 19.0076 4.32338   1
   3  -7 -10 21.5935 4.43630   2
  -3   7 -10 11.3887 4.30383   1
  -3  -7  10 17.9893 4.20543   1
   3   7  10 18.1751 4.12757   2
   4   7 -10 2.96935 2.41849   2
  -4  -7 -10 -0.5516 2.13002   1
  -4   7  10 2.28876 2.52091   1
   4  -7  10 0.17610 2.47500   2
   4   7  10 0.36961 2.25954   2
  -4  -7  10 1.27133 2.65092   1
   4  -7 -10 1.20968 2.30164   2
   4   7  10 0.20738 2.63360   5
  -4   7 -10 0.20847 2.97265   1
   5   7 -10 1596.00 160.078   2
  -5   7  10 1304.66 158.606   1
   5  -7  10 1448.30 160.451   2
  -5  -7 -10 1396.65 158.794   1
   5   7 -10 1800.73 177.209   4
  -5   7 -10 1283.92 158.991   1
  -5  -7  10 1580.40 159.009   1
   5  -7 -10 1470.35 160.177   2
  -6   7  10 35.4905 6.73427   1
   6  -7  10 37.9957 6.78602   2
  -6  -7 -10 22.5591 6.21716   1
   6   7 -10 61.6333 7.40829   8
   6   7 -10 47.1903 6.19523   2
   6   7 -10 45.3193 8.62120   4
   6   7  10 52.1274 6.62932   2
   6  -7 -10 52.7141 7.10977   2
   6   7  10 65.4387 9.74988   4
  -6  -7  10 35.1847 6.85055   1
  -6   7 -10 40.3872 7.49407   1
  -7  -7 -10 45.1113 6.97552   1
   7  -7  10 42.8199 6.13392   2
  -7   7  10 30.1547 6.30791   1
   7   7 -10 25.0647 5.53661   8
   7   7  10 35.7061 7.83581   4
   7  -7 -10 43.7472 5.88398   2
  -7  -7  10 38.1892 6.68614   6
   7   7  10 48.4200 6.43260   8
  -7  -7  10 35.7347 6.55081   1
  -7   7 -10 32.2598 6.90311   1
   8   7 -10 358.110 37.5415   8
  -8  -7 -10 378.519 40.3922   1
  -8  -7  10 346.980 37.0812   6
   8   7  10 348.418 45.3714   4
  -8  -7  10 365.371 40.3227   1
   8   7  10 368.618 37.4426   8
  -8   7 -10 346.419 40.4901   1
   8  -7 -10 363.781 37.5432   8
  -9  -7 -10 161.372 21.4952   1
   9   7 -10 207.270 20.5331   8
  -9   7  10 186.815 21.7044   1
   9  -7 -10 181.906 20.2779   8
   9   7  10 206.637 20.2964   8
  -9  -7  10 199.451 20.1941   6
  -9   7 -10 157.162 21.7028   1
  -9  -7  10 175.178 21.6216   1
 -10   7  10 146.654 21.7285   1
  10  -7  10 198.479 21.2348   8
  10   7 -10 231.128 21.2162   8
 -10  -7 -10 154.015 21.8896   1
 -10  -7  10 185.658 20.5024   6
 -10   7 -10 208.618 22.7418   1
  10  -7 -10 226.719 21.1852   8
  10   7  10 174.128 20.5350   8
 -10  -7  10 207.566 22.4657   1
   0  -8  10 129.505 15.8462   5
   0  -8 -10 138.020 15.6981   2
   0   8 -10 136.302 16.1357   2
   0   8  10 110.963 15.3404   2
   0  -8  10 116.567 15.6329   2
   1  -8  10 512.416 51.0271   2
   1   8 -10 512.662 51.1844   2
  -1  -8 -10 414.210 50.1232   1
  -1  -8 -10 507.377 50.9558   2
  -1   8  10 387.163 50.4897   2
  -1   8 -10 465.886 51.1285   2
  -1  -8  10 428.191 50.1315   1
   1   8  10 416.404 50.5006   2
  -1  -8  10 479.423 51.0848   2
  -2   8  10 71.1768 9.89250   1
   2  -8  10 79.1824 10.2997   2
  -2  -8 -10 55.7060 9.86716   1
   2   8 -10 88.7417 10.7323   2
  -2   8 -10 92.3075 11.1669   2
  -2  -8  10 74.3992 10.1714   1
   2   8  10 80.5931 10.1486   2
  -2  -8  10 67.3243 10.4249   1
   2  -8 -10 73.8467 10.0981   2
  -2   8 -10 69.2257 10.5578   1
  -3  -8 -10 2.37357 2.38541   1
  -3   8  10 7.44225 3.14587   1
   3   8 -10 0.51219 2.51084   2
   3  -8  10 -0.3432 2.48528   2
   3  -8 -10 1.10328 2.42040   2
  -3  -8  10 4.47108 3.10544   1
   3   8  10 -1.6546 2.22739   2
  -3  -8  10 3.89063 2.91478   1
  -3   8 -10 3.89141 3.29745   1
  -4  -8 -10 168.800 21.7708   1
   4  -8  10 197.975 22.1626   2
  -4   8  10 145.476 21.4868   1
   4   8 -10 203.246 21.8418   2
  -4  -8  10 198.236 22.0161   1
   4   8  10 174.389 21.7449   2
  -4   8 -10 229.760 22.5783   1
  -4  -8  10 209.848 22.2073   1
   4  -8 -10 180.085 21.8966   2
  -5  -8 -10 94.6475 12.2056   1
   5   8 -10 76.0696 14.8897   4
   5   8 -10 80.7094 11.6988   2
  -5   8  10 102.076 12.3735   1
   5  -8  10 103.872 12.4892   2
   5  -8 -10 99.5145 12.1980   2
  -5  -8  10 116.168 12.5927   1
   5   8  10 66.8769 11.4044   2
  -5  -8  10 102.820 12.5061   1
  -5   8 -10 121.612 13.0718   1
   6   8 -10 112.374 15.9610   4
  -6  -8 -10 95.0799 12.7735   1
   6  -8  10 119.531 13.2049   2
   6   8 -10 102.101 12.0310   2
  -6   8  10 116.234 13.1691   1
  -6  -8  10 88.2342 12.8356   1
  -6  -8  10 115.840 13.3795   1
   6   8  10 85.8830 12.1651   2
  -6   8 -10 115.933 13.6013   1
   6   8  10 87.6532 14.3168   4
   6  -8 -10 86.2923 12.5192   2
   7   8 -10 514.133 53.8772   8
   7  -8  10 517.333 57.9513   2
  -7   8  10 552.793 57.9508   1
  -7  -8  10 508.596 57.9577   1
  -7   8 -10 544.731 58.1799   1
   7  -8 -10 519.727 57.6118   2
  -7  -8  10 527.286 57.8930   1
   8   8 -10 24.9524 5.10849   8
  -8   8  10 21.0722 5.43106   1
   8   8  10 27.7391 5.20213   8
  -8  -8  10 28.4541 6.01136   1
   8   8  10 31.3196 6.91555   4
  -8   8 -10 27.5225 5.81697   1
  -8  -8  10 29.0025 5.68568   1
  -9   8  10 213.221 26.9443   1
   9   8 -10 251.637 25.5193   8
  -9  -8 -10 229.875 27.1836   1
   9   8  10 186.129 24.8151   8
  -9   8 -10 230.606 27.2724   1
  -9  -8  10 261.051 25.2871   6
  -9  -8  10 249.679 27.2984   1
  -9  -8  10 270.545 27.6214   1
   0  -9  10 1.89808 3.18682   2
   0   9 -10 15.7596 4.40742   2
   0  -9 -10 -4.6616 2.40298   2
   0   9  10 4.46150 2.38517   2
  -1   9  10 548.136 67.2098   2
  -1  -9 -10 727.116 67.7924   2
  -1  -9 -10 587.310 66.8736   1
   1  -9  10 641.347 67.7339   2
  -1   9 -10 578.821 67.6915   2
   1   9  10 576.581 67.1801   2
  -1  -9  10 587.614 66.8299   1
   1  -9 -10 649.098 67.5162   2
   2   9 -10 502.146 50.5448   2
   2  -9  10 362.535 49.8472   2
  -2  -9 -10 481.087 49.7888   1
  -2   9  10 487.793 49.6633   1
  -2   9 -10 489.559 50.6542   2
  -2  -9  10 392.073 49.5325   1
   2   9  10 421.616 49.8769   2
   2  -9 -10 477.709 50.1998   2
   3   9 -10 89.0180 11.2364   2
  -3  -9 -10 99.5080 11.4830   1
   3  -9  10 85.5794 11.2802   2
  -3   9  10 73.2621 11.3294   1
   3   9  10 89.0313 11.0815   2
  -3  -9  10 76.7644 11.4118   1
   3  -9 -10 84.4877 11.1245   2
  -3   9 -10 61.7766 11.0147   1
   4   9 -10 7.28587 2.98448   2
   4  -9  10 7.70791 3.37062   2
  -4   9  10 4.78158 3.35006   1
  -4  -9 -10 4.02140 3.13507   1
   4   9  10 4.32754 2.61596   2
  -4   9 -10 4.59042 3.47887   1
   4  -9 -10 4.92277 3.03149   2
  -4  -9  10 7.58400 3.52868   1
  -5  -9 -10 129.392 15.5175   1
   5   9 -10 130.429 15.2091   2
  -5   9  10 149.758 15.8226   1
   5  -9  10 172.066 16.1741   2
   5   9 -10 95.3255 18.7729   4
  -5   9 -10 116.894 15.7051   1
  -5  -9  10 102.570 15.3597   1
   5   9  10 141.386 15.4364   2
  -5  -9  10 96.2308 15.2116   1
   5  -9 -10 112.466 15.2945   2
   6  -9  10 212.894 23.1684   2
  -6   9  10 192.086 22.8449   1
   6   9 -10 151.737 21.8601   2
   6   9 -10 244.143 28.0171   4
  -6  -9 -10 217.170 23.0092   1
   6   9  10 245.892 22.9399   2
  -6   9 -10 156.415 22.7523   1
  -6  -9  10 172.352 22.7625   1
  -6  -9  10 211.524 23.2038   1
   6  -9 -10 196.898 22.7870   2
  -7   9  10 215.781 23.6959   1
   7  -9  10 187.256 23.2331   2
  -7  -9 -10 215.524 23.5911   1
   7   9 -10 205.880 27.4643   4
  -7  -9  10 218.507 23.8892   1
   7  -9 -10 207.166 22.9746   2
  -7  -9  10 187.082 23.5169   1
  -7   9 -10 186.550 23.5819   1
   7   9  10 180.299 26.0136   4
  -8  -9 -10 352.783 41.3142   1
  -8   9  10 370.563 41.4747   1
  -8  -9  10 384.806 41.6462   1
   9   9 -10 75.9637 10.3701   8
  -9   9  10 93.5074 11.9539   1
  -9  -9 -10 60.8494 11.1682   1
  -9   9 -10 96.8359 12.0148   1
  -9  -9  10 101.218 12.2616   1
   0  10  10 179.276 19.2314   2
   0 -10  10 175.985 19.7247   2
   0  10 -10 128.588 19.2465   2
   0 -10 -10 148.770 19.0744   2
  -1  10  10 79.8434 10.3319   2
   1  10 -10 77.1441 11.2174   2
   1 -10  10 79.3749 11.3504   2
   1 -10 -10 68.2064 10.3807   2
  -1  10 -10 66.1095 10.8271   2
   1  10  10 62.6818 10.0289   2
   2  10 -10 12.3403 4.52852   2
  -2 -10 -10 15.4563 4.52415   1
   2 -10  10 9.72489 3.84269   2
   2 -10 -10 17.3233 4.25089   2
  -2 -10  10 13.7114 4.46319   1
   2  10  10 11.0378 3.80578   2
   3  10 -10 -5.1621 2.46526   2
  -3 -10 -10 4.54270 3.26736   1
  -3  10  10 0.20461 2.99541   1
   3 -10  10 0.23697 2.87290   2
   3 -10 -10 2.16348 3.01227   2
  -3 -10  10 -2.6488 2.81985   1
   3  10  10 -2.4493 2.63025   2
  -3  10 -10 4.30565 3.64651   1
   4 -10  10 633.262 69.5001   2
  -4 -10 -10 694.063 69.0681   1
   4  10 -10 666.787 69.2991   2
  -4  10  10 659.872 68.9433   1
  -4  10 -10 558.924 68.7532   1
  -4 -10  10 677.809 69.2348   1
   4 -10 -10 524.785 69.1464   2
   5  10 -10 34.7069 8.88897   4
  -5 -10 -10 26.6355 5.83045   1
   5  10 -10 21.7496 4.77221   2
   5 -10  10 32.3655 5.90289   2
  -5  10  10 24.9128 5.45093   1
  -5  10 -10 30.8239 6.34514   1
   5 -10 -10 20.7533 5.21774   2
  -5 -10  10 35.4488 6.81168   1
   5  10  10 28.8520 5.46307   2
   6  10 -10 7.76377 3.17079   2
  -6 -10 -10 8.97922 3.93412   1
   6  10 -10 10.6190 6.16216   4
   6 -10  10 12.4008 3.38983   2
  -6  10  10 2.63291 3.10156   1
   6 -10 -10 9.89656 3.72800   2
   6  10  10 8.29864 2.98331   2
  -6  10 -10 6.55339 4.02708   1
  -6 -10  10 4.59058 4.00485   1
   7  10 -10 75.7928 13.4669   4
  -7 -10 -10 51.4896 8.29959   1
  -7  10  10 37.7083 7.87472   1
   7 -10  10 56.3887 8.33653   2
  -7 -10  10 40.6804 8.23206   1
   7 -10 -10 57.2769 7.85994   2
  -7  10 -10 46.7326 8.42574   1
  -8  10  10 44.5856 9.02394   1
  -8 -10 -10 67.0366 9.82561   1
  -8  10 -10 72.0087 10.1241   1
  -8 -10  10 79.0487 10.8109   1
   0 -11 -10 2.54179 3.27137   2
   0  11  10 10.3836 3.64403   2
   0  11 -10 5.90073 3.46686   2
   0 -11  10 44.0044 6.90897   2
   1  11 -10 208.171 24.0731   2
   1 -11  10 185.525 23.5911   2
  -1  11  10 187.613 23.2176   2
   1  11  10 211.327 23.3952   2
  -1  11 -10 185.318 23.5796   2
   1 -11 -10 197.944 23.3561   2
   2  11 -10 197.793 27.3714   2
   2 -11  10 269.472 27.9762   2
  -2 -11 -10 250.973 27.4385   1
   2  11  10 244.535 27.3525   2
   2 -11 -10 211.694 27.1926   2
  -2 -11  10 238.500 27.5010   1
   3 -11  10 393.323 49.7467   2
  -3 -11 -10 446.831 49.5539   1
  -3  11  10 484.081 50.0863   1
   3  11 -10 459.351 50.0593   2
  -3 -11  10 457.799 49.8000   1
   3 -11 -10 437.438 49.8801   2
   4  11 -10 29.9560 6.48379   2
   4 -11  10 50.9595 7.78119   2
  -4 -11 -10 33.9582 7.05333   1
  -4  11  10 41.4102 7.35717   1
  -4  11 -10 50.1266 8.02291   1
   4  11  10 38.8528 6.99320   2
   4 -11 -10 37.4490 7.25684   2
  -4 -11  10 47.0451 8.07414   1
   5  11 -10 16.1105 4.19142   2
  -5 -11 -10 16.1754 4.91005   1
  -5  11  10 22.2470 5.40272   1
   5 -11  10 19.3484 4.92182   2
   5  11 -10 13.3772 7.63562   4
  -5 -11  10 24.5988 5.64287   1
   5  11  10 12.6535 4.82460   2
   5 -11 -10 20.8448 5.16085   2
  -5  11 -10 18.9594 5.42640   1
   6  11 -10 58.2799 7.87630   2
  -6 -11 -10 44.6150 8.52616   1
  -6  11  10 57.8688 9.25484   1
   6 -11  10 45.4436 8.58006   2
   6 -11 -10 49.4567 8.24345   2
  -6 -11  10 66.9764 9.77118   1
   6  11  10 49.5823 8.13426   2
  -6  11 -10 66.2004 9.68751   1
  -7  11  10 182.830 24.0874   1
  -7 -11 -10 195.177 24.0668   1
   7 -11  10 187.724 23.8557   2
   7 -11 -10 226.585 23.9018   2
  -7  11 -10 195.198 24.2357   1
  -7 -11  10 235.794 24.8367   1
   0  12  10 82.4161 11.7108   2
   0 -12  10 78.3147 12.1708   2
   0  12 -10 104.377 12.7608   2
   0 -12 -10 67.9612 11.3114   2
   1  12 -10 49.6025 9.63083   2
   1 -12  10 72.2934 10.4340   2
  -1  12  10 55.4184 9.39570   2
   1  12  10 52.3826 9.03200   2
  -1  12 -10 69.0610 10.4214   2
   1 -12 -10 61.0758 9.36397   2
   2  12 -10 82.3744 13.4602   2
   2 -12  10 107.897 13.5784   2
   2 -12 -10 128.814 13.8126   2
   2  12  10 79.2174 12.5984   2
  -3 -12 -10 76.8316 13.7459   1
   3 -12  10 132.621 14.5571   2
   3  12 -10 98.5047 14.0484   2
   3 -12 -10 105.524 14.2363   2
  -3 -12  10 97.8405 14.7865   1
   3  12  10 125.139 14.2619   2
   4  12 -10 22.2478 5.39798   2
  -4  12  10 22.2537 5.63628   1
   4 -12  10 30.2246 6.13311   2
  -4 -12 -10 31.5300 6.67490   1
  -4 -12  10 36.4416 7.32868   1
   4 -12 -10 34.8445 6.64354   2
   4  12  10 30.2923 5.87333   2
   5  12 -10 7.25604 3.66856   2
  -5  12  10 7.07307 3.80769   1
   5 -12  10 5.98048 3.07821   2
  -5 -12 -10 11.2045 4.71951   1
  -5  12 -10 19.5862 5.13152   1
   5 -12 -10 10.0828 3.89857   2
   5  12  10 12.4985 4.19120   2
  -5 -12  10 12.6800 4.80349   1
   6  12 -10 22.4427 5.11030   2
  -6  12  10 34.5239 6.86456   1
   6 -12  10 30.5329 6.26398   2
  -6 -12 -10 32.2645 6.53773   1
  -6 -12  10 28.8243 6.86428   1
  -6  12 -10 19.6571 5.62059   1
   6  12  10 30.5579 5.96767   2
   6 -12 -10 35.1376 6.26404   2
   0  13  10 -2.9530 3.21048   2
   0 -13 -10 7.09035 4.02964   2
   0 -13  10 4.77815 3.97007   2
   0  13 -10 -3.2625 3.59324   2
  -1  13  10 8.31143 4.23416   2
   1  13 -10 12.4889 4.83724   2
   1 -13  10 7.49317 3.96692   2
   1 -13 -10 9.35101 4.33141   2
   1  13  10 9.63125 4.00441   2
  -1  13 -10 6.99317 4.51549   2
   2 -13  10 7.99698 4.27559   2
   2  13 -10 2.74785 3.74453   2
   2 -13 -10 8.09589 3.85533   2
   2  13  10 3.85492 3.65633   2
   3 -13  10 185.903 25.4939   2
   3  13 -10 228.173 26.0203   2
  -3 -13  10 248.831 26.3987   1
   3 -13 -10 224.225 25.9663   2
   3  13  10 202.273 25.5574   2
   4 -13  10 37.1296 6.95207   2
  -4 -13 -10 40.8825 7.71387   1
   4  13 -10 23.3966 5.97578   2
   4 -13 -10 24.9259 6.24909   2
   4  13  10 29.4804 6.39504   2
  -4 -13  10 35.2218 7.19746   1
   5 -13  10 243.841 29.3570   2
  -5 -13 -10 267.998 29.8195   1
  -5  13  10 262.004 29.6054   1
   5  13 -10 208.895 28.5649   2
  -5 -13  10 231.667 29.7012   1
   5 -13 -10 257.730 29.4341   2
   5  13  10 310.586 29.9062   2
   0  14 -10 23.7921 6.76995   2
   0 -14 -10 22.5824 6.36740   2
   0  14  10 25.6507 6.44125   2
  -1  14  10 64.0741 11.7172   2
   1 -14  10 78.6322 12.6922   2
   1  14 -10 102.464 13.6393   2
  -1  14 -10 93.8738 13.4071   2
   1  14  10 85.0201 12.4643   2
   1 -14 -10 84.1324 12.6323   2
   2 -14  10 81.2560 11.9605   2
   2  14 -10 66.7499 11.4919   2
   2  14  10 57.8814 10.5789   2
   2 -14 -10 87.3306 12.0483   2
   3  14 -10 9.25432 4.04080   2
   3 -14  10 7.16062 3.75417   2
   3  14  10 6.54204 4.82935   2
   3 -14 -10 5.19085 4.26672   2
   0   0  11 3.79415 2.35250   2
   0   0  11 0.85025 1.83037   7
   0   0 -11 2.29737 2.11356   2
   0   0 -11 1.21088 2.29094   1
   0   0  11 -0.7164 1.62061   1
   1   0 -11 82.1943 12.2384   2
   1   0  11 117.005 13.5259   5
  -1   0 -11 106.436 12.7416   1
   1   0  11 103.799 12.7101   2
  -1   0  11 100.113 12.7026   2
  -1   0 -11 114.134 12.7376   2
  -2   0  11 -0.0852 1.77674   2
   2   0 -11 -0.4030 1.82776   2
  -2   0 -11 0.83562 1.87779   2
  -2   0 -11 0.59121 2.06722   1
   2   0  11 2.28466 2.08456   2
   2   0  11 1.13377 2.63169   5
  -2   0  11 -1.3594 1.88776   1
  -3   0  11 56.6236 7.75032   1
   3   0 -11 43.2910 7.67984   2
   3   0  11 69.1874 8.13471   2
  -3   0 -11 56.3259 8.32440   1
   3   0  11 66.9483 9.48545   5
   4   0 -11 2.68483 2.04359   2
   4   0  11 1.74861 2.07350   2
  -4   0 -11 1.62064 2.29927   1
   4   0  11 0.07669 2.85293   5
  -4   0  11 -0.9246 1.75243   1
   4   0 -11 -0.1770 1.43850   8
   5   0  11 568.032 61.6857   5
   5   0 -11 561.235 54.4283   8
   5   0  11 529.262 54.6011   8
  -5   0  11 448.509 58.2135   1
   5   0  11 457.504 58.7199   2
   5   0 -11 599.917 58.8072   2
  -5   0 -11 612.187 58.9160   1
   6   0 -11 -1.6460 1.72566   8
   6   0  11 -4.4141 2.78751   5
  -6   0 -11 2.02915 2.49108   1
   6   0  11 1.13861 2.09517   8
   6   0  11 -1.3625 1.92338   2
  -6   0  11 0.98542 2.24815   1
   6   0 -11 1.39505 1.82643   2
   7   0  11 36.9354 7.96011   5
  -7   0 -11 48.9014 7.39036   1
   7   0  11 49.1644 6.72055   8
   7   0  11 47.3654 5.75888   2
  -7   0  11 34.9878 6.51161   1
   7   0 -11 46.1122 6.26082   8
  -8   0 -11 -1.5062 2.24960   1
  -8   0  11 0.79743 2.35075   1
   8   0 -11 -1.3407 1.96531   8
   8   0  11 1.94095 2.22501   8
  -9   0  11 65.3536 9.45678   1
   9   0 -11 63.8198 8.69094   8
   9   0  11 72.1958 9.04958   8
  -9   0 -11 83.3126 10.2506   1
  10   0  11 3.93759 2.88837   8
 -10   0 -11 -0.7108 2.65151   1
 -10   0  11 -1.2913 2.18474   1
  10   0 -11 -1.0436 2.12193   8
  11   0 -11 42.0975 6.27052   8
  11   0  11 38.1826 6.45933   8
 -11   0 -11 43.0720 7.34877   1
   0  -1  11 3.71508 2.38285   2
   0  -1  11 0.82463 2.13373   7
   0  -1 -11 4.73852 2.35661   1
   0   1 -11 10.5468 3.23926   1
   0  -1  11 3.64725 2.43921   1
   0  -1  11 2.66669 2.77377   5
   0   1  11 4.87456 2.00260   7
   0  -1 -11 3.29671 2.29241   2
   0   1 -11 6.30709 2.47545   2
   0   1  11 7.29190 2.61125   2
   0   1  11 4.23219 2.43184   1
   1  -1  11 0.19318 2.47934   5
  -1  -1 -11 4.00789 2.12098   2
   1  -1  11 2.53853 2.18424   2
  -1   1  11 1.55357 2.28840   2
  -1  -1 -11 4.79759 2.59694   1
  -1   1  11 1.13268 1.87428   1
   1   1 -11 2.56696 1.99873   2
   1   1  11 2.98736 2.19461   2
  -1  -1  11 5.95404 2.64332   2
  -1   1 -11 6.18842 2.76442   1
  -1  -1  11 3.24566 2.31712   1
  -1   1 -11 -0.1641 2.02414   2
   1  -1 -11 1.48098 2.10812   2
   2   1 -11 6.49561 2.37723   2
   2  -1  11 2.44923 2.58203   5
  -2  -1 -11 6.58538 2.83755   1
  -2   1  11 6.66898 2.66826   2
  -2   1  11 1.71988 2.00657   1
   2  -1  11 1.35201 2.08111   2
  -2  -1 -11 5.10675 2.08633   2
  -2   1 -11 4.46927 2.50043   1
   2   1  11 4.21020 2.93912   5
  -2   1 -11 2.08595 2.12469   2
   2  -1 -11 4.38648 2.28773   2
  -2  -1  11 4.07671 2.43899   1
   2   1  11 3.52966 2.36574   2
   3   1 -11 68.0214 9.36825   2
   3  -1  11 80.4329 10.6455   5
   3  -1  11 66.0788 9.53053   2
  -3   1  11 73.2549 9.37090   1
  -3  -1 -11 68.7944 9.51896   1
  -3  -1  11 74.6043 9.45629   1
   3  -1 -11 70.1655 9.53541   2
  -3   1 -11 82.0408 9.91380   1
   3   1  11 74.3636 10.5654   5
   3   1  11 79.8237 9.64971   2
   4   1 -11 38.5171 5.74656   8
   4  -1  11 44.6112 6.47078   2
  -4  -1 -11 24.9068 5.95069   1
   4   1 -11 54.3188 6.43677   2
   4  -1  11 38.5438 7.24820   5
  -4   1  11 31.4557 6.04186   1
  -4   1 -11 45.5246 6.89513   1
   4   1  11 43.8672 6.42598   2
   4  -1 -11 43.2237 5.84052   8
   4  -1 -11 44.1149 6.42719   2
  -4  -1  11 48.9174 6.70887   1
   4   1  11 46.4288 7.69322   5
   5  -1  11 1.84419 2.26900   8
   5   1 -11 1.77933 1.90039   2
   5  -1  11 5.61130 3.37598   5
  -5  -1 -11 4.84683 2.62418   1
  -5   1  11 6.12128 2.64997   1
   5  -1  11 4.48722 2.39838   2
   5   1 -11 1.77625 1.76687   8
  -5   1 -11 5.20601 3.17107   1
   5  -1 -11 3.90245 2.29593   2
   5   1  11 -2.0881 2.67460   5
   5   1  11 0.68191 2.06788   2
   5  -1 -11 4.91264 2.19065   8
  -5  -1  11 4.08890 2.55691   1
   5   1  11 6.50348 2.33402   8
   6   1 -11 186.403 21.2645   2
  -6   1  11 209.137 21.7855   1
   6  -1  11 206.436 23.5727   5
  -6  -1 -11 154.546 21.6239   1
   6  -1  11 205.262 21.6470   2
   6   1 -11 184.801 20.0623   8
   6  -1 -11 152.975 19.9550   8
  -6   1 -11 203.145 22.1091   1
   6   1  11 180.727 20.1942   8
  -6  -1  11 213.638 21.8499   1
   6  -1 -11 186.402 21.3086   2
   6   1  11 202.285 23.3708   5
   7  -1  11 20.8230 4.37567   8
  -7  -1 -11 12.4718 3.93090   1
   7  -1  11 25.0707 3.62013   2
   7   1 -11 20.4700 3.85299   8
  -7   1  11 17.7602 4.06719   1
   7  -1  11 21.0286 5.83634   5
   7   1  11 13.4661 3.37907   8
   7   1  11 19.3529 3.08473   2
  -7  -1  11 18.2316 4.04489   1
  -7   1 -11 17.6557 4.61242   1
   7   1  11 15.3360 5.08987   5
   7  -1 -11 16.8055 3.75830   8
   8   1 -11 0.56517 2.22224   8
   8  -1  11 2.10607 2.53299   8
  -8  -1 -11 3.79734 3.03167   1
  -8   1  11 1.74800 2.61129   1
  -8  -1  11 1.52406 2.79396   1
   8  -1 -11 1.86099 2.14555   8
   8   1  11 5.57188 2.29961   8
  -8   1 -11 0.62659 2.63643   1
   8   1  11 0.26088 3.73011   5
   9   1 -11 205.500 22.3418   8
  -9   1  11 174.500 23.8460   1
  -9  -1 -11 231.573 24.5643   1
   9   1  11 207.053 22.5140   8
  -9  -1  11 244.078 24.4047   1
  -9   1 -11 212.208 24.4536   1
 -10  -1 -11 15.3980 4.34989   1
  10  -1  11 18.7795 4.20756   8
  10   1 -11 19.4555 4.23154   8
 -10   1  11 19.9018 4.56279   1
  10  -1 -11 19.2078 4.17774   8
 -10  -1  11 18.8862 4.60840   1
 -10   1 -11 27.9434 5.42707   1
  10   1  11 17.4290 3.84118   8
   0   2  11 5.77749 1.56387   7
   0  -2  11 1.75322 2.31902   1
   0   2 -11 1.74931 2.42477   1
   0  -2  11 -2.6510 1.76110   7
   0   2  11 3.32688 2.33192   2
   0   2 -11 2.31678 2.14625   2
   0   2  11 1.15799 1.86851   1
   0  -2  11 1.17562 2.01417   5
   0  -2  11 0.68916 2.09004   2
   0  -2 -11 0.57132 1.76937   2
   0  -2 -11 -1.8066 2.03856   1
   1   2 -11 75.2712 10.3746   2
  -1  -2 -11 77.9702 10.4021   1
   1  -2  11 84.0442 11.1580   5
  -1  -2 -11 79.9374 10.3219   2
  -1   2  11 75.5538 10.3713   2
  -1   2  11 103.342 10.4499   1
   1  -2  11 75.5804 10.6032   2
  -1  -2  11 79.5322 10.8837   5
  -1   2 -11 94.0896 10.5426   2
  -1  -2  11 91.4447 10.7771   2
   1   2  11 76.1668 10.4129   2
   1  -2 -11 89.9960 10.5681   2
  -1  -2  11 72.1222 10.1947   1
  -1   2 -11 73.3590 10.4370   1
   2  -2  11 312.532 37.7108   2
   2  -2  11 405.486 39.5430   5
  -2  -2 -11 326.895 37.4332   2
  -2   2  11 364.705 37.1431   1
  -2  -2 -11 385.132 37.5130   1
  -2   2  11 312.237 37.5566   2
   2   2  11 392.061 37.7827   2
  -2  -2  11 308.282 37.0413   1
  -2   2 -11 378.223 37.7379   2
   2   2  11 270.230 38.7746   5
   2  -2 -11 307.153 37.4863   2
  -2   2 -11 299.819 37.3003   1
  -3  -2 -11 17.1125 3.68484   1
  -3   2  11 11.8451 3.13440   1
   3  -2  11 9.80695 3.68563   5
   3   2 -11 14.3413 3.21749   2
   3  -2  11 9.85342 2.98007   2
  -3  -2  11 13.6891 3.36598   1
   3   2  11 11.5464 3.30215   2
   3   2  11 10.2320 3.90367   5
   3  -2 -11 7.01949 2.92212   2
  -3   2 -11 9.05873 3.45086   1
  -4  -2 -11 3.91994 2.74182   1
   4  -2  11 1.39691 2.96743   5
  -4   2  11 0.16912 1.93048   1
   4   2 -11 4.00932 2.30273   2
   4  -2  11 1.03325 2.17694   2
   4   2 -11 2.60783 2.09605   8
  -4  -2  11 0.25936 2.08112   1
   4   2  11 3.15471 2.36994   2
   4  -2 -11 2.53646 2.18632   2
  -4   2 -11 1.15996 2.45159   1
   4   2  11 6.45861 3.43023   5
   5  -2  11 11.8900 3.56283   2
  -5   2  11 12.1590 3.72533   1
   5  -2  11 16.9367 3.92192   8
  -5  -2 -11 20.0684 4.31938   1
   5   2 -11 20.8428 3.94311   2
   5   2 -11 22.6841 3.68115   8
   5  -2  11 14.5462 4.80521   5
   5   2  11 19.6211 3.91777   2
   5   2  11 18.0115 3.63174   8
   5  -2 -11 16.0112 3.71902   2
   5  -2 -11 19.2347 3.73292   8
  -5  -2  11 21.5874 4.29437   1
  -5   2 -11 18.5025 4.51190   1
   5   2  11 19.9267 5.28453   5
   6   2 -11 101.673 12.7153   2
  -6   2  11 90.7683 13.1882   1
   6   2 -11 99.7273 12.1535   8
   6  -2  11 132.959 12.9853   8
   6  -2  11 89.5790 14.3898   5
   6  -2  11 89.0393 12.9121   2
  -6  -2 -11 126.137 13.7693   1
   6   2  11 116.538 13.1091   2
   6  -2 -11 106.261 12.9272   2
  -6   2 -11 118.183 13.8265   1
   6  -2 -11 121.392 12.5248   8
  -6  -2  11 131.532 13.6769   1
   6   2  11 110.656 12.3674   8
   6   2  11 122.675 14.8575   5
   7   2 -11 18.0807 3.48926   8
   7  -2  11 18.2422 3.98936   8
  -7   2  11 10.1100 3.47048   1
   7  -2  11 17.2763 3.21685   2
  -7  -2 -11 18.7663 4.17963   1
   7   2  11 13.6285 3.47273   8
   7   2  11 14.3853 2.71927   2
   7   2  11 17.2527 3.47193   8
   7   2  11 13.0824 4.78625   5
  -7   2 -11 15.2681 4.28406   1
  -7  -2  11 14.1714 3.83745   1
   7  -2 -11 14.0852 3.16971   8
   8  -2  11 203.104 21.3589   8
  -8   2  11 221.349 22.9250   1
  -8  -2 -11 212.573 22.9622   1
   8   2 -11 189.151 20.8397   8
   8   2  11 182.221 20.8781   8
  -8  -2  11 208.099 22.7658   1
   8  -2 -11 180.030 20.8994   8
   8   2  11 234.588 21.2282   8
  -8   2 -11 168.105 22.7550   1
   8   2  11 171.960 24.3493   5
  -9  -2 -11 23.9337 5.59528   1
  -9   2  11 28.1622 5.71740   1
   9   2 -11 33.2714 5.22169   8
   9  -2  11 36.4278 5.89046   8
  -9  -2  11 33.4732 5.96926   1
   9   2  11 34.1445 5.26531   8
   9  -2 -11 32.0752 5.30737   8
  -9   2 -11 35.9570 6.41412   1
 -10   2  11 77.5623 9.80288   1
 -10  -2 -11 59.8557 9.70599   1
  10   2 -11 63.1113 8.59809   8
  10  -2  11 68.9455 9.35512   8
  10  -2 -11 73.2611 8.92129   8
 -10  -2  11 74.8454 9.77564   1
  10   2  11 81.1181 8.98833   8
 -10   2 -11 53.2643 9.68607   1
   0  -3  11 150.504 19.9836   5
   0  -3  11 173.649 19.3623   1
   0   3  11 169.979 18.9359   1
   0  -3 -11 136.430 19.0472   2
   0  -3 -11 184.438 19.4033   1
   0  -3  11 154.507 19.0632   7
   0   3 -11 184.716 19.3296   2
   0  -3  11 128.244 19.1463   2
   0   3  11 191.925 19.3615   7
   0   3  11 183.664 19.4214   2
  -1  -3 -11 131.242 16.3797   2
  -1   3  11 119.980 16.3614   2
   1  -3  11 162.478 16.9489   2
  -1   3  11 148.971 16.2609   1
   1  -3  11 136.385 17.2993   5
   1   3 -11 155.812 16.6516   2
  -1  -3 -11 146.028 16.4761   1
  -1   3 -11 135.248 16.4089   2
  -1  -3  11 136.746 16.3987   1
  -1   3 -11 139.564 16.5861   1
  -1  -3  11 150.130 16.7221   2
   1  -3 -11 128.156 16.4270   2
  -1  -3  11 110.363 16.8143   5
   1   3  11 143.775 16.5106   2
  -2  -3 -11 19.7144 4.34170   1
  -2   3  11 21.8165 4.40249   2
   2  -3  11 16.7334 4.32035   2
   2   3 -11 20.2317 4.22817   2
  -2  -3 -11 22.4060 4.32439   2
  -2   3  11 22.1891 4.22481   1
   2  -3  11 23.7546 5.13582   5
  -2   3 -11 26.0915 5.00427   2
   2   3  11 18.5609 4.20068   2
  -2  -3  11 26.9726 4.61686   1
  -2   3 -11 14.4954 4.32579   1
   2  -3 -11 24.0226 4.48782   2
  -2  -3  11 23.1275 4.72067   5
   3  -3  11 0.08016 2.03803   2
   3   3 -11 5.24891 2.27685   2
  -3  -3 -11 1.30982 2.31353   1
   3  -3  11 -1.0016 2.60683   5
  -3   3  11 -0.7538 1.80253   1
   3   3  11 3.47864 2.50025   2
  -3  -3  11 5.22633 2.62386   1
   3  -3 -11 2.68286 2.34796   2
  -3   3 -11 -0.5612 2.35747   1
   3   3  11 2.70392 2.99901   5
   4  -3  11 100.166 14.5086   2
   4  -3  11 144.976 16.0183   5
   4   3 -11 137.751 14.6253   2
   4   3 -11 104.939 13.3649   8
  -4  -3 -11 138.048 14.9118   1
  -4   3 -11 150.520 15.4132   1
   4   3  11 106.425 15.7364   5
  -4  -3  11 118.690 14.5499   1
   4   3  11 120.992 14.6485   2
   4  -3 -11 111.954 14.5371   2
   5  -3  11 1.16952 3.17195   5
   5  -3  11 2.56729 2.28721   2
   5   3 -11 0.50195 1.80515   8
   5   3 -11 0.85439 1.99130   2
  -5   3  11 -2.6966 1.89308   1
  -5  -3 -11 5.08855 2.79083   1
   5   3  11 2.53012 3.22053   5
   5   3  11 2.16070 2.38311   2
   5  -3 -11 0.88585 2.08509   2
  -5   3 -11 3.61861 3.04801   1
   5   3  11 2.25785 2.20833   8
  -5  -3  11 -4.2435 1.85355   1
   5  -3 -11 0.85899 1.98051   8
   6  -3  11 112.386 12.3269   8
  -6   3  11 113.203 13.1050   1
   6  -3  11 114.074 14.7275   5
   6   3 -11 95.8348 12.3316   2
  -6  -3 -11 107.229 13.1367   1
   6  -3  11 97.1834 12.6859   2
   6   3 -11 114.138 12.0386   8
   6  -3 -11 126.260 12.3144   8
   6   3  11 101.035 12.5001   2
   6  -3 -11 112.507 12.6344   2
   6   3  11 83.7031 14.3715   5
  -6  -3  11 91.9027 12.8844   1
  -6   3 -11 119.471 13.6638   1
   6   3  11 93.2265 11.8852   8
  -7   3  11 20.5173 4.51896   1
   7  -3  11 24.6606 4.04170   2
  -7  -3 -11 20.0784 4.78084   1
   7   3 -11 24.6615 4.06234   8
   7  -3  11 24.1894 4.46766   8
   7   3  11 14.8891 5.41329   5
   7  -3 -11 20.5338 3.66100   2
  -7   3 -11 24.0548 5.09089   1
   7   3  11 20.8035 3.36288   2
  -7  -3  11 20.0751 4.58131   1
   7  -3 -11 21.6846 4.13258   8
   7   3  11 21.5147 4.11196   8
   8  -3  11 0.97914 2.39529   8
   8   3 -11 5.33411 2.50759   8
  -8  -3 -11 5.66727 2.77769   1
  -8   3  11 5.41109 2.77488   1
  -8   3 -11 -0.6102 2.47660   1
   8  -3 -11 -1.9336 2.11725   8
   8   3  11 3.21164 2.36752   8
  -8  -3  11 6.24082 2.97898   1
   9  -3  11 218.988 22.0782   8
   9   3 -11 202.495 21.6270   8
  -9  -3 -11 219.624 23.7280   1
   9   3  11 204.304 21.7332   8
  -9  -3  11 192.499 23.4231   1
  -9   3 -11 167.381 23.4749   1
   9  -3 -11 218.528 21.9758   8
 -10   3  11 10.7016 3.95413   1
  10   3 -11 10.0182 3.16345   8
  10  -3  11 10.0747 3.58499   8
 -10  -3 -11 12.8043 4.21234   1
  10   3  11 11.9216 3.45647   8
  10  -3 -11 12.5333 3.66494   8
 -10   3 -11 13.6901 4.23294   1
 -10  -3  11 11.1380 3.86347   1
   0  -4 -11 2.32038 2.21959   1
   0  -4 -11 -0.7441 2.28028   2
   0   4 -11 -1.6539 1.98218   2
   0  -4  11 2.47558 2.64720   5
   0   4  11 -4.1686 1.98579   7
   0  -4  11 -0.9904 2.33819   1
   0  -4  11 0.84147 2.19645   2
   0   4  11 2.79039 2.34127   2
  -1   4  11 178.022 19.8872   2
   1  -4  11 173.809 20.0921   2
   1  -4  11 186.053 20.7315   5
   1   4 -11 183.000 19.8685   2
  -1  -4 -11 180.468 19.8194   1
  -1  -4 -11 189.165 20.0141   2
  -1   4  11 169.647 19.6085   1
  -1   4 -11 154.699 19.5956   1
  -1  -4  11 175.483 19.9676   2
   1  -4 -11 180.405 20.0061   2
  -1   4 -11 128.131 19.5726   2
   1   4  11 162.342 19.8608   2
  -1  -4  11 190.218 20.0347   1
  -1  -4  11 137.467 20.2448   5
   2  -4  11 116.984 13.8106   2
   2  -4  11 123.752 14.3095   5
  -2  -4 -11 117.176 13.5882   1
  -2   4  11 121.571 13.7790   2
   2   4 -11 110.337 13.5113   2
  -2   4 -11 108.706 13.5017   1
  -2   4 -11 113.286 13.7434   2
  -2  -4  11 94.1176 13.6258   5
  -2  -4  11 106.234 13.4918   1
   2   4  11 76.4410 13.0759   2
   2  -4 -11 126.319 13.5728   2
  -3  -4 -11 52.3391 7.76923   1
   3  -4  11 59.6926 8.57735   5
   3   4 -11 52.4732 7.59991   2
   3  -4  11 36.9653 7.33864   2
  -3   4  11 59.0496 7.53071   1
   3  -4 -11 53.0281 7.75178   2
   3   4  11 41.8311 7.94042   5
   3   4  11 51.1103 7.57023   2
  -3   4 -11 63.6407 8.22461   1
  -3  -4  11 56.9679 7.96009   5
  -3  -4  11 43.8574 7.50099   1
   4   4 -11 130.860 16.0285   2
  -4   4  11 146.609 16.2767   1
  -4  -4 -11 128.225 16.2616   1
   4  -4  11 100.648 16.1933   2
   4  -4  11 143.427 17.5187   5
  -4   4 -11 175.416 16.8275   1
   4   4  11 131.135 18.0197   4
   4   4  11 123.928 17.3514   5
   4   4  11 121.892 16.1565   2
  -4  -4  11 144.931 16.9386   5
  -4  -4  11 152.241 16.5056   1
   4  -4 -11 151.811 16.4302   2
  -5  -4 -11 171.380 21.0016   1
   5  -4  11 192.653 22.5783   5
  -5   4  11 160.727 20.7273   1
   5   4 -11 185.575 19.4213   8
   5  -4  11 189.668 21.1481   2
   5   4 -11 160.317 20.5691   2
   5   4  11 195.653 23.7565   4
   5  -4 -11 194.160 20.9330   2
  -5  -4  11 208.991 21.2286   1
   5   4  11 165.265 20.7664   2
   5   4  11 186.419 22.6315   5
  -5   4 -11 173.744 21.1366   1
  -6   4  11 125.784 14.9454   1
   6  -4  11 105.095 14.5360   2
   6   4 -11 105.003 14.2509   2
  -6  -4 -11 118.192 14.9999   1
   6   4 -11 146.198 14.0044   8
   6   4  11 125.839 13.8615   8
  -6   4 -11 146.736 15.4606   1
   6   4  11 130.295 17.1610   4
   6  -4 -11 137.747 14.0730   8
  -6  -4  11 86.3971 14.6087   1
   6   4  11 142.985 14.5887   2
   6   4  11 117.217 16.1536   5
   6  -4 -11 129.796 14.5883   2
  -7   4  11 12.4323 3.71876   1
   7  -4  11 16.7426 3.40893   2
   7   4 -11 13.3328 3.40752   8
   7  -4  11 13.8646 3.45341   8
  -7  -4 -11 11.9055 3.96063   1
  -7   4 -11 11.7074 3.94458   1
   7  -4 -11 11.5231 3.21999   8
   7   4  11 15.9758 3.61219   8
  -7  -4  11 17.3536 4.13847   1
   7  -4 -11 19.1336 3.16158   2
   7   4  11 16.2511 5.38262   4
   7   4  11 16.6965 3.05729   2
   8  -4  11 130.918 13.9919   8
  -8  -4 -11 120.540 15.0548   1
  -8   4  11 127.819 14.8955   1
   8   4 -11 115.998 13.6917   8
  -8   4 -11 117.890 15.0387   1
   8   4  11 128.583 17.8898   4
   8  -4 -11 123.088 13.8074   8
   8   4  11 107.305 13.5403   8
  -8  -4  11 120.681 15.0703   1
   9  -4  11 8.70853 3.22577   8
  -9  -4 -11 6.44982 3.26102   1
   9   4 -11 8.14472 3.05590   8
  -9   4  11 8.54897 3.23299   1
  -9  -4  11 9.30811 3.84165   1
  -9   4 -11 5.43567 3.38905   1
   9  -4 -11 13.9470 3.43181   8
   9   4  11 8.19762 2.93274   8
   9   4  11 17.5639 5.48838   4
  10  -4  11 18.3617 4.15914   8
 -10  -4 -11 13.1006 4.11107   1
 -10   4  11 16.7352 4.43757   1
  10   4 -11 8.13172 3.45920   8
  10  -4 -11 23.3965 4.30470   8
 -10  -4  11 13.8738 4.50492   1
 -10   4 -11 15.6880 4.46481   1
  10   4  11 15.9076 3.83805   8
   0  -5  11 67.4990 9.69344   5
   0  -5  11 72.5425 9.45994   1
   0  -5  11 76.7881 9.71259   2
   0   5  11 78.5512 9.72533   2
   0   5 -11 78.7309 9.86288   2
   0  -5 -11 50.4810 9.22786   2
   1  -5  11 165.881 21.5318   2
  -1   5  11 171.755 21.5746   2
  -1  -5 -11 168.428 21.3148   1
   1  -5  11 181.378 22.3188   5
   1   5 -11 176.089 21.5062   2
  -1  -5 -11 187.125 21.7130   2
  -1  -5  11 201.991 21.6347   1
  -1   5 -11 183.820 21.6053   1
   1   5  11 204.965 21.7632   2
  -1  -5  11 175.221 21.6391   2
  -1   5 -11 194.244 21.8951   2
  -1  -5  11 200.754 22.2905   5
   1  -5 -11 196.495 21.6006   2
   2  -5  11 98.1560 12.6776   5
  -2  -5 -11 95.4403 12.0649   1
   2   5 -11 109.717 12.2261   2
  -2   5  11 122.012 12.3211   1
   2  -5  11 82.5834 12.1074   2
  -2  -5  11 76.7317 11.9421   1
   2  -5 -11 74.7974 11.8308   2
  -2  -5  11 94.3204 12.3904   5
   2   5  11 95.0990 12.1045   2
  -2   5 -11 122.022 12.5616   1
  -2   5 -11 92.1901 12.4545   2
   3  -5  11 151.067 20.2914   5
  -3  -5 -11 172.345 19.3721   1
  -3   5  11 171.142 19.2208   1
   3   5 -11 160.570 19.4084   2
   3  -5  11 185.082 19.8942   2
   3  -5 -11 173.458 19.5116   2
  -3  -5  11 154.884 19.3528   1
  -3   5 -11 187.640 19.6451   1
   3   5  11 139.647 19.2350   2
  -3  -5  11 161.132 19.9323   5
   4  -5  11 115.889 14.2864   2
  -4   5  11 119.439 13.9343   1
  -4  -5 -11 124.115 14.1459   1
   4  -5  11 86.6327 14.5008   5
   4   5 -11 123.271 13.8819   2
   4   5  11 124.281 15.0998   5
  -4  -5  11 99.3056 14.0279   1
  -4   5 -11 110.084 14.0481   1
   4   5  11 112.792 13.9475   2
   4  -5 -11 120.268 14.0061   2
  -5  -5 -11 13.4348 3.87273   1
   5   5 -11 13.7191 3.32970   2
   5   5 -11 12.8037 3.58888   8
  -5   5  11 13.2778 3.55021   1
   5  -5  11 16.9443 4.15811   2
   5   5  11 14.3598 4.50106   5
   5   5  11 12.9454 4.54931   4
  -5  -5  11 11.3783 3.59135   1
   5  -5 -11 9.62727 3.32281   2
   5   5  11 10.1590 3.24867   2
  -5   5 -11 9.47641 3.44943   1
   6   5 -11 -0.6294 1.77974   2
   6   5 -11 0.62434 2.10618   8
   6  -5  11 3.53406 2.69106   2
  -6  -5 -11 1.08528 2.63471   1
  -6   5  11 -0.9621 2.25973   1
   6   5  11 1.39949 3.40197   4
   6   5  11 1.27996 2.18810   8
   6   5  11 0.55081 2.07276   2
   6  -5 -11 -0.5001 1.82197   2
  -6   5 -11 1.71244 2.52463   1
   6   5  11 3.22487 3.94778   5
  -6  -5  11 3.00234 2.69722   1
  -7  -5 -11 65.7401 9.92674   1
   7   5 -11 75.0225 8.87209   8
   7  -5  11 68.0561 8.94121   2
  -7   5  11 66.6775 9.45584   1
   7   5  11 65.5977 8.67116   2
   7   5  11 68.8936 11.8301   4
  -7  -5  11 68.3857 10.2660   1
   7  -5 -11 69.2817 8.74103   2
   7   5  11 65.2668 9.00278   8
  -7   5 -11 66.7071 10.0063   1
   7  -5 -11 86.9162 9.25600   8
  -8   5  11 24.2889 4.91620   1
   8   5 -11 21.7468 4.26788   8
   8  -5  11 29.4976 5.07927   8
  -8  -5 -11 28.0266 5.40484   1
  -8   5 -11 18.7417 4.97250   1
  -8  -5  11 22.0899 5.17674   1
   8  -5 -11 29.3498 4.81894   8
   8   5  11 16.5037 6.31671   4
   8   5  11 18.6036 4.26111   8
   9   5 -11 47.5964 6.40915   8
  -9  -5 -11 37.4964 6.86062   1
  -9   5  11 30.2580 6.18116   1
   9  -5  11 49.5863 6.74759   8
   9  -5 -11 33.7732 5.93485   8
   9   5  11 32.8125 5.88965   8
  -9  -5  11 33.5049 6.72666   1
  -9   5 -11 42.9387 7.13247   1
 -10  -5 -11 4.74004 3.67941   1
 -10   5  11 12.0131 3.86144   1
  10   5 -11 7.49436 2.83362   8
  10  -5  11 14.8441 4.00041   8
  10   5  11 8.47958 3.12119   8
  10  -5 -11 7.36484 3.07172   8
 -10   5 -11 10.3461 4.28842   1
 -10  -5  11 14.6546 4.51519   1
   0  -6  11 3.94952 2.54808   2
   0  -6  11 2.32970 2.62838   5
   0   6 -11 4.54644 3.04546   2
   0   6  11 -1.5473 2.42051   2
   0  -6 -11 -1.9256 2.33029   2
  -1   6  11 151.358 15.3430   1
   1  -6  11 127.570 15.7792   5
  -1  -6 -11 102.298 15.0309   2
  -1   6  11 146.547 15.7230   2
  -1  -6 -11 125.842 15.2636   1
   1   6 -11 95.6946 14.9999   2
   1  -6  11 135.804 15.5187   2
  -1  -6  11 131.509 15.2698   1
  -1  -6  11 120.041 15.4949   5
  -1  -6  11 119.987 15.3911   2
   1   6  11 147.191 15.5855   2
  -1   6 -11 130.381 15.7052   2
   1  -6 -11 109.310 15.0582   2
   2  -6  11 83.9186 11.9704   2
   2   6 -11 74.0355 11.7087   2
   2  -6  11 86.2393 12.3931   5
  -2  -6 -11 107.419 12.1762   1
  -2   6  11 89.8750 11.8017   1
   2  -6 -11 116.207 12.4646   2
  -2  -6  11 107.301 12.2474   5
  -2  -6  11 97.0269 12.0518   1
  -2   6 -11 109.027 12.8891   2
   2   6  11 67.8762 11.7027   2
  -2   6 -11 118.828 12.9367   1
  -3  -6 -11 158.571 16.9941   1
   3   6 -11 142.373 16.7425   2
   3  -6  11 156.357 17.2623   2
   3  -6  11 101.559 17.1002   5
  -3   6  11 130.852 16.4576   1
  -3  -6  11 124.763 16.5876   1
  -3   6 -11 130.638 16.8711   1
   3   6  11 152.378 16.9640   2
   3  -6 -11 169.811 17.1429   2
   4  -6  11 34.7648 6.46504   2
  -4   6  11 37.9834 6.16731   1
   4   6 -11 34.2009 5.97739   2
  -4  -6 -11 30.3189 5.99807   1
   4  -6  11 27.0263 6.31852   5
   4  -6 -11 46.0285 6.55106   2
  -4   6 -11 51.2484 7.41110   1
   4   6  11 28.3796 5.72767   2
   4   6  11 46.9344 7.61719   5
  -4  -6  11 48.1157 7.00898   1
   5   6 -11 170.425 21.4192   2
   5  -6  11 207.918 22.3553   2
  -5  -6 -11 136.715 21.4747   1
  -5   6  11 200.837 21.7625   1
  -5   6 -11 222.911 22.5544   1
   5  -6 -11 187.242 21.7502   2
   5   6  11 179.196 23.3283   5
  -5  -6  11 188.469 22.0363   1
   5   6  11 216.001 21.8826   2
   6  -6  11 8.20121 3.17778   2
  -6   6  11 1.91861 2.33870   1
   6   6 -11 0.62172 2.75462   8
  -6  -6 -11 4.85669 2.87114   1
   6   6 -11 6.28268 2.54220   2
  -6  -6  11 0.02953 2.43795   1
   6   6  11 5.45477 2.47612   2
   6  -6 -11 5.45074 2.85101   2
   6   6  11 8.66440 4.56754   4
  -6   6 -11 4.33933 3.42010   1
   7  -6  11 118.754 15.0167   2
  -7   6  11 87.7197 14.9383   1
   7   6 -11 148.903 14.8298   8
  -7  -6 -11 166.153 16.1441   1
  -7   6 -11 153.530 16.3711   1
   7   6  11 101.998 14.1405   8
  -7  -6  11 122.156 15.7959   1
   7   6  11 167.422 19.2154   4
   7  -6 -11 131.159 14.9664   2
   8   6 -11 44.5352 7.10817   8
  -8  -6 -11 46.4104 7.60504   1
  -8   6  11 50.6555 7.63904   1
  -8   6 -11 39.8973 7.64958   1
   8   6  11 55.8281 9.94143   4
   8   6  11 40.4865 6.74583   8
  -8  -6  11 51.7446 8.11459   1
   8  -6 -11 49.9490 7.38950   8
  -9   6  11 34.7872 6.31628   1
   9   6 -11 28.1074 5.58311   8
  -9  -6 -11 37.4272 6.66133   1
  -9   6 -11 39.0396 6.98860   1
  -9  -6  11 38.7125 6.73896   1
   9  -6 -11 37.1500 6.10210   8
   9   6  11 33.1760 5.76540   8
   0   7 -11 215.788 22.5081   2
   0   7  11 173.927 21.8787   2
   0  -7  11 166.437 22.2482   5
   0  -7 -11 199.678 22.1016   2
   1  -7  11 122.864 16.8713   2
  -1   7  11 145.840 17.1330   2
  -1  -7 -11 133.196 16.9580   2
   1  -7  11 139.237 17.4921   5
   1   7 -11 138.851 17.2098   2
  -1  -7 -11 165.219 17.2290   1
  -1  -7  11 144.682 17.3071   2
   1   7  11 131.503 17.1247   2
  -1  -7  11 124.388 16.8751   1
  -1  -7  11 152.578 17.0119   1
  -1   7 -11 132.375 17.3222   2
   1  -7 -11 153.826 17.2365   2
  -1  -7  11 144.418 17.2441   5
   2   7 -11 140.741 15.5176   2
  -2   7  11 103.042 14.7754   1
  -2  -7 -11 111.392 15.0276   1
   2  -7  11 103.837 15.5170   5
   2  -7  11 125.930 15.4186   2
  -2  -7  11 130.917 15.2124   1
  -2   7 -11 132.708 15.8334   1
  -2   7 -11 137.927 15.9994   2
   2  -7 -11 162.342 15.7328   2
   2   7  11 104.879 15.0278   2
   3  -7  11 92.7838 13.2245   2
   3   7 -11 118.024 13.3129   2
  -3   7  11 118.484 13.2242   1
  -3  -7 -11 85.3944 13.0746   1
   3  -7 -11 99.7432 13.1500   2
  -3   7 -11 118.755 14.0581   1
  -3  -7  11 105.713 13.3483   1
  -4   7  11 119.969 13.0720   1
   4   7 -11 103.139 12.9626   2
   4  -7  11 66.6794 12.9166   2
  -4  -7 -11 94.6432 13.0176   1
   4   7  11 115.112 13.0479   2
   4  -7 -11 140.083 13.4902   2
  -4  -7  11 100.520 13.1536   1
   4   7  11 87.5536 13.6631   5
  -4   7 -11 103.383 13.5642   1
   5   7 -11 -2.4769 2.00061   2
  -5   7  11 5.07629 2.94823   1
   5  -7  11 1.40737 2.61554   2
   5   7 -11 9.05418 4.58944   4
  -5  -7 -11 -0.8423 2.59047   1
   5  -7 -11 0.92108 2.31264   2
  -5   7 -11 3.53102 2.73071   1
   5   7  11 2.07576 2.49595   2
  -5  -7  11 0.13974 2.47500   1
   6  -7  11 72.6304 10.2054   2
  -6  -7 -11 65.7309 10.3930   1
   6   7 -11 66.5784 9.29217   2
  -6   7  11 74.5200 10.0689   1
  -6  -7  11 76.9098 10.8171   1
   6   7  11 74.6141 9.67376   2
  -6   7 -11 67.5901 10.8491   1
   6  -7 -11 91.4487 10.2013   2
   7   7 -11 45.8712 8.60587   8
   7  -7  11 69.6601 9.12869   2
  -7  -7 -11 55.6092 9.49999   1
  -7   7  11 93.7516 9.94947   1
   7  -7 -11 70.8736 8.85275   2
  -7   7 -11 59.8650 10.0810   1
   7   7  11 92.2395 11.7843   4
  -7  -7  11 53.3000 9.43775   1
  -8   7  11 19.2189 4.62253   1
  -8  -7 -11 12.9013 4.12268   1
   8   7 -11 15.7546 4.12252   8
   8   7  11 14.0649 5.90788   4
  -8  -7  11 25.0357 5.34830   1
  -8   7 -11 24.7724 5.42719   1
  -9  -7 -11 6.50228 3.64270   1
  -9   7  11 -2.6757 2.57735   1
   9   7 -11 0.13612 2.81542   8
   9   7  11 -0.6859 2.38954   8
  -9  -7  11 -0.2344 2.92914   1
  -9  -7  11 -1.4098 2.85041   6
  -9   7 -11 -1.5107 3.10540   1
   0  -8  11 2.33036 2.55876   5
   0  -8  11 2.03045 2.87794   2
   0   8  11 2.96532 2.31026   2
   0  -8 -11 -2.1804 2.15452   2
   0   8 -11 -2.0147 3.04723   2
   1   8 -11 14.2519 4.34000   2
   1  -8  11 2.50828 3.01103   5
  -1   8  11 6.42533 3.37008   2
  -1  -8 -11 10.4415 3.91822   2
   1  -8  11 17.1075 4.37682   2
  -1   8 -11 12.7862 4.26767   2
   1  -8 -11 16.9042 4.34392   2
  -1  -8  11 7.74714 3.28816   1
   1   8  11 19.1984 4.29408   2
  -1  -8  11 17.7201 4.26086   1
  -2  -8 -11 119.494 13.6608   1
  -2   8  11 135.565 13.5179   1
   2  -8  11 104.508 13.4997   2
   2   8 -11 100.881 13.3863   2
  -2  -8  11 95.7549 13.2835   1
  -2  -8  11 101.895 13.3660   1
   2   8  11 70.5394 12.7088   2
  -2   8 -11 137.659 14.8144   2
   2  -8 -11 103.725 13.3630   2
   3  -8  11 12.7988 4.29436   2
  -3   8  11 15.9300 4.17207   1
  -3  -8 -11 16.8403 4.76463   1
   3   8 -11 20.7367 4.44907   2
  -3  -8  11 18.7491 4.53127   1
  -3  -8  11 16.0847 4.77426   1
  -3   8 -11 19.2165 5.13115   1
   3  -8 -11 12.9975 3.96358   2
   3   8  11 15.6109 4.17035   2
   4   8 -11 109.028 14.2302   2
  -4  -8 -11 113.256 14.7278   1
  -4   8  11 123.567 14.4770   1
   4  -8  11 136.353 15.1094   2
  -4  -8  11 103.327 14.5521   1
   4  -8 -11 142.286 14.8128   2
   4   8  11 97.7077 14.1855   2
  -4  -8  11 117.375 14.6259   1
  -4   8 -11 107.868 14.6712   1
   5  -8  11 14.4688 4.34257   2
   5   8 -11 18.4865 5.65287   4
   5   8 -11 11.1365 3.64283   2
  -5  -8 -11 15.9466 4.52277   1
  -5   8  11 13.3605 3.91795   1
  -5  -8  11 14.5194 4.28649   1
  -5  -8  11 14.5415 4.29636   1
   5  -8 -11 20.8006 4.48186   2
   5   8  11 12.9281 3.69298   2
  -5   8 -11 14.2081 4.40322   1
   6  -8  11 122.044 15.3535   2
  -6   8  11 92.5063 14.6467   1
   6   8 -11 132.064 14.4674   2
  -6  -8 -11 136.050 15.5966   1
   6   8  11 146.525 14.9910   2
  -6  -8  11 125.969 15.4449   1
   6  -8 -11 120.438 14.9419   2
  -6  -8  11 107.429 15.1917   1
  -6   8 -11 104.751 15.3255   1
   7  -8  11 67.4923 8.84107   2
  -7   8  11 47.6237 8.73303   1
  -7  -8 -11 62.0704 9.75982   1
  -7  -8  11 66.2279 9.92142   1
  -7   8 -11 55.3116 9.54573   1
  -7  -8  11 57.4961 9.47377   1
   7  -8 -11 75.8937 8.83257   2
  -8   8  11 114.934 17.4817   1
  -8  -8 -11 136.047 17.9503   1
  -8  -8  11 158.919 18.3079   1
  -8   8 -11 165.403 18.5866   1
  -8  -8  11 175.340 18.5478   1
  -9   8  11 1.82307 3.25546   1
   9   8 -11 -2.9505 2.90575   8
  -9  -8 -11 -0.1979 2.89422   1
  -9   8 -11 -1.5141 3.16782   1
  -9  -8  11 0.43447 3.51035   1
  -9  -8  11 0.08477 3.30292   1
   0  -9 -11 203.798 22.6027   2
   0  -9  11 156.831 22.3376   2
   0   9  11 218.264 22.6633   2
   0   9 -11 180.571 22.7490   2
   1   9 -11 116.010 14.0129   2
   1  -9  11 117.890 13.8952   2
  -1  -9 -11 96.8793 13.5883   2
  -1   9  11 102.325 13.5517   2
  -1   9 -11 141.887 15.1790   2
   1  -9 -11 88.6297 13.2905   2
   1   9  11 88.6316 13.1293   2
  -2  -9 -11 8.61603 3.74012   1
   2   9 -11 5.94280 3.44795   2
   2  -9  11 6.66858 3.64808   2
  -2  -9  11 5.84342 3.92330   1
   2   9  11 5.84408 3.46137   2
   2  -9 -11 6.37761 3.37124   2
   3   9 -11 203.159 22.4461   2
  -3  -9 -11 188.057 22.3960   1
   3  -9  11 156.666 22.0789   2
  -3   9  11 199.203 22.1523   1
   3   9  11 168.905 22.0867   2
   3  -9 -11 192.885 22.3894   2
  -3  -9  11 214.139 22.6216   1
  -3   9 -11 195.503 22.5015   1
   4   9 -11 118.917 14.4411   2
  -4   9  11 92.4331 14.1632   1
  -4  -9 -11 80.6273 14.1146   1
   4  -9  11 114.042 14.7605   2
   4   9  11 146.635 14.8783   2
  -4  -9  11 124.937 15.0205   1
  -4  -9  11 103.090 14.5695   1
   4  -9 -11 145.400 15.0844   2
  -4   9 -11 142.407 15.4893   1
   5  -9  11 3.45358 3.03967   2
  -5  -9 -11 0.39384 2.63220   1
  -5   9  11 -2.9389 2.40707   1
   5   9 -11 8.87057 4.57019   4
   5   9 -11 -1.2156 2.40137   2
   5  -9 -11 1.25046 2.63220   2
  -5  -9  11 1.96905 3.26026   1
   5   9  11 -1.3037 2.28633   2
  -5   9 -11 -1.2716 3.07187   1
  -5  -9  11 2.08810 2.92556   1
   6   9 -11 75.0061 14.2000   4
   6   9 -11 67.6981 8.56451   2
  -6  -9 -11 52.4407 9.29793   1
  -6   9  11 73.5236 9.98069   1
   6  -9  11 56.0014 9.31751   2
   6  -9 -11 64.2777 9.28721   2
  -6   9 -11 74.3408 10.2788   1
   6   9  11 52.2430 8.58495   2
  -6  -9  11 60.6043 9.72193   1
  -6  -9  11 62.3506 9.89558   1
   7  -9  11 13.2624 4.15325   2
  -7   9  11 10.1293 4.47233   1
  -7  -9 -11 18.1684 4.96337   1
  -7  -9  11 14.2864 4.59778   1
   7  -9 -11 14.8602 4.01750   2
  -7   9 -11 12.6199 4.87177   1
  -7  -9  11 12.3316 4.31643   1
  -8   9  11 0.20243 3.29115   1
  -8  -9 -11 3.46739 3.74461   1
  -8   9 -11 2.38297 3.22475   1
  -8  -9  11 0.20983 2.83963   1
  -8  -9  11 0.07542 3.21888   1
   0  10  11 -2.7733 2.44000   2
   0  10 -11 -1.6512 3.14963   2
   0 -10  11 0.17649 3.32241   2
   0 -10 -11 -0.0872 2.71607   2
   1  10 -11 106.132 12.0413   2
   1 -10  11 83.7843 11.0882   2
  -1  10  11 80.1501 11.1710   2
   1 -10 -11 67.5949 10.9071   2
  -1  10 -11 79.2020 11.9623   2
   1  10  11 55.3545 10.2195   2
   2 -10  11 10.3675 3.96291   2
   2  10 -11 9.74036 4.22129   2
  -2 -10 -11 9.34958 4.00308   1
  -2 -10  11 17.4683 5.09127   1
   2  10  11 11.3129 3.87396   2
   2 -10 -11 7.32546 3.63340   2
   3 -10  11 18.6040 4.85428   2
   3  10 -11 20.9970 4.77460   2
  -3  10  11 13.5955 4.21941   1
  -3 -10 -11 19.8749 4.96980   1
   3  10  11 14.9777 4.44505   2
  -3 -10  11 11.8892 4.47017   1
   3 -10 -11 12.8098 4.01611   2
  -4  10  11 35.8593 6.63645   1
   4 -10  11 38.6477 6.62391   2
  -4 -10 -11 29.0039 6.17973   1
   4  10 -11 22.5282 5.28339   2
  -4 -10  11 39.9216 7.00686   1
   4 -10 -11 46.1379 6.83726   2
  -4  10 -11 34.0731 6.67886   1
   4  10  11 20.6792 5.24136   2
   5  10 -11 54.9134 8.22639   2
   5 -10  11 66.6644 9.21747   2
   5  10 -11 61.8268 11.8359   4
  -5 -10 -11 50.3765 8.68280   1
  -5  10  11 50.5890 8.85086   1
   5 -10 -11 46.1405 8.38777   2
  -5  10 -11 59.0410 9.45654   1
   5  10  11 54.2588 8.41048   2
  -5 -10  11 49.2710 8.74530   1
  -6 -10 -11 27.2175 5.86599   1
   6  10 -11 29.8389 9.61207   4
   6  10 -11 21.6567 4.43644   2
   6 -10  11 23.3227 5.53633   2
  -6  10  11 21.4559 5.44947   1
  -6  10 -11 34.5191 6.64536   1
   6 -10 -11 35.0115 5.90902   2
  -6 -10  11 18.1513 5.52561   1
   6  10  11 34.4733 5.80487   2
   7 -10  11 14.7640 4.31081   2
  -7 -10 -11 15.6326 4.45547   1
  -7  10  11 9.69502 4.10782   1
  -7  10 -11 3.35154 3.89286   1
   7 -10 -11 13.1806 3.49609   2
  -7 -10  11 9.01187 4.20817   1
   0  11  11 282.167 33.4823   2
   0 -11  11 279.068 33.8958   2
   0 -11 -11 312.188 33.8017   2
   1 -11  11 14.5327 5.03188   2
   1  11 -11 12.9327 4.79601   2
  -1  11  11 17.3061 4.73862   2
  -1  11 -11 22.1873 5.52627   2
   1 -11 -11 11.3583 4.33418   2
   1  11  11 15.8433 4.58167   2
   2 -11  11 3.08768 3.26044   2
   2  11 -11 2.92439 3.35058   2
   2 -11 -11 0.61745 3.29275   2
   2  11  11 1.95912 3.13712   2
  -3 -11 -11 110.457 16.4561   1
   3  11 -11 148.167 16.8525   2
   3 -11  11 121.620 16.5845   2
   3 -11 -11 125.361 16.5383   2
  -3 -11  11 145.302 17.1974   1
   3  11  11 142.834 16.7905   2
   4 -11  11 18.2757 4.71714   2
  -4 -11 -11 16.2948 5.30068   1
  -4  11  11 23.6943 5.75014   1
   4  11 -11 28.4628 5.38756   2
  -4 -11  11 22.7381 5.74269   1
   4  11  11 27.7402 5.64956   2
  -4  11 -11 26.3945 6.03478   1
   4 -11 -11 20.6692 5.04137   2
   5 -11  11 1.59956 2.81050   2
   5  11 -11 -0.4332 2.63428   2
  -5 -11 -11 2.95403 3.79053   1
  -5  11  11 -2.9999 2.50697   1
  -5  11 -11 -0.4912 3.61309   1
   5  11  11 3.33052 2.65544   2
   5 -11 -11 0.00857 2.97824   2
  -5 -11  11 -0.0817 3.15579   1
  -6  11  11 8.14062 4.21399   1
   6 -11  11 6.71508 3.61923   2
   6  11 -11 10.1715 3.69811   2
  -6 -11 -11 6.94109 3.99020   1
   6 -11 -11 11.2906 3.78075   2
  -6 -11  11 9.49188 4.51821   1
  -6  11 -11 12.6132 5.05951   1
   6  11  11 9.08324 3.43453   2
   0 -12 -11 -0.9443 3.09576   2
   0  12 -11 -3.4088 3.82405   2
   0  12  11 -1.1145 3.27897   2
   0 -12  11 -1.3154 3.83984   2
   1  12 -11 15.9157 4.39637   2
  -1  12  11 7.81472 3.33343   2
   1 -12  11 -0.5986 3.48031   2
   1  12  11 2.08258 3.44672   2
  -1  12 -11 6.44048 4.02993   2
   1 -12 -11 8.44124 3.99438   2
   2 -12  11 23.6837 5.98701   2
   2  12 -11 16.8505 5.54321   2
   2  12  11 34.9963 6.45017   2
   2 -12 -11 23.3515 5.56593   2
   3 -12  11 9.02251 4.47912   2
   3  12 -11 21.2740 5.01876   2
   3  12  11 14.5771 4.74024   2
  -3 -12  11 8.92567 4.41007   1
   3 -12 -11 9.90816 3.84920   2
   4  12 -11 2.95584 3.41709   2
   4 -12  11 3.13035 3.43571   2
  -4 -12 -11 -0.0303 3.91630   1
   4  12  11 3.45239 3.54278   2
   4 -12 -11 0.64305 3.72907   2
  -4 -12  11 5.74657 4.09944   1
  -5 -12 -11 153.686 17.3708   1
  -5  12  11 114.362 16.6812   1
   5 -12  11 139.270 16.8767   2
   5  12 -11 120.231 16.0084   2
   5 -12 -11 123.328 16.6027   2
  -5  12 -11 142.501 17.3979   1
  -5 -12  11 129.436 17.2438   1
   5  12  11 139.104 16.8626   2
   0  13 -11 41.8707 7.75185   2
   0  13  11 22.0902 6.07993   2
   0 -13 -11 38.5865 7.18848   2
  -1  13  11 9.35194 4.47723   2
   1 -13  11 13.7869 4.75612   2
   1  13 -11 8.26377 4.59319   2
   1 -13 -11 5.45311 3.96669   2
  -1  13 -11 0.61997 3.39853   2
   1  13  11 3.21909 2.32612   2
   2  13 -11 2.81767 3.89628   2
   2 -13  11 3.56236 3.65219   2
   2  13  11 0.60745 3.57320   2
   2 -13 -11 0.95664 3.19883   2
   3 -13  11 81.5452 12.5373   2
   3  13 -11 95.2780 12.5681   2
   3  13  11 89.4579 12.7729   2
   3 -13 -11 76.1590 12.3463   2
  -4 -13 -11 0.93316 3.86172   1
   4  13 -11 -1.5708 3.27941   2
   4 -13  11 6.76680 3.49623   2
   4 -13 -11 0.40581 3.01993   2
   4  13  11 1.77276 3.77741   2
  -4 -13  11 6.12135 4.14933   1
   0  14 -11 0.65299 3.41968   2
   0 -14 -11 -0.3876 3.89270   2
   0  14  11 0.32255 2.77573   2
   1 -14  11 6.99460 4.03004   2
   1  14 -11 -2.5712 4.12482   2
  -1  14  11 5.35588 3.85098   2
  -1  14 -11 8.58717 4.34476   2
   1 -14 -11 5.07697 3.48975   2
   1  14  11 -0.9175 3.75194   2
   0   0 -12 3552.55 348.282   2
   0   0  12 2988.96 344.582   1
   0   0  12 3137.94 348.335   2
   0   0  12 3236.39 349.956   7
  -1   0 -12 0.57602 2.14592   2
  -1   0  12 2.26139 2.16537   1
   1   0  12 -2.3333 2.62349   5
  -1   0  12 1.95943 2.39730   2
   1   0  12 3.70320 2.59961   2
  -1   0 -12 1.45893 2.89209   1
   1   0 -12 0.08391 2.19789   2
   2   0  12 84.6189 12.0675   5
   2   0  12 101.514 11.5402   2
  -2   0 -12 88.4467 11.2487   2
   2   0 -12 73.6788 10.9461   2
  -2   0 -12 93.5882 11.6064   1
   3   0  12 10.0646 3.11609   2
  -3   0  12 3.25539 2.55266   1
   3   0 -12 -1.8082 1.93101   2
  -3   0 -12 -1.4291 2.36632   1
   3   0  12 0.66689 3.19716   5
   4   0  12 1147.94 120.756   5
   4   0  12 1154.98 116.276   2
   4   0 -12 917.991 116.017   2
   5   0  12 2.69359 2.28531   2
  -5   0  12 4.38940 2.72699   1
   5   0 -12 1.90286 2.33860   2
   5   0 -12 3.28066 2.45531   8
   5   0  12 -1.4742 2.95461   5
  -5   0 -12 3.83054 2.62748   1
  -6   0 -12 13.4410 3.65960   1
   6   0 -12 9.12572 2.60506   2
  -6   0  12 4.20163 2.86367   1
   6   0  12 4.77029 3.97299   5
   6   0  12 8.15670 3.03533   2
   6   0  12 7.21549 3.07149   8
   6   0 -12 5.82676 2.70365   8
  -7   0  12 0.99237 2.48213   1
   7   0  12 0.62327 1.78894   2
   7   0  12 0.87833 2.36589   8
   7   0 -12 -0.6968 2.24946   8
   7   0  12 -5.9440 3.36664   5
  -7   0 -12 3.34192 3.06213   1
   8   0  12 823.343 103.329   8
  -8   0  12 1107.12 111.109   1
   8   0 -12 1093.26 103.377   8
  -8   0 -12 1097.17 111.359   1
  -9   0 -12 -2.6927 2.95356   1
  -9   0  12 0.88151 2.37977   1
   9   0  12 -1.3572 2.47674   8
   9   0 -12 0.91543 2.42431   8
  10   0 -12 261.501 27.6127   8
  10   0  12 269.707 28.0548   8
 -10   0  12 259.021 29.7768   1
 -10   0 -12 256.291 30.0919   1
   0  -1  12 -0.3764 1.61017   7
   0   1  12 0.35740 2.12461   2
   0   1  12 -0.5087 2.19481   1
   0   1 -12 -2.4233 1.86351   2
   0  -1  12 0.48782 2.30553   2
   0   1  12 1.63858 2.04588   7
   0  -1  12 3.12885 2.82073   5
   0  -1  12 1.99048 2.42009   1
   0  -1 -12 0.88751 2.15194   2
   1  -1  12 41.2557 6.97661   5
   1  -1  12 34.6065 6.34921   2
  -1  -1 -12 33.4383 6.47038   1
  -1   1  12 54.0856 7.04255   2
  -1   1  12 41.2398 6.25665   1
  -1  -1 -12 42.4316 6.43218   2
   1   1 -12 53.4446 6.73292   2
  -1  -1  12 46.3958 6.58091   1
   1   1  12 31.1106 6.03830   2
  -1   1 -12 40.1494 6.57064   1
   1  -1 -12 34.3599 5.98569   2
   1   1  12 30.5002 6.41566   5
  -1  -1  12 43.3217 6.79761   2
  -1   1 -12 27.1030 5.90629   2
   2  -1  12 830.663 96.9245   5
  -2   1  12 961.382 92.5318   1
   2  -1  12 796.768 93.3813   2
  -2  -1 -12 928.616 93.4060   2
   2   1 -12 943.012 93.4126   2
  -2  -1 -12 844.376 92.6302   1
   2  -1 -12 841.243 93.3630   2
  -2   1 -12 696.114 92.3640   1
   2   1  12 952.395 93.5961   2
  -2   1 -12 741.348 93.3078   2
   2   1  12 883.539 96.9056   5
  -3   1  12 363.969 36.6951   1
   3   1 -12 266.685 36.6404   2
   3  -1  12 361.181 38.8820   5
  -3  -1 -12 351.124 36.9067   1
   3  -1  12 298.941 36.8889   2
  -3   1 -12 329.093 36.8457   1
   3  -1 -12 307.194 36.9051   2
  -3  -1  12 339.893 36.5787   1
   3   1  12 360.094 37.0743   2
   3   1  12 338.143 38.8915   5
  -4  -1 -12 609.530 57.1734   1
  -4   1  12 542.887 56.6434   1
   4  -1  12 464.077 59.4326   5
   4  -1  12 458.328 57.0143   2
   4   1 -12 471.573 56.9570   2
  -4   1 -12 514.723 56.9120   1
  -4  -1  12 544.885 56.6961   1
   4   1  12 527.728 59.7363   5
   4   1  12 544.636 57.2402   2
   5  -1  12 1249.96 127.182   2
   5   1 -12 1158.58 127.058   2
  -5   1  12 1154.47 125.933   1
   5   1 -12 1091.40 117.235   8
   5  -1  12 1209.55 132.079   5
   5  -1 -12 1035.61 126.894   2
   5   1  12 1331.08 132.379   5
  -5   1 -12 1168.59 126.310   1
   6  -1  12 113.454 16.5048   5
  -6   1  12 128.587 15.2371   1
   6   1 -12 117.931 14.7316   2
   6  -1  12 138.393 15.2377   2
   6   1 -12 138.115 14.2088   8
  -6  -1 -12 141.323 15.7951   1
   6   1  12 123.130 15.0178   2
   6  -1 -12 115.084 14.7768   2
   6  -1 -12 121.474 14.1114   8
   6   1  12 123.227 16.7048   5
  -6  -1  12 118.029 15.2237   1
   6   1  12 149.777 14.6309   8
  -6   1 -12 122.920 15.6047   1
   7  -1  12 781.450 74.7752   8
  -7  -1 -12 712.584 80.0210   1
   7  -1  12 656.597 79.8448   2
  -7   1  12 770.310 79.8687   1
  -7   1 -12 646.204 79.9070   1
   7   1  12 846.349 74.7410   8
   7  -1 -12 832.748 74.5298   8
   7   1  12 777.268 79.8300   2
  -7  -1  12 703.872 79.8204   1
   7   1  12 637.236 83.7715   5
   8  -1  12 207.715 19.6704   8
  -8   1  12 160.516 20.2750   1
   8   1 -12 192.226 19.0702   8
  -8  -1 -12 187.643 20.8503   1
   8   1  12 165.862 22.2637   5
  -8   1 -12 166.934 20.6656   1
   8  -1 -12 165.269 18.9551   8
   8   1  12 154.486 19.0270   8
   9  -1  12 12.1125 3.90239   8
  -9  -1 -12 11.3583 4.25982   1
   9   1 -12 22.8589 4.15216   8
  -9   1  12 21.6265 4.71031   1
   9   1  12 27.2193 4.56194   8
  -9   1 -12 16.5098 4.67080   1
  -9  -1  12 11.5222 3.97891   1
   9  -1 -12 10.8882 3.49378   8
  10   1 -12 73.7669 9.72743   8
 -10   1  12 68.4936 10.6926   1
 -10  -1 -12 102.382 11.6373   1
  10  -1  12 93.4652 10.3040   8
 -10  -1  12 84.9583 10.8446   1
 -10   1 -12 64.2646 10.7956   1
  10   1  12 81.1158 10.0264   8
  10  -1 -12 60.1064 9.64451   8
   0  -2  12 749.622 78.6886   5
   0   2  12 652.383 75.7648   2
   0  -2 -12 599.439 75.5715   2
   0  -2  12 779.330 75.2613   1
  -1  -2 -12 544.058 56.0170   1
  -1  -2 -12 482.796 56.1377   2
   1  -2  12 530.444 56.5970   2
   1   2 -12 510.450 56.2630   2
   1  -2  12 481.038 58.4138   5
  -1   2  12 495.624 56.2991   2
  -1  -2  12 569.303 58.3553   5
  -1  -2  12 481.444 55.6001   1
   1  -2 -12 483.729 56.1982   2
  -1   2 -12 602.185 56.3297   1
  -1  -2  12 457.604 56.3743   2
   1   2  12 487.248 56.2611   2
  -1   2 -12 516.376 56.3424   2
   2  -2  12 336.159 37.9135   5
   2   2 -12 351.782 36.2126   2
  -2   2  12 352.590 35.8422   1
  -2  -2 -12 258.062 35.7489   1
   2  -2  12 256.210 36.0903   2
   2   2  12 384.456 38.0901   5
  -2  -2  12 364.232 36.0241   1
   2  -2 -12 252.957 35.9640   2
  -2   2 -12 309.148 36.1666   2
   2   2  12 331.081 36.2626   2
  -2   2 -12 392.165 36.5722   1
   3  -2  12 770.755 78.8325   2
  -3  -2 -12 633.667 77.8519   1
  -3   2  12 615.646 77.5375   1
   3  -2  12 733.563 81.6978   5
  -3  -2  12 794.794 77.9568   1
   3   2  12 793.718 78.8116   2
   3   2  12 761.299 81.8519   5
  -3   2 -12 667.484 78.0181   1
   3  -2 -12 706.023 78.6582   2
   4  -2  12 558.135 63.4274   5
  -4   2  12 530.229 60.1810   1
   4   2 -12 596.143 60.8578   2
   4  -2  12 449.551 60.6381   2
  -4  -2 -12 591.999 60.6324   1
  -4   2 -12 655.969 60.9674   1
   4  -2 -12 595.745 60.8352   2
   4   2  12 504.910 60.7955   2
  -4  -2  12 538.990 60.2861   1
   4   2  12 527.008 63.5286   5
   5   2 -12 463.429 54.0842   2
  -5   2  12 483.824 53.8156   1
   5  -2  12 496.806 56.7789   5
   5  -2  12 520.558 54.3455   2
  -5  -2 -12 545.677 54.2793   1
   5  -2 -12 486.406 54.1563   2
  -5  -2  12 406.767 53.6579   1
  -5   2 -12 544.043 54.3946   1
   5   2  12 459.850 54.1159   2
   5   2  12 539.473 57.0200   5
   6  -2  12 120.494 18.0979   2
   6  -2  12 180.085 20.6051   5
   6   2 -12 185.272 18.2380   2
  -6   2  12 174.524 18.7595   1
  -6  -2 -12 180.585 19.0587   1
   6   2 -12 133.878 16.9853   8
  -6   2 -12 199.881 19.4524   1
   6   2  12 157.069 18.3516   2
   6   2  12 169.988 20.3755   5
  -6  -2  12 121.711 18.2915   1
   6  -2 -12 155.579 18.2017   2
  -7   2  12 26.3843 5.26334   1
   7   2 -12 32.8941 4.76325   8
   7  -2  12 30.6733 5.29143   8
   7  -2  12 18.0239 5.98892   5
  -7  -2 -12 17.9410 4.82552   1
   7  -2  12 23.9268 4.47446   2
  -7  -2  12 20.3205 4.94829   1
  -7   2 -12 20.9629 5.31663   1
   7   2  12 26.8000 6.78439   5
   7  -2 -12 24.6333 4.02069   2
   7   2  12 34.2999 4.37555   2
   7  -2 -12 23.6154 4.54164   8
   7   2  12 39.1948 5.45433   8
   8  -2  12 13.6707 4.39133   8
  -8   2  12 25.7274 4.90317   1
   8   2 -12 27.5560 4.58382   8
  -8  -2 -12 17.0119 4.71011   1
  -8  -2  12 20.6323 4.74112   1
   8   2  12 23.5005 6.19593   5
  -8   2 -12 21.2062 5.04410   1
   8  -2 -12 16.2828 4.15364   8
   8   2  12 22.6283 4.68448   8
  -9   2  12 28.8868 5.49879   1
   9   2 -12 22.4022 4.54749   8
   9  -2  12 24.1913 5.07832   8
  -9  -2 -12 20.4446 5.32391   1
  -9  -2  12 25.4696 5.49759   1
   9   2  12 33.1711 5.31605   8
   9  -2 -12 27.8967 5.00606   8
  -9   2 -12 23.9044 5.53577   1
 -10   2  12 129.955 18.6381   1
 -10  -2 -12 180.609 19.6249   1
  10   2 -12 161.351 17.6314   8
  10  -2  12 122.173 17.4871   8
 -10  -2  12 184.779 19.3805   1
  10   2  12 176.010 17.9348   8
 -10   2 -12 163.376 19.5516   1
  10  -2 -12 175.571 17.8335   8
   0  -3 -12 -0.2161 2.27345   2
   0  -3  12 6.13960 3.18752   5
   0  -3  12 -1.5943 2.20462   2
   0   3 -12 -3.0990 2.08593   2
   0  -3  12 0.29101 2.06725   1
   0   3  12 0.16077 2.45620   2
  -1  -3 -12 2226.60 222.218   1
   1  -3  12 1926.52 224.381   2
  -1   3  12 2107.11 224.298   2
  -1   3  12 2191.63 221.869   1
   1  -3  12 1920.69 231.716   5
   1   3 -12 2257.55 224.453   2
  -1   3 -12 2244.87 224.293   2
   1   3  12 2107.28 224.260   2
  -1  -3  12 2100.17 231.732   5
   1  -3 -12 1883.79 224.140   2
  -1  -3  12 1778.70 221.852   1
  -1   3 -12 2141.59 222.203   1
  -2  -3 -12 236.508 25.7642   1
   2   3 -12 258.012 25.9847   2
  -2   3  12 217.336 25.3871   1
   2  -3  12 166.943 26.4684   5
   2  -3 -12 233.944 25.9283   2
  -2  -3  12 250.431 25.7002   1
  -2   3 -12 241.838 25.9943   1
   2   3  12 174.134 25.5279   2
  -2  -3  12 262.056 26.8992   5
   3  -3  12 72.4890 9.26150   2
   3  -3  12 60.2131 9.77383   5
   3   3 -12 65.2043 8.69747   2
  -3  -3 -12 59.5993 9.10898   1
  -3   3  12 64.7854 9.11821   1
  -3  -3  12 66.2611 8.79536   1
  -3   3 -12 41.8032 8.63085   1
   3   3  12 62.5591 9.09036   2
   3  -3 -12 73.5473 8.99984   2
   3   3  12 54.7476 9.58889   5
  -3  -3  12 74.8560 9.28120   5
   4  -3  12 129.723 15.7247   5
   4   3 -12 128.995 14.5612   2
  -4   3  12 123.945 14.6372   1
  -4  -3 -12 99.2654 14.4420   1
   4  -3  12 131.148 14.9102   2
   4   3  12 147.520 14.9353   2
   4  -3 -12 130.453 14.7239   2
  -4  -3  12 95.3526 14.2679   1
   4   3  12 113.121 15.7493   5
  -4   3 -12 101.377 14.6960   1
  -5   3  12 34.3489 6.44083   1
   5   3 -12 43.0693 6.44827   2
  -5  -3 -12 42.2718 7.08913   1
   5  -3  12 46.3837 6.88155   2
   5  -3  12 49.8409 8.39872   5
   5   3  12 35.7188 6.40522   2
  -5   3 -12 50.3307 7.69001   1
  -5  -3  12 41.2115 6.76953   1
   5  -3 -12 44.4120 6.50756   2
   5   3  12 29.1033 7.04641   5
  -6   3  12 8.83827 3.14855   1
  -6  -3 -12 12.3117 3.48012   1
   6  -3  12 12.3537 3.33691   2
   6   3 -12 12.7107 3.21727   8
   6  -3  12 15.6721 4.97857   5
   6   3 -12 11.6406 2.84700   2
  -6   3 -12 14.3462 4.13292   1
   6   3  12 0.08738 3.74877   5
   6   3  12 10.0280 2.82918   2
   6  -3 -12 8.32982 2.88104   2
  -6  -3  12 6.52512 3.40026   1
   7  -3  12 5.40617 2.51212   2
   7   3 -12 4.03665 2.61753   8
  -7   3  12 3.12304 2.52695   1
  -7  -3 -12 2.64874 2.85268   1
  -7  -3  12 3.01549 2.91385   1
   7   3  12 10.1935 2.31377   2
   7   3  12 3.61243 2.34136   8
   7  -3 -12 0.43168 2.48585   8
   7  -3 -12 5.10025 2.11083   2
   7   3  12 -0.5589 2.11840   8
   7   3  12 2.45982 4.02374   5
  -7   3 -12 4.85193 3.54042   1
  -8  -3 -12 13.9572 4.10480   1
   8  -3  12 9.04962 3.60148   8
  -8   3  12 10.1176 3.65654   1
   8   3 -12 12.1395 3.37621   8
   8   3  12 15.9685 3.68930   8
  -8  -3  12 9.03367 3.82575   1
   8   3  12 12.9664 3.52384   8
  -8   3 -12 9.69343 3.89730   1
   8  -3 -12 10.6907 3.06129   8
  -9  -3 -12 1047.70 102.351   1
   9   3 -12 1087.43 95.0872   8
  -9   3  12 927.205 102.028   1
   9  -3  12 975.425 95.1047   8
  -9   3 -12 785.004 101.912   1
  -9  -3  12 866.729 101.870   1
   9   3  12 915.824 94.8520   8
 -10   3  12 46.7895 9.38219   1
  10   3 -12 77.2854 9.25961   8
 -10  -3 -12 52.5982 9.73955   1
  10  -3  12 80.5206 9.53365   8
  10   3  12 76.9708 9.25459   8
 -10  -3  12 79.1877 10.5526   1
 -10   3 -12 85.9437 10.5561   1
   0   4  12 23.4707 4.56167   2
   0   4 -12 17.1600 4.27283   2
   0  -4 -12 17.0295 4.30955   2
   0  -4  12 16.7008 4.29443   2
   0  -4  12 14.2986 4.36353   5
  -1  -4 -12 82.8285 10.4651   2
   1  -4  12 78.8990 10.6245   2
   1  -4  12 74.9224 10.7194   5
  -1  -4 -12 65.5962 10.2702   1
  -1   4  12 80.3554 10.2159   2
   1   4 -12 85.6539 10.4360   2
  -1   4  12 82.2358 10.1280   1
  -1   4 -12 67.3097 10.0469   1
  -1   4 -12 70.6565 10.1731   2
   1  -4 -12 75.9232 10.3495   2
  -1  -4  12 53.1918 9.96835   1
  -1  -4  12 86.8367 10.7867   5
   1   4  12 75.4188 10.2752   2
  -1  -4  12 92.0613 10.8142   2
   2  -4  12 1148.52 126.558   2
  -2  -4 -12 1351.28 125.378   1
   2  -4  12 1171.15 130.666   5
  -2   4  12 1222.00 125.110   1
   2   4 -12 1025.19 126.174   2
  -2  -4  12 997.951 125.015   1
  -2  -4  12 1150.94 130.446   5
   2  -4 -12 1232.48 126.359   2
  -3  -4 -12 140.970 15.4879   1
   3   4 -12 93.1698 14.8147   2
  -3   4  12 105.549 14.9123   1
   3  -4  12 98.5080 15.6399   5
   3  -4  12 144.664 15.8394   2
   3  -4 -12 137.802 15.4198   2
   3   4  12 156.205 15.6448   2
  -3  -4  12 148.122 15.9526   5
  -3   4 -12 135.414 15.5109   1
   3   4  12 147.924 16.5625   5
  -3  -4  12 98.4236 15.0012   1
  -4   4  12 10.3493 3.40587   1
   4  -4  12 17.0400 4.81594   5
   4   4 -12 17.9209 3.73464   2
   4  -4  12 14.5585 3.90482   2
  -4  -4 -12 11.6771 3.77109   1
  -4   4 -12 15.0768 4.28915   1
  -4  -4  12 21.2975 4.56189   1
   4   4  12 12.7220 3.50924   2
   4   4  12 17.1166 4.99073   5
   4  -4 -12 16.7699 3.82054   2
  -5  -4 -12 103.711 14.3381   1
   5  -4  12 93.2144 14.0159   2
  -5   4  12 121.702 14.3866   1
   5   4 -12 120.555 14.0160   2
   5  -4  12 103.151 15.3317   5
  -5  -4  12 128.257 14.6367   1
   5   4  12 110.942 14.1350   2
   5   4  12 121.087 15.6955   5
   5  -4 -12 128.375 14.2482   2
  -5   4 -12 129.999 14.7783   1
   6  -4  12 450.574 45.1747   2
   6   4 -12 352.625 44.5882   2
  -6  -4 -12 363.149 44.8396   1
   6   4 -12 463.074 41.9569   8
  -6   4  12 400.347 44.8973   1
   6   4  12 363.508 47.2085   5
   6   4  12 439.456 44.8220   2
   6  -4 -12 393.411 44.7785   2
  -6  -4  12 390.034 44.9685   1
  -6   4 -12 448.785 45.3056   1
  -7  -4 -12 34.0910 5.95759   1
   7   4 -12 27.5457 5.26269   8
   7  -4  12 34.7934 5.31832   2
  -7   4  12 34.5155 6.12050   1
  -7  -4  12 29.9521 5.87303   1
   7  -4 -12 33.2110 4.94999   2
  -7   4 -12 32.8598 6.18236   1
   7   4  12 24.8689 5.18935   8
   7   4  12 28.7528 4.67787   2
  -8  -4 -12 2.34590 3.01252   1
  -8   4  12 1.79090 2.93040   1
   8   4 -12 4.94119 2.57713   8
   8   4  12 2.21434 2.59857   8
  -8   4 -12 4.08485 3.19979   1
   8  -4 -12 -0.0854 2.33082   8
  -8  -4  12 5.88491 3.34920   1
   9   4 -12 1.36737 2.25528   8
  -9  -4 -12 8.17589 3.33662   1
  -9   4  12 1.42256 2.44030   1
   9  -4  12 6.10120 3.26065   8
  -9  -4  12 1.33987 3.24752   1
  -9   4 -12 7.19144 3.56696   1
   9   4  12 3.45257 2.77520   8
   9  -4 -12 2.38666 2.79000   8
 -10  -4 -12 193.244 22.5150   1
  10   4 -12 171.907 20.5381   8
  10  -4  12 190.643 20.8751   8
 -10   4  12 188.393 22.3824   1
 -10  -4  12 201.515 22.7852   1
  10  -4 -12 202.237 20.9541   8
 -10   4 -12 173.369 22.2871   1
  10   4  12 196.942 20.6936   8
   0  -5  12 3.98322 2.88548   5
   0  -5  12 0.21559 2.40753   2
   0   5 -12 -1.7782 2.43927   2
   0   5  12 2.21911 2.58488   2
   0  -5 -12 1.17033 2.16011   2
  -1   5  12 371.319 42.7388   1
  -1  -5 -12 392.134 42.9544   1
  -1   5  12 348.153 43.2025   2
   1  -5  12 408.602 43.5464   2
   1   5 -12 426.577 43.3360   2
  -1  -5 -12 352.129 43.2351   2
   1  -5  12 364.904 44.5899   5
  -1  -5  12 421.729 44.7174   5
   1  -5 -12 430.852 43.3564   2
  -1  -5  12 375.314 43.2755   2
   1   5  12 307.353 42.9616   2
  -1  -5  12 458.251 43.2172   1
   2  -5  12 430.692 55.5033   2
  -2   5  12 498.224 54.9245   1
   2   5 -12 467.987 55.3957   2
  -2  -5 -12 537.656 55.2060   1
   2   5  12 494.839 55.4852   2
   2  -5 -12 534.358 55.6448   2
  -2  -5  12 458.156 54.9681   1
  -2  -5  12 567.975 57.4604   5
  -2   5 -12 561.848 55.2789   1
  -2   5 -12 464.953 55.6704   2
   3   5 -12 457.885 55.9725   2
   3  -5  12 424.342 57.9686   5
  -3  -5 -12 446.367 55.5285   1
   3  -5  12 554.730 56.6019   2
  -3   5  12 613.592 55.8956   1
  -3  -5  12 486.329 55.7206   1
   3  -5 -12 547.193 56.2595   2
   3   5  12 536.700 58.4451   5
  -3  -5  12 532.186 57.9700   5
   3   5  12 485.912 56.1066   2
  -4   5  12 409.841 39.7990   1
   4   5 -12 340.865 39.6074   2
   4  -5  12 305.889 39.9383   2
   4  -5  12 325.559 41.5345   5
  -4  -5 -12 343.258 39.6695   1
   4   5  12 328.697 39.8045   2
   4  -5 -12 415.596 40.1032   2
  -4  -5  12 408.093 40.1910   1
  -4   5 -12 336.481 39.6197   1
  -5  -5 -12 239.363 27.5748   1
   5  -5  12 212.088 28.9617   5
   5  -5  12 297.151 28.0890   2
  -5   5  12 261.543 27.5206   1
   5   5 -12 251.606 27.2598   2
  -5   5 -12 205.099 27.2854   1
   5   5  12 281.595 29.6309   5
   5  -5 -12 244.941 27.4275   2
  -5  -5  12 238.249 27.7045   1
   5   5  12 195.031 27.0463   2
   6  -5  12 302.251 30.3088   2
  -6  -5 -12 278.504 30.3418   1
   6   5 -12 270.904 29.6846   2
  -6   5  12 255.810 30.0097   1
  -6  -5  12 232.827 30.2093   1
   6   5  12 241.622 29.6694   2
   6   5  12 310.459 32.4274   5
   6  -5 -12 257.343 29.8254   2
   6   5  12 306.136 34.1371   4
  -6   5 -12 222.372 29.8963   1
  -7  -5 -12 109.873 15.7060   1
   7   5 -12 141.597 14.7774   8
   7  -5  12 139.036 15.2417   2
  -7   5  12 119.334 15.5199   1
  -7  -5  12 104.656 15.7031   1
  -7   5 -12 140.511 16.0239   1
   7  -5 -12 103.093 14.7832   2
   7   5  12 152.428 18.8321   4
   7   5  12 145.900 14.8852   2
   8   5 -12 168.745 18.0368   8
  -8   5  12 146.130 19.1719   1
  -8  -5 -12 159.682 19.5181   1
  -8   5 -12 164.978 19.5611   1
   8   5  12 185.461 18.2534   8
   8   5  12 163.399 22.2658   4
  -8  -5  12 144.286 19.4999   1
   9   5 -12 66.7962 9.22408   8
  -9   5  12 68.5553 9.95324   1
  -9  -5 -12 76.5641 10.2998   1
   9  -5 -12 75.4162 9.57764   8
  -9  -5  12 54.2336 9.78991   1
  -9   5 -12 67.6104 9.99956   1
   9   5  12 60.3732 8.82138   8
   0   6  12 1.92612 2.97383   2
   0   6 -12 2.68271 2.50585   2
   0  -6  12 -0.8819 2.44172   5
   0  -6 -12 0.46501 2.73140   2
   0  -6  12 2.13301 3.05956   2
  -1  -6 -12 107.560 13.4888   1
  -1   6  12 109.169 13.5528   2
   1  -6  12 114.093 13.7531   2
   1   6 -12 120.911 13.7334   2
  -1  -6 -12 81.6185 13.0369   2
   1  -6  12 118.773 13.9983   5
  -1  -6  12 116.176 13.8150   5
  -1  -6  12 105.999 13.5742   2
  -1   6 -12 99.7893 13.7059   2
  -1  -6  12 86.6171 13.1704   1
   1   6  12 97.7546 13.4374   2
   1  -6 -12 124.208 13.7474   2
   2   6 -12 274.346 31.0716   2
  -2   6  12 279.458 30.8027   1
  -2  -6 -12 269.737 30.9434   1
   2  -6  12 246.462 32.1198   5
   2  -6  12 313.137 31.6234   2
  -2   6 -12 265.049 31.5041   2
  -2  -6  12 292.546 31.0689   1
  -2   6 -12 286.352 31.3545   1
   2  -6 -12 293.360 31.3164   2
  -2  -6  12 225.005 31.6122   5
   3  -6  12 2.34141 2.90110   2
  -3  -6 -12 3.13066 2.98240   1
   3   6 -12 -1.6758 2.33600   2
  -3   6  12 2.46306 2.69378   1
   3  -6  12 -0.5159 2.42473   5
   3  -6 -12 1.44937 2.48270   2
  -3  -6  12 1.38687 2.62842   1
   3   6  12 1.05367 2.46355   2
  -3   6 -12 8.45516 3.88922   1
   4  -6  12 17.0157 4.70685   2
  -4   6  12 15.8830 4.18888   1
  -4  -6 -12 23.4190 5.05757   1
   4  -6  12 21.0970 5.70698   5
   4   6 -12 17.9410 4.31923   2
   4  -6 -12 17.3510 4.15776   2
  -4   6 -12 17.9143 5.07440   1
   4   6  12 16.5155 5.04741   5
   4   6  12 22.6473 4.57082   2
  -4  -6  12 20.1403 4.90800   1
  -5  -6 -12 96.6789 12.4011   1
   5  -6  12 106.269 12.6236   2
  -5   6  12 102.214 12.2566   1
   5   6 -12 74.2097 11.4358   2
   5   6  12 106.796 12.0661   2
   5   6  12 93.2405 14.1871   5
   5  -6 -12 92.9427 12.0106   2
  -5  -6  12 80.2472 12.6017   1
  -5   6 -12 97.6150 12.7164   1
  -6   6  12 360.942 46.1096   1
   6   6 -12 403.364 46.0975   2
  -6  -6 -12 398.867 46.4090   1
   6  -6  12 462.474 46.8240   2
   6  -6 -12 453.938 46.5021   2
  -6  -6  12 334.272 46.2924   1
   6   6  12 479.645 46.3728   2
  -6   6 -12 452.244 46.8455   1
  -7   6  12 47.4082 7.97134   1
   7  -6  12 60.8120 7.89627   2
  -7  -6 -12 43.1350 7.97011   1
   7   6  12 49.2518 7.06653   2
  -7  -6  12 44.1213 8.11720   1
   7  -6 -12 55.4610 7.49883   2
  -7   6 -12 66.4702 9.20191   1
   7   6  12 45.3300 9.77174   4
  -8  -6 -12 1057.24 118.674   1
   8   6 -12 1200.64 110.814   8
  -8   6  12 1073.01 118.552   1
  -8  -6  12 1061.55 118.813   1
  -9  -6 -12 32.1814 6.37089   1
   9   6 -12 34.6312 6.27868   8
  -9   6  12 26.1527 5.93803   1
  -9  -6  12 37.6190 6.96704   1
  -9   6 -12 38.1900 7.12337   1
   0  -7  12 -2.0559 2.62704   5
   0  -7  12 16.8152 4.40338   2
   0   7 -12 3.24229 3.02956   2
   0   7  12 4.76152 3.08516   2
   0  -7 -12 1.72089 2.79814   2
  -1   7  12 2.15953 2.86264   2
   1  -7  12 4.61393 3.41975   2
   1  -7  12 3.66628 2.79744   5
  -1  -7 -12 2.77823 2.64976   2
   1   7 -12 5.60843 3.20618   2
   1  -7 -12 8.13150 3.46060   2
  -1  -7  12 3.54336 3.06700   1
  -1  -7  12 6.94779 3.45804   1
  -1  -7  12 4.01129 2.42084   5
  -1   7 -12 5.81342 3.34891   2
   1   7  12 1.02665 2.87479   2
  -2  -7 -12 152.697 15.1275   1
   2  -7  12 129.965 14.9948   2
   2   7 -12 97.8554 14.2938   2
   2  -7  12 115.484 15.1419   5
  -2   7  12 111.808 14.3412   1
   2  -7 -12 131.609 14.9356   2
   2   7  12 96.2770 14.4230   2
  -2  -7  12 112.323 14.5471   1
  -3   7  12 742.736 68.1142   1
   3   7 -12 549.124 68.2565   2
   3  -7  12 562.002 68.5921   2
   3   7  12 625.266 68.5224   2
  -3  -7  12 689.555 68.1858   1
   3  -7 -12 629.054 68.5542   2
  -3   7 -12 559.335 68.2093   1
   4   7 -12 54.3424 7.67767   2
  -4  -7 -12 56.0822 8.01941   1
   4  -7  12 37.7517 7.22982   2
  -4   7  12 43.4637 7.25725   1
  -4   7 -12 38.5899 7.57797   1
   4  -7 -12 35.2045 6.84683   2
   4   7  12 46.8545 7.08324   2
   4   7  12 47.7756 8.47939   5
  -4  -7  12 40.0115 7.29113   1
   5   7 -12 817.594 77.1263   2
  -5  -7 -12 850.931 77.1494   1
   5  -7  12 777.243 77.7975   2
  -5   7  12 634.005 76.3885   1
  -5  -7  12 724.578 76.8901   1
   5  -7 -12 659.100 77.0690   2
   5   7  12 610.840 76.9000   2
  -5   7 -12 577.070 76.8029   1
  -6  -7 -12 182.344 19.7280   1
   6   7 -12 158.585 18.7477   2
  -6   7  12 177.344 19.4462   1
   6  -7  12 155.638 19.4389   2
  -6  -7  12 177.062 19.8316   1
   6  -7 -12 149.661 19.0346   2
  -6   7 -12 137.081 19.6303   1
   7  -7  12 500.730 55.7072   2
  -7   7  12 562.920 55.7984   1
  -7  -7 -12 489.726 55.6671   1
  -7   7 -12 415.355 55.7709   1
  -7  -7  12 558.689 56.1335   1
   7  -7 -12 504.395 55.5865   2
  -8  -7 -12 114.197 13.8243   1
  -8   7  12 107.843 13.5008   1
  -8  -7  12 95.3357 13.5790   1
  -8   7 -12 94.7680 14.4069   1
   9   7 -12 11.0305 3.39878   8
   0   8 -12 4.69111 3.64629   2
   0   8  12 2.63525 2.87898   2
   0  -8 -12 8.06088 3.40560   2
   0  -8  12 9.16223 3.73107   2
   0  -8  12 2.76735 2.57790   5
  -1  -8 -12 70.2782 10.0660   2
   1  -8  12 85.2068 10.8167   2
   1   8 -12 61.3664 9.81398   2
  -1   8  12 55.0560 9.64174   2
   1  -8  12 70.8674 10.2549   5
   1  -8 -12 64.6346 9.83119   2
  -1   8 -12 65.4057 10.1746   2
   1   8  12 54.9708 9.34744   2
   2  -8  12 223.949 24.2882   2
   2   8 -12 189.084 23.9177   2
  -2  -8 -12 211.033 24.0515   1
  -2  -8  12 204.418 24.0538   1
  -2  -8  12 218.871 24.0695   1
   2  -8 -12 217.365 24.1789   2
   2   8  12 171.518 23.7024   2
  -3  -8 -12 99.7378 16.1255   1
  -3   8  12 115.707 16.2175   1
   3  -8  12 120.583 16.5737   2
   3   8 -12 165.754 16.7714   2
  -3   8 -12 153.920 17.1642   1
  -3  -8  12 161.250 16.9881   1
  -3  -8  12 153.196 16.9605   1
   3  -8 -12 109.166 16.3174   2
   3   8  12 152.634 16.6759   2
  -4  -8 -12 399.810 45.6164   1
   4   8 -12 391.429 45.7102   2
  -4   8  12 427.630 45.3846   1
  -4   8 -12 417.263 45.9173   1
   4   8  12 430.331 45.7856   2
  -4  -8  12 382.215 45.4306   1
   4  -8 -12 425.683 45.8600   2
  -4  -8  12 392.404 45.6483   1
  -5  -8 -12 166.206 17.6740   1
   5  -8  12 125.206 17.0989   2
   5   8 -12 120.595 16.5730   2
  -5   8  12 157.419 17.1079   1
  -5  -8  12 137.243 17.2250   1
   5   8  12 151.478 16.9381   2
   5  -8 -12 143.095 16.9899   2
  -5   8 -12 146.066 17.7435   1
  -5  -8  12 112.886 17.0077   1
   6  -8  12 424.869 55.9975   2
  -6  -8 -12 545.885 56.0850   1
   6   8 -12 580.977 55.6682   2
  -6   8  12 404.584 55.2421   1
  -6   8 -12 531.298 56.3263   1
  -6  -8  12 511.859 55.9840   1
   6  -8 -12 467.463 55.8238   2
   6   8  12 581.029 55.9343   2
   7  -8  12 32.2582 6.14252   2
  -7  -8 -12 30.4834 6.62743   1
  -7   8  12 27.2688 6.17124   1
  -7   8 -12 45.6471 7.93279   1
  -7  -8  12 45.5066 7.55370   1
  -7  -8  12 30.9713 6.83010   1
   7  -8 -12 40.8543 6.24676   2
   7   8  12 41.5645 6.26600   2
  -8  -8 -12 234.334 24.2374   1
  -8   8  12 195.496 23.6239   1
  -8  -8  12 216.729 24.1760   1
  -8   8 -12 194.490 24.0569   1
  -8  -8  12 172.716 23.8092   1
   0  -9  12 5.14758 3.61758   2
   0   9 -12 -2.1453 2.80347   2
   0  -9 -12 0.40665 3.12357   2
   0   9  12 -4.6404 2.18393   2
  -1   9  12 871.427 107.476   2
   1  -9  12 1036.28 107.807   2
   1   9 -12 1124.24 108.136   2
  -1   9 -12 938.112 107.986   2
   1  -9 -12 958.481 107.604   2
   2  -9  12 53.3601 8.31274   2
  -2  -9 -12 56.3039 8.67399   1
   2   9 -12 40.6237 7.76139   2
   2   9  12 45.8807 7.81261   2
  -2  -9  12 45.9296 8.13027   1
   2  -9 -12 54.8309 8.22948   2
   3   9 -12 25.3490 6.10243   2
   3  -9  12 41.7200 7.26694   2
  -3   9  12 50.5617 7.41970   1
  -3  -9 -12 31.8711 6.80232   1
  -3  -9  12 46.6205 7.55856   1
   3  -9 -12 41.8833 7.14565   2
   3   9  12 51.3496 7.46224   2
  -3  -9  12 39.9740 7.24492   1
  -4   9  12 50.9005 8.81363   1
  -4  -9 -12 72.5265 10.3578   1
   4  -9  12 73.1510 10.0898   2
   4   9 -12 64.7517 9.31213   2
  -4  -9  12 61.5503 9.76781   1
   4  -9 -12 58.9999 9.38068   2
   4   9  12 60.8934 9.24423   2
  -4   9 -12 59.0473 9.94217   1
  -4  -9  12 70.3710 10.2338   1
   5   9 -12 28.4069 5.56852   2
   5  -9  12 32.5135 6.32195   2
  -5  -9 -12 33.2219 6.63984   1
  -5   9  12 27.8214 5.81655   1
  -5  -9  12 29.6084 6.26425   1
  -5  -9  12 35.5756 6.88739   1
   5  -9 -12 34.7793 6.14210   2
   5   9  12 18.7213 4.83606   2
  -5   9 -12 30.0653 6.64152   1
  -6  -9 -12 77.0506 12.2088   1
  -6   9  12 91.0864 11.7512   1
   6  -9  12 85.0083 12.2181   2
   6  -9 -12 85.5191 11.3269   2
  -6   9 -12 67.5461 11.9920   1
   6   9  12 93.9559 11.3227   2
  -6  -9  12 83.4722 12.1811   1
   7  -9  12 31.9827 5.87230   2
  -7  -9 -12 27.7213 6.21656   1
  -7   9  12 22.0357 5.75999   1
  -7   9 -12 35.5990 7.02248   1
  -7  -9  12 35.0190 6.78143   1
  -7  -9  12 19.3432 5.92671   1
   7  -9 -12 35.3438 5.80660   2
   0 -10  12 558.650 69.0814   2
   0  10 -12 749.699 70.0819   2
   0 -10 -12 557.428 68.9869   2
   0  10  12 653.195 69.1615   2
   1 -10  12 12.7791 4.59776   2
  -1  10  12 14.4024 4.00204   2
   1  10 -12 19.3304 5.30383   2
   1 -10 -12 14.4074 4.60584   2
   1  10  12 18.8705 4.75870   2
  -1  10 -12 16.0186 4.79044   2
   2  10 -12 239.657 29.5784   2
   2 -10  12 228.478 29.5423   2
   2  10  12 296.566 29.9296   2
  -2 -10  12 257.827 30.2955   1
   2 -10 -12 256.252 29.7027   2
   3  10 -12 549.125 60.7541   2
  -3 -10 -12 475.036 60.3246   1
   3 -10  12 652.904 61.3023   2
   3 -10 -12 475.499 60.5997   2
   3  10  12 589.244 60.9375   2
  -3 -10  12 552.376 60.6229   1
  -4 -10 -12 457.340 45.8150   1
   4 -10  12 320.389 45.1334   2
  -4  10  12 467.855 45.2746   1
   4  10 -12 430.573 45.3207   2
   4 -10 -12 390.848 45.3971   2
  -4 -10  12 344.789 45.1541   1
   4  10  12 403.379 45.3303   2
  -4  10 -12 435.600 45.6387   1
  -5 -10 -12 39.0280 7.78717   1
   5  10 -12 56.9652 10.3007   4
  -5  10  12 37.1305 6.98352   1
   5  10 -12 29.3223 6.28823   2
   5 -10  12 25.1943 6.29976   2
  -5  10 -12 46.0014 7.94022   1
  -5 -10  12 47.6661 8.32062   1
   5 -10 -12 46.7372 7.48449   2
   5  10  12 40.8485 6.92004   2
   6 -10  12 47.9236 8.92033   2
  -6  10  12 47.4222 8.79975   1
  -6 -10 -12 63.1568 9.81016   1
   6  10 -12 49.4582 7.97737   2
  -6  10 -12 57.8831 9.77078   1
   6 -10 -12 66.1600 9.34124   2
  -6 -10  12 61.0228 9.89241   1
   6  10  12 64.6410 8.99151   2
  -7  10  12 32.4012 6.33343   1
   7 -10  12 24.1154 5.44451   2
  -7 -10 -12 16.9358 5.36362   1
   7 -10 -12 24.6507 5.28502   2
  -7  10 -12 31.0861 6.52019   1
  -7 -10  12 16.8021 5.91835   1
   0  11 -12 -1.4200 3.32568   2
   0 -11  12 -0.0866 3.50612   2
   0 -11 -12 4.17124 3.11065   2
   0  11  12 2.55165 2.96637   2
   1 -11  12 242.705 25.6744   2
  -1  11  12 228.513 25.2801   2
   1  11 -12 212.790 25.5567   2
  -1  11 -12 209.047 25.8636   2
   1  11  12 174.866 24.6928   2
   1 -11 -12 210.551 25.2447   2
   2 -11  12 567.738 63.0373   2
   2  11  12 596.239 62.9948   2
   2 -11 -12 531.742 62.8390   2
   3 -11  12 99.8983 14.6685   2
  -3 -11 -12 131.764 15.8331   1
   3  11 -12 123.231 15.0894   2
   3  11  12 107.598 14.7134   2
  -3 -11  12 121.146 15.3775   1
   3 -11 -12 113.722 15.0548   2
   4  11 -12 269.310 28.5386   2
   4 -11  12 289.927 29.1483   2
  -4 -11 -12 246.999 28.9870   1
   4  11  12 183.212 28.1705   2
   4 -11 -12 222.480 28.5570   2
  -4 -11  12 288.821 29.4427   1
  -5 -11 -12 117.421 14.9714   1
  -5  11  12 109.938 14.3861   1
   5  11 -12 101.242 13.7523   2
   5 -11  12 108.043 14.4630   2
  -5 -11  12 119.900 15.2304   1
   5 -11 -12 94.0248 14.0193   2
   5  11  12 114.652 14.2589   2
  -5  11 -12 106.817 14.7753   1
   6 -11  12 124.826 14.7022   2
   6  11 -12 84.1499 12.8860   2
  -6 -11 -12 90.1400 14.7337   1
  -6  11  12 93.4054 13.9225   1
  -6 -11  12 132.494 15.4410   1
   6  11  12 126.519 14.0876   2
  -6  11 -12 126.869 15.0567   1
   6 -11 -12 107.333 13.9804   2
   0 -12 -12 1919.22 183.222   2
   0  12 -12 1437.37 182.954   2
   0 -12  12 1639.25 183.199   2
   0  12  12 1731.59 182.939   2
  -1  12  12 0.42454 2.75256   2
   1  12 -12 7.50946 4.25590   2
   1 -12  12 2.88895 3.23360   2
   1  12  12 0.91978 3.09378   2
   1 -12 -12 3.68547 3.13151   2
  -1  12 -12 -2.1007 4.31692   2
   2  12 -12 3.79288 3.84968   2
   2 -12  12 -3.4214 3.31895   2
   2 -12 -12 5.48018 4.06424   2
   2  12  12 1.09522 2.92791   2
   3  12 -12 45.5949 8.35629   2
   3 -12  12 48.8149 8.67214   2
   3 -12 -12 56.7128 9.09296   2
   3  12  12 52.1178 8.68924   2
   4 -12  12 286.699 30.8672   2
  -4 -12 -12 312.150 31.4001   1
   4  12 -12 268.695 30.2970   2
   4  12  12 246.659 30.4387   2
   4 -12 -12 246.740 30.5957   2
  -4 -12  12 223.520 30.5557   1
   0  13 -12 14.1184 4.61345   2
   0  13  12 -3.1419 3.44144   2
   0 -13 -12 -1.5048 3.45556   2
   1  13 -12 56.9743 10.0559   2
  -1  13  12 42.9995 8.83978   2
   1 -13  12 57.4227 9.65459   2
   1 -13 -12 49.7749 9.18313   2
  -1  13 -12 66.4032 10.9921   2
   1  13  12 61.7837 9.70093   2
   2  13 -12 17.3984 5.60313   2
   2 -13  12 12.6877 4.82046   2
   2  13  12 15.8045 4.67221   2
   2 -13 -12 8.28015 4.96622   2
   0   0 -13 0.58029 2.17183   2
   0   0  13 1.25309 2.57075   2
   0   0  13 -0.8575 2.70801   5
  -1   0 -13 7.37748 3.20721   1
  -1   0  13 5.08297 2.70192   1
   1   0  13 4.35039 3.01466   5
   1   0  13 3.45823 2.85133   2
   1   0 -13 4.61731 2.82088   2
  -1   0  13 4.78925 2.59937   2
  -1   0 -13 2.57373 2.69824   2
   2   0  13 -1.3724 2.13446   2
   2   0  13 -1.4721 2.68278   5
  -2   0 -13 -3.0705 2.76962   1
   2   0 -13 -1.3104 1.71079   2
  -2   0  13 2.07950 2.55832   1
   3   0  13 534.284 56.0065   2
  -3   0 -13 534.076 55.7460   1
   3   0  13 534.855 58.4675   5
   3   0 -13 430.191 55.6284   2
  -4   0 -13 1.03674 3.04975   1
   4   0  13 0.61400 2.41053   2
  -4   0  13 4.07775 2.88169   1
   4   0 -13 0.72360 2.32823   2
   4   0  13 4.85696 3.69912   5
  -5   0  13 109.163 13.6872   1
   5   0 -13 133.842 13.6481   2
   5   0  13 100.855 14.8025   5
   5   0  13 79.9113 13.2403   2
  -5   0 -13 129.969 14.4462   1
  -6   0 -13 -0.2920 3.04352   1
   6   0 -13 2.37586 2.28553   2
   6   0  13 -1.2195 2.43660   2
  -6   0  13 -4.2861 2.20819   1
   6   0  13 -2.1083 3.37674   5
   7   0  13 657.433 66.3046   2
  -7   0 -13 573.415 66.4499   1
   7   0 -13 546.217 61.5333   8
  -7   0  13 653.328 66.4180   1
   7   0  13 591.078 69.8658   5
  -8   0 -13 -2.1706 3.16696   1
   8   0 -13 4.85298 2.66918   8
  -8   0  13 5.00869 3.26913   1
   8   0  13 0.43461 4.44529   5
   9   0  13 33.7977 6.38476   8
   9   0 -13 43.2986 6.56860   8
  -9   0  13 47.7858 7.46161   1
  -9   0 -13 38.8963 7.41333   1
   0  -1  13 102.655 13.7606   5
   0   1 -13 80.4986 12.6518   2
   0  -1 -13 104.862 12.9931   2
   0  -1  13 103.621 13.3190   2
   0   1  13 142.775 13.8177   2
  -1  -1 -13 1.15984 2.35472   2
   1  -1  13 -2.0292 2.58311   5
  -1   1  13 1.70269 1.82174   1
  -1   1  13 2.35949 2.77139   2
   1   1 -13 1.35137 2.41145   2
  -1  -1 -13 -0.1013 3.22740   1
   1  -1  13 2.38554 2.33650   2
  -1   1 -13 1.73793 3.06213   1
   1   1  13 -1.7820 2.73849   5
   1   1  13 -0.6823 2.40295   2
  -1  -1  13 -0.9575 2.55823   2
  -1   1 -13 -0.0611 2.23895   2
  -1  -1  13 -0.8665 2.18465   1
   1  -1 -13 0.72203 2.15437   2
  -1  -1  13 -4.4486 2.21509   5
   2   1 -13 114.162 12.9794   2
   2  -1  13 96.8382 13.9218   5
  -2   1  13 103.444 12.7402   1
  -2  -1 -13 78.6980 12.6455   1
   2  -1  13 123.151 13.3833   2
  -2  -1  13 113.120 12.9744   1
  -2   1 -13 99.6948 13.1538   1
   2   1  13 88.2612 12.7772   2
   2  -1 -13 105.406 13.0092   2
   3  -1  13 67.9038 9.49211   5
   3   1 -13 59.7509 8.31640   2
  -3   1  13 38.3090 7.51943   1
   3  -1  13 69.7303 8.83113   2
  -3  -1 -13 45.6230 8.13932   1
   3   1  13 47.6341 8.78345   5
   3   1  13 69.9550 8.37086   2
  -3   1 -13 45.2108 8.17812   1
  -3  -1  13 51.6763 8.01030   1
   3  -1 -13 56.6398 8.33007   2
   4  -1  13 6.20184 4.01179   5
   4  -1  13 11.1024 3.58746   2
  -4   1  13 12.8441 3.66210   1
   4   1 -13 12.0917 3.41430   2
  -4  -1 -13 12.8001 4.04310   1
   4  -1 -13 9.71675 3.24873   2
  -4   1 -13 9.74986 3.95301   1
   4   1  13 12.0357 3.55455   2
   4   1  13 9.77986 4.30199   5
  -4  -1  13 15.8568 3.85120   1
  -5   1  13 109.628 14.8328   1
   5  -1  13 130.388 15.0748   2
  -5  -1 -13 138.083 15.6393   1
   5  -1  13 123.421 16.4638   5
   5   1 -13 118.915 14.8529   2
   5   1  13 94.7164 14.6831   2
  -5  -1  13 136.341 15.2084   1
   5  -1 -13 122.173 14.8811   2
   5   1  13 129.351 16.5304   5
  -5   1 -13 136.517 15.6653   1
  -6  -1 -13 -1.4634 2.84127   1
   6   1 -13 1.60091 2.07077   2
   6  -1  13 7.41307 3.92152   5
  -6   1  13 4.76164 2.88615   1
   6  -1  13 0.67669 2.53986   2
   6  -1 -13 3.12796 2.43116   2
   6   1  13 3.88377 2.83490   2
  -6   1 -13 -2.0900 2.91022   1
   6   1  13 0.76179 3.84088   5
  -6  -1  13 0.96766 2.67366   1
   7  -1  13 6.29082 2.85134   2
  -7   1  13 4.10352 3.13399   1
   7  -1  13 10.3700 4.50544   5
  -7  -1 -13 9.47728 3.83967   1
   7   1 -13 8.13008 3.03149   8
   7   1  13 7.96921 4.54580   5
  -7  -1  13 7.53647 3.44094   1
   7   1  13 9.08609 2.63201   2
  -7   1 -13 2.54014 2.95182   1
   7  -1 -13 8.29381 2.50694   2
  -8   1  13 331.395 40.5333   1
   8   1 -13 399.304 37.9082   8
  -8  -1  13 358.791 40.6712   1
   8  -1 -13 390.387 37.8975   8
  -8   1 -13 339.581 40.8594   1
   8   1  13 364.390 43.3684   5
   9  -1  13 59.1467 9.73450   8
  -9   1  13 56.6910 10.0038   1
  -9  -1 -13 80.6624 11.0247   1
   9   1 -13 77.3796 9.54441   8
   9   1  13 66.5218 9.68377   8
  -9   1 -13 74.1888 10.8897   1
   9  -1 -13 77.1495 9.73571   8
  -9  -1  13 84.0751 10.4974   1
   0  -2  13 9.21937 3.72756   2
   0  -2  13 -0.4483 2.54604   5
   0  -2 -13 1.88476 2.55518   2
   0   2 -13 1.26280 2.41212   2
   0   2  13 4.31938 2.75689   2
  -1  -2 -13 141.622 16.8958   2
  -1  -2 -13 149.923 17.1618   1
  -1   2  13 147.559 17.1729   2
   1  -2  13 150.766 17.3752   2
   1  -2  13 97.2301 17.3681   5
   1   2 -13 155.318 17.1250   2
  -1   2 -13 151.393 17.3025   2
  -1  -2  13 144.390 17.4710   2
  -1  -2  13 175.800 17.2209   1
  -1  -2  13 142.219 17.7435   5
   1  -2 -13 115.447 16.7330   2
   1   2  13 130.510 16.9267   2
   2   2 -13 20.6834 4.31395   2
  -2   2  13 19.0908 4.22150   1
   2  -2  13 22.1781 4.56125   2
   2  -2  13 15.8188 4.73809   5
  -2  -2 -13 17.9245 4.65804   1
   2  -2 -13 17.0861 4.30870   2
   2   2  13 16.1416 4.91757   5
  -2  -2  13 17.4760 4.60727   5
  -2   2 -13 12.8260 4.18969   1
   2   2  13 21.9569 4.48983   2
  -2  -2  13 16.4683 4.26452   1
  -3  -2 -13 148.220 17.2525   1
   3  -2  13 134.294 18.0100   5
   3  -2  13 106.694 16.7253   2
   3   2 -13 153.293 17.0384   2
  -3   2  13 151.730 16.9258   1
   3  -2 -13 137.201 17.0688   2
   3   2  13 159.894 18.4767   5
  -3  -2  13 113.319 16.5352   1
   3   2  13 170.659 17.3637   2
  -3   2 -13 151.094 17.4029   1
  -4   2  13 213.295 23.7455   1
   4  -2  13 225.380 25.6211   5
  -4  -2 -13 179.433 23.8368   1
   4   2 -13 182.033 23.6558   2
   4  -2  13 196.451 23.9416   2
  -4  -2  13 240.240 24.0341   1
   4   2  13 206.510 23.9935   2
   4  -2 -13 250.455 24.1281   2
   4   2  13 208.919 25.5530   5
  -4   2 -13 170.598 23.8534   1
  -5  -2 -13 35.4211 6.79617   1
   5  -2  13 34.4432 6.43030   2
  -5   2  13 32.9647 6.30751   1
   5  -2  13 41.7327 7.91227   5
   5   2 -13 41.4021 6.52198   2
  -5   2 -13 42.0842 7.18544   1
   5   2  13 38.6548 7.73139   5
   5  -2 -13 38.3756 6.43395   2
  -5  -2  13 43.0345 6.85466   1
   5   2  13 42.3784 6.54372   2
   6   2 -13 294.294 30.1411   2
  -6   2  13 210.891 30.0249   1
  -6  -2 -13 249.536 30.5852   1
   6  -2  13 259.030 32.4611   5
   6  -2  13 249.885 30.2299   2
   6   2  13 276.765 32.5003   5
  -6  -2  13 297.645 30.6870   1
  -6   2 -13 255.700 30.7106   1
   6  -2 -13 280.500 30.2230   2
   6   2  13 308.071 30.5725   2
  -7  -2 -13 126.296 16.3261   1
   7   2 -13 133.527 14.8663   8
   7  -2  13 139.515 15.6038   2
   7  -2  13 145.888 18.4238   5
  -7  -2  13 149.614 16.3907   1
   7  -2 -13 121.193 15.1108   2
  -7   2 -13 122.303 16.3515   1
   7   2  13 126.868 17.7286   5
   7   2  13 127.224 15.1965   2
  -8  -2 -13 1.23177 3.16587   1
  -8   2  13 4.63163 2.86055   1
   8   2 -13 2.52355 2.70558   8
   8  -2 -13 -1.5014 2.47844   8
  -8  -2  13 -0.5760 2.81343   1
   8   2  13 5.46421 3.97260   5
  -8   2 -13 2.69523 3.10860   1
  -9   2  13 54.2767 8.48790   1
  -9  -2 -13 47.8902 8.61925   1
   9   2 -13 63.7170 8.18425   8
   9  -2 -13 53.3182 8.16078   8
  -9   2 -13 61.7779 9.51708   1
  -9  -2  13 58.9567 8.86296   1
   9   2  13 49.1578 7.93395   8
   0  -3 -13 3.36623 2.81236   2
   0   3 -13 1.70333 2.50805   2
   0  -3  13 5.49323 3.10241   5
   0   3  13 3.26612 2.82515   2
   0  -3  13 3.26604 2.85948   2
  -1   3  13 57.3489 8.67341   1
  -1  -3 -13 55.8493 8.83785   2
  -1  -3 -13 71.1332 9.49653   1
   1  -3  13 66.3868 9.74689   2
  -1   3  13 53.9900 8.92871   2
   1  -3  13 54.4327 9.49305   5
   1   3 -13 45.6276 8.67082   2
  -1   3 -13 79.3981 9.30108   2
  -1  -3  13 67.0166 9.73397   5
  -1  -3  13 84.6619 9.76233   2
  -1  -3  13 52.7067 8.99553   1
   1   3  13 67.0451 9.25384   2
   1  -3 -13 64.0000 9.22816   2
  -2  -3 -13 313.930 38.4820   1
   2  -3  13 328.953 40.3090   5
  -2   3  13 421.674 38.6027   1
   2  -3  13 290.008 38.8288   2
   2   3 -13 383.150 38.9172   2
   2  -3 -13 416.673 39.2825   2
  -2  -3  13 328.312 40.0428   5
   2   3  13 292.506 38.6508   2
  -2   3 -13 338.087 38.6875   1
   2   3  13 349.665 40.4350   5
   3  -3  13 5.14916 2.94941   2
  -3   3  13 9.88794 3.39156   1
   3  -3  13 4.87532 3.57601   5
   3   3 -13 -0.0788 2.30204   2
  -3  -3 -13 8.54972 3.57389   1
  -3  -3  13 14.7283 4.05276   1
   3   3  13 10.8097 4.05149   5
  -3  -3  13 13.7711 4.24548   5
   3   3  13 14.2502 3.75265   2
  -3   3 -13 8.24087 3.44933   1
   3  -3 -13 10.4945 3.41468   2
  -4   3  13 79.2877 8.86760   1
   4  -3  13 33.1794 8.39195   5
  -4  -3 -13 57.6936 8.91909   1
   4   3 -13 59.4570 8.53927   2
   4  -3  13 70.0207 9.12418   2
   4   3  13 67.8376 8.89158   2
  -4  -3  13 58.7873 8.70517   1
   4   3  13 55.1752 9.66035   5
   4  -3 -13 49.7945 8.32822   2
  -4   3 -13 58.4341 9.08499   1
  -5  -3 -13 4.73502 3.05974   1
   5   3 -13 4.74553 2.84935   2
   5  -3  13 2.02727 3.58306   5
  -5   3  13 6.92665 3.30659   1
   5  -3  13 1.22639 2.45046   2
  -5  -3  13 2.51764 2.59706   1
  -5   3 -13 6.64274 3.69314   1
   5  -3 -13 4.18718 2.90497   2
   5   3  13 3.76597 3.40365   5
   5   3  13 4.44638 2.64142   2
   6   3 -13 226.342 24.2484   2
   6  -3  13 190.922 24.2612   2
  -6   3  13 245.678 24.8881   1
  -6  -3 -13 219.688 24.8744   1
   6  -3  13 162.618 25.7902   5
   6   3  13 264.128 26.9152   5
   6   3  13 239.968 24.4803   2
   6  -3 -13 191.369 24.1437   2
  -6  -3  13 192.067 24.4940   1
  -6   3 -13 212.793 25.0197   1
  -7   3  13 12.0064 3.84633   1
   7  -3  13 10.1410 3.31724   2
  -7  -3 -13 5.15744 3.69379   1
   7   3  13 11.9663 4.05678   5
  -7   3 -13 8.22481 3.80720   1
   7   3  13 11.1077 2.79051   2
  -7  -3  13 11.4542 3.70376   1
   7  -3 -13 15.8558 3.30893   2
   8   3 -13 31.1709 5.55532   8
  -8   3  13 29.8741 5.86496   1
  -8  -3 -13 28.5415 5.99265   1
  -8   3 -13 30.1732 6.35991   1
  -8  -3  13 30.4224 5.91012   1
  -9   3  13 112.555 14.1498   1
  -9  -3 -13 103.475 14.2231   1
   9   3 -13 121.331 13.2220   8
   9   3  13 119.309 13.9066   8
  -9   3 -13 108.764 14.4442   1
  -9  -3  13 103.372 14.1540   1
   9  -3 -13 102.402 13.0588   8
   0   4  13 1.84538 2.76977   2
   0  -4 -13 -0.6687 2.39832   2
   0  -4  13 1.67653 2.86059   2
   0   4 -13 3.38285 2.33423   2
   0  -4  13 -0.7760 2.44647   5
   1  -4  13 209.261 25.5410   5
  -1   4  13 189.935 24.4815   2
  -1  -4 -13 262.259 25.1291   2
   1  -4  13 222.438 24.9560   2
   1   4 -13 215.204 24.7962   2
   1  -4 -13 194.791 24.6223   2
  -1  -4  13 223.204 25.6661   5
   1   4  13 217.268 24.8192   2
  -1  -4  13 181.972 24.2693   1
  -2  -4 -13 56.3500 8.08727   1
   2  -4  13 52.7246 8.09604   2
   2   4 -13 48.6475 7.71966   2
   2  -4  13 50.3830 8.29020   5
  -2   4  13 51.7029 7.59055   1
  -2   4 -13 56.3862 8.00399   1
   2  -4 -13 36.2660 7.12202   2
  -2  -4  13 44.6104 7.61566   1
  -2  -4  13 41.2152 7.63637   5
   2   4  13 40.5465 7.50558   2
  -3  -4 -13 1.49096 2.67583   1
   3  -4  13 7.48572 3.75957   5
   3  -4  13 1.62297 2.74725   2
  -3   4  13 2.01550 2.60837   1
   3   4 -13 1.27455 2.28589   2
  -3  -4  13 5.31679 3.29594   5
   3   4  13 3.20098 3.76853   5
  -3   4 -13 10.5648 3.67411   1
   3   4  13 0.66740 2.72402   2
   3  -4 -13 1.70845 2.69009   2
  -3  -4  13 4.78912 3.11048   1
  -4  -4 -13 2.90230 2.71008   1
   4  -4  13 -0.3923 2.33127   2
   4   4 -13 -2.0929 2.35708   2
  -4   4  13 1.52737 2.84777   1
   4  -4  13 1.65188 3.00035   5
  -4  -4  13 1.81508 2.74976   1
   4   4  13 -0.6758 3.04020   5
  -4   4 -13 1.98147 3.01280   1
   4   4  13 1.89706 2.76620   2
   4  -4 -13 1.29179 2.43817   2
   5  -4  13 72.0822 10.7642   2
  -5  -4 -13 71.3477 11.1924   1
   5  -4  13 92.6220 13.0797   5
   5   4 -13 91.6416 10.8107   2
  -5   4  13 79.5116 10.9630   1
  -5  -4  13 95.2698 11.5287   1
   5   4  13 56.3821 10.4796   2
   5   4  13 98.1709 13.5542   5
   5  -4 -13 80.3587 10.7445   2
  -5   4 -13 108.917 11.8548   1
  -6  -4 -13 12.6136 4.02868   1
  -6   4  13 9.81864 3.52103   1
   6  -4  13 12.6030 5.26423   5
   6  -4  13 20.1665 4.26192   2
   6   4 -13 12.6599 3.41734   2
  -6   4 -13 16.6417 4.64477   1
   6   4  13 14.7147 3.65720   2
   6  -4 -13 12.0146 3.55694   2
  -6  -4  13 17.7155 4.48278   1
   6   4  13 15.4646 5.25844   5
  -7  -4 -13 1.19658 2.79997   1
  -7   4  13 1.69262 2.44721   1
   7  -4  13 3.21634 2.42089   2
  -7   4 -13 4.57313 3.16380   1
   7   4  13 -1.9814 2.12417   2
  -7  -4  13 2.84895 3.24034   1
   7  -4 -13 2.57714 2.26902   2
  -8  -4 -13 -2.9131 2.79656   1
   8   4 -13 -2.8304 2.40203   8
  -8   4  13 0.83530 2.56848   1
  -8  -4  13 5.51278 3.38351   1
  -8   4 -13 2.83216 3.29689   1
  -9   4  13 229.551 27.3263   1
  -9  -4 -13 219.075 27.3663   1
   9   4 -13 260.071 25.6009   8
  -9  -4  13 202.645 27.2697   1
  -9   4 -13 271.317 27.7027   1
   0   5  13 473.040 53.5274   2
   0  -5  13 453.955 53.5636   2
   0  -5 -13 512.475 53.6139   2
   0  -5  13 454.746 55.0718   5
   0   5 -13 506.363 53.4755   2
   1  -5  13 82.8230 12.8094   5
   1  -5  13 87.1684 12.7803   2
  -1  -5 -13 114.580 13.0618   2
   1   5 -13 76.4869 12.2189   2
  -1   5  13 94.6321 12.7745   2
  -1   5 -13 92.9243 12.6945   2
  -1  -5  13 95.1082 12.8940   5
   1   5  13 81.3778 12.3933   2
  -1  -5  13 112.462 13.1270   2
   1  -5 -13 112.472 12.7176   2
  -1  -5  13 134.157 13.3904   1
  -2  -5 -13 12.3959 4.30385   1
   2   5 -13 13.8073 4.12429   2
   2  -5  13 11.5450 4.07527   2
  -2   5  13 20.9197 4.48937   1
   2  -5  13 18.3489 4.63660   5
  -2  -5  13 19.4216 4.58682   5
  -2   5 -13 11.9721 4.29277   1
   2  -5 -13 14.2722 4.13837   2
   2   5  13 14.6109 4.31599   2
  -2  -5  13 15.6166 4.31783   1
   3   5 -13 113.886 13.3882   2
   3  -5  13 105.390 14.0442   5
  -3  -5 -13 102.972 13.3540   1
   3  -5  13 100.520 13.6637   2
   3   5  13 84.1647 13.7842   5
  -3   5 -13 93.7100 13.2223   1
   3  -5 -13 112.354 13.4344   2
  -3  -5  13 110.234 13.6543   1
   3   5  13 104.982 13.3482   2
  -4   5  13 207.478 28.0411   1
  -4  -5 -13 200.647 28.1595   1
   4   5 -13 215.813 28.0850   2
   4  -5  13 248.426 28.8754   2
   4  -5  13 278.824 30.3927   5
   4   5  13 269.443 28.7195   2
  -4  -5  13 305.259 29.1036   1
  -4   5 -13 269.513 28.6556   1
   4   5  13 253.886 30.1047   5
   4  -5 -13 262.066 28.5468   2
  -5   5  13 133.963 18.1993   1
   5  -5  13 167.011 20.1819   5
   5  -5  13 152.881 18.4525   2
  -5  -5 -13 171.023 18.8431   1
   5   5 -13 153.118 18.1403   2
   5   5  13 136.883 19.7928   5
   5   5  13 160.356 18.2525   2
  -5  -5  13 149.179 18.7610   1
   5  -5 -13 175.845 18.5246   2
  -5   5 -13 129.282 18.2836   1
   6   5 -13 87.0648 10.1186   2
  -6  -5 -13 59.8875 10.5684   1
  -6   5  13 83.5083 10.8532   1
   6  -5  13 89.7736 10.6845   2
   6   5  13 79.1554 12.3816   5
  -6   5 -13 68.2895 10.7942   1
   6  -5 -13 67.9358 9.93371   2
   6   5  13 86.0257 10.1161   2
  -6  -5  13 59.6126 10.7520   1
  -7   5  13 -1.8389 2.63212   1
  -7  -5 -13 1.06960 3.09005   1
   7  -5  13 3.15626 2.45152   2
  -7   5 -13 -4.3143 2.84743   1
   7   5  13 2.79491 1.77171   2
  -7  -5  13 1.99875 3.03324   1
   7  -5 -13 0.12403 2.24574   2
  -8  -5 -13 37.2719 7.57398   1
  -8   5  13 47.2900 7.89493   1
  -8  -5  13 43.5400 8.06290   1
  -8   5 -13 51.2521 8.03316   1
  -9   5  13 -1.6100 2.30443   1
  -9  -5 -13 4.19085 3.34859   1
   9   5 -13 1.90824 3.22978   8
  -9  -5  13 5.88333 3.60399   1
  -9   5 -13 6.28835 3.76429   1
   0   6  13 -2.3743 2.32991   2
   0   6 -13 0.18255 2.83195   2
   0  -6  13 -2.1321 2.48786   2
   0  -6 -13 -2.6376 2.54118   2
   0  -6  13 -1.2419 2.48554   5
   1   6 -13 10.0082 3.69504   2
  -1   6  13 9.70918 3.75282   2
   1  -6  13 10.3710 4.09767   2
   1  -6  13 5.98314 3.32967   5
  -1  -6 -13 12.9664 3.76667   2
  -1   6 -13 8.25610 3.75327   2
   1   6  13 10.6773 4.10156   2
   1  -6 -13 6.31554 3.53423   2
  -1  -6  13 13.2861 4.04388   5
  -2  -6 -13 3.19230 3.17539   1
  -2   6  13 4.68573 3.27477   1
   2  -6  13 3.90439 3.02235   5
   2   6 -13 0.53776 2.69225   2
   2  -6  13 -3.6931 2.08302   2
   2   6  13 -0.1808 2.43852   2
  -2  -6  13 -0.2632 2.94919   1
  -2  -6  13 2.08871 2.86592   5
   2  -6 -13 1.36811 2.75437   2
  -3  -6 -13 27.5765 5.54655   1
  -3   6  13 20.5054 5.12627   1
   3   6 -13 27.6390 5.35507   2
   3  -6  13 27.7429 6.20260   5
   3  -6  13 13.0866 4.58012   2
   3  -6 -13 26.6926 5.37580   2
   3   6  13 15.6885 4.76531   2
  -3   6 -13 22.1781 5.65867   1
  -3  -6  13 16.2864 4.64148   1
   4  -6  13 5.44042 3.26300   2
   4   6 -13 0.83515 2.41432   2
  -4  -6 -13 0.14548 2.71064   1
   4  -6  13 3.74032 4.01480   5
  -4   6  13 3.35914 2.99627   1
  -4  -6  13 3.39783 3.34468   1
   4   6  13 1.79406 2.67401   2
  -4   6 -13 -2.9150 3.26893   1
   4   6  13 4.64704 3.93625   5
   4  -6 -13 5.31475 3.06893   2
  -5   6  13 268.838 27.4420   1
  -5  -6 -13 213.133 27.1977   1
   5  -6  13 223.509 27.4417   2
   5   6 -13 260.608 27.0991   2
  -5   6 -13 260.388 27.7685   1
   5   6  13 217.691 26.8849   2
  -5  -6  13 227.698 27.4024   1
   5   6  13 214.600 28.8144   5
   5  -6 -13 236.839 27.1809   2
  -6   6  13 10.5793 3.87395   1
   6  -6  13 9.15296 3.68396   2
   6   6 -13 8.52505 2.99698   2
  -6  -6 -13 2.72456 3.32889   1
  -6   6 -13 9.50059 4.31719   1
   6   6  13 8.51999 3.14718   2
   6  -6 -13 8.32325 3.29177   2
  -6  -6  13 4.58087 3.33686   1
   7  -6  13 24.4143 4.71671   2
  -7   6  13 24.8264 5.32242   1
  -7  -6 -13 20.8408 5.38197   1
  -7  -6  13 20.1572 5.45007   1
   7  -6 -13 19.0308 4.18331   2
  -7   6 -13 21.4183 5.61874   1
   7   6  13 16.7055 3.86137   2
  -8  -6 -13 5.53876 3.99478   1
  -8   6  13 -0.1972 3.08703   1
  -8   6 -13 4.21570 3.62518   1
  -8  -6  13 5.38003 3.74652   1
   0  -7  13 497.733 49.5763   2
   0  -7 -13 374.440 48.9688   2
   0  -7  13 454.885 50.6502   5
   0   7 -13 383.499 49.1041   2
   0   7  13 502.185 49.5808   2
   1  -7  13 34.0055 6.82743   2
   1  -7  13 41.2027 7.34151   5
  -1  -7 -13 39.1534 7.10574   2
   1   7 -13 48.2989 7.43839   2
  -1   7  13 50.3876 7.66461   2
   1  -7 -13 37.6778 7.07753   2
  -1   7 -13 50.2660 7.70648   2
   1   7  13 29.5703 6.57618   2
  -1  -7  13 30.9251 6.48158   5
   2   7 -13 8.73877 3.74662   2
   2  -7  13 12.7929 4.34931   2
   2  -7  13 11.0531 4.04962   5
  -2  -7 -13 12.5269 4.15264   1
   2  -7 -13 13.7524 4.29244   2
  -2  -7  13 9.66594 3.67702   1
   2   7  13 11.4986 4.05465   2
  -3   7  13 170.408 19.0132   1
   3  -7  13 164.646 20.1698   5
   3  -7  13 153.693 19.3322   2
   3   7 -13 146.625 18.9622   2
  -3  -7 -13 151.446 18.9763   1
   3  -7 -13 173.485 19.2268   2
  -3   7 -13 128.736 19.0606   1
  -3  -7  13 172.953 19.2446   1
   3   7  13 147.244 18.9012   2
  -4  -7 -13 270.988 28.3416   1
   4   7 -13 258.470 28.1100   2
   4  -7  13 214.440 28.2681   2
  -4   7  13 235.420 27.8305   1
   4   7  13 247.698 29.6357   5
  -4  -7  13 230.783 27.9593   1
  -4   7 -13 210.178 28.1889   1
   4   7  13 288.057 28.2438   2
   4  -7 -13 226.475 27.9899   2
  -5  -7 -13 21.9033 5.55589   1
   5  -7  13 27.4194 5.85889   2
  -5   7  13 25.7033 5.68339   1
   5   7 -13 29.6202 5.24174   2
   5   7  13 28.1479 5.36904   2
  -5   7 -13 20.0616 5.87462   1
  -5  -7  13 24.2325 5.75832   1
   5  -7 -13 26.4246 5.20370   2
   6   7 -13 45.6157 6.86259   2
  -6   7  13 41.6291 7.40868   1
  -6  -7 -13 52.9316 8.24162   1
   6  -7  13 40.4064 7.25541   2
   6  -7 -13 51.1128 7.54929   2
   6   7  13 40.1498 6.81633   2
  -6   7 -13 50.1420 8.83415   1
  -6  -7  13 42.5536 8.01050   1
   7  -7  13 3.40870 3.04811   2
  -7   7  13 -3.4370 2.57485   1
  -7  -7 -13 1.59434 3.22480   1
   7  -7 -13 -0.6983 2.40575   2
   7   7  13 7.00100 2.44614   2
  -7   7 -13 2.01374 3.37181   1
  -7  -7  13 -2.7844 3.13737   1
  -8  -7 -13 195.500 21.9091   1
  -8   7  13 220.351 21.9648   1
  -8   7 -13 144.312 21.7173   1
  -8  -7  13 163.347 21.6521   1
   0   8  13 0.20097 3.19950   2
   0   8 -13 3.51171 2.87372   2
   0  -8 -13 -2.2091 3.11436   2
   0  -8  13 6.03836 2.85988   2
   0  -8  13 3.17683 3.53636   5
   1  -8  13 192.986 21.7422   2
   1  -8  13 167.752 21.9639   5
   1   8 -13 203.558 21.9035   2
   1   8  13 148.969 21.3089   2
  -1   8 -13 173.634 21.8809   2
   1  -8 -13 196.023 21.8355   2
   2  -8  13 85.4131 12.2281   2
   2  -8  13 75.8876 12.1809   5
   2   8 -13 93.9118 12.1764   2
   2  -8 -13 89.3139 12.2104   2
  -2  -8  13 100.895 12.3910   1
   2   8  13 85.7999 12.1093   2
  -2  -8  13 108.077 13.1251   1
  -3   8  13 19.3973 5.20489   1
   3  -8  13 19.0430 5.42929   2
   3   8 -13 27.6802 5.64514   2
  -3  -8 -13 30.5501 6.15732   1
   3  -8 -13 29.2916 5.87321   2
  -3  -8  13 32.2174 6.22909   1
   3   8  13 23.8733 5.47523   2
  -3  -8  13 33.2763 6.42088   1
   4  -8  13 2.01650 3.25339   2
   4   8 -13 7.95383 3.62986   2
  -4  -8 -13 10.0398 4.00209   1
  -4   8  13 7.42755 3.54954   1
   4   8  13 7.94627 3.40850   2
  -4  -8  13 3.53791 3.59298   1
   4  -8 -13 7.27743 3.48062   2
  -4   8 -13 7.13791 3.91986   1
  -4  -8  13 2.28072 3.42509   1
   5  -8  13 39.0341 7.11627   2
   5   8 -13 31.1550 5.85102   2
  -5  -8 -13 21.2511 5.94643   1
  -5   8  13 50.4462 7.29771   1
   5   8  13 31.9200 5.99587   2
  -5   8 -13 44.1678 7.61123   1
  -5  -8  13 31.2470 6.65427   1
   5  -8 -13 36.6352 6.43701   2
   6   8 -13 9.06661 3.50836   2
   6  -8  13 11.0997 4.23115   2
  -6  -8 -13 14.0649 4.63862   1
  -6   8  13 14.5309 4.55260   1
  -6  -8  13 14.6875 4.86953   1
  -6   8 -13 8.91400 4.64389   1
   6  -8 -13 13.9864 4.17043   2
   6   8  13 20.9502 4.25853   2
   7  -8  13 19.8047 4.62291   2
  -7  -8 -13 14.8197 4.90616   1
  -7   8  13 15.4054 4.65722   1
  -7   8 -13 7.85540 4.49606   1
   7   8  13 12.9763 4.09149   2
  -7  -8  13 15.9639 4.87357   1
   7  -8 -13 18.4958 4.15808   2
   0  -9  13 46.8531 8.63183   2
   0   9 -13 51.6679 8.97482   2
   0  -9 -13 61.2596 9.32522   2
   0   9  13 53.7264 8.84241   2
   1  -9  13 67.7855 12.2797   2
   1   9 -13 79.9649 12.7300   2
  -1   9  13 92.9316 12.6922   2
  -1   9 -13 97.0142 12.9027   2
   1   9  13 100.414 12.4854   2
   1  -9 -13 119.561 13.1955   2
   2  -9  13 186.566 21.2477   2
   2   9 -13 148.246 20.6520   2
   2  -9 -13 199.893 21.3468   2
   2   9  13 163.960 20.7965   2
   3   9 -13 30.7704 6.69562   2
   3  -9  13 52.6738 8.22242   2
  -3  -9 -13 45.3112 7.88749   1
  -3  -9  13 39.9403 7.42508   1
   3   9  13 39.8923 7.13725   2
   3  -9 -13 37.0301 7.19778   2
  -3  -9  13 46.2960 8.04715   1
   4  -9  13 30.6678 7.10322   2
  -4  -9 -13 50.8620 8.31668   1
  -4   9  13 38.6317 7.35842   1
   4   9 -13 33.6756 6.94193   2
   4  -9 -13 37.7950 7.06152   2
  -4  -9  13 54.7268 8.30134   1
   4   9  13 40.2566 7.13580   2
  -4   9 -13 53.1645 8.52372   1
  -4  -9  13 48.1480 8.33903   1
   5   9 -13 23.2878 5.34159   2
   5  -9  13 23.7350 5.87208   2
  -5   9  13 26.1555 6.12665   1
  -5  -9 -13 33.1829 6.69848   1
  -5  -9  13 25.7953 6.29668   1
   5  -9 -13 33.3047 6.20650   2
  -5  -9  13 35.6284 6.99037   1
  -5   9 -13 36.4651 7.16991   1
   5   9  13 27.4565 5.75948   2
  -6  -9 -13 295.142 29.8631   1
  -6   9  13 215.566 28.9843   1
   6  -9  13 245.738 29.5140   2
   6   9 -13 268.165 28.7874   2
   6  -9 -13 292.213 29.5082   2
  -6   9 -13 246.686 29.7308   1
  -6  -9  13 244.290 29.5702   1
  -6  -9  13 214.135 29.3835   1
   6   9  13 250.799 28.8916   2
  -7   9  13 5.72187 3.72010   1
  -7  -9 -13 6.27460 4.33069   1
   7  -9  13 10.8414 3.79305   2
  -7   9 -13 2.58796 4.03422   1
   7  -9 -13 3.24350 3.02532   2
  -7  -9  13 5.17266 3.99109   1
  -7  -9  13 0.63460 3.31170   1
   0  10  13 -1.1845 3.11080   2
   0 -10 -13 2.63363 3.41337   2
   0 -10  13 3.19721 3.71926   2
   0  10 -13 -1.7064 3.59481   2
   1  10 -13 285.848 30.9549   2
   1 -10  13 253.062 30.6462   2
  -1  10  13 224.866 30.2802   2
   1  10  13 271.864 30.5035   2
   1 -10 -13 293.614 30.9237   2
  -1  10 -13 251.045 31.0266   2
   2  10 -13 16.1265 4.88522   2
   2 -10  13 14.8892 4.85838   2
   2 -10 -13 5.77101 4.10099   2
   2  10  13 14.4444 4.44238   2
   3 -10  13 109.394 14.3088   2
  -3 -10 -13 89.8574 15.0848   1
   3  10 -13 115.329 14.0767   2
  -3 -10  13 98.1821 14.0468   1
   3  10  13 122.954 14.3278   2
   3 -10 -13 99.7723 14.1166   2
   4  10 -13 61.5984 9.81323   2
  -4  10  13 57.0045 9.99190   1
   4 -10  13 67.4859 10.8197   2
  -4 -10 -13 61.5356 10.3611   1
  -4 -10  13 84.5166 11.7588   1
   4  10  13 70.5604 10.2763   2
   4 -10 -13 82.3742 10.8467   2
   5 -10  13 1.32981 3.30965   2
  -5  10  13 6.83680 3.90131   1
  -5 -10 -13 -3.4527 2.98947   1
   5  10 -13 1.13332 2.77687   2
  -5 -10  13 1.56527 4.02557   1
   5 -10 -13 4.54363 3.19263   2
   5  10  13 6.06472 3.41343   2
  -5  10 -13 -1.5035 3.58279   1
   6  10 -13 82.1602 11.8451   2
  -6 -10 -13 73.8257 13.0310   1
   6 -10  13 80.0702 13.1292   2
  -6  10  13 102.294 13.2216   1
  -6 -10  13 115.516 14.0532   1
   6  10  13 104.177 12.3885   2
   6 -10 -13 101.700 12.8791   2
  -6  10 -13 117.003 13.9072   1
   0  11 -13 2.50310 3.68109   2
   0 -11 -13 5.44534 3.67167   2
   0 -11  13 0.07913 3.79296   2
   0  11  13 -0.3267 3.35386   2
  -1  11  13 -1.3573 3.13905   2
   1 -11  13 -0.5099 3.07848   2
   1  11 -13 4.99796 3.70587   2
   1 -11 -13 1.69190 3.58819   2
   1  11  13 6.90270 3.84245   2
  -1  11 -13 -1.1011 4.27297   2
   2  11 -13 110.812 15.8996   2
   2 -11  13 126.458 16.1634   2
   2 -11 -13 127.866 16.2183   2
   2  11  13 133.933 16.2151   2
   3 -11  13 120.728 15.1772   2
   3  11 -13 105.465 14.4515   2
   3  11  13 128.294 15.1027   2
   3 -11 -13 100.836 14.6956   2
  -4 -11 -13 -2.6529 3.22778   1
   4 -11  13 0.44133 3.78882   2
   4  11 -13 2.09671 2.81918   2
  -4 -11  13 1.12057 4.25186   1
   4  11  13 4.03498 2.60644   2
   4 -11 -13 9.18358 4.22866   2
   5  11 -13 40.5390 7.45980   2
   5 -11  13 43.9092 8.46433   2
  -5 -11 -13 43.8163 8.55890   1
  -5  11  13 50.4182 8.65391   1
   5 -11 -13 61.2046 8.96107   2
   5  11  13 46.4119 8.18328   2
  -5 -11  13 65.5619 9.98608   1
   0 -12 -13 -2.2661 3.73069   2
   0  12 -13 5.08338 4.47559   2
   0  12  13 4.46411 3.47260   2
   1  12 -13 3.15299 4.00230   2
   1 -12  13 1.30327 3.69633   2
  -1  12  13 -3.1760 3.31639   2
   1 -12 -13 5.38156 4.02765   2
  -1  12 -13 1.22917 3.71803   2
   1  12  13 2.02152 3.77892   2
   2  12 -13 37.5979 7.79753   2
   2 -12  13 36.9750 7.89198   2
   2  12  13 45.0844 7.95277   2
   2 -12 -13 46.3731 8.11749   2
   3 -12  13 258.019 30.3856   2
   3  12 -13 245.080 30.0357   2
   3 -12 -13 272.240 30.5722   2
   0   0  14 327.438 37.5789   5
   0   0  14 327.138 36.2454   2
   0   0 -14 302.425 35.9211   2
   1   0 -14 1.54086 2.50210   2
   1   0  14 3.80641 3.07525   5
   1   0  14 3.85394 2.97535   2
  -1   0  14 8.18092 3.47118   1
  -1   0 -14 1.36638 2.42394   2
  -1   0  14 3.32872 3.03462   2
   2   0 -14 365.080 34.8204   2
   2   0  14 271.449 35.9437   5
  -2   0  14 239.632 33.7869   1
  -2   0 -14 324.283 34.5872   1
   2   0  14 333.246 34.7502   2
  -3   0  14 1.10427 2.66180   1
  -3   0 -14 -1.0112 2.83229   1
   3   0  14 0.77801 3.02519   5
   3   0  14 2.12378 2.69953   2
   3   0 -14 1.72719 2.93944   2
  -4   0  14 141.564 16.4682   1
   4   0  14 130.529 16.4386   2
   4   0  14 136.714 17.7698   5
  -4   0 -14 151.850 17.1449   1
   4   0 -14 117.821 16.2769   2
  -5   0  14 1.73863 2.60045   1
   5   0  14 2.62425 3.65690   5
   5   0 -14 3.90060 2.82400   2
   5   0  14 1.27741 2.49809   2
  -5   0 -14 0.88335 3.48030   1
  -6   0  14 15.7794 4.34633   1
   6   0  14 6.48159 4.66542   5
   6   0  14 10.4430 3.92715   2
  -6   0 -14 16.4009 5.11927   1
   6   0 -14 14.2390 3.63851   2
   7   0 -14 1.31861 2.12251   2
  -7   0  14 3.66061 3.35916   1
   7   0  14 7.12520 4.29148   5
  -7   0 -14 -1.0678 2.95772   1
   7   0  14 1.63126 2.72646   2
  -8   0 -14 219.257 22.5012   1
  -8   0  14 157.620 21.4268   1
  -9   0 -14 2.25943 3.18625   1
  -9   0  14 0.43794 3.00772   1
   0   1  14 0.36779 2.46070   2
   0   1 -14 1.36883 2.89174   2
   0  -1 -14 -0.1483 2.34984   2
   0  -1  14 0.49693 1.95824   2
   0  -1  14 -1.7803 2.92958   5
  -1   1  14 167.710 19.9089   2
   1  -1  14 168.469 19.8936   2
   1  -1  14 154.960 20.6990   5
  -1  -1 -14 189.520 19.8813   2
   1   1 -14 131.979 19.3152   2
  -1  -1  14 148.003 19.8200   2
  -1  -1  14 177.201 20.6675   5
   1   1  14 166.579 19.8013   2
  -1   1 -14 169.233 19.7682   2
   1  -1 -14 180.749 19.8141   2
   1   1  14 178.236 20.8449   5
  -1  -1  14 154.654 19.4096   1
   2  -1  14 0.66166 2.80374   2
  -2  -1 -14 -3.1017 3.10073   1
   2  -1  14 -0.1158 3.39403   5
   2   1 -14 14.8126 3.73343   2
  -2   1  14 3.37625 2.35830   1
  -2   1 -14 3.95811 3.60866   1
  -2  -1  14 1.28227 2.93036   1
   2  -1 -14 1.61584 2.61445   2
   2   1  14 -1.2456 3.34286   5
   2   1  14 2.01907 2.90510   2
   3   1 -14 492.929 57.6585   2
   3  -1  14 428.092 57.5538   2
  -3  -1 -14 525.062 57.5979   1
  -3   1  14 531.312 57.2529   1
   3  -1  14 552.067 60.2978   5
  -3   1 -14 587.323 57.7990   1
   3   1  14 501.066 57.7000   2
  -3  -1  14 572.429 57.4023   1
   3  -1 -14 521.703 57.8914   2
   4  -1  14 -0.2982 3.41763   5
  -4   1  14 3.94927 2.90936   1
  -4  -1 -14 3.00988 2.70397   1
   4  -1  14 1.19796 2.45895   2
   4   1 -14 5.13765 3.11023   2
   4   1  14 -1.4875 2.79775   5
   4  -1 -14 4.71177 2.71796   2
  -4   1 -14 -0.2933 3.28801   1
  -4  -1  14 1.08662 2.68594   1
   4   1  14 3.91106 2.82095   2
  -5  -1 -14 4.59963 3.00158   1
  -5   1  14 0.57318 2.48339   1
   5  -1  14 3.93759 2.82011   2
   5  -1  14 0.76697 4.00558   5
   5   1 -14 4.69006 2.82076   2
  -5   1 -14 2.67043 3.39543   1
   5   1  14 0.09117 2.22768   2
   5   1  14 3.10703 3.81846   5
  -5  -1  14 -1.7048 2.38579   1
   5  -1 -14 2.31429 2.62464   2
  -6  -1 -14 239.162 32.3003   1
  -6   1  14 290.531 32.3902   1
   6  -1  14 308.357 32.4449   2
   6  -1  14 294.444 34.6113   5
   6   1 -14 234.189 31.7953   2
   6   1  14 293.412 34.5049   5
  -6   1 -14 298.301 32.8237   1
   6  -1 -14 289.221 32.0768   2
  -6  -1  14 332.700 32.7013   1
   6   1  14 292.052 32.2452   2
  -7   1  14 82.1348 11.1243   1
   7  -1  14 84.7396 10.4558   2
  -7  -1 -14 83.1044 11.8926   1
   7  -1  14 66.0340 12.5034   5
  -7   1 -14 80.0686 11.6976   1
   7   1  14 62.1650 12.2392   5
  -7  -1  14 92.3186 11.3882   1
   7   1  14 74.7631 10.2010   2
   7  -1 -14 84.4903 10.0023   2
  -8  -1 -14 -3.7108 3.39005   1
  -8   1  14 -0.2751 2.56914   1
   8   1  14 7.72263 3.43934   5
  -8   1 -14 -0.2310 3.19727   1
  -8  -1  14 -1.2117 2.70122   1
  -9   1  14 85.2439 10.7864   1
  -9  -1 -14 78.6363 11.3757   1
  -9   1 -14 58.1323 10.5088   1
  -9  -1  14 70.7877 10.6409   1
   0   2  14 8.39756 3.42718   2
   0   2 -14 10.0955 3.72524   2
   0  -2 -14 5.20551 3.01364   2
   0  -2  14 2.87837 3.49268   5
   0  -2  14 9.34514 4.04042   2
  -1   2  14 241.257 28.4000   2
   1  -2  14 270.787 28.7627   2
  -1  -2 -14 209.968 28.0578   2
   1   2 -14 292.881 28.5428   2
   1  -2  14 254.183 29.7825   5
   1   2  14 245.154 29.5548   5
  -1  -2  14 244.627 28.1395   1
   1   2  14 202.217 27.9781   2
  -1  -2  14 262.276 28.8337   2
  -1  -2  14 257.087 29.5471   5
   1  -2 -14 239.671 28.2577   2
  -2  -2 -14 3.26894 3.47692   1
   2  -2  14 7.74302 3.31578   5
   2  -2  14 -0.5569 2.71992   2
  -2   2  14 0.69396 2.44041   1
   2   2 -14 2.74440 2.56341   2
  -2  -2  14 4.19606 3.64480   5
   2   2  14 3.33371 3.25814   5
  -2  -2  14 5.14155 3.16114   1
  -2   2 -14 1.57988 3.22619   1
   2   2  14 4.52959 3.15134   2
   2  -2 -14 0.48753 2.62010   2
  -3   2  14 81.4536 11.4722   1
   3  -2  14 84.5500 13.2201   5
   3   2 -14 93.7642 11.6994   2
   3  -2  14 81.4998 11.6579   2
  -3  -2 -14 87.5776 11.9639   1
   3   2  14 93.9135 13.7060   5
   3   2  14 84.7032 11.5932   2
   3  -2 -14 101.536 11.9435   2
  -3   2 -14 76.7795 12.0922   1
  -3  -2  14 91.9755 11.8003   1
   4  -2  14 465.791 48.7190   5
  -4  -2 -14 414.034 46.2524   1
   4  -2  14 403.894 46.3314   2
   4   2 -14 388.133 46.1185   2
  -4   2  14 353.890 45.6579   1
   4   2  14 409.076 48.5761   5
   4   2  14 422.064 46.4148   2
   4  -2 -14 468.937 46.3881   2
  -5  -2 -14 -0.6482 3.04911   1
  -5   2  14 0.72217 2.78916   1
   5  -2  14 3.95016 4.02695   5
   5  -2  14 -0.1374 2.60029   2
   5   2 -14 0.43546 2.67514   2
   5   2  14 1.73086 3.74786   5
   5  -2 -14 1.10827 2.56066   2
   5   2  14 2.60881 2.81324   2
  -5   2 -14 5.86593 3.69654   1
  -5  -2  14 -0.3849 2.86570   1
   6  -2  14 90.2659 17.7752   5
   6  -2  14 136.921 16.4998   2
  -6   2  14 139.482 16.7797   1
  -6  -2 -14 125.355 16.9048   1
   6   2 -14 151.843 16.2894   2
   6  -2 -14 136.724 16.2230   2
  -6  -2  14 146.925 16.9237   1
   6   2  14 136.703 16.5269   2
   6   2  14 130.537 18.1421   5
  -6   2 -14 154.874 17.5081   1
   7  -2  14 180.837 24.7239   5
  -7   2  14 225.049 23.2316   1
  -7  -2 -14 178.055 23.1000   1
   7  -2  14 214.278 22.5876   2
   7   2  14 177.816 22.1286   2
   7  -2 -14 191.326 22.1016   2
  -7  -2  14 207.217 23.1575   1
  -7   2 -14 181.582 23.2242   1
   7   2  14 207.052 25.0067   5
  -8  -2 -14 170.655 20.2257   1
  -8   2  14 150.314 19.6503   1
  -8  -2  14 162.918 19.8322   1
   8   2  14 164.635 21.9085   5
  -8   2 -14 172.388 20.3361   1
  -9   2  14 75.6446 10.7426   1
  -9  -2 -14 49.9600 10.0294   1
  -9   2 -14 93.1881 11.9581   1
  -9  -2  14 80.3579 10.9736   1
   0  -3  14 5.24641 3.31033   2
   0   3  14 2.25494 2.87701   2
   0  -3  14 8.29637 3.91759   5
   0  -3 -14 0.85063 2.37148   2
   0   3 -14 -2.1365 2.67309   2
   1  -3  14 129.046 17.7276   5
   1  -3  14 114.109 17.0435   2
  -1  -3 -14 154.055 17.2419   2
  -1   3  14 131.870 16.9398   2
   1   3 -14 176.328 17.6198   2
  -1  -3  14 129.819 17.3595   2
   1   3  14 107.790 16.6986   2
  -1  -3  14 150.552 18.0579   5
  -1   3 -14 145.090 17.3279   2
   1  -3 -14 174.625 17.6792   2
   2  -3  14 155.216 20.5482   2
   2  -3  14 210.656 21.8835   5
  -2  -3 -14 178.198 20.6406   1
  -2   3  14 144.390 19.9688   1
   2   3 -14 203.239 20.6610   2
   2  -3 -14 162.826 20.4545   2
  -2   3 -14 194.810 20.8517   1
  -2  -3  14 177.530 20.5024   1
   2   3  14 181.950 20.6887   2
  -2  -3  14 125.439 20.5938   5
   2   3  14 181.122 21.7653   5
   3   3 -14 8.01040 3.48884   2
  -3  -3 -14 6.23248 3.62107   1
   3  -3  14 1.50724 2.64706   2
  -3   3  14 9.42088 3.54925   1
   3  -3  14 5.56108 3.88179   5
   3   3  14 5.36241 3.95703   5
  -3  -3  14 16.1816 4.21150   1
   3  -3 -14 8.29409 3.48732   2
  -3  -3  14 1.98656 3.53752   5
   3   3  14 4.21425 2.96248   2
  -3   3 -14 9.17029 3.96294   1
   4   3 -14 1.21195 2.37537   2
   4  -3  14 2.80713 3.01772   2
   4  -3  14 1.83857 3.07330   5
  -4  -3 -14 1.86924 3.10624   1
  -4   3  14 4.43722 3.05349   1
   4   3  14 5.50214 3.65760   5
   4  -3 -14 0.63581 2.27764   2
  -4  -3  14 2.79799 2.61670   5
  -4   3 -14 4.69535 3.39617   1
   4   3  14 9.51591 3.47768   2
  -4  -3  14 10.2426 3.90783   1
  -5  -3 -14 8.80436 3.87814   1
  -5   3  14 4.31647 3.02152   1
   5   3 -14 9.31125 3.15918   2
   5  -3  14 3.90917 3.20675   2
   5  -3  14 11.6244 4.44479   5
   5   3  14 2.98282 4.43657   5
   5  -3 -14 4.60511 3.11126   2
   5   3  14 5.41197 3.04995   2
  -5  -3  14 5.86803 3.40045   1
  -5   3 -14 10.0601 3.72603   1
  -6  -3 -14 241.796 34.2112   1
  -6   3  14 302.334 34.2770   1
   6  -3  14 320.922 34.3167   2
   6   3 -14 291.425 33.9539   2
   6  -3  14 291.046 36.4553   5
   6   3  14 294.492 36.4622   5
   6   3  14 333.437 34.2619   2
  -6  -3  14 305.215 34.4368   1
   6  -3 -14 333.473 34.2038   2
  -7  -3 -14 242.513 32.7880   1
  -7   3  14 278.927 32.7469   1
   7  -3  14 315.670 32.6152   2
   7  -3 -14 315.017 32.2343   2
  -7  -3  14 250.602 32.6967   1
  -7   3 -14 300.732 33.3456   1
   7   3  14 296.735 32.1638   2
  -8   3  14 137.951 17.7154   1
  -8  -3 -14 139.475 18.1637   1
  -8  -3  14 186.017 18.5090   1
  -8   3 -14 125.711 17.9924   1
   0  -4 -14 -2.5881 2.11842   2
   0  -4  14 2.17985 3.04612   5
   0   4  14 8.88557 3.56308   2
   0  -4  14 2.99852 2.72732   2
   0   4 -14 2.22143 2.94576   2
   1  -4  14 312.412 37.9914   2
  -1   4  14 294.035 37.5696   2
   1  -4  14 388.667 39.4831   5
  -1  -4 -14 350.494 37.9450   2
  -1   4 -14 281.250 37.4917   2
  -1  -4  14 376.899 39.3677   5
   1  -4 -14 344.704 37.9213   2
   1   4  14 332.070 37.8881   2
  -2   4  14 7.10325 3.62885   1
   2   4 -14 7.53131 3.62012   2
  -2  -4 -14 14.5134 4.64020   1
   2  -4  14 14.4245 4.36785   2
   2  -4  14 14.6599 4.65896   5
  -2  -4  14 7.57607 3.67893   5
   2   4  14 4.64966 3.20043   2
   2   4  14 7.56076 4.16073   5
   2  -4 -14 13.3731 3.85080   2
  -2  -4  14 14.0260 4.20608   1
   3   4 -14 174.491 21.0734   2
  -3  -4 -14 201.834 21.6363   1
   3  -4  14 188.896 22.5272   5
  -3   4  14 216.579 21.3447   1
   3  -4  14 174.402 21.4862   2
   3   4  14 155.087 22.1687   5
   3   4  14 167.912 21.1629   2
  -3   4 -14 198.689 21.5510   1
   3  -4 -14 196.187 21.4438   2
  -3  -4  14 145.750 21.1760   1
  -3  -4  14 154.610 21.7678   5
   4   4 -14 445.409 51.8638   2
   4  -4  14 438.788 52.1561   2
  -4  -4 -14 507.108 52.1251   1
  -4   4  14 523.320 51.8558   1
   4  -4  14 493.721 54.5102   5
  -4  -4  14 369.493 51.5603   1
   4  -4 -14 483.846 52.1685   2
  -4   4 -14 481.616 51.9415   1
   4   4  14 535.524 52.3777   2
   4   4  14 408.708 54.2216   5
  -5   4  14 197.300 21.3310   1
   5  -4  14 168.313 21.1176   2
   5   4 -14 173.694 20.8934   2
  -5  -4 -14 210.846 21.8060   1
   5  -4  14 199.283 23.0958   5
  -5  -4  14 159.187 21.2380   1
   5   4  14 180.061 22.7376   5
   5  -4 -14 151.543 20.7847   2
  -5   4 -14 180.557 21.4341   1
   5   4  14 179.025 21.1700   2
   6   4 -14 276.916 33.9600   2
   6  -4  14 340.551 37.0976   5
   6  -4  14 324.311 34.4685   2
  -6   4  14 301.226 34.3952   1
  -6  -4 -14 356.446 34.9728   1
  -6  -4  14 292.587 34.6438   1
   6   4  14 283.831 36.2648   5
   6  -4 -14 306.855 34.1348   2
   6   4  14 286.771 33.9902   2
  -6   4 -14 283.496 34.4556   1
   7  -4  14 432.214 44.8531   2
  -7   4  14 389.700 44.9714   1
  -7  -4 -14 403.548 45.2625   1
   7   4  14 394.214 44.4089   2
  -7  -4  14 365.301 45.1044   1
   7  -4 -14 439.457 44.6012   2
  -7   4 -14 379.409 45.0281   1
  -8  -4 -14 26.3922 6.13232   1
  -8   4  14 26.1203 5.79858   1
  -8   4 -14 22.2889 5.66290   1
  -8  -4  14 20.3408 5.64035   1
   0   5  14 1.60527 2.71543   2
   0   5 -14 0.13012 2.42717   2
   0  -5 -14 0.03013 2.20403   2
   0  -5  14 -2.3453 2.93795   2
   0  -5  14 -0.5912 2.88080   5
   1  -5  14 4.28882 3.45139   2
  -1   5  14 5.29023 3.43302   2
   1  -5  14 8.57186 3.78890   5
  -1  -5 -14 3.82848 3.59412   2
   1   5 -14 -0.8943 2.89566   2
  -1   5 -14 2.77373 3.33248   2
  -1  -5  14 6.78931 3.73530   5
   1  -5 -14 3.69554 3.26246   2
   1   5  14 7.39699 3.30299   2
   2  -5  14 159.073 19.1437   5
  -2  -5 -14 176.933 18.7331   1
  -2   5  14 166.409 18.4090   1
   2   5 -14 121.571 18.0140   2
   2  -5  14 129.165 18.3998   2
   2   5  14 182.966 18.7878   2
   2  -5 -14 122.100 17.9877   2
  -2  -5  14 158.033 18.8816   5
  -3  -5 -14 2.79612 3.03813   1
   3  -5  14 4.28662 3.44618   2
   3   5 -14 3.14590 2.91711   2
  -3   5  14 7.30926 3.41130   1
   3  -5  14 2.95923 3.99783   5
   3  -5 -14 7.44758 3.56917   2
  -3   5 -14 4.21670 3.46508   1
   3   5  14 0.57921 3.93115   5
  -3  -5  14 5.98075 3.78392   1
   3   5  14 0.36256 3.22770   2
  -4  -5 -14 20.1013 5.45002   1
  -4   5  14 32.9167 6.06942   1
   4  -5  14 26.0972 5.85242   2
   4   5 -14 23.6870 5.17376   2
   4  -5  14 36.9970 7.44689   5
  -4   5 -14 31.2748 6.25936   1
   4   5  14 30.7408 6.71980   5
   4  -5 -14 32.1412 5.82046   2
  -4  -5  14 20.6025 5.61286   1
   4   5  14 24.7920 5.73133   2
   5  -5  14 644.100 67.5633   2
   5   5 -14 531.921 66.9135   2
  -5  -5 -14 522.371 66.7737   1
  -5   5  14 602.153 66.9071   1
   5  -5  14 560.336 70.1969   5
   5  -5 -14 604.952 67.2121   2
  -5   5 -14 739.188 67.4583   1
   5   5  14 663.665 70.6646   5
   5   5  14 648.155 67.3169   2
  -6   5  14 11.2173 4.04919   1
   6   5 -14 12.5157 3.47237   2
  -6  -5 -14 8.97227 3.73571   1
   6  -5  14 12.3394 3.68989   2
  -6  -5  14 6.59080 4.14904   1
   6   5  14 7.18420 3.25652   2
   6   5  14 10.5552 5.12484   5
   6  -5 -14 5.91912 3.27038   2
  -6   5 -14 7.23934 4.19430   1
  -7  -5 -14 12.7393 4.27100   1
   7  -5  14 8.98147 3.49206   2
  -7   5  14 6.32568 3.52999   1
   7  -5 -14 8.79570 3.10136   2
  -7   5 -14 6.09222 3.96644   1
   7   5  14 2.49114 2.53265   2
  -7  -5  14 12.9118 4.91768   1
  -8   5  14 158.357 19.0237   1
  -8  -5 -14 170.727 19.3889   1
  -8   5 -14 134.813 18.8548   1
   0  -6  14 836.698 90.1597   5
   0  -6 -14 851.092 87.3905   2
   0   6 -14 859.563 87.4266   2
   0   6  14 669.802 87.0718   2
   0  -6  14 758.591 87.5149   2
   1  -6  14 21.1904 5.05614   5
   1  -6  14 31.6583 6.28742   2
  -1  -6 -14 23.9950 5.43030   2
  -1   6  14 18.6663 5.11001   2
   1   6 -14 24.1981 5.28370   2
  -1  -6  14 37.4989 6.21239   5
  -1   6 -14 27.1962 5.80641   2
   1  -6 -14 22.8899 5.48080   2
   1   6  14 22.4688 5.44667   2
   2  -6  14 849.068 92.8017   5
   2   6 -14 738.377 89.5801   2
   2  -6  14 981.933 90.4654   2
  -2  -6  14 800.675 88.8438   1
   2  -6 -14 780.616 89.6449   2
  -2  -6  14 920.317 93.0131   5
   2   6  14 677.795 89.4190   2
  -3   6  14 47.5299 8.41443   1
  -3  -6 -14 71.0376 9.40652   1
   3  -6  14 64.0862 9.78962   5
   3   6 -14 55.8008 8.59766   2
   3  -6  14 42.8458 8.32738   2
   3   6  14 42.1130 8.75836   5
  -3   6 -14 57.7786 9.26496   1
  -3  -6  14 44.6107 8.12446   1
   3   6  14 57.2287 8.83871   2
   3  -6 -14 53.7189 8.58971   2
   4   6 -14 290.127 33.2610   2
   4  -6  14 243.772 34.7623   5
  -4  -6 -14 311.510 33.6351   1
  -4   6  14 301.151 33.3851   1
   4  -6  14 217.951 33.3059   2
   4  -6 -14 321.234 33.6318   2
   4   6  14 308.815 33.5363   2
  -4  -6  14 330.431 33.8066   1
  -4   6 -14 323.415 33.9437   1
   5  -6  14 8.37421 3.75324   2
   5   6 -14 3.44128 2.96918   2
  -5  -6 -14 1.52700 3.41786   1
  -5   6  14 6.71875 3.51079   1
   5  -6 -14 9.21542 3.25999   2
   5   6  14 10.2460 3.51826   2
  -5   6 -14 8.06035 4.47272   1
   5   6  14 1.00029 3.53106   5
  -5  -6  14 1.84679 3.71179   1
   6   6 -14 5.27265 3.11379   2
  -6  -6 -14 8.36174 4.32966   1
  -6   6  14 3.85522 3.00486   1
   6  -6  14 7.19387 3.76729   2
  -6   6 -14 12.0404 4.76789   1
   6   6  14 9.78433 3.16255   2
  -6  -6  14 3.77629 4.02383   1
   6  -6 -14 10.9727 3.29618   2
   7  -6  14 43.4345 6.43301   2
  -7  -6 -14 24.8920 6.34601   1
  -7   6  14 25.4256 6.15256   1
   7  -6 -14 39.9484 6.00270   2
  -7   6 -14 36.9557 7.32275   1
  -7  -6  14 33.7844 7.04075   1
   7   6  14 30.6447 5.33533   2
   0   7  14 -1.4369 3.07259   2
   0   7 -14 -0.3566 3.05810   2
   0  -7  14 -0.3597 3.05840   2
   0  -7 -14 5.66795 2.88796   2
   0  -7  14 -0.6582 3.21298   5
  -1   7  14 25.6962 6.07538   2
   1   7 -14 38.4163 6.48502   2
   1  -7  14 33.5192 6.61152   5
   1  -7  14 17.5733 5.53056   2
  -1  -7  14 30.7064 6.08960   5
   1  -7 -14 28.9963 6.20222   2
   1   7  14 24.2533 5.88135   2
  -1   7 -14 46.7264 7.24056   2
   2  -7  14 144.852 23.0806   2
   2   7 -14 224.012 23.5560   2
   2  -7  14 226.073 24.5257   5
   2   7  14 211.365 23.5983   2
   2  -7 -14 180.172 23.2241   2
  -3   7  14 10.4144 4.03160   1
   3  -7  14 19.7897 5.25740   2
   3   7 -14 17.0243 4.93380   2
   3  -7  14 14.1822 5.07046   5
  -3  -7 -14 20.1547 5.40009   1
   3   7  14 21.8237 5.00842   2
  -3  -7  14 11.8941 4.79900   1
   3  -7 -14 18.8373 4.77960   2
   4  -7  14 11.0588 4.45408   2
   4   7 -14 12.0322 4.17871   2
  -4  -7 -14 15.9589 5.16868   1
  -4   7  14 16.7473 4.56772   1
  -4  -7  14 15.2975 4.73656   1
  -4   7 -14 17.0544 5.07416   1
   4   7  14 16.2922 5.27672   5
   4   7  14 13.2475 4.03740   2
   4  -7 -14 11.1550 4.27257   2
  -5   7  14 575.395 60.0474   1
   5  -7  14 556.356 60.6893   2
   5   7 -14 541.253 59.9593   2
  -5  -7 -14 542.373 60.1845   1
  -5   7 -14 465.460 60.1454   1
   5   7  14 564.374 60.1059   2
  -5  -7  14 528.008 60.0621   1
   5  -7 -14 558.273 60.2067   2
  -6  -7 -14 24.0639 6.11071   1
  -6   7  14 31.0784 6.16526   1
   6  -7  14 21.3937 5.41504   2
   6   7 -14 25.6337 4.99928   2
   6   7  14 23.1931 5.04933   2
  -6  -7  14 26.6375 6.35866   1
  -6   7 -14 33.6127 6.90711   1
   6  -7 -14 20.7752 5.11037   2
  -7   7  14 44.9857 8.73725   1
  -7  -7 -14 46.1989 8.95673   1
   7  -7  14 70.5544 9.07780   2
   7   7  14 58.2737 7.99898   2
   7  -7 -14 65.9215 8.33225   2
  -7  -7  14 60.3391 9.73521   1
  -7   7 -14 38.5969 8.92233   1
   0  -8  14 203.408 23.2280   2
   0  -8 -14 185.582 23.0623   2
   0   8 -14 190.172 23.0958   2
   0  -8  14 193.432 23.5893   5
   0   8  14 181.838 23.1363   2
   1  -8  14 426.309 44.3907   2
   1   8 -14 358.379 43.8120   2
  -1   8  14 383.305 44.1794   2
   1   8  14 392.651 44.1584   2
   2  -8  14 96.2608 12.8218   2
   2  -8  14 94.7043 13.0225   5
   2   8 -14 91.2075 11.6381   2
   2  -8 -14 62.7283 11.3250   2
   2   8  14 72.8078 11.4774   2
  -3  -8 -14 142.070 19.8928   1
   3   8 -14 142.058 19.8624   2
   3  -8  14 182.359 20.7586   2
  -3  -8  14 174.339 20.5059   1
  -3  -8  14 182.498 20.3334   1
   3  -8 -14 168.940 20.1544   2
   3   8  14 167.011 20.0151   2
   4  -8  14 84.9468 12.5607   2
  -4  -8 -14 80.5027 12.4075   1
  -4   8  14 91.4419 11.9996   1
   4   8 -14 90.0582 11.7503   2
  -4   8 -14 72.3123 12.2677   1
  -4  -8  14 84.4498 12.3397   1
   4  -8 -14 85.7759 11.7318   2
  -4  -8  14 86.1925 12.7363   1
   4   8  14 83.1201 11.4496   2
  -5   8  14 284.261 28.8802   1
   5  -8  14 274.326 29.2106   2
   5   8 -14 228.831 28.0803   2
  -5  -8 -14 251.478 28.8435   1
   5   8  14 225.082 28.2260   2
  -5  -8  14 213.208 28.4891   1
   5  -8 -14 238.888 28.4173   2
  -5   8 -14 263.794 29.2831   1
  -6   8  14 16.0857 4.82448   1
   6  -8  14 20.4050 4.96938   2
  -6  -8 -14 12.0782 4.92471   1
   6   8 -14 13.0810 3.82405   2
   6  -8 -14 17.6273 4.34895   2
  -6   8 -14 15.5824 5.48603   1
   6   8  14 14.7796 3.55581   2
  -6  -8  14 17.6622 5.48804   1
   0   9  14 0.47645 3.54109   2
   0  -9  14 0.05378 3.82953   2
   0  -9 -14 -0.3928 2.85723   2
   0   9 -14 -0.3629 2.97109   2
   1  -9  14 155.411 17.3860   2
   1   9 -14 153.324 17.1812   2
  -1   9  14 112.348 16.4248   2
  -1   9 -14 140.953 17.2538   2
   1  -9 -14 105.809 16.4228   2
   1   9  14 137.950 16.9614   2
   2   9 -14 67.3624 9.98049   2
   2  -9  14 66.6787 10.2584   2
   2   9  14 63.4847 9.87994   2
   2  -9 -14 56.8694 9.71226   2
   3   9 -14 42.8470 7.38480   2
   3  -9  14 39.1878 7.62848   2
   3   9  14 44.6637 7.52670   2
  -3  -9  14 38.1380 7.67895   1
   3  -9 -14 40.7003 7.43500   2
  -3  -9  14 36.7406 7.47058   1
   4   9 -14 63.0070 10.0157   2
  -4  -9 -14 76.5625 10.9780   1
   4  -9  14 84.9762 11.3058   2
  -4   9  14 61.0896 10.1017   1
   4  -9 -14 65.1766 10.2293   2
   4   9  14 64.9845 10.0462   2
  -4  -9  14 56.2063 10.1611   1
  -4  -9  14 76.1269 11.0832   1
  -5   9  14 23.7598 5.59525   1
   5   9 -14 21.1544 4.65871   2
  -5  -9 -14 26.1858 6.02268   1
   5  -9  14 19.0472 5.54158   2
  -5   9 -14 19.2509 6.07983   1
   5   9  14 21.1626 5.10572   2
  -5  -9  14 25.2034 5.99516   1
  -5  -9  14 17.2002 5.62110   1
   5  -9 -14 10.1455 4.09356   2
   6  -9  14 114.101 14.0904   2
   6   9 -14 95.4468 12.9531   2
  -6  -9 -14 110.559 14.3204   1
  -6   9  14 99.6323 13.8088   1
  -6   9 -14 114.606 14.8002   1
  -6  -9  14 103.787 14.8259   1
   6  -9 -14 82.5800 13.0825   2
  -6  -9  14 123.498 14.7774   1
   6   9  14 102.470 13.2266   2
   0 -10 -14 8.94684 4.62743   2
   0  10 -14 18.9107 4.76449   2
   0  10  14 11.3132 3.93039   2
   0 -10  14 10.9476 4.04959   2
   1  10 -14 53.7184 8.94571   2
  -1  10  14 48.7257 8.70811   2
   1 -10  14 51.2623 8.93265   2
   1  10  14 42.9844 8.35614   2
   1 -10 -14 54.8967 9.05526   2
  -1  10 -14 50.1762 9.30548   2
   2 -10  14 90.9503 12.8071   2
   2  10 -14 74.5846 11.6921   2
   2  10  14 90.2601 11.8582   2
   2 -10 -14 76.4777 11.8783   2
   3  10 -14 0.51772 2.56829   2
   3 -10  14 1.37838 3.82347   2
   3  10  14 2.59504 3.15265   2
   3 -10 -14 1.43459 3.42431   2
   4  10 -14 565.907 69.6933   2
   4 -10  14 685.407 70.5726   2
  -4 -10 -14 632.209 69.6924   1
  -4 -10  14 752.044 70.3574   1
   4  10  14 671.259 69.8921   2
   4 -10 -14 517.096 69.6155   2
   5 -10  14 17.9046 5.29971   2
  -5  10  14 14.6209 5.18375   1
  -5 -10 -14 18.2117 5.49363   1
   5  10 -14 18.3966 4.63694   2
   5 -10 -14 24.2174 5.19989   2
   5  10  14 15.5446 4.27560   2
  -5 -10  14 20.7964 5.82392   1
   0  11 -14 1.78544 3.77790   2
   0  11  14 -1.4729 3.42415   2
   0 -11 -14 -0.6584 3.43554   2
   1 -11  14 15.8059 4.73537   2
  -1  11  14 16.4936 5.24191   2
   1  11 -14 13.9906 4.83045   2
  -1  11 -14 15.9785 5.90502   2
   1 -11 -14 16.3629 5.07753   2
   1  11  14 17.5004 5.07142   2
   2 -11  14 18.5206 5.50842   2
   2  11 -14 12.7553 4.80543   2
   2 -11 -14 19.4698 5.42605   2
   2  11  14 18.0423 4.73674   2
   3  11 -14 255.175 30.8197   2
   3 -11  14 296.881 31.6061   2
   3 -11 -14 242.599 30.9997   2
   3  11  14 274.284 31.0519   2
   0   0 -15 0.55182 2.73647   2
   0   0  15 -1.2566 2.74537   2
   0   0  15 1.93919 3.56501   5
  -1   0 -15 83.2485 13.9518   2
  -1   0  15 146.970 15.2172   2
   1   0  15 145.417 16.0080   5
   1   0  15 108.460 14.4921   2
   1   0 -15 106.881 14.4218   2
  -1   0  15 117.242 15.2522   5
  -2   0  15 1.96277 2.83817   1
   2   0 -15 1.16180 2.70771   2
   2   0  15 -0.2735 2.79261   2
   2   0  15 6.59963 3.76623   5
   3   0 -15 9.70328 3.86063   2
   3   0  15 12.0069 3.95896   2
  -3   0 -15 20.4875 5.29321   1
   3   0  15 13.1448 5.08543   5
  -3   0  15 4.90043 3.35415   1
   4   0  15 2.48335 3.04237   5
  -4   0 -15 -0.6368 3.09353   1
   4   0  15 -2.0868 2.64309   2
   4   0 -15 0.13678 2.75589   2
  -4   0  15 -2.7488 2.66095   1
   5   0  15 36.5596 6.61676   2
  -5   0 -15 31.8456 6.90261   1
   5   0 -15 39.0297 6.50910   2
   5   0  15 35.5225 7.83757   5
  -5   0  15 33.0996 6.63722   1
  -6   0 -15 2.50502 3.42600   1
   6   0  15 0.24680 2.98939   2
  -6   0  15 0.20652 2.92307   1
   6   0  15 -4.5559 3.45270   5
   6   0 -15 2.47892 2.79647   2
   7   0  15 311.084 36.4650   2
   7   0 -15 338.193 36.2205   2
  -7   0 -15 393.446 37.8363   1
  -7   0  15 318.307 36.9397   1
   7   0  15 276.785 38.8963   5
  -8   0  15 -5.1976 2.64144   1
   8   0  15 -3.2159 3.98487   5
  -8   0 -15 -0.9842 3.12629   1
   0   1  15 316.838 31.6223   2
   0  -1  15 298.155 31.5984   2
   0   1 -15 268.350 31.1433   2
   0  -1  15 228.797 32.1580   5
   0   1  15 266.856 32.4272   5
   0  -1 -15 255.761 31.0470   2
  -1   1  15 95.0231 13.7486   2
   1  -1  15 112.320 14.2277   2
   1   1 -15 117.627 13.9897   2
   1  -1  15 104.695 14.8374   5
  -1  -1 -15 121.101 14.0095   2
  -1  -1  15 91.8576 13.7276   2
  -1   1 -15 117.646 13.9665   2
   1   1  15 103.465 14.6329   5
   1   1  15 101.294 13.9260   2
  -1  -1  15 135.983 15.0621   5
   1  -1 -15 94.5902 13.7314   2
   2  -1  15 33.6680 7.73338   5
   2  -1  15 42.2192 7.44934   2
   2   1 -15 47.6456 7.46818   2
  -2   1  15 55.8374 7.83922   1
   2   1  15 34.9452 7.94495   5
  -2  -1  15 48.7909 7.87938   1
   2  -1 -15 37.3565 7.14108   2
  -2  -1  15 47.9346 8.12584   5
   2   1  15 45.7787 7.47379   2
  -3  -1 -15 116.861 15.3795   1
   3  -1  15 130.305 15.3385   2
   3   1 -15 115.189 14.9466   2
  -3   1  15 87.8519 14.3890   1
   3  -1  15 135.461 16.3641   5
  -3  -1  15 133.285 15.2172   1
   3   1  15 127.093 16.4287   5
   3   1  15 130.137 15.2120   2
   3  -1 -15 113.831 15.0305   2
  -3   1 -15 110.679 15.2979   1
  -4   1  15 -1.0548 2.84240   1
   4  -1  15 2.06417 3.84675   5
   4  -1  15 -0.5657 2.74660   2
  -4  -1 -15 1.35067 3.70630   1
   4   1 -15 1.94867 2.82595   2
   4   1  15 -0.3496 2.59578   2
  -4   1 -15 -0.5787 3.46116   1
   4  -1 -15 -0.3948 2.72667   2
  -4  -1  15 -0.4007 2.99823   1
   4   1  15 2.78671 4.10047   5
   5   1 -15 60.4370 9.32068   2
   5  -1  15 60.3537 10.7857   5
   5  -1  15 60.5469 9.31096   2
  -5  -1 -15 76.0440 10.7199   1
  -5   1  15 71.1024 9.91396   1
   5   1  15 66.3400 10.8739   5
  -5  -1  15 69.2166 9.92185   1
  -5   1 -15 63.8979 10.0700   1
   5  -1 -15 76.8049 9.50514   2
   5   1  15 42.1549 8.67907   2
   6  -1  15 5.47880 3.41600   2
   6   1 -15 4.99578 2.65922   2
  -6  -1 -15 2.67103 3.83505   1
  -6   1  15 4.49158 3.66134   1
   6  -1  15 2.80080 4.49017   5
  -6   1 -15 1.64362 3.85806   1
   6   1  15 5.29851 2.97525   2
   6   1  15 0.26825 4.29129   5
   6  -1 -15 -1.1637 2.76522   2
  -6  -1  15 4.27433 3.47151   1
   7  -1  15 138.748 17.4292   2
   7  -1  15 158.740 20.2403   5
  -7  -1 -15 138.481 18.5708   1
  -7   1  15 164.150 18.5022   1
   7  -1 -15 146.653 17.1593   2
  -7   1 -15 147.740 18.7409   1
   7   1  15 128.872 19.5111   5
   7   1  15 159.098 17.5085   2
  -7  -1  15 141.167 18.2089   1
  -8  -1 -15 11.8215 5.21201   1
  -8   1  15 14.4636 4.76829   1
  -8  -1  15 11.6595 4.28955   1
   8   1  15 8.96046 4.99352   5
  -8   1 -15 8.40855 4.13725   1
   0  -2 -15 -1.6150 2.29417   2
   0  -2  15 1.18201 2.71799   2
   0   2  15 -1.9575 2.61841   2
   0  -2  15 -0.7729 2.69715   5
   0   2 -15 -1.1224 2.28042   2
   1  -2  15 14.9754 4.26579   2
   1  -2  15 23.8202 5.70845   5
   1   2 -15 26.6097 5.19761   2
  -1  -2 -15 17.3651 4.90104   2
  -1   2  15 26.4603 5.39985   2
  -1   2 -15 25.9623 5.52666   2
   1  -2 -15 10.6567 4.13475   2
   1   2  15 16.5647 5.31578   5
   1   2  15 12.8379 4.48624   2
  -1  -2  15 18.0520 5.19475   5
   2  -2  15 -3.3097 2.36630   2
   2  -2  15 1.45848 3.74699   5
  -2   2  15 -0.8668 2.80810   1
   2   2 -15 0.10807 2.86719   2
  -2  -2  15 -2.8124 3.32187   5
   2   2  15 1.55849 2.94715   2
  -2  -2  15 4.89534 3.49168   1
   2   2  15 3.86491 3.17465   5
   2  -2 -15 -1.0142 2.99917   2
  -3   2  15 -1.5801 2.83498   1
   3  -2  15 3.26483 2.92171   2
   3   2 -15 4.15278 2.96893   2
  -3  -2 -15 2.30997 3.45758   1
   3  -2  15 1.62379 3.22866   5
   3   2  15 8.03012 3.30245   2
  -3  -2  15 2.59635 3.30934   1
  -3  -2  15 2.51520 2.84013   5
   3  -2 -15 3.68939 2.95913   2
   3   2  15 -0.6446 2.96789   5
  -3   2 -15 4.43612 4.05566   1
   4   2 -15 195.984 25.4990   2
   4  -2  15 248.328 27.5275   5
   4  -2  15 245.350 26.0118   2
  -4  -2 -15 193.577 25.8132   1
  -4   2 -15 211.184 26.0079   1
   4   2  15 205.377 27.1325   5
   4  -2 -15 242.987 25.7986   2
   4   2  15 232.259 25.9416   2
  -4  -2  15 209.262 25.5990   1
   5  -2  15 7.54322 3.32341   2
   5  -2  15 7.14827 4.80436   5
  -5  -2 -15 8.35683 4.24344   1
  -5   2  15 5.57612 3.47103   1
   5   2 -15 3.46317 3.03037   2
  -5  -2  15 11.4187 4.28752   1
   5   2  15 12.5615 3.86581   2
  -5   2 -15 9.32106 4.08383   1
   5  -2 -15 10.8225 3.67631   2
   5   2  15 9.22096 4.08772   5
  -6  -2 -15 46.0112 8.54124   1
   6  -2  15 52.3497 8.06754   2
   6  -2  15 69.1115 10.6821   5
  -6   2  15 46.4006 8.26704   1
   6   2 -15 61.0190 7.95978   2
  -6  -2  15 52.7748 8.62596   1
   6  -2 -15 52.5145 7.81442   2
   6   2  15 49.3719 7.95273   2
  -6   2 -15 37.5206 8.32599   1
   6   2  15 51.0016 9.69785   5
  -7   2  15 5.83561 3.67059   1
  -7  -2 -15 13.1795 4.77982   1
   7  -2  15 12.0307 3.94176   2
   7  -2  15 8.68556 5.00695   5
   7  -2 -15 8.09166 3.03695   2
   7   2  15 5.83110 5.24667   5
  -7  -2  15 7.02595 4.05314   1
  -7   2 -15 6.78506 4.33022   1
   7   2  15 10.2372 2.86172   2
  -8   2  15 -4.0866 2.49758   1
  -8  -2 -15 8.62976 3.90256   1
  -8  -2  15 5.78656 3.79889   1
   8   2  15 -1.8086 5.44130   5
  -8   2 -15 -1.1830 3.21279   1
   0  -3 -15 94.0372 12.4129   2
   0  -3  15 91.2683 12.8553   5
   0   3  15 101.463 12.3345   2
   0   3 -15 87.1670 12.2289   2
   0  -3  15 73.8105 12.4429   2
   1   3 -15 26.1555 5.96559   2
   1  -3  15 34.0709 6.76045   2
  -1  -3 -15 37.2336 6.81407   2
  -1   3  15 34.6006 6.77955   2
   1  -3  15 34.5094 7.37477   5
   1   3  15 37.1929 6.81528   2
   1  -3 -15 38.7943 7.01386   2
  -1   3 -15 48.3184 7.84004   2
  -1  -3  15 30.8837 6.80017   5
   2   3 -15 127.186 16.7270   2
   2  -3  15 158.464 17.3632   2
  -2   3  15 151.969 17.3579   1
   2  -3  15 115.444 17.4430   5
  -2  -3  15 130.409 17.4321   5
  -2  -3  15 105.448 16.5964   1
   2   3  15 151.730 18.1642   5
   2   3  15 141.721 17.1531   2
   2  -3 -15 150.593 17.1816   2
  -3   3  15 38.0347 7.73735   1
   3  -3  15 44.3571 8.14639   2
   3  -3  15 49.3723 9.14601   5
  -3  -3 -15 70.7639 9.51733   1
   3   3 -15 47.9681 7.98889   2
   3   3  15 52.5157 8.44538   2
  -3  -3  15 45.1498 8.51038   5
  -3  -3  15 60.2610 8.98789   1
   3  -3 -15 60.7824 8.53117   2
   3   3  15 46.6644 9.12872   5
  -3   3 -15 61.6321 9.24774   1
  -4  -3 -15 480.222 48.8023   1
   4  -3  15 420.633 48.6216   2
  -4   3  15 426.767 48.1150   1
   4  -3  15 334.494 50.0960   5
   4   3 -15 499.286 48.7150   2
  -4   3 -15 403.309 48.3942   1
  -4  -3  15 529.067 50.6414   5
   4   3  15 447.372 48.5794   2
   4   3  15 382.607 50.6811   5
  -4  -3  15 510.850 48.6521   1
   4  -3 -15 360.248 48.1906   2
   5  -3  15 0.70470 2.76404   2
   5   3 -15 3.36838 3.08322   2
  -5   3  15 4.73928 3.62306   1
   5  -3  15 2.69400 3.90242   5
  -5  -3 -15 3.34076 3.69810   1
   5   3  15 6.45529 3.19602   2
   5   3  15 2.60600 4.37255   5
  -5   3 -15 0.96194 3.48711   1
   5  -3 -15 2.87421 3.14776   2
  -5  -3  15 -1.3305 3.21056   1
   6  -3  15 74.7106 15.9082   5
   6  -3  15 116.671 14.6365   2
  -6  -3 -15 146.050 15.9580   1
   6   3 -15 138.398 14.5523   2
  -6   3  15 137.376 15.2301   1
  -6  -3  15 146.045 15.6998   1
   6   3  15 105.232 14.3864   2
   6   3  15 107.020 16.8439   5
  -6   3 -15 99.0590 15.0869   1
   6  -3 -15 102.913 14.1996   2
   7  -3  15 7.21101 3.91732   5
  -7  -3 -15 -0.3089 3.58465   1
   7  -3  15 1.09940 2.95685   2
  -7   3  15 1.61877 3.61762   1
   7   3  15 -1.4757 2.28877   2
   7   3  15 9.24760 4.24068   5
   7  -3 -15 0.09375 2.41838   2
  -7  -3  15 0.62518 3.61410   1
  -7   3 -15 -1.2432 3.19115   1
  -8  -3 -15 67.8558 10.8153   1
  -8   3  15 69.9929 10.3360   1
  -8   3 -15 76.8338 11.0795   1
  -8  -3  15 57.0793 9.93362   1
   0  -4  15 -1.4002 3.39321   5
   0  -4  15 -0.6168 3.50655   2
   0   4 -15 4.04396 3.13277   2
   0   4  15 2.14772 2.75365   2
   0  -4 -15 -0.1827 2.67957   2
   1   4 -15 1.35702 3.06025   2
   1  -4  15 9.40284 3.90704   2
  -1   4  15 4.11354 3.80638   2
  -1  -4 -15 4.61901 3.47215   2
   1  -4  15 6.43984 4.04124   5
  -1   4 -15 6.99534 3.83196   2
  -1  -4  15 8.82228 4.18368   5
   1   4  15 5.31606 3.63874   2
   1  -4 -15 10.9662 3.71157   2
   2   4 -15 1.71878 2.28419   2
   2  -4  15 1.69583 3.52874   5
   2  -4  15 0.44665 3.47159   2
   2   4  15 -2.6022 3.11811   5
   2   4  15 2.95589 2.54866   2
  -2  -4  15 -2.1068 3.22681   1
   2  -4 -15 4.97239 3.46089   2
  -2  -4  15 0.36019 3.06967   5
  -3   4  15 64.6670 8.79531   1
   3  -4  15 59.3942 9.24612   5
   3   4 -15 39.3496 7.44262   2
  -3  -4 -15 42.6638 8.11711   1
   3  -4  15 63.4506 8.86682   2
   3   4  15 49.3204 8.98139   5
   3   4  15 38.6980 7.65537   2
  -3  -4  15 45.9235 8.60118   5
  -3   4 -15 56.6843 8.62871   1
   3  -4 -15 49.8565 8.08335   2
  -3  -4  15 36.8272 7.74409   1
   4  -4  15 -0.8111 3.93946   5
  -4   4  15 7.12428 3.37778   1
   4  -4  15 4.27085 3.20085   2
  -4  -4 -15 0.45897 3.23345   1
   4   4 -15 1.81458 2.79045   2
   4  -4 -15 4.13652 3.02464   2
  -4   4 -15 -1.6385 3.10253   1
  -4  -4  15 2.56829 3.39511   1
   4   4  15 -1.7325 2.85277   2
   4   4  15 -1.7881 3.09919   5
   5   4 -15 5.81259 3.30343   2
   5  -4  15 6.68962 3.31947   2
   5  -4  15 11.8122 5.46195   5
  -5  -4 -15 5.64815 3.81985   1
  -5   4  15 5.53825 3.52746   1
  -5   4 -15 4.12335 3.86709   1
   5  -4 -15 16.8575 4.27107   2
   5   4  15 8.93813 4.63237   5
   5   4  15 7.88055 3.64560   2
  -5  -4  15 5.03281 3.71292   1
  -6   4  15 86.5892 11.7291   1
   6  -4  15 84.1686 11.3931   2
   6   4 -15 108.309 11.5574   2
   6  -4  15 102.645 14.5375   5
  -6  -4 -15 83.7737 12.3517   1
   6  -4 -15 78.2930 10.9857   2
  -6  -4  15 90.7039 12.8491   1
  -6   4 -15 86.8772 12.3839   1
   6   4  15 57.2651 10.5852   2
   6   4  15 92.6906 13.7761   5
   7  -4  15 237.600 28.3966   2
  -7  -4 -15 250.055 29.2378   1
  -7   4  15 257.023 28.8772   1
   7  -4 -15 248.314 28.1090   2
  -7   4 -15 277.269 29.3014   1
   7   4  15 247.288 28.0627   2
  -7  -4  15 228.899 29.0924   1
   0   5 -15 19.4435 5.25598   2
   0   5  15 18.1758 4.79327   2
   0  -5  15 27.5429 6.05362   5
   0  -5  15 20.8110 5.19943   2
   0  -5 -15 15.9931 4.71932   2
  -1   5  15 461.939 50.5780   2
   1  -5  15 418.463 51.9161   5
   1  -5  15 381.443 50.4047   2
  -1  -5 -15 537.641 50.9470   2
   1   5 -15 476.332 50.6885   2
  -1  -5  15 492.256 52.0749   5
   1   5  15 388.706 50.1601   2
   2  -5  15 78.1603 13.8887   2
   2   5 -15 118.130 14.2333   2
   2  -5  15 94.3823 14.2191   5
   2   5  15 111.826 14.0730   2
   2  -5 -15 100.612 13.7257   2
  -2  -5  15 123.907 14.3271   1
  -2  -5  15 110.018 14.2392   5
   3   5 -15 103.503 13.2441   2
   3  -5  15 111.708 14.5857   5
  -3  -5 -15 92.0706 13.4050   1
   3  -5  15 105.682 13.8557   2
  -3   5  15 91.6811 13.0552   1
   3   5  15 98.6035 14.1193   5
   3  -5 -15 84.2131 13.4585   2
   3   5  15 102.080 13.5233   2
  -3  -5  15 112.311 13.8360   1
  -4  -5 -15 65.2905 9.23655   1
   4  -5  15 35.8889 7.56836   2
   4   5 -15 37.0103 7.46536   2
  -4   5  15 54.4578 8.36555   1
   4  -5  15 50.7717 9.23236   5
   4   5  15 45.3769 9.05802   5
   4   5  15 35.5942 7.69464   2
   4  -5 -15 56.0332 8.36860   2
  -4  -5  15 53.2327 8.99432   1
  -4   5 -15 67.9689 9.26679   1
  -5   5  15 106.083 14.3194   1
   5   5 -15 134.984 14.4520   2
   5  -5  15 114.472 15.8983   5
   5  -5  15 102.958 14.2628   2
  -5  -5 -15 132.289 15.2404   1
  -5   5 -15 127.507 15.0813   1
   5  -5 -15 108.097 14.0511   2
   5   5  15 113.691 15.8218   5
  -5  -5  15 85.5515 14.5939   1
   5   5  15 92.2581 13.9489   2
   6   5 -15 3.50238 3.07132   2
   6  -5  15 0.68038 2.94490   2
  -6  -5 -15 -0.8438 3.36237   1
  -6   5  15 0.72720 3.24039   1
  -6   5 -15 0.82087 3.53322   1
   6  -5 -15 0.55791 2.97998   2
  -6  -5  15 1.74850 3.26245   1
   6   5  15 0.90942 2.84392   2
   6   5  15 6.87176 3.82207   5
   7  -5  15 262.911 30.2689   2
  -7  -5 -15 235.112 30.7337   1
  -7   5  15 311.723 31.0967   1
   7  -5 -15 272.438 30.0578   2
   7   5  15 274.437 29.9037   2
  -7  -5  15 216.284 30.6959   1
  -7   5 -15 284.102 31.0274   1
   0  -6  15 1.32970 3.71956   2
   0   6 -15 4.29834 2.90625   2
   0  -6 -15 -0.3993 3.30902   2
   0  -6  15 -1.2991 2.75247   5
   0   6  15 -6.6467 2.58173   2
   1   6 -15 30.4518 5.98607   2
   1  -6  15 11.5616 4.46024   5
   1  -6  15 19.2947 5.54724   2
  -1   6  15 19.9746 5.19319   2
  -1   6 -15 28.6645 5.91021   2
   1   6  15 14.2486 5.01478   2
  -1  -6  15 29.6741 5.97794   5
   1  -6 -15 26.0430 5.60143   2
   2  -6  15 6.95074 3.32013   2
   2   6 -15 3.63558 3.23893   2
   2  -6  15 3.68061 3.80912   5
   2   6  15 6.15141 3.69985   2
   2  -6 -15 8.99538 3.99002   2
   3   6 -15 136.175 17.0061   2
  -3  -6 -15 126.721 17.0209   1
   3  -6  15 116.739 17.2435   2
   3  -6  15 155.419 18.4887   5
  -3   6  15 158.192 17.4405   1
   3  -6 -15 118.979 16.9431   2
   3   6  15 151.986 17.6233   2
   3   6  15 157.897 18.5645   5
  -3  -6  15 114.260 16.8389   1
   4  -6  15 13.8853 4.82811   2
  -4   6  15 13.7175 4.71434   1
  -4  -6 -15 21.3096 5.49013   1
   4   6 -15 15.5633 4.48428   2
   4  -6  15 20.9826 6.01023   5
   4   6  15 17.8162 4.82286   2
  -4  -6  15 16.1469 5.44493   1
   4   6  15 21.8776 5.86488   5
  -4   6 -15 22.1135 6.06549   1
   4  -6 -15 20.5194 4.99241   2
  -5   6  15 11.1538 4.23075   1
   5  -6  15 8.48362 3.98516   2
  -5  -6 -15 5.92806 3.68482   1
   5   6 -15 6.32043 3.33982   2
  -5  -6  15 4.52437 3.99679   1
   5   6  15 16.3698 4.20902   2
   5  -6 -15 3.63888 3.32721   2
  -5   6 -15 4.91155 4.51157   1
   5   6  15 9.11319 4.96254   5
   6   6 -15 3.41295 3.03499   2
  -6   6  15 5.69987 3.56944   1
   6  -6  15 6.06960 3.73350   2
  -6  -6 -15 3.27666 3.59131   1
  -6   6 -15 1.63523 4.16242   1
  -6  -6  15 4.63229 4.05194   1
   6   6  15 4.14410 2.60890   2
   6  -6 -15 0.34476 2.75970   2
  -7   6  15 1.82373 3.36153   1
   7  -6  15 3.99011 3.20353   2
  -7  -6 -15 -2.0200 2.89891   1
  -7   6 -15 3.54586 4.03044   1
   7  -6 -15 3.71598 3.10214   2
  -7  -6  15 1.68700 4.06961   1
   0  -7  15 77.1266 11.1304   5
   0  -7  15 73.6967 11.2511   2
   0   7  15 67.2738 10.8448   2
   0  -7 -15 58.9926 10.2251   2
   0   7 -15 72.2156 10.5843   2
   1  -7  15 131.703 19.5558   2
   1   7 -15 188.115 19.9995   2
  -1   7  15 152.903 19.7099   2
   1  -7  15 164.871 20.2412   5
  -1   7 -15 161.716 19.5407   2
  -1  -7  15 174.513 20.7458   5
   1   7  15 133.676 19.3550   2
   1  -7 -15 171.406 19.8548   2
   2  -7  15 428.506 48.8371   5
   2  -7  15 459.514 47.6869   2
   2   7 -15 362.180 46.8943   2
   2   7  15 484.631 47.6398   2
   2  -7 -15 368.312 46.8868   2
   3   7 -15 1.88000 3.23537   2
   3  -7  15 3.97460 3.62473   2
   3  -7  15 7.65085 3.95034   5
   3   7  15 4.93769 3.83819   2
   3  -7 -15 2.30812 3.26642   2
  -3  -7  15 -4.1894 3.10775   1
   3   7  15 7.10059 4.35034   5
   4  -7  15 218.875 28.7310   2
   4   7 -15 283.804 28.6505   2
  -4  -7 -15 242.938 28.6974   1
  -4   7  15 222.170 28.2602   1
   4   7  15 225.487 28.2115   2
  -4  -7  15 277.874 28.9770   1
   4   7  15 194.044 29.4469   5
   4  -7 -15 303.543 29.0589   2
   5   7 -15 4.51365 3.55001   2
  -5   7  15 4.07863 3.54106   1
  -5  -7 -15 10.6538 4.47615   1
   5  -7  15 7.95355 3.99279   2
   5   7  15 6.36237 3.39982   2
  -5  -7  15 6.01800 4.22419   1
   5  -7 -15 15.8167 4.41777   2
  -5   7 -15 19.4061 5.48188   1
  -6   7  15 42.6730 8.12220   1
  -6  -7 -15 41.5913 8.10459   1
   6   7 -15 49.8667 7.27894   2
   6  -7  15 41.0257 7.54884   2
  -6  -7  15 34.9247 7.84230   1
   6   7  15 43.3829 7.08259   2
   6  -7 -15 43.0494 7.20431   2
  -6   7 -15 48.5835 8.70781   1
   0  -8 -15 4.13373 3.26676   2
   0  -8  15 -2.6778 3.53621   5
   0  -8  15 -3.5640 3.58610   2
   0   8  15 -0.4053 3.54472   2
   0   8 -15 2.06870 2.82930   2
   1  -8  15 18.4202 5.42825   2
   1   8 -15 17.5795 5.00925   2
  -1   8  15 10.4778 3.89831   2
   1  -8  15 25.1848 5.66234   5
  -1   8 -15 25.5229 5.79569   2
   1   8  15 12.4607 4.68083   2
   1  -8 -15 11.7666 4.77699   2
   2  -8  15 24.6832 6.02868   2
   2   8 -15 21.1029 5.37193   2
   2  -8  15 25.3383 6.33117   5
   2  -8 -15 14.9037 5.07287   2
   2   8  15 7.69343 4.58925   2
   3  -8  15 16.9237 4.98484   2
   3   8 -15 27.5433 5.75954   2
   3   8  15 15.5039 5.82377   5
  -3  -8  15 21.0856 5.84895   1
   3  -8 -15 23.2606 5.37084   2
  -3  -8  15 12.1324 5.28976   1
   3   8  15 17.3062 4.39706   2
  -4  -8 -15 12.6232 5.38786   1
  -4   8  15 14.9550 4.90779   1
   4  -8  15 14.5976 5.12135   2
   4   8 -15 16.6635 4.71247   2
  -4  -8  15 22.2089 5.82705   1
   4   8  15 13.2463 4.61818   2
   4  -8 -15 17.6185 4.86640   2
  -4  -8  15 14.0314 4.95755   1
   5  -8  15 2.41034 3.61929   2
  -5   8  15 3.82717 3.07580   1
   5   8 -15 4.69763 3.00752   2
  -5  -8 -15 -0.0624 3.62035   1
  -5   8 -15 0.37278 3.99551   1
   5  -8 -15 -0.9886 2.79827   2
  -5  -8  15 0.30021 3.64635   1
   5   8  15 9.47918 3.71419   2
   0  -9 -15 4.98343 3.71374   2
   0   9  15 1.90893 3.37770   2
   0   9 -15 2.88520 3.51933   2
   0  -9  15 5.90651 4.16184   2
   1  -9  15 241.944 27.0982   2
  -1   9  15 224.233 26.7426   2
   1   9 -15 237.674 26.5839   2
   1   9  15 220.589 26.5239   2
  -1   9 -15 251.436 26.9970   2
   1  -9 -15 172.892 26.0698   2
   2  -9  15 29.8609 6.44967   2
   2   9 -15 30.8660 6.38893   2
   2   9  15 34.1374 6.76524   2
   2  -9 -15 31.2930 6.54572   2
   3  -9  15 1.23205 3.47188   2
   3   9 -15 8.71332 4.09609   2
   3   9  15 9.12294 4.08786   2
   3  -9 -15 9.01505 3.85541   2
   4  -9  15 286.984 30.6474   2
   4   9 -15 299.842 30.1432   2
  -4  -9 -15 214.586 29.7988   1
  -4  -9  15 205.061 29.6720   1
   4  -9 -15 270.675 30.0328   2
  -4  -9  15 291.035 30.5347   1
   4   9  15 236.160 29.6125   2
   0 -10 -15 0.21617 3.88943   2
   0  10 -15 6.25740 4.56250   2
   0 -10  15 -6.7381 3.56174   2
   0  10  15 6.74671 2.58441   2
   1  10 -15 13.7964 4.35304   2
  -1  10  15 8.10503 4.37269   2
   1 -10  15 13.1431 4.58242   2
   1  10  15 16.8723 5.27942   2
  -1  10 -15 26.1779 6.04748   2
   1 -10 -15 14.1900 4.74233   2
   2 -10  15 21.1113 6.14330   2
   2  10 -15 15.9015 5.25812   2
   2  10  15 26.9963 6.10352   2
   2 -10 -15 17.2661 5.01300   2
   3  10 -15 2.08722 3.36614   2
   3 -10  15 6.84343 3.89321   2
   3  10  15 6.77128 3.45009   2
   3 -10 -15 12.2963 4.47436   2
   0   0 -16 3757.36 399.959   2
   0   0  16 3649.37 413.281   5
   1   0 -16 3.32978 2.96935   2
   1   0  16 -3.5041 3.32627   5
  -1   0 -16 -0.3879 3.34665   2
   1   0  16 2.52822 3.45033   2
  -1   0  16 1.49820 3.81718   5
   2   0  16 29.3710 6.84107   5
   2   0  16 26.7582 5.71331   2
   2   0 -16 17.6425 5.11746   2
  -3   0  16 3.52259 3.38803   1
   3   0  16 -1.4131 3.26814   5
   3   0 -16 3.04926 3.37930   2
  -3   0 -16 -0.6019 3.84243   1
   3   0  16 5.00208 3.19563   2
  -4   0  16 164.833 24.1856   1
  -4   0 -16 235.975 25.2943   1
   4   0 -16 230.875 25.0113   2
   4   0  16 220.995 24.7749   2
   4   0  16 202.073 26.0507   5
   5   0  16 -0.5133 2.73491   2
  -5   0  16 3.24763 2.93592   1
  -5   0 -16 -0.2687 3.07768   1
   5   0  16 0.46322 3.95191   5
   5   0 -16 3.84213 3.44219   2
  -6   0  16 342.107 40.2653   1
   6   0  16 342.985 42.4832   5
  -6   0 -16 388.183 40.8639   1
   6   0  16 336.253 40.0507   2
   6   0 -16 373.245 40.0395   2
   7   0  16 7.47663 4.54100   5
  -7   0  16 -1.7170 3.45664   1
   7   0  16 3.05087 2.86287   2
  -7   0 -16 1.53295 3.91000   1
   7   0 -16 0.52029 2.88674   2
   0   1  16 -4.0156 3.44582   5
   0  -1  16 1.94865 2.98095   5
   0   1  16 -2.3214 2.94780   2
   0  -1 -16 -0.9285 3.04695   2
   0  -1  16 1.55913 3.18476   2
   0   1 -16 -0.7402 2.71719   2
   1   1 -16 63.0536 9.59043   2
  -1  -1 -16 68.9077 9.88773   2
   1  -1  16 74.7428 10.4989   2
   1  -1  16 60.6592 10.3973   5
   1  -1 -16 69.4428 9.99607   2
  -1   1 -16 51.1364 9.28764   2
  -1  -1  16 62.1670 10.2316   5
   1   1  16 54.7666 9.41708   2
   1   1  16 65.4527 10.5646   5
   2   1 -16 30.9713 5.98792   2
   2  -1  16 21.7900 6.24483   5
   2  -1  16 30.2258 6.00617   2
   2  -1 -16 27.8725 6.08659   2
  -2  -1  16 30.0674 6.90755   5
   2   1  16 24.6523 5.86689   2
   2   1  16 34.4211 7.34563   5
  -3   1  16 191.531 22.9333   1
   3  -1  16 168.792 22.9355   2
  -3  -1 -16 186.001 23.4440   1
   3   1 -16 213.967 23.2786   2
   3  -1  16 196.564 24.3894   5
   3  -1 -16 182.294 23.0149   2
  -3  -1  16 208.210 23.0753   1
   3   1  16 188.276 23.0228   2
  -3   1 -16 212.292 23.6596   1
   3   1  16 188.500 24.4437   5
   4  -1  16 2.15295 2.89431   2
   4   1 -16 2.42033 3.26185   2
  -4  -1 -16 -0.7373 4.10330   1
  -4   1  16 -0.7560 3.05990   1
   4  -1  16 -2.1541 3.26278   5
  -4   1 -16 4.14453 3.54264   1
  -4  -1  16 3.11856 3.45043   1
   4   1  16 -0.6861 3.91186   5
   4  -1 -16 4.40744 2.99065   2
   4   1  16 2.09827 3.28970   2
  -5   1  16 270.816 32.8805   1
   5  -1  16 301.546 33.1272   2
  -5  -1 -16 361.530 34.1412   1
   5  -1  16 272.998 34.7810   5
   5   1 -16 293.581 33.0206   2
   5  -1 -16 312.099 33.1106   2
   5   1  16 289.299 35.0071   5
   5   1  16 237.053 32.6943   2
  -5  -1  16 302.187 33.1386   1
  -5   1 -16 262.260 33.2736   1
   6   1 -16 48.7015 8.06641   2
   6  -1  16 64.0840 8.89235   2
  -6   1  16 32.2047 7.91319   1
  -6  -1 -16 81.3066 10.8703   1
   6  -1  16 56.1366 10.6155   5
  -6  -1  16 64.2529 9.73319   1
   6  -1 -16 63.9450 8.81243   2
   6   1  16 80.6892 11.6309   5
  -6   1 -16 47.7593 9.25065   1
   6   1  16 65.9958 8.97121   2
  -7  -1 -16 141.298 19.2679   1
   7  -1  16 162.897 20.9117   5
   7  -1  16 157.091 18.2527   2
   7   1  16 146.390 20.3703   5
  -7   1 -16 152.537 19.3628   1
   7   1  16 158.355 18.1642   2
   7  -1 -16 139.289 17.6931   2
  -7  -1  16 164.632 19.1626   1
   0  -2  16 157.425 20.4893   5
   0   2  16 151.508 19.4424   2
   0   2 -16 192.711 19.9348   2
   0  -2  16 133.790 19.2407   2
   0  -2 -16 167.465 19.6610   2
   1  -2  16 38.6719 8.09921   5
  -1   2  16 47.4461 8.45469   2
   1  -2  16 44.6416 7.78700   2
  -1  -2 -16 36.8821 7.28226   2
   1   2 -16 32.9918 6.89701   2
   1  -2 -16 55.6581 8.20473   2
  -1   2 -16 33.0054 6.88515   2
   1   2  16 48.3950 8.42799   5
   1   2  16 50.8094 7.95888   2
  -1  -2  16 33.1391 7.51042   5
   2  -2  16 93.9732 13.3351   2
   2   2 -16 101.194 13.1849   2
   2  -2  16 110.332 14.3923   5
   2   2  16 81.0291 12.8272   2
  -2  -2  16 116.639 14.1779   5
   2  -2 -16 89.0920 13.0528   2
   2   2  16 108.680 14.4879   5
   3   2 -16 1985.97 202.973   2
   3  -2  16 1593.89 202.669   2
  -3   2  16 1899.09 200.906   1
   3  -2  16 1766.36 209.863   5
  -3  -2  16 2019.41 209.742   5
  -3  -2  16 2198.74 201.262   1
   3   2  16 1620.32 209.858   5
   3   2  16 1883.64 202.999   2
  -4  -2 -16 530.823 49.6131   1
   4   2 -16 376.987 48.6378   2
   4  -2  16 473.359 51.3350   5
   4  -2  16 387.093 48.7942   2
  -4   2  16 483.655 48.8677   1
  -4   2 -16 405.479 48.9599   1
   4   2  16 379.970 48.7473   2
   4  -2 -16 474.534 48.9701   2
  -4  -2  16 471.347 48.8396   1
  -4  -2  16 435.769 50.6673   5
   4   2  16 413.921 51.1382   5
  -5  -2 -16 65.4149 10.7984   1
   5  -2  16 64.5109 9.69574   2
  -5   2  16 66.2817 10.0884   1
   5  -2  16 66.7241 11.3276   5
   5   2 -16 76.6510 10.1586   2
   5   2  16 73.0680 11.3366   5
   5   2  16 73.0421 9.88985   2
   5  -2 -16 60.1533 9.52507   2
  -5   2 -16 54.4032 10.1609   1
  -5  -2  16 47.8075 9.45289   1
  -6  -2 -16 303.869 29.2406   1
  -6   2  16 277.622 28.4649   1
   6  -2  16 216.020 29.7325   5
   6   2 -16 282.636 27.7780   2
   6  -2  16 193.450 27.5781   2
   6   2  16 216.919 27.7691   2
  -6  -2  16 225.198 28.0431   1
   6   2  16 278.368 30.4322   5
  -6   2 -16 218.772 28.4681   1
   6  -2 -16 232.369 27.6398   2
   7  -2  16 36.5201 8.11243   5
  -7  -2 -16 37.6753 7.50637   1
   7  -2  16 28.9422 5.64256   2
  -7   2  16 32.8284 6.54147   1
  -7  -2  16 28.3788 6.28641   1
  -7   2 -16 27.5032 6.90304   1
   7   2  16 17.7508 4.22899   2
   7  -2 -16 36.0080 5.46828   2
   7   2  16 29.7724 7.91925   5
   0  -3  16 0.16841 3.23956   5
   0   3 -16 4.31544 3.72503   2
   0   3  16 -4.8555 2.77491   2
   0  -3  16 -0.0478 3.25895   2
   0  -3 -16 2.09320 3.09597   2
  -1   3  16 262.784 29.5461   2
   1  -3  16 193.927 28.9908   2
   1   3 -16 261.045 29.2284   2
  -1  -3 -16 271.397 29.3755   2
   1  -3  16 267.798 30.5093   5
  -1  -3  16 284.478 30.6534   5
   1   3  16 264.653 29.4223   2
   1  -3 -16 210.076 28.9540   2
  -1   3 -16 246.373 29.3403   2
   2  -3  16 28.1729 6.46692   5
   2  -3  16 23.2014 5.68140   2
   2   3 -16 19.2003 5.14560   2
   2  -3 -16 20.1230 5.15883   2
   2   3  16 17.2226 5.06277   2
  -2  -3  16 15.5674 5.39715   5
   2   3  16 29.4285 6.45582   5
   3  -3  16 37.6467 8.27969   5
  -3  -3 -16 53.2838 8.86289   1
   3  -3  16 36.4755 7.59996   2
  -3   3  16 47.8130 7.94381   1
   3   3 -16 52.3501 8.26775   2
  -3  -3  16 42.3975 8.11969   1
   3   3  16 42.8817 7.89735   2
   3  -3 -16 43.7077 7.86414   2
  -3  -3  16 55.4624 8.84766   5
   3   3  16 51.8507 9.54204   5
  -4   3  16 2.36242 3.46383   1
   4   3 -16 6.00666 3.58871   2
   4  -3  16 9.45106 3.74310   5
  -4  -3 -16 2.68266 4.31824   1
   4  -3  16 3.80757 3.17941   2
   4   3  16 7.06123 4.70173   5
  -4   3 -16 3.89042 4.05017   1
   4  -3 -16 3.98268 3.09287   2
  -4  -3  16 7.79475 4.25264   1
   4   3  16 7.29440 3.96008   2
   5   3 -16 182.952 20.5774   2
  -5   3  16 156.613 20.4134   1
   5  -3  16 148.865 20.3541   2
  -5  -3 -16 194.657 21.5194   1
   5  -3  16 145.736 21.6978   5
   5   3  16 169.417 20.5417   2
   5  -3 -16 169.700 20.4451   2
  -5   3 -16 178.309 21.2280   1
  -5  -3  16 190.567 21.1276   1
   5   3  16 170.897 22.1600   5
   6  -3  16 14.8475 5.21796   5
   6  -3  16 15.1910 4.34277   2
   6   3 -16 11.4144 3.42036   2
  -6  -3 -16 14.7221 5.23107   1
  -6   3  16 7.96239 3.81596   1
  -6   3 -16 13.9702 5.27049   1
  -6  -3  16 8.48357 4.44477   1
   6   3  16 20.5763 5.92496   5
   6  -3 -16 6.60748 3.30190   2
   6   3  16 10.5289 3.79582   2
   7  -3  16 188.242 27.4016   5
  -7  -3 -16 211.938 26.3889   1
   7  -3  16 232.269 25.5435   2
  -7   3  16 189.706 25.7122   1
   7   3  16 167.739 26.7456   5
   7  -3 -16 228.563 25.0895   2
  -7  -3  16 258.841 26.6127   1
   7   3  16 263.353 25.3135   2
  -7   3 -16 220.189 26.2980   1
   0  -4  16 478.323 52.0606   5
   0   4 -16 395.565 50.0476   2
   0   4  16 459.134 50.4376   2
   0  -4  16 483.607 50.8348   2
   0  -4 -16 421.151 50.2233   2
  -1  -4 -16 182.699 21.9244   2
  -1   4  16 197.277 22.1465   2
   1   4 -16 199.281 21.9302   2
   1  -4  16 158.073 22.2904   5
   1  -4  16 205.687 22.5420   2
  -1  -4  16 184.057 22.5779   5
  -1   4 -16 143.536 21.6377   2
   1   4  16 178.552 21.9624   2
   1  -4 -16 170.021 21.6308   2
   2  -4  16 430.206 45.3102   2
   2   4 -16 379.375 44.6224   2
   2  -4  16 362.973 46.3410   5
   2   4  16 419.521 46.8446   5
  -2  -4  16 335.207 46.1125   5
   2  -4 -16 459.780 45.0482   2
  -3  -4 -16 17.7326 6.33894   1
   3  -4  16 26.5431 5.82501   2
   3  -4  16 18.3426 5.80968   5
   3   4 -16 21.7496 5.40180   2
  -3   4  16 20.4742 5.52722   1
  -3  -4  16 20.2100 5.65689   1
  -3  -4  16 22.3646 5.97623   5
   3  -4 -16 24.6645 5.72890   2
   3   4  16 19.2402 6.29351   5
   3   4  16 20.3923 5.46718   2
  -4  -4 -16 133.959 17.8816   1
   4   4 -16 126.359 17.2096   2
   4  -4  16 151.677 17.9473   2
  -4   4  16 137.468 17.4430   1
   4  -4  16 155.366 19.1793   5
  -4   4 -16 139.396 17.8002   1
   4   4  16 126.406 18.6523   5
   4  -4 -16 141.867 17.6450   2
  -4  -4  16 132.450 17.8453   1
   4   4  16 163.790 17.9727   2
   5  -4  16 6.50091 4.08577   2
   5   4 -16 7.88726 3.47661   2
  -5   4  16 4.43380 3.87824   1
  -5  -4 -16 7.37723 4.25425   1
   5  -4  16 4.13295 5.12038   5
  -5  -4  16 9.61762 4.54178   1
   5   4  16 9.63560 4.03856   2
   5  -4 -16 5.30714 3.78032   2
  -5   4 -16 6.23150 4.22894   1
   5   4  16 9.83819 4.47364   5
   6  -4  16 1096.44 108.546   5
   6  -4  16 785.437 103.019   2
  -6   4  16 1070.93 102.984   1
   6   4 -16 886.025 102.998   2
  -6  -4 -16 1036.73 103.418   1
  -6   4 -16 1040.65 103.145   1
   6  -4 -16 877.535 103.035   2
  -6  -4  16 873.693 103.066   1
   6   4  16 915.963 107.669   5
   0   5  16 2.26952 3.49418   2
   0  -5 -16 1.66099 3.47264   2
   0   5 -16 8.36940 4.15375   2
   0  -5  16 0.76294 3.11632   2
   0  -5  16 1.96804 3.42456   5
  -1   5  16 240.724 25.5932   2
   1   5 -16 213.072 24.9672   2
   1  -5  16 221.301 25.8355   5
  -1  -5  16 189.682 25.1944   5
  -1   5 -16 194.570 24.8724   2
   1  -5 -16 217.200 24.8422   2
   1   5  16 184.993 24.6318   2
   2  -5  16 8.86778 4.22488   5
   2  -5  16 8.31245 4.40396   2
   2   5 -16 5.19634 3.02635   2
   2  -5 -16 5.69089 3.96326   2
   2   5  16 7.97256 4.03947   2
   2   5  16 9.66430 4.70072   5
  -2  -5  16 5.05578 4.44009   5
   3  -5  16 389.243 43.2431   5
   3  -5  16 375.943 41.7157   2
   3   5 -16 311.086 40.8929   2
   3   5  16 412.295 41.6800   2
  -3  -5  16 385.871 41.3650   1
   3   5  16 338.392 43.0715   5
   3  -5 -16 342.716 41.2276   2
   4  -5  16 16.4092 4.55402   2
   4  -5  16 -1.3550 4.13175   5
  -4  -5 -16 8.26968 4.37523   1
   4   5 -16 7.89687 3.58904   2
  -4   5  16 14.5936 4.71153   1
  -4  -5  16 9.28364 4.52651   1
   4   5  16 4.87646 4.14437   5
  -4   5 -16 0.03031 3.78495   1
   4  -5 -16 13.4863 4.27490   2
   4   5  16 8.96026 4.01329   2
   5  -5  16 176.548 21.9827   5
   5  -5  16 159.370 20.2911   2
  -5  -5 -16 139.747 20.4073   1
   5   5 -16 155.832 19.9143   2
  -5   5  16 155.658 20.0455   1
   5   5  16 180.326 20.3090   2
   5  -5 -16 148.793 19.8971   2
   5   5  16 162.932 21.7898   5
  -5   5 -16 183.158 20.8253   1
  -5  -5  16 222.468 21.6900   1
  -6  -5 -16 158.018 19.4673   1
   6  -5  16 171.547 18.9577   2
  -6   5  16 150.161 18.7830   1
   6   5 -16 125.415 18.0928   2
   6  -5 -16 181.016 18.7552   2
  -6   5 -16 146.937 19.1718   1
   6   5  16 141.092 20.0371   5
  -6  -5  16 156.239 19.5844   1
   6   5  16 147.744 18.2635   2
   0   6  16 349.663 39.7479   2
   0  -6  16 329.038 40.7002   5
   0  -6  16 374.888 40.2445   2
   0   6 -16 307.681 39.5040   2
   0  -6 -16 374.981 39.7488   2
   1  -6  16 5.90292 3.41427   5
  -1   6  16 2.84847 3.78089   2
   1  -6  16 4.45229 3.54378   2
   1   6 -16 -0.9200 3.58872   2
  -1   6 -16 0.62005 3.00378   2
   1   6  16 3.40468 3.86842   2
  -1  -6  16 0.31754 3.14413   5
   1  -6 -16 5.36477 3.87633   2
   2  -6  16 470.981 51.9830   5
   2  -6  16 449.850 50.5137   2
   2   6 -16 515.719 50.4561   2
   2   6  16 437.992 52.0280   5
   2   6  16 404.300 49.9581   2
   2  -6 -16 394.210 49.8791   2
   3   6 -16 150.505 18.8982   2
   3  -6  16 154.133 20.1560   5
   3  -6  16 177.926 19.8883   2
   3   6  16 147.518 19.1894   2
   3  -6 -16 147.533 18.9716   2
   3   6  16 139.476 19.8258   5
   4  -6  16 31.8291 6.24010   2
  -4  -6 -16 14.6163 5.49827   1
   4   6 -16 27.8635 5.77756   2
   4  -6  16 28.9228 6.71279   5
  -4   6  16 19.6973 5.48468   1
  -4  -6  16 9.82551 4.91721   1
   4  -6 -16 27.0622 5.54686   2
   4   6  16 15.9982 6.08794   5
   4   6  16 22.5507 5.44117   2
  -5  -6 -16 3.84093 4.33768   1
   5   6 -16 6.32539 3.47277   2
   5  -6  16 1.81726 3.79903   2
  -5   6  16 5.85530 4.07317   1
   5   6  16 7.79978 5.11903   5
   5  -6 -16 9.25213 3.92407   2
  -5  -6  16 10.6664 5.02494   1
  -5   6 -16 8.11014 5.12665   1
   5   6  16 8.88415 3.82587   2
   0  -7 -16 2.61994 3.10479   2
   0  -7  16 -6.0733 3.31114   2
   0   7  16 0.12626 3.70056   2
   0   7 -16 -2.8842 2.84393   2
   0  -7  16 1.50545 3.59602   5
   1  -7  16 312.448 36.6927   5
   1   7 -16 295.916 35.5801   2
   1  -7  16 374.564 36.5034   2
  -1   7  16 359.746 36.8616   2
  -1   7 -16 327.663 35.7188   2
   1  -7 -16 261.884 35.2883   2
   1   7  16 254.462 35.2091   2
   2   7 -16 15.7065 4.73842   2
   2  -7  16 12.6679 5.60044   5
   2  -7  16 16.6218 5.22544   2
   2   7  16 9.28521 4.72060   2
   2  -7 -16 13.7558 4.80960   2
   3  -7  16 315.081 43.3899   2
   3   7 -16 422.026 43.5389   2
   3  -7  16 388.185 45.3074   5
   3  -7 -16 393.054 43.5439   2
   3   7  16 406.487 45.4492   5
   3   7  16 369.427 43.3993   2
   4   7 -16 2.66397 2.86180   2
  -4  -7 -16 2.84682 3.58110   1
   4  -7  16 3.68423 3.76265   2
   4   7  16 7.12358 4.25723   5
   4   7  16 5.19445 2.42719   2
   4  -7 -16 -1.0770 3.31016   2
  -4  -7  16 -0.7586 3.59227   1
  -5  -7 -16 31.5627 6.80638   1
  -5   7  16 19.2797 5.83371   1
   5   7 -16 32.6957 6.19281   2
   5  -7  16 33.1506 6.48498   2
  -5  -7  16 27.1727 6.64611   1
   5  -7 -16 27.8837 6.11449   2
   5   7  16 24.8875 5.73690   2
  -5   7 -16 27.0256 6.56119   1
   0   8  16 53.7486 8.86227   2
   0  -8 -16 36.8945 7.44148   2
   0  -8  16 27.7968 6.68809   2
   0   8 -16 35.0639 7.26960   2
   1   8 -16 254.324 29.5003   2
   1  -8  16 286.983 30.2727   2
   1  -8  16 216.527 29.9474   5
   1  -8 -16 237.274 29.4581   2
   1   8  16 235.468 29.4337   2
  -1   8 -16 276.000 29.7344   2
   2  -8  16 223.901 27.3273   5
   2   8 -16 193.304 25.8834   2
   2  -8  16 229.165 26.4874   2
   2   8  16 233.063 26.2951   2
   2  -8 -16 210.693 26.1314   2
   3   8 -16 82.0366 12.8328   2
   3  -8  16 98.7532 14.1067   2
   3  -8 -16 87.2198 13.1482   2
   3   8  16 105.950 15.1368   5
   4   8 -16 150.069 18.5802   2
   4  -8  16 130.477 18.7569   2
   4  -8 -16 147.508 18.6191   2
   4   8  16 161.441 18.6691   2
  -4  -8  16 157.415 19.1382   1
  -4  -8  16 147.645 19.1293   1
   0  -9  16 -2.6752 3.81097   2
   0   9 -16 0.88700 3.81604   2
   0  -9 -16 -1.1310 3.49601   2
   0   9  16 1.89600 3.49055   2
   1   9 -16 221.402 27.5542   2
   1  -9  16 203.167 27.7504   2
   1  -9 -16 231.310 27.9100   2
  -1   9 -16 280.410 28.3954   2
   1   9  16 240.591 28.0073   2
   2  -9  16 71.9948 11.3465   2
   2   9 -16 76.0498 11.2549   2
   2   9  16 62.6515 10.3985   2
   2  -9 -16 62.3062 10.4331   2
   0   0  17 4.08460 3.59399   5
   0   0  17 4.42761 3.41799   2
   0   0 -17 8.48784 3.85307   2
  -1   0  17 8.26873 4.90938   5
   1   0 -17 8.17997 4.25639   2
   1   0  17 6.80747 4.20599   5
  -1   0 -17 8.30366 3.89513   2
   1   0  17 7.43541 4.24423   2
   2   0  17 -1.2301 3.02369   2
   2   0 -17 -0.6477 3.08805   2
  -2   0  17 3.94636 3.57309   5
   2   0  17 1.58595 3.77917   5
  -3   0  17 574.871 59.8808   1
   3   0  17 539.034 60.1218   2
   3   0  17 550.333 62.6809   5
   3   0 -17 493.773 60.0594   2
   4   0  17 3.53124 4.02795   5
   4   0  17 -0.7647 3.03527   2
  -4   0 -17 -0.2747 3.37192   1
   4   0 -17 -1.5614 2.62646   2
  -4   0  17 -4.0168 3.05965   1
  -5   0  17 100.415 13.1329   1
  -5   0 -17 91.4830 13.7181   1
   5   0  17 94.2237 12.8167   2
   5   0 -17 96.8524 12.4516   2
   5   0  17 70.3887 13.6278   5
   6   0  17 -4.3642 4.08731   5
  -6   0  17 0.09672 3.50298   1
   6   0  17 2.04358 3.26826   2
  -6   0 -17 7.35320 4.19243   1
   6   0 -17 2.02729 2.99322   2
   0  -1  17 188.304 21.7277   2
   0  -1 -17 141.786 20.9528   2
   0   1  17 198.827 21.7985   2
   0   1  17 192.147 22.5772   5
   0  -1  17 145.334 22.1392   5
   0   1 -17 196.020 21.6190   2
  -1  -1 -17 2.07401 2.90332   2
   1  -1  17 7.53753 4.39108   5
  -1   1  17 1.72606 3.07518   5
   1  -1  17 7.45665 3.87849   2
   1   1 -17 5.51737 3.50202   2
   1   1  17 5.05089 3.50478   2
   1   1  17 4.47136 4.32950   5
   1  -1 -17 10.7806 4.19695   2
  -1  -1  17 1.16628 3.00928   5
  -1   1 -17 3.05434 3.24478   2
   2   1 -17 119.043 16.0107   2
   2  -1  17 128.233 16.9703   5
   2  -1  17 130.882 16.3260   2
   2   1  17 126.182 16.1053   2
  -2  -1  17 137.088 17.1299   5
   2  -1 -17 104.686 15.7705   2
   2   1  17 126.300 17.0913   5
   3   1 -17 89.8873 12.2735   2
   3  -1  17 80.4163 12.4272   2
   3  -1  17 65.6746 12.6903   5
   3   1  17 103.145 12.6366   2
   3  -1 -17 120.711 13.2243   2
   3   1  17 95.7349 14.1282   5
  -3  -1  17 74.2189 12.7821   5
  -3  -1  17 80.3984 12.3659   1
   4  -1  17 20.6477 5.28764   2
   4  -1  17 16.5733 5.65646   5
  -4  -1 -17 22.7610 6.30134   1
  -4   1  17 17.2542 5.32940   1
   4   1 -17 15.8125 4.61091   2
  -4   1 -17 18.3924 5.54630   1
   4   1  17 16.8645 4.86410   2
  -4  -1  17 29.8625 6.09734   1
   4  -1 -17 17.3203 4.69123   2
   4   1  17 18.9167 6.41591   5
   5  -1  17 31.3251 6.21625   2
   5  -1  17 26.9455 7.29917   5
  -5   1  17 28.7880 6.49504   1
  -5  -1 -17 25.3665 6.75977   1
   5   1 -17 23.3118 5.32650   2
   5   1  17 23.4833 7.04475   5
  -5   1 -17 19.6497 6.49886   1
   5  -1 -17 31.6161 5.94172   2
  -5  -1  17 27.7414 6.46297   1
   5   1  17 41.0476 6.64633   2
  -6  -1 -17 4.53833 4.42788   1
   6  -1  17 4.51489 2.94957   2
   6   1 -17 5.73015 3.03838   2
  -6   1  17 -0.1582 3.49644   1
   6  -1  17 8.06116 4.71295   5
   6   1  17 -1.6511 3.21471   2
  -6  -1  17 -1.1952 3.32671   1
   6   1  17 1.93765 4.45306   5
   6  -1 -17 -1.5591 3.06934   2
  -6   1 -17 3.29404 3.97596   1
   0  -2 -17 -2.1892 3.01203   2
   0  -2  17 -1.9963 3.70506   5
   0  -2  17 3.34017 3.64814   2
   0   2  17 -3.2882 3.57229   5
   0   2 -17 1.67862 3.09196   2
   0   2  17 -2.7477 2.93609   2
   1  -2  17 106.435 14.8033   5
  -1  -2 -17 95.6389 13.7927   2
   1  -2  17 101.715 14.0132   2
   1   2 -17 115.560 14.1189   2
   1   2  17 84.1950 14.7333   5
  -1   2 -17 103.553 14.0703   2
  -1  -2  17 103.130 15.4403   5
   1   2  17 123.411 14.2385   2
   1  -2 -17 90.9677 14.1292   2
   2  -2  17 5.17200 3.73721   2
   2  -2  17 2.89694 4.53100   5
   2   2 -17 7.68205 3.76519   2
   2  -2 -17 14.3149 4.24903   2
   2   2  17 0.02802 4.07197   5
   2   2  17 6.88108 3.83293   2
  -2  -2  17 5.23620 4.17406   5
   3  -2  17 120.330 14.6348   2
   3  -2  17 105.443 15.2997   5
   3   2 -17 113.119 14.2793   2
  -3  -2  17 86.9625 14.1881   5
  -3  -2  17 102.214 14.2679   1
   3   2  17 95.7807 15.9761   5
   3   2  17 92.2993 13.9971   2
   3  -2 -17 147.097 15.0180   2
   4   2 -17 92.6634 10.9455   2
  -4  -2 -17 84.3482 12.1193   1
   4  -2  17 68.0578 10.5221   2
  -4   2  17 56.1580 10.1580   1
   4  -2  17 70.2762 11.8378   5
  -4  -2  17 82.8945 11.3126   1
   4   2  17 55.1481 10.0386   2
  -4   2 -17 59.1586 10.7172   1
  -4  -2  17 77.7848 11.9339   5
   4  -2 -17 65.1497 10.3461   2
   4   2  17 67.8569 11.8473   5
   5  -2  17 20.2899 7.09954   5
   5   2 -17 23.4361 6.17309   2
  -5   2  17 36.2261 7.11994   1
   5  -2  17 38.8226 6.84230   2
  -5  -2 -17 41.1796 8.25558   1
  -5  -2  17 52.8373 8.26946   1
   5   2  17 42.5237 7.00504   2
  -5   2 -17 40.7356 8.21554   1
   5  -2 -17 31.5025 6.61827   2
   5   2  17 31.1872 7.61706   5
  -6   2  17 307.460 33.3332   1
   6  -2  17 298.925 33.0157   2
   6   2 -17 291.925 32.5599   2
  -6  -2 -17 287.301 33.6544   1
   6  -2  17 226.103 34.6299   5
  -6   2 -17 260.168 33.3531   1
   6   2  17 321.864 33.1703   2
  -6  -2  17 319.882 33.5769   1
   6   2  17 307.733 35.2321   5
   6  -2 -17 251.675 32.4593   2
   0   3 -17 16.1458 5.10970   2
   0  -3  17 10.1331 4.85306   5
   0  -3 -17 21.0795 5.36388   2
   0  -3  17 15.7138 4.85724   2
   0   3  17 13.2640 4.53142   2
   1  -3  17 50.6840 8.80848   2
   1   3 -17 45.6992 8.20352   2
   1  -3  17 55.6044 9.30256   5
  -1  -3 -17 43.7532 8.40852   2
  -1  -3  17 51.1200 9.12765   5
   1  -3 -17 43.2569 8.32412   2
   1   3  17 43.5611 9.01655   5
  -1   3 -17 40.2490 8.29440   2
   1   3  17 53.1070 8.55776   2
   2  -3  17 188.027 25.0446   5
   2   3 -17 235.533 24.3913   2
   2  -3  17 218.988 24.5135   2
   2   3  17 162.857 24.7631   5
   2  -3 -17 196.391 24.0733   2
  -2  -3  17 192.662 25.0047   5
   2   3  17 211.097 24.3493   2
   3   3 -17 2.92565 3.01573   2
   3  -3  17 -0.3312 4.15690   5
   3  -3  17 -0.7136 3.19660   2
   3  -3 -17 2.24886 3.58052   2
   3   3  17 1.58886 4.17412   5
  -3  -3  17 3.35717 3.94174   1
   3   3  17 4.28210 3.15982   2
  -3  -3  17 3.42544 3.58411   5
  -4  -3 -17 62.9855 11.3532   1
   4  -3  17 86.0720 11.6496   2
   4  -3  17 98.1089 12.2890   5
   4   3 -17 70.6695 10.9438   2
  -4   3  17 94.3052 12.1840   1
   4   3  17 91.3235 11.7197   2
   4  -3 -17 66.7317 10.9577   2
  -4  -3  17 57.4457 10.9628   1
   4   3  17 56.3902 11.6881   5
   5   3 -17 3.61162 3.33760   2
   5  -3  17 2.26007 3.09584   2
  -5  -3 -17 2.71939 3.53559   1
   5  -3  17 1.63205 3.92315   5
  -5   3  17 4.51072 4.05621   1
  -5  -3  17 -3.0398 3.63618   1
   5  -3 -17 5.64623 3.41174   2
   5   3  17 2.00507 4.41809   5
  -5   3 -17 -2.3870 3.51430   1
   5   3  17 3.14663 2.85619   2
   6   3 -17 304.054 34.1608   2
   6  -3  17 341.588 34.7112   2
   6  -3 -17 267.671 34.0544   2
   6   3  17 283.492 36.4562   5
   6   3  17 310.904 34.4394   2
   0  -4  17 2.76487 4.04934   2
   0   4 -17 -0.2126 3.06739   2
   0  -4 -17 -4.3166 3.35303   2
   0  -4  17 3.88633 3.89842   5
   0   4  17 2.30767 3.11991   2
   1  -4  17 112.872 17.6787   5
   1   4 -17 139.763 17.3568   2
   1  -4  17 153.065 17.8873   2
   1   4  17 148.201 17.6294   2
  -1  -4  17 124.353 17.5890   5
   1  -4 -17 164.931 17.8268   2
   1   4  17 94.9963 17.1498   5
  -1   4 -17 161.756 17.9110   2
   2   4 -17 18.1500 5.15547   2
   2  -4  17 20.4768 5.26759   2
   2  -4  17 27.7552 6.98372   5
   2   4  17 25.9950 5.82669   2
   2   4  17 18.3280 5.95016   5
  -2  -4  17 28.1301 6.60017   5
   2  -4 -17 35.4212 6.45724   2
   3  -4  17 -0.9846 3.37051   2
   3   4 -17 7.87456 3.83431   2
   3  -4  17 5.32967 3.57088   5
   3   4  17 0.65962 3.61496   2
   3   4  17 2.65571 4.39737   5
   3  -4 -17 -0.8760 3.11103   2
   4  -4  17 10.0249 4.63623   2
  -4   4  17 10.3819 4.46506   1
   4   4 -17 4.66386 3.79335   2
  -4  -4 -17 14.5086 5.18590   1
   4  -4  17 10.7650 5.24055   5
   4  -4 -17 11.8394 4.54395   2
  -4  -4  17 12.8747 4.91790   1
   4   4  17 14.8736 4.62643   2
   4   4  17 9.43638 5.45692   5
   5   4 -17 96.4994 11.8275   2
   5  -4  17 96.9491 14.1780   5
  -5   4  17 76.5036 11.9387   1
   5  -4  17 73.2269 11.6190   2
  -5  -4 -17 93.6412 12.9698   1
  -5  -4  17 64.3277 11.9394   1
  -5   4 -17 100.851 13.0068   1
   5   4  17 60.2884 11.1978   2
   5  -4 -17 77.0284 11.5168   2
   5   4  17 86.1443 13.6360   5
   0  -5  17 313.578 38.1031   2
   0   5  17 261.554 37.3367   2
   0   5 -17 363.719 38.2230   2
   0  -5 -17 314.504 37.6982   2
   0  -5  17 407.493 39.5809   5
   1  -5  17 39.3709 7.88449   5
   1  -5  17 31.3418 7.27292   2
   1   5 -17 37.8933 7.31209   2
   1   5  17 37.7055 7.70629   2
   1  -5 -17 38.7579 7.28612   2
  -1   5 -17 22.8454 6.81552   2
  -1  -5  17 44.8705 7.83509   5
   2  -5  17 20.6659 5.69461   2
   2  -5  17 17.5440 5.01277   5
   2   5 -17 25.2222 5.97481   2
   2   5  17 26.0420 7.13460   5
  -2  -5  17 21.4832 6.07624   5
   2  -5 -17 27.0985 6.09615   2
   2   5  17 21.8714 5.74325   2
   3  -5  17 106.879 18.2031   2
   3  -5  17 150.320 19.8459   5
   3   5 -17 169.282 18.9971   2
   3  -5 -17 147.010 18.7656   2
   3   5  17 164.176 20.3339   5
   3   5  17 167.887 19.0855   2
   4   5 -17 166.538 21.7688   2
  -4  -5 -17 168.039 23.0871   1
   4  -5  17 186.035 23.6416   5
   4  -5  17 179.165 22.1640   2
   4  -5 -17 190.377 22.1618   2
   4   5  17 187.604 22.3077   2
  -4  -5  17 197.796 22.7248   1
   4   5  17 173.951 23.5746   5
   5  -5  17 53.4181 9.84290   5
  -5  -5 -17 33.7428 8.02036   1
   5  -5  17 40.9503 7.33775   2
  -5   5  17 42.8905 8.00364   1
   5   5 -17 34.3441 7.03215   2
  -5   5 -17 73.3934 9.76889   1
   5  -5 -17 36.1105 7.18283   2
   5   5  17 47.9358 7.78393   2
   5   5  17 31.2671 8.14414   5
  -5  -5  17 43.7490 8.48722   1
   0  -6  17 2.08980 3.37085   2
   0  -6 -17 -1.8338 3.25727   2
   0   6 -17 5.07685 4.27422   2
   0  -6  17 -0.6742 4.05771   5
   0   6  17 0.58692 3.94372   2
   1  -6  17 48.3992 8.63530   2
   1   6 -17 36.6394 7.70553   2
   1  -6  17 43.6939 8.54745   5
   1   6  17 38.9899 7.87177   2
  -1  -6  17 39.9762 8.02082   5
   1  -6 -17 39.2479 7.79033   2
  -1   6 -17 43.4633 8.16634   2
   2   6 -17 8.95760 3.46191   2
   2  -6  17 1.67456 3.55978   5
   2  -6  17 0.77533 3.14178   2
   2   6  17 4.89036 3.74320   2
   2   6  17 2.35133 4.44003   5
   2  -6 -17 0.79268 3.23835   2
   3   6 -17 48.9283 9.07720   2
   3  -6  17 61.4292 10.1173   2
   3  -6  17 78.4164 11.7975   5
   3  -6 -17 59.9571 9.82835   2
   3   6  17 47.9699 10.0314   5
   3   6  17 64.8309 10.2309   2
   4  -6  17 8.07190 4.65241   5
   4  -6  17 -1.5718 3.27177   2
   4   6 -17 -2.4091 2.74830   2
   4   6  17 -4.9100 2.89783   2
   4  -6 -17 -1.5094 2.87623   2
  -4  -6  17 5.19103 4.25053   1
   4   6  17 5.80416 4.44504   5
   0   7  17 575.841 55.1731   2
   0  -7  17 445.623 54.7267   2
   0   7 -17 495.597 54.7063   2
   0  -7 -17 405.984 54.1715   2
   0  -7  17 508.632 56.2526   5
   1   7 -17 9.21044 4.69773   2
   1  -7  17 4.75658 4.16422   2
   1  -7  17 10.6422 4.99667   5
  -1   7 -17 11.1380 5.10041   2
   1   7  17 17.6128 4.40502   2
   1  -7 -17 10.1895 4.73056   2
   2   7 -17 3.85990 4.12014   2
   2  -7  17 3.09416 4.89566   5
   2  -7  17 8.23146 4.20430   2
   2   7  17 -0.1112 3.82756   2
   2   7  17 7.08178 4.80774   5
   2  -7 -17 6.61158 4.18663   2
   3  -7  17 142.276 19.0295   5
   3   7 -17 140.117 17.9799   2
   3  -7  17 156.850 18.7653   2
   3   7  17 128.330 18.6550   5
   3  -7 -17 137.037 17.9720   2
   3   7  17 140.649 18.0765   2
   0  -8  17 -0.4427 4.03998   2
   0   8  17 0.22639 4.07197   2
   0  -8 -17 -4.4501 3.39050   2
   0   8 -17 -6.3991 2.90095   2
   1  -8  17 138.946 20.1138   2
   1   8 -17 147.538 20.2373   2
   1  -8  17 167.516 20.7272   5
  -1   8 -17 165.301 20.3935   2
   1   8  17 158.938 20.2766   2
   1  -8 -17 187.342 20.7218   2
   0   0  18 6.05179 4.43449   2
   0   0  18 9.90645 4.77817   5
   0   0 -18 7.56150 4.44185   2
   1   0  18 0.27197 3.73472   5
  -1   0 -18 -2.9524 3.31435   2
   1   0  18 -2.8304 3.28459   2
   1   0 -18 4.80606 3.66479   2
  -1   0  18 -1.7783 3.48437   5
   2   0 -18 24.9570 6.37664   2
   2   0  18 26.4460 6.10620   2
  -2   0  18 34.8739 7.66272   5
   2   0  18 35.9282 7.67942   5
   3   0  18 3.17676 3.51551   2
  -3   0  18 6.80624 4.26046   5
   3   0 -18 1.83843 3.60365   2
   3   0  18 -0.7945 3.89750   5
   4   0  18 13.2579 5.46105   5
   4   0 -18 17.5783 4.47589   2
   4   0  18 17.9734 5.23839   2
  -4   0  18 16.6051 5.08756   1
   5   0 -18 1.45812 3.08552   2
   5   0  18 3.95959 3.49938   2
   5   0  18 -5.0088 3.93690   5
   0  -1  18 2.33075 3.37411   5
   0   1  18 -2.2907 3.45204   2
   0  -1 -18 -0.3064 3.21485   2
   0  -1  18 -0.1841 3.91334   2
   0   1  18 -0.7216 3.35485   5
   0   1 -18 1.70771 3.67198   2
   1  -1  18 7.28909 4.66611   2
   1  -1  18 3.23442 3.85999   5
  -1  -1 -18 1.40942 4.19123   2
   1   1 -18 1.69189 3.26487   2
  -1   1  18 -0.7141 4.34220   5
   1   1  18 8.37809 4.26000   2
   1   1  18 0.31339 3.91800   5
   1  -1 -18 7.29625 4.03313   2
  -1   1 -18 3.39868 4.24552   2
  -1  -1  18 8.88690 4.40412   5
   2   1 -18 86.7226 13.7499   2
   2  -1  18 110.851 14.7634   5
  -2   1  18 80.1323 14.3246   5
   2  -1  18 96.4726 13.6208   2
  -2  -1  18 109.354 14.4800   5
   2   1  18 97.9581 15.5022   5
   2  -1 -18 110.880 14.1720   2
   2   1  18 97.9264 13.7188   2
   3  -1  18 223.943 27.8312   2
   3   1 -18 265.739 28.3607   2
   3  -1  18 207.459 29.0038   5
  -3  -1  18 254.153 29.2261   5
   3  -1 -18 227.228 27.9449   2
   3   1  18 247.329 29.5163   5
   3   1  18 226.275 27.8732   2
  -4   1  18 89.4432 13.6761   1
   4   1 -18 100.019 13.5852   2
   4  -1  18 103.965 13.5654   2
   4  -1  18 84.1559 14.6670   5
   4   1  18 82.5392 14.4742   5
  -4  -1  18 118.225 14.0648   1
   4   1  18 105.888 13.7899   2
   4  -1 -18 111.373 13.6557   2
  -4  -1  18 78.1873 14.0444   5
   0   2  18 20.8095 5.65869   2
   0  -2 -18 5.18142 4.54412   2
   0   2 -18 9.15313 4.92931   2
   0  -2  18 15.6956 5.34447   5
   0  -2  18 22.0319 5.58835   2
   0   2  18 13.7187 5.77570   5
   1  -2  18 31.2859 7.19668   5
  -1   2  18 31.9104 7.56257   5
   1   2 -18 41.6014 7.65620   2
   1  -2  18 34.9941 6.97098   2
  -1  -2  18 28.6836 7.24333   5
   1   2  18 29.2258 6.59795   2
   1  -2 -18 42.2133 7.91009   2
  -1   2 -18 34.4807 7.04650   2
   1   2  18 26.4135 7.16343   5
   2   2 -18 13.3036 4.84475   2
   2  -2  18 7.41781 4.10388   5
   2  -2  18 2.37234 3.29385   2
   2   2  18 13.9175 4.76612   2
   2   2  18 7.65272 4.61785   5
   2  -2 -18 8.44717 4.75410   2
  -2  -2  18 8.53931 4.78257   5
   3   2 -18 39.7918 8.01397   2
   3  -2  18 52.2102 8.59770   2
   3  -2  18 58.0370 9.81125   5
   3  -2 -18 33.3893 7.56332   2
   3   2  18 47.6252 9.30594   5
  -3  -2  18 39.9515 8.26694   5
   3   2  18 60.2521 9.05717   2
   4  -2  18 150.171 20.5683   2
   4  -2  18 166.942 22.2264   5
  -4   2  18 175.971 21.4976   1
   4   2 -18 199.083 21.3390   2
  -4  -2  18 165.624 21.5552   5
  -4  -2  18 188.652 21.5071   1
   4  -2 -18 189.467 20.9321   2
   4   2  18 137.463 20.4078   2
   4   2  18 166.580 22.3445   5
   0  -3  18 2.62385 3.76082   5
   0  -3 -18 -0.9167 3.36797   2
   0   3  18 3.14479 3.98646   5
   0   3  18 -2.1640 3.61215   2
   0   3 -18 0.22035 3.27853   2
   0  -3  18 2.26630 3.91336   2
   1  -3  18 389.969 47.0175   2
   1  -3  18 336.458 48.1826   5
   1   3 -18 455.826 47.2261   2
  -1  -3  18 436.586 48.8986   5
   1  -3 -18 469.372 47.4907   2
   1   3  18 450.889 47.3800   2
  -1   3 -18 450.194 47.2543   2
   1   3  18 340.424 48.3636   5
   2  -3  18 43.9849 7.76510   2
   2   3 -18 29.5272 6.91770   2
   2  -3  18 37.5656 7.96931   5
  -2  -3  18 29.3997 7.03449   5
   2  -3 -18 28.6188 6.67941   2
   2   3  18 48.3690 8.21627   2
   2   3  18 38.6517 8.26624   5
   3  -3  18 13.6531 4.16497   2
   3  -3  18 8.55670 4.70119   5
   3   3 -18 8.93680 4.48655   2
  -3  -3  18 6.07317 4.58583   5
   3   3  18 10.2999 4.23314   2
   3   3  18 3.06248 4.05489   5
   3  -3 -18 9.73143 4.24393   2
   4   3 -18 17.9411 5.70297   2
   4  -3  18 30.7325 6.82642   2
   4  -3  18 31.4277 7.57499   5
   4   3  18 30.0194 6.23327   2
   4   3  18 34.2016 7.92686   5
   4  -3 -18 37.0194 6.85415   2
  -4  -3  18 39.9444 7.96038   1
   0   4 -18 140.111 18.7478   2
   0  -4  18 147.009 19.3699   5
   0  -4  18 163.448 19.5508   2
   0   4  18 144.012 19.1136   2
   0  -4 -18 148.950 19.0404   2
   1  -4  18 92.3102 14.2467   2
   1   4 -18 109.862 13.8821   2
   1  -4  18 90.8314 14.5482   5
  -1  -4  18 103.984 14.9291   5
   1  -4 -18 79.8701 13.4852   2
   1   4  18 104.344 15.2811   5
  -1   4 -18 94.8982 14.1907   2
   1   4  18 107.048 13.9375   2
   2  -4  18 77.2318 11.0924   5
   2  -4  18 38.3746 8.72547   2
   2   4 -18 65.0855 9.83153   2
  -2  -4  18 67.2389 10.6003   5
   2   4  18 43.0891 9.48146   5
   2  -4 -18 66.5456 9.97858   2
   2   4  18 51.0752 9.47874   2
   3   4 -18 5.58967 3.90431   2
   3  -4  18 0.67620 3.64348   2
   3  -4  18 3.56000 4.34569   5
   3  -4 -18 7.91150 3.41257   2
   3   4  18 8.00267 3.95827   2
   3   4  18 0.44276 4.20575   5
   0  -5  18 -3.3602 3.85679   2
   0  -5 -18 4.07069 3.71335   2
   0   5 -18 1.94280 3.31963   2
   0   5  18 -0.7849 3.16053   2
   0  -5  18 2.54159 3.72792   5
   1  -5  18 -1.2158 4.12572   5
   1   5 -18 5.75394 4.38515   2
   1   5  18 0.55305 3.84529   2
   1   5  18 4.92973 3.88891   5
  -1  -5  18 3.50863 4.09058   5
   1  -5 -18 0.93223 3.73291   2
  -1   5 -18 5.64384 4.19887   2
   2  -5  18 357.360 39.6897   2
   2   5 -18 264.897 38.8130   2
   2  -5  18 409.880 41.3194   5
   2   5  18 364.372 39.6106   2
   2   5  18 341.931 41.1033   5
   2  -5 -18 337.341 39.3630   2
   3  -5  18 3.30035 3.64903   5
   3  -5  18 3.09478 3.73284   2
   3   5 -18 -1.5440 3.09345   2
   3   5  18 2.06257 3.38326   2
   3  -5 -18 2.18447 3.96136   2
   3   5  18 2.48774 4.62891   5
   0  -6  18 97.8221 14.5686   5
   0  -6 -18 89.4579 13.7786   2
   0   6 -18 106.551 14.1036   2
   0  -6  18 85.2773 14.2324   2
   0   6  18 109.310 14.1981   2
   1  -6  18 -1.6575 3.46972   2
   1   6 -18 2.37929 4.08896   2
   1  -6  18 4.09877 4.44888   5
  -1  -6  18 3.46517 4.53732   5
  -1   6 -18 -3.5264 4.15730   2
   1   6  18 1.67652 3.78574   2
   1   6  18 0.60113 4.10999   5
   1  -6 -18 6.22074 3.43918   2
   0   0 -19 0.94550 3.22353   2
   0   0  19 1.42314 4.00913   5
   0   0  19 -2.4088 3.48566   2
  -1   0  19 73.5616 12.3784   5
   1   0  19 74.1217 12.7307   5
   1   0  19 85.1644 12.1685   2
   1   0 -19 72.6022 11.6013   2
  -1   0 -19 67.1833 12.3747   2
   2   0  19 3.71203 4.30860   5
   2   0  19 -2.7246 3.61789   2
   2   0 -19 -1.6261 3.10426   2
  -2   0  19 0.50408 3.60336   5
   0   1  19 3.95006 4.66623   5
   0   1 -19 11.9090 4.33842   2
   0   1  19 6.16455 3.76588   2
   0  -1  19 8.63979 4.85138   2
   0  -1 -19 10.8580 4.84304   2
   0  -1  19 17.2091 5.96489   5
   1   1 -19 1.98816 3.30092   2
   1  -1  19 5.71132 4.19084   2
  -1   1  19 -0.3386 3.29051   5
   1  -1  19 -1.1081 3.92758   5
   1  -1 -19 -1.2400 3.60194   2
   1   1  19 4.00291 3.99568   5
  -1  -1  19 2.84492 4.09112   5
  -1   1 -19 4.89348 4.16196   2
   1   1  19 -1.4455 3.54837   2
  -2   1  19 4.80203 5.25700   5
   2   1 -19 1.15284 3.40306   2
   2  -1  19 0.79529 3.60837   2
   2  -1  19 -2.0893 4.19723   5
   2  -1 -19 3.36843 3.47421   2
   2   1  19 -0.7464 3.65399   5
  -2  -1  19 -2.5307 3.69986   5
   2   1  19 4.94259 3.50845   2
   0   2  19 -5.9099 3.49346   5
   0  -2  19 3.08739 3.99534   5
   0  -2 -19 2.10476 3.66420   2
   0  -2  19 -3.4722 2.96692   2
   0   2  19 3.34133 4.10041   2
   0   2 -19 5.19617 3.86761   2
   1  -2  19 104.387 14.9084   2
   1  -2  19 118.862 16.2155   5
   1   2 -19 102.021 14.9234   2
  -1   2  19 108.363 16.4561   5
  -1  -2  19 99.7946 16.1643   5
  -1   2 -19 125.350 15.8553   2
   1  -2 -19 110.355 15.0890   2
   1   2  19 129.176 15.6798   2
   1   2  19 95.3865 16.1990   5
  -2   2  19 298.396 35.9714   5
   2  -2  19 289.073 35.8006   5
   2   2 -19 266.865 34.3433   2
   2  -2  19 327.267 34.9357   2
   2   2  19 299.062 36.3304   5
   2   2  19 323.596 34.9272   2
   2  -2 -19 275.477 34.4336   2
  -2  -2  19 288.097 35.8110   5
   0   3 -19 145.091 19.0800   2
   0  -3  19 175.899 20.2665   5
   0  -3 -19 135.013 19.0783   2
   0   3  19 119.016 18.5781   2
   0   3  19 164.132 20.3365   5
   0  -3  19 163.476 19.6248   2
   1  -3  19 72.0316 10.8545   2
   1   3 -19 54.5512 9.81425   2
   1  -3  19 60.5244 10.7721   5
  -1   3  19 58.5572 10.6325   5
  -1  -3  19 50.8492 10.1229   5
  -1   3 -19 68.9055 10.6899   2
   1   3  19 56.8367 10.0245   2
   1  -3 -19 63.9468 10.1990   2
   1   3  19 45.5806 9.70230   5
   0   0   0    0.00    0.00   0
;
_shelx_hkl_checksum              6216
loop_
_space_group_symop_operation_xyz
'x, y, z'
'-x, -y, z'
'-x+1/2, y+1/2, -z+1/2'
'x+1/2, -y+1/2, -z+1/2'
'-x, -y, -z'
'x, y, -z'
'x-1/2, -y-1/2, z-1/2'
'-x-1/2, y-1/2, z-1/2'
loop_
_atom_site_label
_atom_site_type_symbol
_atom_site_fract_x
_atom_site_fract_y
_atom_site_fract_z
_atom_site_U_iso_or_equiv
_atom_site_adp_type
_atom_site_occupancy
_atom_site_site_symmetry_order
_atom_site_calc_flag
_atom_site_refinement_flags_posn
_atom_site_refinement_flags_adp
_atom_site_refinement_flags_occupancy
_atom_site_disorder_assembly
_atom_site_disorder_group
U1 U 0.0000 0.0000 0.24450(2) 0.00408(8) Uani 1 2 d S T P . .
Ba1 Ba 0.39142(3) 0.16139(3) 0.24489(2) 0.00597(9) Uani 1 1 d . . . . .
Ba2 Ba 0.29129(4) 0.41327(4) 0.0000 0.00871(11) Uani 1 2 d S T P . .
Ba3 Ba 0.73709(4) 0.15771(3) 0.0000 0.00609(10) Uani 1 2 d S T P . .
Pd1 Pd 0.0000 0.0000 0.0000 0.00472(15) Uani 1 4 d S T P . .
Se1 Se 0.07833(5) 0.14995(4) 0.11112(4) 0.00569(11) Uani 1 1 d . . . . .
Se2 Se 0.08648(5) 0.14933(4) 0.37447(4) 0.00671(12) Uani 1 1 d . . . . .
Se3 Se 0.22970(5) 0.40797(4) 0.25066(3) 0.00571(12) Uani 1 1 d . . . . .
Se4 Se 0.04188(6) 0.59215(6) 0.0000 0.01028(15) Uani 1 2 d S T P . .
Se5 Se 0.41555(6) 0.07335(6) 0.0000 0.00775(15) Uani 1 2 d S T P . .
loop_
_atom_site_aniso_label
_atom_site_aniso_U_11
_atom_site_aniso_U_22
_atom_site_aniso_U_33
_atom_site_aniso_U_23
_atom_site_aniso_U_13
_atom_site_aniso_U_12
U1 0.00430(12) 0.00392(15) 0.00400(14) 0.000 0.000 0.00016(8)
Ba1 0.00499(14) 0.00497(17) 0.00794(16) -0.00025(10) 0.00056(8) -0.00020(9)
Ba2 0.00643(16) 0.0136(2) 0.0061(2) 0.000 0.000 0.00289(13)
Ba3 0.00511(16) 0.0063(2) 0.0069(2) 0.000 0.000 0.00084(12)
Pd1 0.0050(3) 0.0046(3) 0.0046(3) 0.000 0.000 0.0003(2)
Se1 0.00690(19) 0.0051(2) 0.0050(2) 0.00015(18) 0.00025(16) -0.00027(14)
Se2 0.0069(2) 0.0066(3) 0.0066(3) -0.00070(18) -0.00031(16) -0.00062(15)
Se3 0.00461(19) 0.0050(3) 0.0076(3) 0.00002(17) -0.00002(14) -0.00046(16)
Se4 0.0083(3) 0.0069(3) 0.0156(4) 0.000 0.000 -0.0008(2)
Se5 0.0062(3) 0.0069(3) 0.0101(3) 0.000 0.000 0.0004(2)
loop_
_atom_type_symbol
_atom_type_description
_atom_type_scat_dispersion_real
_atom_type_scat_dispersion_imag
_atom_type_scat_source
Se Se -0.0929 2.2259 'International Tables Vol C Tables 4.2.6.8 and 6.1.1.4'
Pd Pd -0.9988 1.0072 'International Tables Vol C Tables 4.2.6.8 and 6.1.1.4'
Ba Ba -0.3244 2.2819 'International Tables Vol C Tables 4.2.6.8 and 6.1.1.4'
U U -9.6767 9.6646 'International Tables Vol C Tables 4.2.6.8 and 6.1.1.4'
loop_
_geom_angle_atom_site_label_1
_geom_angle_atom_site_label_2
_geom_angle_atom_site_label_3
_geom_angle
_geom_angle_site_symmetry_1
_geom_angle_site_symmetry_3
Se2 U1 Se2 96.41(3) 2 .
Se2 U1 Se1 84.68(2) 2 2
Se2 U1 Se1 178.093(13) . 2
Se2 U1 Se1 178.093(13) 2 .
Se2 U1 Se1 84.68(2) . .
Se1 U1 Se1 94.26(3) 2 .
Se2 U1 Se3 88.740(17) 2 4_455
Se2 U1 Se3 89.444(17) . 4_455
Se1 U1 Se3 92.141(17) 2 4_455
Se1 U1 Se3 89.712(17) . 4_455
Se2 U1 Se3 89.444(17) 2 3_545
Se2 U1 Se3 88.740(17) . 3_545
Se1 U1 Se3 89.713(17) 2 3_545
Se1 U1 Se3 92.142(17) . 3_545
Se3 U1 Se3 177.28(2) 4_455 3_545
Se2 U1 Pd1 131.793(14) 2 .
Se2 U1 Pd1 131.792(13) . .
Se1 U1 Pd1 47.131(13) 2 .
Se1 U1 Pd1 47.131(13) . .
Se3 U1 Pd1 91.362(10) 4_455 .
Se3 U1 Pd1 91.362(10) 3_545 .
Se2 U1 Ba2 53.856(15) 2 3_545
Se2 U1 Ba2 57.744(17) . 3_545
Se1 U1 Ba2 122.093(16) 2 3_545
Se1 U1 Ba2 127.999(14) . 3_545
Se3 U1 Ba2 121.077(14) 4_455 3_545
Se3 U1 Ba2 56.202(12) 3_545 3_545
Pd1 U1 Ba2 147.451(8) . 3_545
Se2 U1 Ba2 57.743(16) 2 7_566
Se2 U1 Ba2 53.857(15) . 7_566
Se1 U1 Ba2 127.998(14) 2 7_566
Se1 U1 Ba2 122.093(16) . 7_566
Se3 U1 Ba2 56.202(12) 4_455 7_566
Se3 U1 Ba2 121.077(14) 3_545 7_566
Pd1 U1 Ba2 147.451(9) . 7_566
Ba2 U1 Ba2 65.098(17) 3_545 7_566
Se2 U1 Ba1 126.024(13) 2 .
Se2 U1 Ba1 53.855(12) . .
Se1 U1 Ba1 124.246(13) 2 .
Se1 U1 Ba1 55.874(12) . .
Se3 U1 Ba1 128.274(17) 4_455 .
Se3 U1 Ba1 51.722(17) 3_545 .
Pd1 U1 Ba1 90.073(5) . .
Ba2 U1 Ba1 72.517(10) 3_545 .
Ba2 U1 Ba1 107.354(11) 7_566 .
Se2 U1 Ba1 53.856(12) 2 2
Se2 U1 Ba1 126.025(13) . 2
Se1 U1 Ba1 55.873(11) 2 2
Se1 U1 Ba1 124.246(12) . 2
Se3 U1 Ba1 51.722(17) 4_455 2
Se3 U1 Ba1 128.273(17) 3_545 2
Pd1 U1 Ba1 90.072(5) . 2
Ba2 U1 Ba1 107.355(10) 3_545 2
Ba2 U1 Ba1 72.518(11) 7_566 2
Ba1 U1 Ba1 179.855(10) . 2
Se2 U1 Ba1 124.279(15) 2 4_455
Se2 U1 Ba1 52.495(14) . 4_455
Se1 U1 Ba1 128.008(14) 2 4_455
Se1 U1 Ba1 55.303(14) . 4_455
Se3 U1 Ba1 52.310(11) 4_455 4_455
Se3 U1 Ba1 127.572(11) 3_545 4_455
Pd1 U1 Ba1 91.960(5) . 4_455
Ba2 U1 Ba1 109.391(9) 3_545 4_455
Ba2 U1 Ba1 67.065(8) 7_566 4_455
Ba1 U1 Ba1 75.964(12) . 4_455
Ba1 U1 Ba1 104.031(11) 2 4_455
Se3 Ba1 Se3 95.498(17) 3_545 4
Se3 Ba1 Se3 132.658(14) 3_545 .
Se3 Ba1 Se3 131.708(14) 4 .
Se3 Ba1 Se2 147.051(16) 3_545 4
Se3 Ba1 Se2 69.877(16) 4 4
Se3 Ba1 Se2 69.506(18) . 4
Se3 Ba1 Se2 69.772(14) 3_545 .
Se3 Ba1 Se2 143.233(16) 4 .
Se3 Ba1 Se2 68.966(15) . .
Se2 Ba1 Se2 138.434(13) 4 .
Se3 Ba1 Se1 71.172(13) 3_545 .
Se3 Ba1 Se1 145.104(16) 4 .
Se3 Ba1 Se1 70.325(14) . .
Se2 Ba1 Se1 103.610(18) 4 .
Se2 Ba1 Se1 63.43(2) . .
Se3 Ba1 Se1 141.158(16) 3_545 4
Se3 Ba1 Se1 70.764(15) 4 4
Se3 Ba1 Se1 68.337(17) . 4
Se2 Ba1 Se1 63.294(19) 4 4
Se2 Ba1 Se1 99.266(17) . 4
Se1 Ba1 Se1 138.615(13) . 4
Se3 Ba1 Se5 75.843(15) 3_545 .
Se3 Ba1 Se5 82.969(14) 4 .
Se3 Ba1 Se5 108.788(16) . .
Se2 Ba1 Se5 73.208(18) 4 .
Se2 Ba1 Se5 122.710(16) . .
Se1 Ba1 Se5 62.732(15) . .
Se1 Ba1 Se5 134.569(17) 4 .
Se3 Ba1 Se4 79.965(15) 3_545 3_545
Se3 Ba1 Se4 75.915(14) 4 3_545
Se3 Ba1 Se4 105.151(15) . 3_545
Se2 Ba1 Se4 121.873(17) 4 3_545
Se2 Ba1 Se4 68.546(17) . 3_545
Se1 Ba1 Se4 129.913(16) . 3_545
Se1 Ba1 Se4 61.657(17) 4 3_545
Se5 Ba1 Se4 146.01(2) . 3_545
Se3 Ba1 U1 41.676(9) 3_545 .
Se3 Ba1 U1 137.175(17) 4 .
Se3 Ba1 U1 91.054(16) . .
Se2 Ba1 U1 143.334(12) 4 .
Se2 Ba1 U1 39.612(12) . .
Se1 Ba1 U1 39.727(12) . .
Se1 Ba1 U1 138.841(12) 4 .
Se5 Ba1 U1 85.021(13) . .
Se4 Ba1 U1 92.584(13) 3_545 .
Se3 Ba1 U1 172.950(12) 3_545 3
Se3 Ba1 U1 90.814(14) 4 3
Se3 Ba1 U1 40.900(14) . 3
Se2 Ba1 U1 38.951(11) 4 3
Se2 Ba1 U1 103.247(11) . 3
Se1 Ba1 U1 105.163(11) . 3
Se1 Ba1 U1 39.079(11) 4 3
Se5 Ba1 U1 108.142(14) . 3
Se4 Ba1 U1 98.602(14) 3_545 3
U1 Ba1 U1 131.939(8) . 3
Se3 Ba1 Ba3 109.936(14) 3_545 7_566
Se3 Ba1 Ba3 115.793(12) 4 7_566
Se3 Ba1 Ba3 51.879(12) . 7_566
Se2 Ba1 Ba3 103.010(18) 4 7_566
Se2 Ba1 Ba3 47.194(11) . 7_566
Se1 Ba1 Ba3 99.103(15) . 7_566
Se1 Ba1 Ba3 52.308(14) 4 7_566
Se5 Ba1 Ba3 158.849(14) . 7_566
Se4 Ba1 Ba3 53.787(16) 3_545 7_566
U1 Ba1 Ba3 86.760(11) . 7_566
U1 Ba1 Ba3 64.238(10) 3 7_566
Se4 Ba2 Se4 43.97(3) 5_565 .
Se4 Ba2 Se2 145.464(14) 5_565 4
Se4 Ba2 Se2 139.665(16) . 4
Se4 Ba2 Se2 145.464(14) 5_565 7_665
Se4 Ba2 Se2 139.665(16) . 7_665
Se2 Ba2 Se2 61.56(2) 4 7_665
Se4 Ba2 Se3 80.376(9) 5_565 6
Se4 Ba2 Se3 83.691(10) . 6
Se2 Ba2 Se3 129.682(15) 4 6
Se2 Ba2 Se3 68.259(15) 7_665 6
Se4 Ba2 Se3 80.377(10) 5_565 .
Se4 Ba2 Se3 83.691(10) . .
Se2 Ba2 Se3 68.258(15) 4 .
Se2 Ba2 Se3 129.681(15) 7_665 .
Se3 Ba2 Se3 160.675(19) 6 .
Se4 Ba2 Se2 110.038(17) 5_565 3
Se4 Ba2 Se2 71.834(19) . 3
Se2 Ba2 Se2 70.455(18) 4 3
Se2 Ba2 Se2 99.353(17) 7_665 3
Se3 Ba2 Se2 123.239(17) 6 3
Se3 Ba2 Se2 65.831(14) . 3
Se4 Ba2 Se2 110.038(17) 5_565 8_665
Se4 Ba2 Se2 71.834(19) . 8_665
Se2 Ba2 Se2 99.353(17) 4 8_665
Se2 Ba2 Se2 70.455(18) 7_665 8_665
Se3 Ba2 Se2 65.831(14) 6 8_665
Se3 Ba2 Se2 123.238(17) . 8_665
Se2 Ba2 Se2 58.11(2) 3 8_665
Se4 Ba2 U1 118.648(9) 5_565 3
Se4 Ba2 U1 100.109(13) . 3
Se2 Ba2 U1 39.940(10) 4 3
Se2 Ba2 U1 95.508(17) 7_665 3
Se3 Ba2 U1 156.176(14) 6 3
Se3 Ba2 U1 41.654(12) . 3
Se2 Ba2 U1 39.647(9) 3 3
Se2 Ba2 U1 92.796(16) 8_665 3
Se4 Ba2 U1 118.648(9) 5_565 7_665
Se4 Ba2 U1 100.109(13) . 7_665
Se2 Ba2 U1 95.508(17) 4 7_665
Se2 Ba2 U1 39.940(10) 7_665 7_665
Se3 Ba2 U1 41.655(12) 6 7_665
Se3 Ba2 U1 156.175(14) . 7_665
Se2 Ba2 U1 92.796(16) 3 7_665
Se2 Ba2 U1 39.647(9) 8_665 7_665
U1 Ba2 U1 114.903(17) 3 7_665
Se4 Ba2 Ba2 153.01(2) 5_565 5_665
Se4 Ba2 Ba2 109.04(2) . 5_665
Se2 Ba2 Ba2 51.440(14) 4 5_665
Se2 Ba2 Ba2 51.440(15) 7_665 5_665
Se3 Ba2 Ba2 98.962(10) 6 5_665
Se3 Ba2 Ba2 98.962(10) . 5_665
Se2 Ba2 Ba2 47.913(11) 3 5_665
Se2 Ba2 Ba2 47.913(11) 8_665 5_665
U1 Ba2 Ba2 57.451(8) 3 5_665
U1 Ba2 Ba2 57.451(8) 7_665 5_665
Se4 Ba2 Ba1 100.930(12) 5_565 6
Se4 Ba2 Ba1 126.715(11) . 6
Se2 Ba2 Ba1 92.954(16) 4 6
Se2 Ba2 Ba1 46.509(11) 7_665 6
Se3 Ba2 Ba1 46.303(12) 6 6
Se3 Ba2 Ba1 137.248(16) . 6
Se2 Ba2 Ba1 145.132(14) 3 6
Se2 Ba2 Ba1 96.798(17) 8_665 6
U1 Ba2 Ba1 132.892(12) 3 6
U1 Ba2 Ba1 57.455(13) 7_665 6
Ba2 Ba2 Ba1 97.618(12) 5_665 6
Pd1 Ba3 Se5 79.39(2) 1_655 5_655
Pd1 Ba3 Se5 123.58(2) 1_655 .
Se5 Ba3 Se5 44.18(2) 5_655 .
Pd1 Ba3 Se2 142.244(12) 1_655 4
Se5 Ba3 Se2 116.441(19) 5_655 4
Se5 Ba3 Se2 79.445(18) . 4
Pd1 Ba3 Se2 142.244(12) 1_655 7_665
Se5 Ba3 Se2 116.441(19) 5_655 7_665
Se5 Ba3 Se2 79.445(18) . 7_665
Se2 Ba3 Se2 64.14(2) 4 7_665
Pd1 Ba3 Se3 82.896(10) 1_655 7_665
Se5 Ba3 Se3 77.773(11) 5_655 7_665
Se5 Ba3 Se3 84.732(10) . 7_665
Se2 Ba3 Se3 132.324(16) 4 7_665
Se2 Ba3 Se3 68.871(16) 7_665 7_665
Pd1 Ba3 Se3 82.896(11) 1_655 4
Se5 Ba3 Se3 77.773(11) 5_655 4
Se5 Ba3 Se3 84.732(10) . 4
Se2 Ba3 Se3 68.871(16) 4 4
Se2 Ba3 Se3 132.324(16) 7_665 4
Se3 Ba3 Se3 153.57(2) 7_665 4
Pd1 Ba3 Se1 43.029(12) 1_655 1_655
Se5 Ba3 Se1 112.854(18) 5_655 1_655
Se5 Ba3 Se1 147.945(15) . 1_655
Se2 Ba3 Se1 100.885(16) 4 1_655
Se2 Ba3 Se1 129.985(17) 7_665 1_655
Se3 Ba3 Se1 115.333(15) 7_665 1_655
Se3 Ba3 Se1 66.167(13) 4 1_655
Pd1 Ba3 Se1 43.029(12) 1_655 6_655
Se5 Ba3 Se1 112.854(18) 5_655 6_655
Se5 Ba3 Se1 147.945(15) . 6_655
Se2 Ba3 Se1 129.985(17) 4 6_655
Se2 Ba3 Se1 100.885(16) 7_665 6_655
Se3 Ba3 Se1 66.167(13) 7_665 6_655
Se3 Ba3 Se1 115.333(15) 4 6_655
Se1 Ba3 Se1 50.59(2) 1_655 6_655
Pd1 Ba3 Se4 93.31(2) 1_655 5_665
Se5 Ba3 Se4 172.70(2) 5_655 5_665
Se5 Ba3 Se4 143.11(2) . 5_665
Se2 Ba3 Se4 69.505(19) 4 5_665
Se2 Ba3 Se4 69.505(19) 7_665 5_665
Se3 Ba3 Se4 101.486(11) 7_665 5_665
Se3 Ba3 Se4 101.486(11) 4 5_665
Se1 Ba3 Se4 60.731(16) 1_655 5_665
Se1 Ba3 Se4 60.731(15) 6_655 5_665
Pd1 Ba3 Ba1 92.557(11) 1_655 4
Se5 Ba3 Ba1 126.794(9) 5_655 4
Se5 Ba3 Ba1 118.427(9) . 4
Se2 Ba3 Ba1 50.040(13) 4 4
Se2 Ba3 Ba1 101.839(19) 7_665 4
Se3 Ba3 Ba1 153.891(14) 7_665 4
Se3 Ba3 Ba1 49.022(14) 4 4
Se1 Ba3 Ba1 51.089(10) 1_655 4
Se1 Ba3 Ba1 93.087(15) 6_655 4
Se4 Ba3 Ba1 52.946(9) 5_665 4
Pd1 Ba3 Ba1 92.557(12) 1_655 7_665
Se5 Ba3 Ba1 126.794(9) 5_655 7_665
Se5 Ba3 Ba1 118.427(9) . 7_665
Se2 Ba3 Ba1 101.839(19) 4 7_665
Se2 Ba3 Ba1 50.040(13) 7_665 7_665
Se3 Ba3 Ba1 49.022(14) 7_665 7_665
Se3 Ba3 Ba1 153.891(14) 4 7_665
Se1 Ba3 Ba1 93.087(16) 1_655 7_665
Se1 Ba3 Ba1 51.089(10) 6_655 7_665
Se4 Ba3 Ba1 52.946(9) 5_665 7_665
Ba1 Ba3 Ba1 105.881(18) 4 7_665
Se1 Pd1 Se1 104.57(3) 5 6
Se1 Pd1 Se1 75.43(3) 5 2
Se1 Pd1 Se1 180.00(2) 6 2
Se1 Pd1 Se1 180.0 5 .
Se1 Pd1 Se1 75.43(3) 6 .
Se1 Pd1 Se1 104.57(3) 2 .
Se1 Pd1 Ba3 102.343(16) 5 1_455
Se1 Pd1 Ba3 77.657(16) 6 1_455
Se1 Pd1 Ba3 102.343(16) 2 1_455
Se1 Pd1 Ba3 77.656(16) . 1_455
Se1 Pd1 Ba3 77.657(16) 5 5_655
Se1 Pd1 Ba3 102.343(16) 6 5_655
Se1 Pd1 Ba3 77.657(16) 2 5_655
Se1 Pd1 Ba3 102.344(16) . 5_655
Ba3 Pd1 Ba3 180.000(11) 1_455 5_655
Se1 Pd1 U1 127.714(14) 5 .
Se1 Pd1 U1 127.714(13) 6 .
Se1 Pd1 U1 52.286(13) 2 .
Se1 Pd1 U1 52.287(13) . .
Ba3 Pd1 U1 90.0 1_455 .
Ba3 Pd1 U1 90.0 5_655 .
Se1 Pd1 U1 52.286(14) 5 5
Se1 Pd1 U1 52.286(13) 6 5
Se1 Pd1 U1 127.714(13) 2 5
Se1 Pd1 U1 127.713(13) . 5
Ba3 Pd1 U1 90.0 1_455 5
Ba3 Pd1 U1 90.0 5_655 5
U1 Pd1 U1 180.0 . 5
Pd1 Se1 U1 80.58(2) . .
Pd1 Se1 Ba1 127.138(18) . .
U1 Se1 Ba1 84.400(17) . .
Pd1 Se1 Ba1 132.492(19) . 4_455
U1 Se1 Ba1 85.617(19) . 4_455
Ba1 Se1 Ba1 96.001(17) . 4_455
Pd1 Se1 Ba3 59.314(12) . 1_455
U1 Se1 Ba3 93.443(16) . 1_455
Ba1 Se1 Ba3 172.456(17) . 1_455
Ba1 Se1 Ba3 76.604(16) 4_455 1_455
U1 Se2 Ba3 168.792(19) . 7_566
U1 Se2 Ba2 86.203(17) . 7_566
Ba3 Se2 Ba2 104.845(19) 7_566 7_566
U1 Se2 Ba1 88.553(19) . 4_455
Ba3 Se2 Ba1 90.10(2) 7_566 4_455
Ba2 Se2 Ba1 87.174(18) 7_566 4_455
U1 Se2 Ba1 86.533(17) . .
Ba3 Se2 Ba1 82.767(16) 7_566 .
Ba2 Se2 Ba1 169.384(19) 7_566 .
Ba1 Se2 Ba1 100.372(18) 4_455 .
U1 Se2 Ba2 82.61(2) . 3_545
Ba3 Se2 Ba2 100.80(2) 7_566 3_545
Ba2 Se2 Ba2 80.647(17) 7_566 3_545
Ba1 Se2 Ba2 165.367(17) 4_455 3_545
Ba1 Se2 Ba2 90.748(16) . 3_545
U1 Se3 Ba1 86.602(19) 3 3
U1 Se3 Ba1 170.78(2) 3 4_455
Ba1 Se3 Ba1 84.462(16) 3 4_455
U1 Se3 Ba1 86.790(18) 3 .
Ba1 Se3 Ba1 173.377(17) 3 .
Ba1 Se3 Ba1 102.158(17) 4_455 .
U1 Se3 Ba2 82.143(14) 3 .
Ba1 Se3 Ba2 93.375(14) 3 .
Ba1 Se3 Ba2 100.613(14) 4_455 .
Ba1 Se3 Ba2 85.283(14) . .
U1 Se3 Ba3 92.880(14) 3 7_566
Ba1 Se3 Ba3 101.678(15) 3 7_566
Ba1 Se3 Ba3 86.732(13) 4_455 7_566
Ba1 Se3 Ba3 79.099(14) . 7_566
Ba2 Se3 Ba3 163.864(19) . 7_566
Se4 Se4 Ba2 69.39(3) 5_565 5_565
Se4 Se4 Ba2 66.64(3) 5_565 .
Ba2 Se4 Ba2 136.03(3) 5_565 .
Se4 Se4 Ba1 105.964(13) 5_565 3
Ba2 Se4 Ba1 100.209(11) 5_565 3
Ba2 Se4 Ba1 91.729(13) . 3
Se4 Se4 Ba1 105.964(13) 5_565 8_665
Ba2 Se4 Ba1 100.209(11) 5_565 8_665
Ba2 Se4 Ba1 91.729(12) . 8_665
Ba1 Se4 Ba1 146.51(2) 3 8_665
Se4 Se4 Ba3 164.99(4) 5_565 5_665
Ba2 Se4 Ba3 125.62(2) 5_565 5_665
Ba2 Se4 Ba3 98.35(2) . 5_665
Ba1 Se4 Ba3 73.267(12) 3 5_665
Ba1 Se4 Ba3 73.267(12) 8_665 5_665
Se5 Se5 Ba3 68.88(3) 5_655 5_655
Se5 Se5 Ba3 66.94(3) 5_655 .
Ba3 Se5 Ba3 135.82(2) 5_655 .
Se5 Se5 Ba1 105.630(12) 5_655 6
Ba3 Se5 Ba1 103.933(13) 5_655 6
Ba3 Se5 Ba1 87.925(12) . 6
Se5 Se5 Ba1 105.629(12) 5_655 .
Ba3 Se5 Ba1 103.932(13) 5_655 .
Ba3 Se5 Ba1 87.926(12) . .
Ba1 Se5 Ba1 143.84(3) 6 .
loop_
_geom_bond_atom_site_label_1
_geom_bond_atom_site_label_2
_geom_bond_distance
_geom_bond_site_symmetry_2
U1 Se2 2.6873(6) 2
U1 Se2 2.6873(6) .
U1 Se1 2.7018(6) 2
U1 Se1 2.7018(6) .
U1 Se3 2.8023(7) 4_455
U1 Se3 2.8023(7) 3_545
U1 Pd1 3.3693(7) .
U1 Ba2 4.1768(7) 3_545
U1 Ba2 4.1768(7) 7_566
U1 Ba1 4.2071(7) .
U1 Ba1 4.2072(7) 2
U1 Ba1 4.2733(9) 4_455
Ba1 Se3 3.3085(8) 3_545
Ba1 Se3 3.3212(8) 4
Ba1 Se3 3.3869(8) .
Ba1 Se2 3.3912(7) 4
Ba1 Se2 3.4036(7) .
Ba1 Se1 3.4994(8) .
Ba1 Se1 3.5237(7) 4
Ba1 Se5 3.5499(7) .
Ba1 Se4 3.6711(8) 3_545
Ba1 U1 4.2733(9) 3
Ba1 Ba3 4.4052(7) 7_566
Ba2 Se4 3.1625(10) 5_565
Ba2 Se4 3.2243(9) .
Ba2 Se2 3.3803(8) 4
Ba2 Se2 3.3803(8) 7_665
Ba2 Se3 3.5038(8) 6
Ba2 Se3 3.5038(8) .
Ba2 Se2 3.5617(8) 3
Ba2 Se2 3.5617(8) 8_665
Ba2 U1 4.1768(7) 3
Ba2 U1 4.1768(7) 7_665
Ba2 Ba2 4.4943(10) 5_665
Ba2 Ba1 4.6686(8) 6
Ba3 Pd1 3.1546(6) 1_655
Ba3 Se5 3.1775(9) 5_655
Ba3 Se5 3.2214(9) .
Ba3 Se2 3.2579(7) 4
Ba3 Se2 3.2579(7) 7_665
Ba3 Se3 3.5294(8) 7_665
Ba3 Se3 3.5294(8) 4
Ba3 Se1 3.5834(8) 1_655
Ba3 Se1 3.5834(8) 6_655
Ba3 Se4 3.7114(10) 5_665
Ba3 Ba1 4.4052(7) 4
Ba3 Ba1 4.4052(7) 7_665
Pd1 Se1 2.5031(6) 5
Pd1 Se1 2.5031(6) 6
Pd1 Se1 2.5031(6) 2
Pd1 Se1 2.5031(6) .
Pd1 Ba3 3.1546(6) 1_455
Pd1 Ba3 3.1546(6) 5_655
Pd1 U1 3.3693(7) 5
Se1 Ba1 3.5237(7) 4_455
Se1 Ba3 3.5834(8) 1_455
Se2 Ba3 3.2579(7) 7_566
Se2 Ba2 3.3803(8) 7_566
Se2 Ba1 3.3911(7) 4_455
Se2 Ba2 3.5618(8) 3_545
Se3 U1 2.8023(7) 3
Se3 Ba1 3.3085(8) 3
Se3 Ba1 3.3213(8) 4_455
Se3 Ba3 3.5294(8) 7_566
Se4 Se4 2.3918(15) 5_565
Se4 Ba2 3.1624(10) 5_565
Se4 Ba1 3.6711(8) 3
Se4 Ba1 3.6711(8) 8_665
Se4 Ba3 3.7114(10) 5_665
Se5 Se5 2.4069(13) 5_655
Se5 Ba3 3.1774(9) 5_655
Se5 Ba1 3.5499(7) 6
