#------------------------------------------------------------------------------
#$Date: 2021-03-19 10:01:01 +0200 (Fri, 19 Mar 2021) $
#$Revision: 263160 $
#$URL: file:///home/coder/svn-repositories/cod/cif/1/56/11/1561136.cif $
#------------------------------------------------------------------------------
#
# This file is available in the Crystallography Open Database (COD),
# http://www.crystallography.net/
#
# All data on this site have been placed in the public domain by the
# contributors.
#
data_1561136
loop_
_publ_author_name
'Hu, Han'
'Zhai, Fupeng'
'Liu, Xiaofeng'
'Ling, Yun'
'Chen, Zhenxia'
'Zhou, Yaming'
_publ_section_title
;
 Hydrothermal syntheses and anion-induced structural transformation of
 three Cadmium phosphonates
;
_journal_name_full               'Journal of Solid State Chemistry'
_journal_page_first              9
_journal_page_last               15
_journal_paper_doi               10.1016/j.jssc.2018.02.005
_journal_volume                  261
_journal_year                    2018
_chemical_formula_moiety         'C16 H20 Cd3 Cl2 N6 O10 P2, 2(H2 O)'
_chemical_formula_sum            'C16 H24 Cd3 Cl2 N6 O12 P2'
_chemical_formula_weight         962.45
_space_group_crystal_system      triclinic
_space_group_IT_number           2
_space_group_name_Hall           '-P 1'
_space_group_name_H-M_alt        'P -1'
_atom_sites_solution_hydrogens   mixed
_cell_angle_alpha                91.086(2)
_cell_angle_beta                 102.024(2)
_cell_angle_gamma                109.678(2)
_cell_formula_units_Z            1
_cell_length_a                   7.7388(10)
_cell_length_b                   9.3438(12)
_cell_length_c                   9.9987(13)
_cell_measurement_reflns_used    2279
_cell_measurement_temperature    296(2)
_cell_measurement_theta_max      27.75
_cell_measurement_theta_min      2.97
_cell_volume                     662.72(15)
_computing_cell_refinement       'Bruker SAINT'
_computing_data_collection       'Bruker APEX2'
_computing_data_reduction        'Bruker SAINT'
_computing_molecular_graphics    'Bruker SHELXTL'
_computing_publication_material  'Bruker SHELXTL'
_computing_structure_refinement  'SHELXL-2013 (Sheldrick, 2013)'
_computing_structure_solution    'SHELXS-97 (Sheldrick, 2008)'
_diffrn_ambient_temperature      296(2)
_diffrn_measured_fraction_theta_full 0.979
_diffrn_measured_fraction_theta_max 0.974
_diffrn_measurement_device_type  'Bruker APEX-II CCD'
_diffrn_measurement_method       '\f and \w scans'
_diffrn_radiation_type           MoK\a
_diffrn_radiation_wavelength     0.71073
_diffrn_reflns_av_R_equivalents  0.0206
_diffrn_reflns_av_unetI/netI     0.0363
_diffrn_reflns_Laue_measured_fraction_full 0.979
_diffrn_reflns_Laue_measured_fraction_max 0.974
_diffrn_reflns_limit_h_max       9
_diffrn_reflns_limit_h_min       -9
_diffrn_reflns_limit_k_max       11
_diffrn_reflns_limit_k_min       -11
_diffrn_reflns_limit_l_max       11
_diffrn_reflns_limit_l_min       -11
_diffrn_reflns_number            4040
_diffrn_reflns_point_group_measured_fraction_full 0.979
_diffrn_reflns_point_group_measured_fraction_max 0.974
_diffrn_reflns_theta_full        25.192
_diffrn_reflns_theta_max         25.192
_diffrn_reflns_theta_min         2.326
_exptl_absorpt_coefficient_mu    2.780
_exptl_absorpt_correction_T_max  0.7456
_exptl_absorpt_correction_T_min  0.6557
_exptl_absorpt_correction_type   multi-scan
_exptl_absorpt_process_details   sadabs
_exptl_crystal_colour            colourless
_exptl_crystal_density_diffrn    2.412
_exptl_crystal_description       sheet
_exptl_crystal_F_000             466
_exptl_crystal_size_max          0.200
_exptl_crystal_size_mid          0.150
_exptl_crystal_size_min          0.040
_refine_diff_density_max         1.619
_refine_diff_density_min         -1.584
_refine_diff_density_rms         0.407
_refine_ls_extinction_coef       .
_refine_ls_extinction_method     none
_refine_ls_goodness_of_fit_ref   0.999
_refine_ls_hydrogen_treatment    constr
_refine_ls_matrix_type           full
_refine_ls_number_parameters     187
_refine_ls_number_reflns         2340
_refine_ls_number_restraints     0
_refine_ls_restrained_S_all      0.999
_refine_ls_R_factor_all          0.0464
_refine_ls_R_factor_gt           0.0328
_refine_ls_shift/su_max          0.000
_refine_ls_shift/su_mean         0.000
_refine_ls_structure_factor_coef Fsqd
_refine_ls_weighting_details
; 
 w=1/[\s^2^(Fo^2^)+(0.1500P)^2^+0.5000P] 
 where P=(Fo^2^+2Fc^2^)/3 
;
_refine_ls_weighting_scheme      calc
_refine_ls_wR_factor_gt          0.1131
_refine_ls_wR_factor_ref         0.1742
_reflns_Friedel_coverage         0.000
_reflns_Friedel_fraction_full    .
_reflns_Friedel_fraction_max     .
_reflns_number_gt                2017
_reflns_number_total             2340
_reflns_threshold_expression     'I > 2\s(I)'
_cod_data_source_file            2.cif
_cod_data_source_block           mo_20504b_0m
_cod_database_code               1561136
_shelx_space_group_comment
; 
The symmetry employed for this shelxl refinement is uniquely defined 
by the following loop, which should always be used as a source of 
symmetry information in preference to the above space-group names. 
They are only intended as comments. 
;
_shelx_estimated_absorpt_t_min   0.606
_shelx_estimated_absorpt_t_max   0.897
_shelxl_version_number           2013-2
_shelx_res_file
; 
TITL mo_20504b_0m in P-1 
CELL 0.71073   7.7388   9.3438   9.9987  91.086 102.024 109.678 
ZERR    1.00   0.0010   0.0012   0.0013   0.002   0.002   0.002 
LATT 1 
SFAC C  H  N  O  P  Cd Cl 
UNIT 16  24  6  12  2  3  2 
OMIT -3 50.4 
L.S. 8 
ACTA 
BOND $H 
FMAP 2 
PLAN 4 
size 0.20 0.15 0.04 
TEMP 23.000 
WGHT    0.150000    0.500000 
FVAR       0.16884 
CD1   6    0.500000    1.000000    0.500000    10.50000    0.00877    0.00950 = 
         0.01084    0.00125   -0.00004    0.00376 
CD2   6    0.692659    0.662242    0.505474    11.00000    0.00881    0.00910 = 
         0.01378   -0.00128    0.00195    0.00234 
O1    4    0.562112    0.421391    0.395613    11.00000    0.01158    0.00605 = 
         0.01593   -0.00233    0.00273    0.00359 
O2    4    0.818076    0.427628    0.270671    11.00000    0.00907    0.01343 = 
         0.01807   -0.00028    0.00767   -0.00172 
O3    4    0.676543    0.196363    0.390492    11.00000    0.01064    0.01098 = 
         0.01454   -0.00083    0.00251    0.00306 
O4    4    0.959881    0.687605    0.432346    11.00000    0.01805    0.01673 = 
         0.01675    0.00059    0.00510    0.00274 
AFIX   3 
H4A   2    0.960298    0.624169    0.370067    11.00000   -1.50000 
H4B   2    1.070757    0.752159    0.457387    11.00000   -1.50000 
AFIX   0 
O5    4    0.828965    0.565880    0.694411    11.00000    0.01667    0.03069 = 
         0.01950    0.00826    0.00357    0.01768 
AFIX   3 
H5A   2    0.894865    0.583785    0.776449    11.00000   -1.50000 
H5B   2    0.807743    0.472995    0.668019    11.00000   -1.50000 
AFIX   0 
O6    4    0.828593    0.358551    0.980623    11.00000    0.06769    0.04773 = 
         0.03605   -0.00682    0.01031    0.02316 
AFIX   3 
H6A   2    0.782055    0.373940    0.900246    11.00000   -1.50000 
H6B   2    0.760176    0.370510    1.033046    11.00000   -1.50000 
AFIX   0 
CL1   7    0.517262    0.789069    0.322131    11.00000    0.01448    0.01233 = 
         0.01196    0.00176    0.00242    0.00840 
N1    3   -0.135544   -0.096994   -0.380677    11.00000    0.01133    0.01217 = 
         0.01293   -0.00155   -0.00418    0.00506 
N2    3   -0.222551    0.007795   -0.355902    11.00000    0.01207    0.00846 = 
         0.01450    0.00055    0.00503    0.00383 
N3    3    0.042175    0.062911   -0.204573    11.00000    0.00939    0.01060 = 
         0.00789   -0.00360   -0.00363    0.00285 
P1    5    0.640792    0.326914    0.314480    11.00000    0.00591    0.00788 = 
         0.00945   -0.00073    0.00076    0.00114 
C1    1    0.463059    0.248214    0.157271    11.00000    0.01134    0.01180 = 
         0.00708   -0.00104    0.00300    0.00221 
C2    1    0.410320    0.095930    0.108458    11.00000    0.00794    0.00894 = 
         0.01705    0.00212    0.00229    0.00410 
AFIX  43 
H2    2    0.468572    0.033711    0.156005    11.00000   -1.20000 
AFIX   0 
C3    1    0.270780    0.035675   -0.011223    11.00000    0.00716    0.00687 = 
         0.01312   -0.00231   -0.00339    0.00092 
AFIX  43 
H3    2    0.231869   -0.067293   -0.041736    11.00000   -1.20000 
AFIX   0 
C4    1    0.191757    0.129916   -0.083264    11.00000    0.00507    0.01241 = 
         0.00404   -0.00202   -0.00303   -0.00074 
C5    1    0.245952    0.282715   -0.040704    11.00000    0.01391    0.01003 = 
         0.01410    0.00252   -0.00314    0.00357 
AFIX  43 
H5    2    0.193247    0.345504   -0.092664    11.00000   -1.20000 
AFIX   0 
C6    1    0.381240    0.342042    0.081645    11.00000    0.02219    0.00599 = 
         0.01801   -0.00262    0.00430    0.00649 
AFIX  43 
H6    2    0.416843    0.444524    0.112749    11.00000   -1.20000 
AFIX   0 
C7    1   -0.110302    0.103215   -0.251686    11.00000    0.01255    0.01055 = 
         0.01407    0.00143    0.00266    0.00476 
AFIX  43 
H7    2   -0.131813    0.186333   -0.215292    11.00000   -1.20000 
AFIX   0 
C8    1    0.022721   -0.058492   -0.289503    11.00000    0.02113    0.01828 = 
         0.01783   -0.00272   -0.00234    0.01681 
AFIX  43 
H8    2    0.110229   -0.107502   -0.283512    11.00000   -1.20000 
AFIX   0 
HKLF 4 
  
REM  mo_20504b_0m in P-1 
REM R1 =  0.0328 for    2017 Fo > 4sig(Fo)  and  0.0464 for all    2340 data 
REM    187 parameters refined using      0 restraints 
  
END 
  
WGHT      0.1289      0.0000 
  
REM Highest difference peak  1.619,  deepest hole -1.584,  1-sigma level  0.407 
Q1    1   0.4993  0.7394  0.3615  11.00000  0.05    1.62 
Q2    1   0.5606  0.8319  0.4247  11.00000  0.05    1.47 
Q3    1   0.8190  0.6941  0.5651  11.00000  0.05    1.45 
Q4    1   0.5272  0.7747  0.3856  11.00000  0.05    1.45 
;
_shelx_res_checksum              68412
_shelx_hkl_file
; 
   1   0   0  264.26    6.80 
   2   0   0    4.15    0.40 
   3   0   0    0.56    0.37 
   3   0   0    0.63    0.47 
   4   0   0   56.62    2.08 
   4   0   0   57.28    1.84 
   5   0   0  142.38    4.40 
   5   0   0  143.49    4.09 
   6   0   0  164.60    5.06 
   6   0   0  157.53    4.62 
   7   0   0    4.05    0.98 
   8   0   0    3.86    1.17 
   9   0   0    5.54    1.28 
   9  -1   0   32.73    2.23 
   8  -1   0   98.22    3.72 
   7  -1   0    1.09    0.80 
   7  -1   0    1.89    0.68 
   6  -1   0   50.71    2.18 
   6  -1   0   49.56    1.94 
   5  -1   0    2.42    0.61 
   4  -1   0  227.94    6.21 
   3  -1   0  212.75    5.73 
  -2   1   0   91.72    2.66 
  -1   1   0   96.80    2.70 
  -1   1   0   99.43    2.72 
   0   1   0    4.91    0.35 
   0   1   0    4.66    0.32 
   2   1   0  362.62    9.50 
   2   1   0  355.71    9.26 
   3   1   0   45.22    1.65 
   3   1   0   41.06    1.35 
   4   1   0    2.40    0.64 
   4   1   0    3.50    0.47 
   5   1   0   37.55    1.44 
   5   1   0   39.06    1.83 
   6   1   0   55.76    2.42 
   7   1   0  116.67    4.20 
   8   1   0   21.81    1.89 
   9  -2   0    8.37    1.35 
   8  -2   0    2.79    0.96 
   7  -2   0   40.46    1.88 
   7  -2   0   39.56    2.02 
   6  -2   0   34.30    1.60 
   5  -2   0   23.79    1.27 
   4  -2   0  123.91    3.64 
  -3   2   0   -0.35    0.43 
  -2   2   0  171.12    4.76 
  -1   2   0    2.65    0.46 
  -1   2   0    2.28    0.40 
   0   2   0    2.40    0.42 
   0   2   0    1.75    0.37 
   2   2   0    0.57    0.24 
   2   2   0   -0.20    0.25 
   3   2   0  327.09    8.85 
   3   2   0  323.89    8.45 
   4   2   0  258.87    6.95 
   4   2   0  267.56    7.42 
   5   2   0    4.27    0.91 
   6   2   0   42.31    2.10 
   7   2   0    2.75    1.03 
   8   2   0   33.94    2.30 
   9  -3   0   12.44    1.47 
   8  -3   0    3.63    0.93 
   7  -3   0    4.23    0.87 
   6  -3   0   77.91    2.77 
   5  -3   0  207.53    5.90 
  -4   3   0  105.52    3.37 
  -3   3   0  102.38    3.28 
  -3   3   0  111.97    3.33 
  -2   3   0   48.02    1.75 
  -1   3   0   43.35    1.55 
  -1   3   0   44.89    1.57 
   3   3   0  105.12    2.51 
   3   3   0   76.19    2.96 
   4   3   0    0.22    0.64 
   5   3   0   25.64    1.65 
   6   3   0   26.37    1.80 
   7   3   0   -1.70    0.95 
   8   3   0    8.34    1.46 
   9  -4   0  101.77    3.81 
   8  -4   0  151.44    4.91 
   7  -4   0   10.73    1.18 
   6  -4   0   19.04    1.29 
   5  -4   0    0.26    0.63 
  -5   4   0    0.03    0.71 
  -4   4   0  479.69   13.00 
  -4   4   0  485.24   13.03 
  -2   4   0   55.05    2.03 
  -2   4   0   54.26    1.95 
  -1   4   0   17.30    1.03 
  -1   4   0   16.22    1.02 
  -1   4   0   17.20    0.57 
   0   4   0   10.58    0.85 
   0   4   0   10.36    0.73 
   1   4   0  285.18    7.59 
   1   4   0  290.39    7.92 
   3   4   0    0.25    0.30 
   4   4   0    2.15    0.76 
   5   4   0    5.77    1.09 
   6   4   0   29.52    1.95 
   7   4   0   85.49    3.63 
   9  -5   0   17.92    1.67 
   8  -5   0    2.59    0.98 
   7  -5   0  115.48    3.97 
   6  -5   0  102.65    3.51 
   5  -5   0    8.43    0.98 
  -5   5   0    8.23    1.04 
  -5   5   0    9.41    1.09 
  -4   5   0    2.92    0.77 
  -3   5   0   90.56    2.97 
  -3   5   0   84.46    2.93 
  -2   5   0  212.11    6.03 
  -2   5   0  209.33    6.01 
  -1   5   0  284.31    7.10 
  -1   5   0  288.29    7.90 
  -1   5   0  281.78    7.78 
   0   5   0    3.09    0.71 
   0   5   0    4.22    0.59 
   1   5   0    4.13    0.73 
   1   5   0    3.64    0.54 
   3   5   0  233.01    6.86 
   4   5   0  157.36    5.06 
   5   5   0   10.49    1.35 
   6   5   0    1.17    1.09 
   7   5   0   -1.95    0.96 
   9  -6   0    1.22    1.04 
   8  -6   0    5.57    1.14 
   7  -6   0    9.32    1.22 
   6  -6   0   35.71    1.83 
  -6   6   0   35.37    2.05 
  -5   6   0  100.07    3.57 
  -4   6   0   27.08    1.56 
  -4   6   0   29.64    1.73 
  -3   6   0  108.07    3.62 
  -3   6   0  109.54    3.59 
  -2   6   0   85.10    2.94 
  -2   6   0   85.63    2.97 
  -1   6   0  115.52    3.70 
  -1   6   0  112.23    2.95 
  -1   6   0  109.87    3.52 
   0   6   0  169.32    5.24 
   0   6   0  176.10    4.97 
   2   6   0    5.49    0.99 
   3   6   0   38.61    1.97 
   4   6   0    3.61    0.99 
   5   6   0   71.64    3.18 
   6   6   0   66.75    3.22 
   9  -7   0   46.52    2.47 
   8  -7   0   49.00    2.52 
   7  -7   0    1.47    0.92 
   6  -7   0   54.16    2.37 
  -6   7   0   55.76    2.58 
  -6   7   0   58.44    2.71 
  -5   7   0   41.45    2.21 
  -5   7   0   41.40    2.05 
  -4   7   0  101.93    3.58 
  -4   7   0  101.77    3.66 
  -3   7   0  209.97    6.33 
  -3   7   0  211.22    6.31 
  -2   7   0    8.85    1.06 
  -2   7   0   10.25    1.08 
  -1   7   0   20.90    1.39 
  -1   7   0   19.05    1.53 
   0   7   0   14.07    1.34 
   0   7   0   11.51    0.99 
   1   7   0   11.41    1.25 
   2   7   0   25.23    1.66 
   3   7   0   27.90    1.93 
   4   7   0    8.18    1.25 
   5   7   0    2.25    1.07 
   9  -8   0    9.68    1.46 
   8  -8   0    7.32    1.27 
   7  -8   0   84.61    3.36 
   6  -8   0   42.27    2.11 
  -6   8   0   43.98    2.43 
  -6   8   0   41.59    2.26 
  -5   8   0    3.31    1.02 
  -5   8   0    7.12    1.24 
  -4   8   0    0.26    0.76 
  -4   8   0    0.16    0.82 
  -3   8   0   56.86    2.54 
  -3   8   0   61.40    2.58 
  -2   8   0   77.14    2.88 
  -2   8   0   73.42    2.96 
  -1   8   0   68.96    2.59 
  -1   8   0   68.93    2.89 
   0   8   0   10.53    1.03 
   0   8   0   11.08    1.33 
   1   8   0    9.06    1.25 
   2   8   0    0.70    0.83 
   3   8   0   60.26    2.88 
   4   8   0   33.73    2.31 
   8  -9   0    1.12    1.04 
   7  -9   0    0.84    0.81 
  -7   9   0    4.15    1.25 
   6  -9   0   57.94    2.68 
  -6   9   0   56.04    2.84 
  -6   9   0   58.73    2.84 
   5  -9   0  116.23    4.11 
  -5   9   0  117.09    4.32 
  -5   9   0  122.88    4.42 
  -4   9   0   15.53    1.57 
  -4   9   0   14.63    1.54 
  -3   9   0    1.61    0.93 
  -3   9   0   -0.24    0.79 
  -2   9   0   19.83    1.60 
  -2   9   0   20.06    1.72 
  -1   9   0   35.86    1.90 
  -1   9   0   35.87    2.10 
   0   9   0  216.42    6.85 
   1   9   0  116.96    4.40 
   2   9   0    1.48    0.98 
   3   9   0    1.67    1.08 
   8 -10   0   74.63    3.44 
   7 -10   0    1.54    1.06 
  -7  10   0    0.13    1.04 
   6 -10   0   20.91    1.80 
  -6  10   0   17.72    1.85 
  -6  10   0   19.39    1.88 
   5 -10   0    0.87    0.92 
  -5  10   0    0.80    0.94 
  -5  10   0    1.03    1.07 
  -4  10   0   46.17    2.50 
  -4  10   0   47.59    2.58 
  -3  10   0  120.94    4.33 
  -3  10   0  123.83    4.54 
  -2  10   0   40.52    2.16 
  -2  10   0   37.39    2.27 
  -1  10   0   -0.01    1.01 
   0  10   0    0.39    1.02 
   1  10   0   17.94    1.83 
   2  10   0   45.25    2.66 
   7 -11   0   24.12    2.10 
  -7  11   0   22.58    2.19 
   6 -11   0   19.25    1.82 
  -6  11   0   17.80    1.96 
   5 -11   0    0.39    0.94 
  -5  11   0   -0.36    1.06 
  -5  11   0    0.44    0.99 
   4 -11   0   21.14    1.67 
  -4  11   0   20.39    1.91 
  -4  11   0   21.26    1.87 
   3 -11   0    5.44    1.05 
  -3  11   0    5.53    1.30 
  -3  11   0    2.96    1.14 
  -2  11   0   22.04    2.03 
  -1  11   0   27.90    2.13 
   0  11   0    0.10    1.08 
   5 -12   0   37.34    2.28 
  -5  12   0   37.58    2.56 
   4 -12   0    2.23    1.01 
  -4  12   0    1.51    1.13 
  -3  12   0    5.84    1.39 
  -2  12   0   12.91    1.86 
  -2  12  -1    8.38    1.61 
  -3  12  -1    3.43    1.29 
  -4  12  -1   12.04    1.72 
   4 -12   1   10.42    1.42 
   1  11  -1    0.35    1.02 
   0  11  -1   18.35    1.96 
  -1  11  -1   42.77    2.55 
  -2  11  -1   34.94    2.33 
  -3  11  -1    1.22    1.04 
   3 -11   1    1.91    0.88 
  -4  11  -1    7.82    1.42 
   4 -11   1    8.01    1.27 
  -5  11  -1    2.29    1.15 
   5 -11   1    1.24    1.02 
  -6  11  -1   86.63    3.84 
   6 -11   1   83.32    3.54 
   2  10  -1   53.23    2.90 
   1  10  -1   19.13    1.88 
   0  10  -1   -1.21    0.90 
  -1  10  -1    2.75    1.11 
  -2  10  -1   58.45    2.84 
   2 -10   1   59.45    2.46 
  -3  10  -1  131.23    4.73 
   3 -10   1  129.82    4.34 
  -4  10  -1  124.41    4.59 
   4 -10   1  124.65    4.30 
  -5  10  -1    3.35    1.13 
   5 -10   1    4.18    1.02 
  -6  10  -1    1.07    1.04 
   6 -10   1    0.13    0.89 
  -7  10  -1   13.11    1.75 
   7 -10   1    7.49    1.34 
   3   9  -1    7.15    1.33 
   2   9  -1   12.55    1.50 
   1   9  -1   49.44    2.56 
   0   9  -1  157.32    5.32 
  -1   9  -1   14.03    1.46 
   1  -9   1   18.26    1.26 
  -2   9  -1   16.23    1.44 
  -2   9  -1   21.27    1.67 
   2  -9   1   17.73    1.37 
  -3   9  -1    1.24    0.93 
  -3   9  -1    2.35    0.94 
   3  -9   1    2.94    0.84 
  -4   9  -1   25.86    1.83 
   4  -9   1   27.99    1.71 
  -5   9  -1   65.02    3.02 
   5  -9   1   61.55    2.72 
  -6   9  -1   36.07    2.34 
   6  -9   1   34.79    2.03 
  -7   9  -1    1.01    1.11 
   7  -9   1    0.07    0.88 
   8  -9   1    0.24    0.93 
   4   8  -1   21.41    1.97 
   3   8  -1   46.22    2.49 
   2   8  -1   -0.24    0.75 
   1   8  -1    9.37    1.26 
   0   8  -1    1.26    0.86 
  -1   8  -1   53.43    2.21 
  -1   8  -1   50.81    2.39 
   1  -8   1   50.66    2.00 
  -2   8  -1   13.40    1.27 
  -2   8  -1   10.75    1.25 
   2  -8   1   10.61    1.04 
  -3   8  -1   21.13    1.53 
  -3   8  -1   22.99    1.63 
   3  -8   1   27.03    1.53 
  -4   8  -1   16.37    1.47 
  -4   8  -1   21.06    1.66 
   4  -8   1   19.71    1.45 
  -5   8  -1    0.20    0.89 
   5  -8   1   -0.38    0.77 
  -6   8  -1   65.50    3.00 
   6  -8   1   66.86    2.78 
   7  -8   1   51.23    2.46 
   8  -8   1    7.21    1.29 
   9  -8   1   16.28    1.80 
   5   7  -1    0.90    1.08 
   4   7  -1   -0.36    1.00 
   3   7  -1   65.71    2.91 
   2   7  -1  142.67    4.73 
   1   7  -1   24.09    1.61 
   0   7  -1    6.79    0.85 
   0   7  -1    8.27    0.69 
   0  -7   1    7.61    0.76 
  -2   7  -1   47.09    2.04 
  -2   7  -1   42.54    2.08 
  -3   7  -1  198.09    6.02 
  -3   7  -1  200.00    6.07 
   3  -7   1  198.86    5.84 
  -4   7  -1  112.83    3.87 
  -4   7  -1  110.70    3.89 
   4  -7   1  110.57    3.68 
  -5   7  -1   27.34    1.77 
   5  -7   1   25.60    1.61 
  -6   7  -1   37.95    2.17 
   6  -7   1   38.24    1.94 
   7  -7   1   11.76    1.39 
   8  -7   1   20.65    1.75 
   9  -7   1   37.13    2.35 
   6   6  -1   55.57    2.92 
   5   6  -1  116.62    4.29 
   4   6  -1   46.58    2.41 
   3   6  -1   17.56    1.50 
   2   6  -1    0.75    0.71 
   1   6  -1  115.76    3.32 
  -1  -6   1  110.33    3.22 
  -1   6  -1  113.30    3.61 
  -1   6  -1  119.45    3.10 
  -2   6  -1    0.32    0.61 
  -2   6  -1    0.52    0.68 
  -3   6  -1    0.67    0.72 
  -3   6  -1   -0.74    0.63 
   3  -6   1    0.82    0.64 
  -4   6  -1   24.74    1.68 
  -4   6  -1   24.23    1.58 
   4  -6   1   27.40    1.50 
  -5   6  -1   89.27    3.32 
   5  -6   1   86.36    3.06 
   6  -6   1   67.47    2.69 
   7  -6   1    2.13    0.87 
   8  -6   1    1.75    0.92 
   9  -6   1   34.11    2.21 
   7   5  -1    1.41    1.23 
   6   5  -1   47.75    2.58 
   5   5  -1    0.74    0.89 
   4   5  -1   78.13    3.09 
   3   5  -1   63.90    2.60 
   2   5  -1    5.80    0.94 
   1   5  -1   -0.59    0.39 
   1   5  -1    0.49    0.41 
  -1  -5   1   -0.21    0.34 
   0   5  -1   18.51    0.85 
   0   5  -1   19.20    1.05 
  -1   5  -1  478.30   11.86 
  -1   5  -1  469.70   12.79 
  -1   5  -1  485.88   12.70 
  -2   5  -1  201.66    5.75 
  -2   5  -1  197.88    5.77 
  -3   5  -1    9.05    0.94 
  -3   5  -1   10.70    1.05 
   3  -5   1   10.43    0.93 
  -4   5  -1    1.32    0.68 
   5  -5   1   25.68    1.55 
   6  -5   1  189.56    5.75 
   7  -5   1  209.41    6.36 
   8  -5   1   24.14    1.76 
   9  -5   1   10.74    1.43 
   7   4  -1   88.48    3.69 
   6   4  -1   12.95    1.48 
   5   4  -1   14.50    1.43 
   4   4  -1    3.65    0.88 
   3   4  -1   67.24    2.51 
   2   4  -1  134.49    4.10 
   1   4  -1   32.16    1.50 
   1   4  -1   30.98    1.14 
  -1  -4   1   34.30    1.10 
   0   4  -1    1.21    0.36 
   0   4  -1    0.03    0.43 
   0   4  -1   -0.11    0.27 
  -1   4  -1  160.70    4.53 
  -1   4  -1  157.31    4.05 
  -2   4  -1    2.96    0.69 
  -2   4  -1    4.26    0.64 
   2  -4   1    3.05    0.58 
  -3   4  -1  404.94   10.86 
   3  -4   1  395.05   10.70 
  -4   4  -1  134.36    4.30 
   4  -4   1  141.17    4.17 
   5  -4   1    7.33    0.90 
   6  -4   1    9.76    1.06 
   7  -4   1    3.57    0.93 
   8  -4   1   10.97    1.31 
   9  -4   1   87.71    3.41 
   8   3  -1    4.73    1.34 
   7   3  -1    3.34    1.17 
   6   3  -1   75.85    3.12 
   5   3  -1  112.58    3.84 
   4   3  -1   20.68    1.47 
   3   3  -1  201.18    5.80 
   2   3  -1   19.94    1.13 
   1   3  -1   59.86    2.02 
  -1  -3   1   60.17    1.68 
   0   3  -1  106.73    2.84 
   0   3  -1  106.35    3.13 
   0   3  -1  107.03    3.05 
   0  -3   1  106.79    2.96 
  -1   3  -1   22.30    1.07 
  -1   3  -1   21.80    0.82 
   1  -3   1   20.49    0.93 
  -2   3  -1    0.49    0.36 
  -2   3  -1    0.04    0.37 
   2  -3   1    0.07    0.32 
  -3   3  -1   37.62    1.61 
   3  -3   1   39.01    1.52 
   4  -3   1   18.87    1.10 
   5  -3   1  193.09    5.61 
   6  -3   1    7.14    0.97 
   7  -3   1   -0.74    0.70 
   8  -3   1   21.18    1.60 
   9  -3   1    2.67    1.13 
   8   2  -1   87.58    3.58 
   7   2  -1    0.14    0.85 
   6   2  -1    6.40    1.05 
   5   2  -1    2.78    0.83 
   4   2  -1  148.95    4.48 
   3   2  -1  470.64   12.52 
   2   2  -1   34.97    1.44 
   1   2  -1    6.39    0.62 
  -1  -2   1    6.26    0.36 
   0   2  -1   88.96    2.34 
   0  -2   1   88.57    2.44 
   3  -2   1  132.07    3.79 
   4  -2   1   65.64    2.23 
   5  -2   1    2.70    0.69 
   6  -2   1   60.61    2.31 
   7  -2   1  200.92    5.94 
   8  -2   1    2.72    1.03 
   9  -2   1   20.86    1.86 
   9   1  -1    0.13    1.06 
   8   1  -1   43.96    2.32 
   7   1  -1  101.97    3.72 
   6   1  -1   71.30    2.76 
   5   1  -1    1.95    0.45 
   5   1  -1    0.58    0.65 
   4   1  -1    9.38    0.60 
   4   1  -1    7.61    0.82 
   3   1  -1  207.91    5.71 
   3   1  -1  204.53    5.38 
   2   1  -1  297.88    7.90 
   1   1  -1  130.48    3.34 
   1   1  -1  126.64    3.51 
  -1  -1   1  130.60    3.35 
   0   1  -1   42.63    1.16 
   0  -1   1   40.78    1.20 
   1  -1   1   -0.94    0.10 
   2  -1   1  216.75    5.80 
   3  -1   1  499.60   13.07 
   4  -1   1  280.80    7.62 
   5  -1   1   38.00    1.58 
   6  -1   1   21.61    1.50 
   6  -1   1   22.10    1.30 
   7  -1   1    5.49    1.06 
   7  -1   1    7.26    0.96 
   8  -1   1   71.00    3.06 
   9  -1   1   54.23    2.86 
   9   0  -1    0.02    0.94 
   8   0  -1   20.46    1.74 
   7   0  -1    8.01    1.16 
   6   0  -1  205.29    5.75 
   6   0  -1  209.40    6.18 
   5   0  -1  226.93    6.48 
   5   0  -1  224.56    6.13 
   4   0  -1   86.13    2.56 
   4   0  -1   89.47    2.82 
   3   0  -1   74.95    2.35 
  -3   0   1   76.85    2.27 
   2   0  -1    8.86    0.59 
  -2   0   1    8.42    0.55 
   1   0  -1  135.32    3.55 
  -1   0   1  133.79    3.56 
   1   0   1  249.17    6.51 
   2   0   1   55.68    1.72 
   4   0   1    7.05    0.68 
   5   0   1  264.84    7.25 
   6   0   1   69.64    2.42 
   6   0   1   68.31    2.74 
   7   0   1   17.76    1.59 
   8   0   1    1.41    0.99 
   9   0   1    9.22    1.53 
   9  -1  -1   32.04    2.05 
   8  -1  -1  118.29    4.18 
   7  -1  -1    4.37    0.76 
   7  -1  -1    3.42    0.93 
   6  -1  -1   12.56    1.00 
   6  -1  -1   11.07    1.14 
   5  -1  -1    4.90    0.77 
   5  -1  -1    5.07    0.67 
  -4   1   1   -0.69    0.36 
  -3   1   1  200.25    5.47 
  -2   1   1   43.28    1.50 
   1  -1  -1    2.90    0.27 
  -1   1   1    2.67    0.39 
  -1   1   1    2.88    0.32 
   0   1   1    1.62    0.28 
   0   1   1    1.44    0.30 
   1   1   1   94.06    2.62 
   1   1   1   88.30    2.56 
   3   1   1   10.02    0.74 
   3   1   1    9.65    0.77 
   5   1   1    2.12    0.68 
   5   1   1    2.62    0.60 
   6   1   1   91.03    3.35 
   7   1   1  155.44    5.21 
   8   1   1    8.06    1.31 
   9  -2  -1   13.35    1.52 
   8  -2  -1   25.66    1.78 
   7  -2  -1   78.97    3.07 
   7  -2  -1   84.69    2.89 
   6  -2  -1   13.45    1.04 
  -5   2   1   19.66    1.25 
  -4   2   1   20.73    1.19 
  -3   2   1    0.92    0.45 
  -2   2   1  226.33    6.01 
  -2   2   1  215.86    5.94 
   1  -2  -1  374.33    9.71 
  -1   2   1  405.02   10.25 
  -1   2   1  401.50   10.28 
   0   2   1  105.11    2.95 
   0   2   1  104.77    2.93 
   1   2   1  279.71    7.27 
   1   2   1  273.03    7.41 
   2   2   1    7.30    0.69 
   2   2   1    6.91    0.54 
   3   2   1  283.93    7.73 
   3   2   1  275.05    7.41 
   5   2   1    1.45    0.64 
   6   2   1   24.97    1.70 
   7   2   1   10.85    1.41 
   8   2   1   24.57    1.94 
   9  -3  -1    3.52    1.07 
   8  -3  -1   10.82    1.16 
   7  -3  -1    2.37    0.77 
   6  -3  -1  155.65    4.72 
  -6   3   1  159.32    4.87 
  -5   3   1  274.00    7.73 
  -4   3   1  167.33    4.92 
  -3   3   1    1.29    0.55 
  -3   3   1    0.02    0.44 
   2  -3  -1   10.02    0.44 
  -2   3   1   10.07    0.78 
  -1   3   1   74.12    2.33 
  -1   3   1   72.36    2.25 
   0   3   1  432.11   12.66 
   0   3   1  534.28   12.62 
   1   3   1  139.16    3.92 
   1   3   1  130.58    3.70 
   2   3   1    2.68    0.42 
   2   3   1    1.56    0.54 
   3   3   1    0.06    0.36 
   3   3   1    1.02    0.40 
   4   3   1   -0.29    0.41 
   5   3   1   22.84    1.51 
   6   3   1   55.04    2.58 
   7   3   1    1.11    1.02 
  10  -4  -1   29.34    2.13 
   9  -4  -1   96.28    3.61 
   8  -4  -1  176.54    5.52 
   7  -4  -1   15.31    1.31 
  -6   4   1   18.54    1.48 
  -5   4   1    3.84    0.85 
  -4   4   1  193.97    5.63 
  -4   4   1  192.45    5.66 
   3  -4  -1  179.36    4.58 
  -3   4   1  183.95    5.19 
  -2   4   1  115.34    3.41 
  -2   4   1  112.25    3.46 
  -1   4   1    5.04    0.67 
  -1   4   1    5.25    0.69 
   0   4   1    0.68    0.47 
   0   4   1    1.83    0.59 
   1   4   1  248.36    6.84 
   1   4   1  241.52    6.57 
   2   4   1  215.36    5.83 
   2   4   1  218.84    6.26 
   4   4   1   21.70    1.54 
   5   4   1    2.14    0.85 
   6   4   1   82.95    3.39 
   7   4   1  120.93    4.59 
   9  -5  -1    6.50    1.20 
   8  -5  -1    1.11    0.85 
   7  -5  -1   61.84    2.59 
  -7   5   1   63.44    2.76 
  -6   5   1   27.81    1.78 
  -5   5   1   -0.40    0.71 
  -5   5   1    1.57    0.79 
   4  -5  -1    9.94    0.57 
  -4   5   1   11.46    1.07 
  -3   5   1   68.68    2.44 
  -3   5   1   69.67    2.50 
  -2   5   1  173.76    5.05 
  -2   5   1  173.44    5.06 
  -1   5   1  257.98    7.15 
  -1   5   1  255.10    7.09 
   0   5   1   16.59    1.22 
   0   5   1   18.93    1.04 
   1   5   1   18.84    1.04 
   1   5   1   18.91    1.29 
   2   5   1    4.10    0.87 
   2   5   1    4.40    0.56 
   3   5   1  254.80    7.46 
   4   5   1  172.74    5.49 
   5   5   1   -0.44    0.75 
   6   5   1    1.91    1.02 
   9  -6  -1    0.65    1.00 
   8  -6  -1   29.38    1.90 
   7  -6  -1    0.26    0.76 
  -7   6   1    0.83    0.89 
  -6   6   1   23.62    1.66 
  -5   6   1  222.92    6.66 
  -4   6   1   22.74    1.44 
  -3   6   1  138.21    4.31 
  -3   6   1  138.61    4.39 
  -2   6   1   52.72    2.14 
  -2   6   1   53.18    2.18 
  -1   6   1   10.70    0.97 
  -1   6   1    9.86    1.03 
   0   6   1  130.01    4.08 
   0   6   1  126.33    3.83 
   1   6   1   57.48    2.05 
   1   6   1   61.43    2.44 
   2   6   1    1.41    0.83 
   3   6   1   33.02    1.98 
   4   6   1   14.02    1.45 
   5   6   1   26.80    1.90 
   6   6   1   25.47    2.00 
   9  -7  -1   95.13    3.84 
   8  -7  -1   89.40    3.53 
   7  -7  -1   16.73    1.56 
  -7   7   1   14.15    1.61 
  -6   7   1   11.63    1.41 
  -6   7   1    9.36    1.26 
  -5   7   1   10.24    1.21 
  -5   7   1   12.42    1.28 
  -4   7   1    9.16    1.14 
  -4   7   1    7.71    1.11 
  -3   7   1   81.15    3.04 
  -3   7   1   79.59    2.96 
  -2   7   1   17.05    1.35 
  -2   7   1   17.66    1.36 
  -1   7   1    4.71    0.98 
  -1   7   1    6.15    0.87 
   0   7   1    1.13    0.63 
   0   7   1    1.38    0.84 
   1   7   1   31.56    1.84 
   2   7   1   64.52    2.78 
   3   7   1    4.25    1.10 
   4   7   1   11.26    1.42 
   5   7   1    5.51    1.32 
   9  -8  -1   -0.06    1.08 
   8  -8  -1   29.84    2.05 
   7  -8  -1  120.47    4.35 
  -7   8   1  124.17    4.62 
  -6   8   1   49.35    2.55 
  -6   8   1   49.08    2.47 
  -5   8   1   28.74    1.88 
  -5   8   1   27.48    1.90 
  -4   8   1    0.84    0.92 
  -4   8   1    0.59    0.86 
  -3   8   1   47.30    2.29 
  -3   8   1   44.93    2.24 
  -2   8   1  145.62    4.87 
  -2   8   1  155.56    4.82 
  -1   8   1  174.30    5.30 
  -1   8   1  175.07    5.55 
   0   8   1    2.83    1.02 
   0   8   1    1.71    0.72 
   1   8   1   44.97    2.29 
   2   8   1    5.40    1.23 
   3   8   1   89.26    3.74 
   4   8   1   91.95    3.88 
   8  -9  -1    6.04    1.25 
   7  -9  -1    1.16    0.83 
  -7   9   1    0.30    0.95 
  -7   9   1    2.03    1.14 
  -6   9   1   31.05    2.08 
  -6   9   1   32.67    2.18 
  -5   9   1  216.41    6.96 
  -5   9   1  222.99    6.92 
  -4   9   1   66.34    2.93 
  -4   9   1   68.19    2.96 
  -3   9   1    0.01    0.89 
  -3   9   1    1.78    0.94 
  -2   9   1   17.27    1.51 
  -2   9   1   18.95    1.64 
  -1   9   1   21.47    1.51 
  -1   9   1   24.37    1.78 
   0   9   1  114.84    4.23 
   1   9   1   58.33    2.82 
   2   9   1   17.44    1.77 
   3   9   1    1.28    1.15 
   8 -10  -1   27.25    1.98 
   7 -10  -1   -0.98    0.96 
  -7  10   1    3.01    1.24 
  -7  10   1   -0.14    1.00 
  -6  10   1    9.59    1.51 
  -6  10   1    9.83    1.55 
  -5  10   1    8.21    1.35 
  -5  10   1    7.30    1.35 
  -4  10   1   22.19    1.92 
  -4  10   1   21.78    1.87 
  -3  10   1   61.99    2.82 
  -3  10   1   64.69    2.99 
  -2  10   1    2.95    0.99 
  -2  10   1    3.86    1.19 
  -1  10   1   -0.44    1.03 
   0  10   1    5.29    1.24 
   1  10   1   18.50    1.87 
   2  10   1   61.44    3.23 
   7 -11  -1   23.75    2.10 
  -7  11   1   23.16    2.27 
  -7  11   1   19.06    2.07 
   6 -11  -1   13.83    1.63 
  -6  11   1   12.57    1.72 
  -6  11   1   12.08    1.68 
  -5  11   1   -1.43    1.04 
  -5  11   1    0.59    0.97 
  -4  11   1   11.25    1.56 
  -4  11   1   10.16    1.54 
  -3  11   1   -0.62    0.93 
  -3  11   1    0.12    0.97 
  -2  11   1   20.84    1.99 
  -1  11   1   43.48    2.59 
   0  11   1    8.85    1.62 
  -5  12   1   79.82    3.64 
  -5  12   1   78.64    3.65 
  -4  12   1   30.63    2.24 
  -4  12   1   32.64    2.42 
  -3  12   1   -0.03    1.19 
  -2  12  -2    2.50    1.15 
  -3  12  -2    0.96    1.19 
  -4  12  -2   29.66    2.29 
   4 -12   2   29.20    2.01 
   1  11  -2   -2.15    0.88 
   0  11  -2   20.29    2.02 
  -1  11  -2   66.80    3.22 
  -2  11  -2   94.90    3.95 
  -3  11  -2    2.28    1.09 
   3 -11   2    1.22    0.90 
  -4  11  -2    2.28    1.21 
   4 -11   2    0.77    0.98 
  -5  11  -2   -0.38    1.00 
   5 -11   2    2.35    1.08 
  -6  11  -2   61.45    3.21 
   6 -11   2   61.39    3.01 
   2  10  -2   74.81    3.51 
   1  10  -2   21.57    1.99 
   0  10  -2    6.34    1.22 
  -1  10  -2   31.02    2.05 
  -2  10  -2   29.81    1.99 
   2 -10   2   30.44    1.77 
  -3  10  -2   72.47    3.18 
   3 -10   2   72.57    2.91 
  -4  10  -2   80.78    3.49 
   4 -10   2   86.84    3.28 
  -5  10  -2    4.03    1.27 
   5 -10   2    3.44    1.06 
  -6  10  -2   -0.32    0.96 
   6 -10   2    1.12    1.02 
  -7  10  -2   13.03    1.79 
   7 -10   2   11.33    1.56 
   3   9  -2   38.00    2.38 
   2   9  -2    4.57    1.19 
   1   9  -2   22.14    1.75 
   0   9  -2   68.43    2.97 
  -1   9  -2   13.65    1.42 
   1  -9   2   12.23    1.13 
  -2   9  -2    0.45    0.75 
   2  -9   2   -0.53    0.70 
  -3   9  -2    0.64    0.79 
   3  -9   2    0.01    0.74 
  -4   9  -2   19.63    1.72 
   4  -9   2   21.43    1.60 
  -5   9  -2   50.86    2.62 
   5  -9   2   49.94    2.45 
  -6   9  -2    4.59    1.29 
   6  -9   2    6.66    1.23 
   7  -9   2   14.68    1.57 
   8  -9   2    1.02    1.07 
   4   8  -2   38.96    2.44 
   3   8  -2   15.80    1.62 
   2   8  -2    3.08    1.06 
   1   8  -2    7.55    1.21 
   0   8  -2    8.83    1.15 
  -1   8  -2   19.33    1.46 
   1  -8   2   19.76    1.30 
  -2   8  -2   44.36    2.20 
   2  -8   2   44.38    1.96 
  -3   8  -2    3.35    0.87 
   3  -8   2    3.46    0.81 
  -4   8  -2   51.64    2.44 
   4  -8   2   51.71    2.33 
  -5   8  -2    8.53    1.27 
   5  -8   2   10.03    1.23 
  -6   8  -2  112.93    4.28 
   6  -8   2  111.02    3.99 
   7  -8   2   54.35    2.63 
   8  -8   2   -1.01    0.94 
   5   7  -2    3.08    1.22 
   4   7  -2    0.93    1.06 
   3   7  -2   35.57    2.15 
   2   7  -2  285.99    8.41 
   1   7  -2   92.07    2.87 
   1   7  -2   93.82    3.43 
   0   7  -2    1.78    0.54 
   0   7  -2    1.29    0.73 
   0  -7   2    1.73    0.58 
   1  -7   2   65.50    2.32 
   3  -7   2  206.91    6.10 
  -4   7  -2  166.09    5.32 
   4  -7   2  163.40    5.09 
  -5   7  -2    8.62    1.24 
   5  -7   2    7.78    1.06 
   6  -7   2    3.25    0.91 
   7  -7   2    2.92    1.04 
   8  -7   2   57.55    2.75 
   9  -7   2   21.44    1.94 
   6   6  -2   85.36    3.58 
   5   6  -2  116.12    4.23 
   4   6  -2   42.20    2.21 
   3   6  -2    0.66    0.88 
   2   6  -2    0.83    0.84 
   1   6  -2   32.09    1.36 
   1   6  -2   31.35    1.80 
  -1  -6   2   29.73    1.18 
   0   6  -2  340.99    9.68 
   0   6  -2  353.75    8.89 
   0  -6   2  345.92    9.28 
  -1   6  -2   74.16    2.73 
  -1   6  -2   79.18    2.22 
   1  -6   2   75.09    2.52 
  -2   6  -2    8.16    0.61 
   2  -6   2    6.97    0.84 
  -5   6  -2   85.71    3.29 
   5  -6   2   80.66    3.00 
   6  -6   2   42.80    2.08 
   7  -6   2   -0.48    0.86 
   8  -6   2   -0.47    0.94 
   9  -6   2   54.93    2.78 
   7   5  -2    2.79    1.15 
   6   5  -2   16.53    1.66 
   5   5  -2   14.51    1.45 
   4   5  -2   55.57    2.43 
   3   5  -2   25.78    1.59 
   2   5  -2    1.75    0.75 
   1   5  -2   11.60    1.06 
   1   5  -2   11.92    0.88 
  -1  -5   2   10.64    0.71 
   0   5  -2    1.58    0.65 
   0   5  -2    0.41    0.30 
   0  -5   2   -0.16    0.33 
  -1   5  -2  286.32    7.96 
  -1   5  -2  284.69    7.25 
   1  -5   2  285.52    7.74 
  -2   5  -2  225.21    5.49 
  -2   5  -2  195.26    6.04 
   2  -5   2  213.09    5.97 
  -4   5  -2    0.01    0.37 
   4  -5   2    0.09    0.28 
   5  -5   2    1.41    0.72 
   6  -5   2  140.51    4.55 
   7  -5   2  200.82    6.24 
   8  -5   2   45.02    2.35 
   9  -5   2    7.47    1.31 
   7   4  -2   18.31    1.78 
   6   4  -2    0.13    0.93 
   5   4  -2   12.73    1.33 
   4   4  -2   35.40    1.88 
   3   4  -2   28.76    1.55 
   2   4  -2  292.83    8.15 
   1   4  -2  163.39    4.40 
   1   4  -2  160.25    4.72 
  -1  -4   2  164.94    4.38 
   0   4  -2    7.09    0.55 
   0   4  -2    8.30    0.84 
   0  -4   2    7.16    0.59 
  -1   4  -2  162.38    4.30 
  -1   4  -2  166.04    4.77 
   1  -4   2  165.33    4.62 
  -2   4  -2   18.06    0.88 
  -2   4  -2   14.33    1.00 
   2  -4   2   15.75    0.95 
   4  -4   2  115.71    3.63 
   5  -4   2    0.30    0.66 
   6  -4   2   17.33    1.42 
   7  -4   2    1.85    0.90 
   8  -4   2   27.08    1.82 
   9  -4   2   15.46    1.60 
   8   3  -2    2.61    1.20 
   7   3  -2   -1.12    0.83 
   6   3  -2   87.27    3.35 
   5   3  -2  202.18    6.07 
   4   3  -2   42.69    1.88 
   3   3  -2   66.13    2.38 
   2   3  -2   32.01    1.39 
   1   3  -2  138.36    4.02 
  -1  -3   2  139.92    3.73 
   0   3  -2  236.38    6.03 
   0   3  -2  238.95    6.44 
   0  -3   2  232.41    6.27 
  -1   3  -2   65.56    1.96 
  -1   3  -2   66.51    2.18 
  -2   3  -2   85.85    2.81 
   2  -3   2   93.27    2.77 
  -3   3  -2    3.32    0.53 
   3  -3   2    6.67    0.69 
   4  -3   2   39.60    1.73 
   5  -3   2  130.35    4.10 
   6  -3   2    1.46    0.79 
   7  -3   2    9.18    1.14 
   8  -3   2   14.82    1.43 
   9  -3   2   18.03    1.75 
   8   2  -2   83.49    3.48 
   7   2  -2    6.87    1.12 
   6   2  -2    1.48    0.85 
   5   2  -2   22.91    1.41 
   4   2  -2  200.40    5.76 
   3   2  -2  303.96    8.27 
   2   2  -2    3.33    0.52 
  -2  -2   2    3.01    0.25 
   1   2  -2  230.77    6.43 
   1   2  -2  239.49    6.17 
  -1  -2   2  248.08    6.28 
   0   2  -2    0.90    0.42 
   0   2  -2    1.40    0.39 
   0  -2   2    0.92    0.39 
  -1   2  -2  749.53   18.56 
  -1   2  -2  745.32   19.39 
   1  -2   2  749.14   19.31 
  -2   2  -2  623.47   16.34 
   3  -2   2   59.96    2.08 
   4  -2   2   29.77    1.43 
   5  -2   2    5.97    0.80 
   6  -2   2   51.69    2.17 
   7  -2   2  115.71    3.90 
   8  -2   2   29.73    1.99 
   9  -2   2    3.94    1.19 
   9   1  -2    3.91    1.18 
   8   1  -2   32.78    2.03 
   7   1  -2   77.72    2.99 
   6   1  -2    6.80    1.00 
   5   1  -2    9.48    0.66 
   5   1  -2    9.20    0.96 
   4   1  -2    4.36    0.66 
   4   1  -2    4.10    0.40 
   3   1  -2  172.66    4.91 
  -3  -1   2  180.79    4.70 
   2   1  -2  486.40   12.41 
  -2  -1   2  465.56   12.24 
   1   1  -2 1000.00   24.95 
   1   1  -2  954.76   24.01 
  -1  -1   2  962.96   24.89 
   0   1  -2   16.80    0.79 
   0   1  -2   16.15    0.77 
   0  -1   2   15.35    0.82 
   2  -1   2   55.25    1.86 
   3  -1   2  390.97   10.39 
   4  -1   2  290.81    7.94 
   5  -1   2   11.50    1.01 
   6  -1   2    0.67    0.63 
   6  -1   2    0.68    0.73 
   7  -1   2   11.41    1.26 
   7  -1   2   12.58    1.21 
   8  -1   2   53.70    2.68 
   9  -1   2   56.75    2.87 
   9   0  -2   -0.35    0.95 
   8   0  -2   32.51    2.02 
   7   0  -2   21.42    1.60 
   6   0  -2   25.76    1.21 
   6   0  -2   25.89    1.48 
   5   0  -2  160.82    4.75 
   5   0  -2  158.77    4.44 
   4   0  -2   66.96    2.24 
  -4   0   2   66.76    2.11 
   3   0  -2  291.73    7.78 
  -3   0   2  291.78    7.72 
   2   0  -2  508.08   13.26 
  -2   0   2  518.97   13.28 
   1   0  -2  123.61    3.26 
  -1   0   2  132.16    3.45 
  -1   0   2  121.57    3.26 
   1   0   2  168.43    4.60 
   2   0   2   10.42    0.75 
   3   0   2    3.00    0.55 
   4   0   2   47.14    1.91 
   4   0   2   47.38    1.81 
   5   0   2  169.96    4.96 
   6   0   2   25.08    1.44 
   6   0   2   22.58    1.58 
   7   0   2    2.08    0.88 
   8   0   2    3.78    1.12 
   9  -1  -2   59.05    2.80 
   8  -1  -2   43.48    2.23 
   7  -1  -2    4.22    0.74 
   7  -1  -2    3.17    0.90 
   6  -1  -2    1.08    0.59 
   6  -1  -2    1.04    0.68 
   5  -1  -2    1.89    0.64 
  -5   1   2    1.83    0.62 
  -4   1   2    0.75    0.40 
  -3   1   2  267.58    7.21 
   2  -1  -2  254.93    6.53 
  -2   1   2  258.86    6.86 
   1  -1  -2   52.81    1.57 
  -1   1   2   54.34    1.73 
  -1   1   2   53.19    1.48 
   0  -1  -2    1.94    0.49 
   0   1   2    1.45    0.43 
   0   1   2    2.17    0.35 
   1   1   2  195.60    5.22 
   1   1   2  190.23    5.25 
   2   1   2   33.75    1.35 
   2   1   2   34.09    1.43 
   3   1   2    7.55    0.81 
   3   1   2    7.95    0.72 
   4   1   2  103.94    3.74 
   4   1   2  136.23    3.64 
   5   1   2   26.29    1.55 
   5   1   2   26.94    1.41 
   6   1   2   52.94    2.42 
   7   1   2   66.97    2.91 
   8   1   2    3.57    1.16 
   9  -2  -2    4.38    1.14 
   8  -2  -2   85.40    3.24 
   7  -2  -2  204.34    5.88 
   7  -2  -2  202.18    6.09 
  -6   2   2   29.27    1.53 
  -5   2   2    2.24    0.70 
  -4   2   2   58.68    2.10 
  -3   2   2    0.84    0.48 
   2  -2  -2  717.14   18.06 
  -2   2   2  732.65   18.86 
  -2   2   2  743.13   18.98 
   1  -2  -2  506.60   12.74 
  -1   2   2  500.31   13.35 
  -1   2   2  530.20   13.25 
   0   2   2   16.27    0.94 
   0   2   2   15.40    0.86 
   2   2   2   -0.32    0.43 
   2   2   2   -0.13    0.46 
   3   2   2  121.31    3.61 
   3   2   2  124.94    3.81 
   4   2   2  197.29    5.48 
   4   2   2  191.81    5.77 
   5   2   2   23.34    1.49 
   6   2   2    0.56    0.75 
   7   2   2    3.00    0.98 
   8   2   2   19.03    1.81 
  10  -3  -2   33.03    2.19 
   9  -3  -2   12.92    1.43 
   8  -3  -2   12.79    1.27 
   8  -3  -2   12.17    1.30 
   7  -3  -2    2.97    0.79 
  -7   3   2    2.69    0.87 
  -6   3   2  157.80    4.89 
  -5   3   2  408.37   11.15 
  -4   3   2  151.23    4.53 
   3  -3  -2   12.90    0.69 
  -3   3   2   13.08    0.89 
  -3   3   2   13.22    1.01 
   2  -3  -2    5.19    0.43 
  -2   3   2    5.81    0.61 
   1  -3  -2   65.34    1.86 
  -1   3   2   61.24    2.00 
  -1   3   2   64.21    2.10 
   1   3   2  100.54    3.11 
   1   3   2  112.32    3.24 
   2   3   2    6.21    0.64 
   2   3   2    4.92    0.73 
   3   3   2   40.15    1.80 
   3   3   2   38.32    1.53 
   4   3   2   81.01    2.95 
   4   3   2   77.94    2.55 
   5   3   2  103.84    3.70 
   6   3   2   47.74    2.39 
   7   3   2    1.05    0.99 
  10  -4  -2   -0.35    0.95 
   9  -4  -2   25.52    1.81 
   8  -4  -2  118.09    4.00 
  -7   4   2   -0.31    0.80 
  -6   4   2   47.55    2.19 
  -5   4   2   23.30    1.52 
   4  -4  -2  199.99    5.20 
  -4   4   2  205.05    5.88 
  -4   4   2  196.54    5.74 
   3  -4  -2  103.19    2.77 
  -3   4   2  107.31    3.21 
   2  -4  -2    7.49    0.56 
  -2   4   2    9.72    0.90 
  -1   4   2   82.72    2.70 
  -1   4   2   85.17    2.63 
   0   4   2    2.43    0.57 
   0   4   2    2.20    0.58 
   1   4   2  161.91    4.71 
   1   4   2  175.56    4.94 
   2   4   2  223.34    6.51 
   2   4   2  229.42    6.21 
   3   4   2   26.65    1.25 
   3   4   2   26.80    1.59 
   4   4   2   14.09    1.35 
   5   4   2   -0.23    0.77 
   6   4   2   55.99    2.71 
   7   4   2  109.02    4.36 
   9  -5  -2    3.35    1.04 
   8  -5  -2   21.67    1.61 
  -8   5   2   20.01    1.77 
  -7   5   2   44.63    2.31 
  -6   5   2    1.05    0.78 
   5  -5  -2   12.94    0.82 
  -5   5   2   13.18    1.18 
  -5   5   2   14.15    1.29 
   4  -5  -2  100.21    2.74 
  -4   5   2  106.02    3.38 
   3  -5  -2    9.00    0.52 
  -3   5   2   10.70    0.94 
  -3   5   2    8.63    0.97 
  -2   5   2  331.35    9.07 
  -2   5   2  326.93    8.97 
  -1   5   2   70.50    2.38 
  -1   5   2   66.79    2.40 
   0   5   2    3.77    0.75 
   0   5   2    2.96    0.63 
   1   5   2   62.64    2.38 
   1   5   2   57.95    2.07 
   2   5   2    0.28    0.51 
   2   5   2    0.24    0.76 
   3   5   2   20.82    1.50 
   4   5   2   66.37    2.89 
   5   5   2    7.13    1.24 
   6   5   2    0.88    1.10 
   9  -6  -2    4.49    1.13 
   8  -6  -2   15.51    1.53 
  -8   6   2   12.60    1.57 
  -7   6   2    5.92    1.24 
  -6   6   2   79.89    3.21 
  -5   6   2  254.80    7.20 
  -5   6   2  233.99    7.25 
  -3   6   2   26.98    1.53 
  -3   6   2   26.64    1.63 
  -2   6   2   12.72    1.08 
  -2   6   2   12.02    1.16 
  -1   6   2    2.65    0.72 
  -1   6   2    1.53    0.67 
   0   6   2  185.40    5.44 
   0   6   2  177.55    5.27 
   1   6   2    8.93    1.11 
   1   6   2    8.15    0.84 
   2   6   2   -0.29    0.75 
   3   6   2   27.98    1.90 
   4   6   2    1.93    1.01 
   5   6   2   26.12    1.96 
   9  -7  -2   35.87    2.21 
  -8   7   2  127.02    4.73 
  -7   7   2   17.63    1.73 
  -6   7   2    5.64    1.10 
  -6   7   2    2.77    0.93 
  -5   7   2    6.06    1.06 
  -5   7   2    5.43    1.01 
  -4   7   2  185.29    5.64 
  -4   7   2  181.66    5.71 
  -3   7   2   51.41    2.24 
  -3   7   2   49.57    2.23 
  -2   7   2   30.66    1.63 
  -2   7   2   30.07    1.71 
  -1   7   2   -1.07    0.66 
  -1   7   2    0.09    0.67 
   0   7   2    3.05    0.80 
   0   7   2    2.80    0.95 
   1   7   2   96.35    3.20 
   1   7   2   99.99    3.61 
   2   7   2  193.23    6.15 
   3   7   2    6.43    1.27 
   4   7   2    7.93    1.35 
   5   7   2    0.80    1.16 
   9  -8  -2    0.70    1.05 
  -8   8   2   26.40    2.20 
  -7   8   2   89.34    3.79 
  -6   8   2   42.55    2.34 
  -6   8   2   42.89    2.35 
  -5   8   2   21.64    1.84 
  -5   8   2   21.96    1.70 
  -4   8   2   11.08    1.27 
  -4   8   2    9.41    1.33 
  -3   8   2   63.88    2.67 
  -3   8   2   66.71    2.69 
  -2   8   2  233.65    7.04 
  -2   8   2  243.33    7.15 
  -1   8   2  185.76    5.67 
  -1   8   2  188.25    5.89 
   0   8   2   22.16    1.67 
   0   8   2   19.23    1.40 
   1   8   2   10.65    1.31 
   2   8   2   -0.26    0.89 
   3   8   2   49.87    2.75 
   4   8   2   74.97    3.49 
  -8   9   2   18.72    2.01 
  -7   9   2    8.17    1.43 
  -7   9   2    8.92    1.51 
  -6   9   2   15.76    1.67 
  -6   9   2   14.89    1.68 
  -5   9   2   59.58    2.83 
  -5   9   2   52.62    2.62 
  -4   9   2   64.89    2.80 
  -4   9   2   64.37    2.93 
  -3   9   2   17.24    1.60 
  -3   9   2   16.08    1.59 
  -2   9   2   18.18    1.59 
  -2   9   2   18.33    1.54 
  -1   9   2    2.11    0.98 
  -1   9   2    2.45    0.85 
   0   9   2   35.48    2.23 
   1   9   2   21.87    1.96 
   2   9   2   11.92    1.57 
   3   9   2    1.90    1.18 
   8 -10  -2   27.63    2.10 
  -8  10   2   24.78    2.32 
  -7  10   2    2.68    1.23 
  -7  10   2    1.62    1.16 
  -6  10   2    4.80    1.26 
  -6  10   2    2.08    1.14 
  -5  10   2    2.41    1.16 
  -5  10   2    4.68    1.10 
  -4  10   2   36.43    2.29 
  -4  10   2   40.16    2.34 
  -3  10   2   31.14    2.09 
  -3  10   2   29.87    2.01 
  -2  10   2    0.15    0.93 
  -2  10   2   -0.43    0.90 
  -1  10   2   20.51    1.89 
   0  10   2    1.54    1.17 
   1  10   2   40.38    2.61 
  -7  11   2   66.65    3.35 
  -7  11   2   63.49    3.32 
  -6  11   2   30.94    2.36 
  -6  11   2   28.32    2.40 
  -5  11   2    2.98    1.12 
  -5  11   2   -0.39    1.11 
  -4  11   2   12.32    1.62 
  -4  11   2   14.48    1.69 
  -3  11   2    2.83    1.17 
  -3  11   2    3.58    1.20 
  -2  11   2   58.66    3.06 
  -1  11   2   68.67    3.37 
   0  11   2   -0.45    1.16 
  -4  12   2   25.89    2.28 
  -4  12   2   28.34    2.22 
  -3  12   2    0.47    1.19 
   0  11  -3    8.48    1.53 
  -1  11  -3  104.48    4.33 
  -2  11  -3   89.24    3.88 
  -3  11  -3    0.01    0.98 
   3 -11   3   -0.69    0.86 
  -4  11  -3    8.58    1.46 
   4 -11   3    8.80    1.31 
  -5  11  -3    0.11    1.00 
   5 -11   3    1.06    1.05 
  -6  11  -3   35.85    2.54 
   6 -11   3   34.23    2.23 
   2  10  -3   45.50    2.69 
   1  10  -3    6.10    1.31 
   0  10  -3    5.24    1.24 
  -1  10  -3   23.58    1.88 
  -2  10  -3    1.15    0.90 
   2 -10   3    1.08    0.84 
  -3  10  -3   44.88    2.46 
   3 -10   3   47.61    2.28 
  -4  10  -3    5.75    1.15 
   4 -10   3    5.02    1.09 
  -5  10  -3    1.50    1.03 
   5 -10   3    2.11    1.01 
  -6  10  -3   -0.52    0.99 
   6 -10   3    1.75    1.05 
  -7  10  -3   13.33    1.83 
   7 -10   3   12.00    1.62 
   3   9  -3    8.64    1.53 
   2   9  -3   -0.03    0.99 
   1   9  -3   40.25    2.42 
   0   9  -3   39.49    2.31 
  -1   9  -3    4.15    1.15 
  -2   9  -3   15.98    1.54 
   2  -9   3   19.00    1.40 
  -3   9  -3    0.11    0.83 
   3  -9   3    1.92    0.79 
  -4   9  -3   13.08    1.45 
   4  -9   3   12.42    1.33 
  -5   9  -3   89.96    3.67 
   5  -9   3   87.93    3.48 
  -6   9  -3    1.83    0.99 
   6  -9   3    1.51    1.00 
   7  -9   3   24.55    1.93 
   4   8  -3   59.67    2.99 
   4   8  -3   64.43    2.60 
   3   8  -3   56.21    2.75 
   3   8  -3   56.05    2.34 
   2   8  -3   -1.14    0.91 
   1   8  -3    4.14    1.09 
   0   8  -3   60.69    2.68 
  -1   8  -3  205.46    6.37 
   1  -8   3  202.34    5.95 
  -2   8  -3  109.87    3.96 
   2  -8   3  109.36    3.64 
  -3   8  -3    2.91    0.86 
   3  -8   3    2.80    0.86 
  -4   8  -3   30.07    1.85 
   4  -8   3   29.83    1.72 
  -5   8  -3    0.70    0.79 
   5  -8   3    0.47    0.80 
  -6   8  -3   42.45    2.42 
   6  -8   3   39.64    2.14 
   7  -8   3   48.37    2.46 
   8  -8   3   12.03    1.61 
   5   7  -3   10.04    1.53 
   4   7  -3   13.07    1.30 
   4   7  -3   13.00    1.50 
   3   7  -3   24.66    1.73 
   3   7  -3   24.96    1.54 
   2   7  -3  218.05    6.82 
   2   7  -3  226.97    6.22 
   1   7  -3   81.62    3.18 
   1   7  -3   79.59    2.63 
   0   7  -3    3.94    0.92 
   0   7  -3    3.59    0.64 
   0  -7   3    3.19    0.66 
  -1   7  -3    2.47    0.88 
  -1   7  -3    1.75    0.55 
   1  -7   3    2.29    0.71 
  -2   7  -3   67.31    2.76 
   2  -7   3   70.87    2.56 
  -3   7  -3  186.34    5.76 
   3  -7   3  184.93    5.57 
  -4   7  -3  120.39    4.14 
   4  -7   3  116.10    3.94 
  -5   7  -3   44.13    2.28 
   5  -7   3   40.86    2.11 
   6  -7   3    2.36    0.85 
   7  -7   3   10.50    1.36 
   8  -7   3   66.50    3.02 
   6   6  -3   25.79    2.06 
   5   6  -3   61.47    2.88 
   4   6  -3    6.77    1.18 
   3   6  -3    2.26    0.73 
   3   6  -3    1.63    0.87 
   2   6  -3    0.46    0.60 
   2   6  -3    0.93    0.77 
   1   6  -3   64.88    2.20 
   1   6  -3   63.04    2.60 
   0   6  -3   68.17    2.19 
   0   6  -3   68.54    2.62 
   0  -6   3   70.26    2.31 
  -1   6  -3    3.79    0.83 
   1  -6   3    3.73    0.69 
  -2   6  -3    3.21    0.51 
  -2   6  -3    2.91    0.81 
   2  -6   3    1.98    0.70 
  -3   6  -3    3.57    0.84 
   3  -6   3    3.90    0.78 
  -4   6  -3   52.15    2.36 
   4  -6   3   55.16    2.31 
  -5   6  -3  183.99    5.95 
   5  -6   3  191.53    5.77 
   6  -6   3   26.63    1.70 
   7  -6   3   16.23    1.56 
   8  -6   3    3.93    1.14 
   7   5  -3    1.29    1.11 
   6   5  -3    8.00    1.34 
   5   5  -3   19.71    1.64 
   4   5  -3   57.05    2.51 
   3   5  -3   35.38    1.90 
   2   5  -3   51.95    1.91 
   2   5  -3   51.03    2.19 
   1   5  -3  110.01    3.23 
   1   5  -3  111.73    3.56 
  -1  -5   3  107.91    3.14 
   0   5  -3    5.02    0.60 
   0   5  -3    6.35    0.84 
   0  -5   3    5.65    0.62 
  -1   5  -3  203.82    5.97 
   1  -5   3  206.31    5.76 
  -2   5  -3  195.03    5.78 
   2  -5   3  198.89    5.66 
  -3   5  -3   -0.03    0.69 
   3  -5   3   -0.16    0.63 
   4  -5   3    0.18    0.36 
   5  -5   3   33.00    1.75 
   6  -5   3   62.30    2.59 
   7  -5   3   60.21    2.62 
   8  -5   3   20.65    1.79 
   9  -5   3    3.63    1.24 
   7   4  -3  100.11    3.86 
   6   4  -3   15.71    1.49 
   5   4  -3    3.09    0.94 
   4   4  -3   10.59    1.11 
   3   4  -3   38.34    1.82 
   2   4  -3  257.46    6.93 
   2   4  -3  265.08    7.31 
  -2  -4   3  260.17    6.86 
   1   4  -3  158.94    4.34 
   1   4  -3  155.28    4.63 
  -1  -4   3  159.69    4.33 
   0   4  -3    0.28    0.50 
   0   4  -3    0.39    0.39 
   0  -4   3   -0.63    0.29 
  -1   4  -3   19.02    1.22 
  -1   4  -3   17.02    0.95 
   1  -4   3   19.23    1.05 
  -2   4  -3   77.01    2.69 
   2  -4   3   78.65    2.56 
  -3   4  -3   54.49    2.17 
   3  -4   3   53.92    2.03 
   4  -4   3   65.37    2.45 
   5  -4   3    0.41    0.76 
   6  -4   3   -0.31    0.70 
   7  -4   3    0.58    0.81 
   8  -4   3   26.50    1.86 
   9  -4   3   10.34    1.50 
   8   3  -3   10.30    1.44 
   7   3  -3    1.55    0.96 
   6   3  -3   98.74    3.57 
   5   3  -3  159.30    4.96 
   4   3  -3   71.81    2.57 
   3   3  -3    1.47    0.63 
   2   3  -3   10.18    0.77 
   2   3  -3    9.62    0.84 
  -2  -3   3    8.00    0.59 
   1   3  -3  235.34    6.45 
   1   3  -3  232.00    6.14 
  -1  -3   3  236.18    6.26 
   0   3  -3  218.02    5.93 
   0  -3   3  210.86    5.80 
  -1   3  -3   19.22    0.97 
  -1   3  -3   19.32    1.13 
   1  -3   3   18.30    1.01 
  -2   3  -3   18.28    1.11 
   2  -3   3   16.40    1.05 
   3  -3   3    0.15    0.45 
   4  -3   3  126.09    3.92 
   5  -3   3  228.78    6.64 
   6  -3   3  159.27    5.01 
   7  -3   3    3.10    0.97 
   8  -3   3   35.97    2.10 
   9  -3   3   20.17    1.88 
   8   2  -3   25.38    1.92 
   7   2  -3    5.09    1.08 
   6   2  -3   18.25    1.44 
   5   2  -3   44.60    1.99 
   4   2  -3  142.56    4.28 
   3   2  -3   89.44    2.81 
  -3  -2   3   90.17    2.48 
   2   2  -3    4.02    0.56 
   2   2  -3    4.55    0.59 
  -2  -2   3    6.68    0.49 
   1   2  -3    4.69    0.56 
  -1  -2   3    5.59    0.59 
   0   2  -3   17.98    0.91 
   0   2  -3   16.35    0.92 
   0  -2   3   16.33    0.92 
  -1   2  -3  668.59   17.22 
  -1   2  -3  652.43   16.53 
   3  -2   3   27.08    1.30 
   4  -2   3   -0.26    0.55 
   5  -2   3    3.72    0.85 
   6  -2   3  117.93    3.93 
   7  -2   3  127.09    4.42 
   7  -2   3  126.70    4.28 
   8  -2   3   47.78    2.45 
   9   1  -3    0.16    0.99 
   8   1  -3    8.27    1.23 
   7   1  -3  145.18    4.66 
   6   1  -3   24.96    1.51 
   5   1  -3   35.08    1.55 
   4   1  -3   46.70    1.77 
  -4  -1   3   48.05    1.56 
   3   1  -3  168.00    4.70 
  -3  -1   3  169.06    4.56 
   2   1  -3  401.46   10.62 
  -2  -1   3  412.91   10.61 
   1   1  -3  106.23    2.87 
  -1  -1   3  101.22    3.00 
   0   1  -3   -0.01    0.36 
   0   1  -3    0.69    0.46 
   0  -1   3   -0.49    0.42 
   2  -1   3    0.55    0.52 
   3  -1   3  121.06    3.66 
   4  -1   3  136.39    4.14 
   5  -1   3   11.81    1.11 
   6  -1   3   -0.43    0.73 
   6  -1   3    0.27    0.74 
   7  -1   3    5.56    1.00 
   7  -1   3    7.35    1.11 
   8  -1   3   52.78    2.64 
   9   0  -3    3.91    1.12 
   8   0  -3   32.56    1.83 
   7   0  -3   11.42    1.19 
   6   0  -3   13.09    1.12 
   4   0  -3   48.30    1.72 
  -4   0   3   48.79    1.69 
   3   0  -3   57.35    1.90 
   3   0  -3   58.32    1.84 
  -3   0   3   60.40    1.91 
   2   0  -3   17.12    0.87 
   2   0  -3   17.28    0.72 
  -2   0   3   18.28    1.00 
   1   0  -3   70.34    2.21 
   1   0  -3   78.90    2.05 
  -1   0   3   84.29    2.41 
   0   0   3    7.23    0.63 
   2   0   3    0.35    0.53 
   3   0   3   61.79    2.16 
   4   0   3   31.85    1.51 
   4   0   3   30.34    1.65 
   5   0   3  177.60    5.27 
   5   0   3  178.56    5.46 
   6   0   3   27.01    1.57 
   6   0   3   29.71    1.86 
   7   0   3    7.36    1.18 
   8   0   3   17.60    1.74 
   9  -1  -3   70.21    3.01 
   8  -1  -3   23.56    1.65 
   7  -1  -3    0.46    0.73 
   6  -1  -3    0.35    0.61 
  -6   1   3   -0.19    0.60 
   5  -1  -3   88.32    2.82 
  -5   1   3   88.01    2.85 
   4  -1  -3  128.60    3.65 
  -4   1   3  125.53    3.75 
   3  -1  -3  279.83    7.24 
   2  -1  -3    7.44    0.63 
  -2   1   3    7.71    0.69 
   1  -1  -3   27.27    0.79 
   1  -1  -3   26.54    1.08 
  -1   1   3   26.65    1.18 
   0  -1  -3   10.17    0.77 
   0   1   3    9.76    0.78 
   0   1   3    9.94    0.65 
   1   1   3  569.78   14.80 
   1   1   3  559.21   14.71 
   2   1   3  473.53   12.63 
   2   1   3  479.88   12.66 
   3   1   3   19.29    1.20 
   3   1   3   19.78    1.27 
   4   1   3   94.24    3.23 
   4   1   3   92.36    3.06 
   5   1   3   26.26    1.58 
   5   1   3   30.17    1.80 
   6   1   3   19.68    1.65 
   7   1   3   64.88    2.96 
   8   1   3   21.03    1.90 
   9  -2  -3   -0.36    0.85 
   8  -2  -3   66.63    2.70 
   7  -2  -3  245.13    7.13 
  -7   2   3  249.90    7.15 
   6  -2  -3   94.50    3.07 
  -6   2   3   90.53    3.13 
  -5   2   3    0.77    0.61 
   4  -2  -3   52.18    1.75 
  -4   2   3   48.76    1.91 
   3  -2  -3   38.61    1.36 
  -3   2   3   39.40    1.62 
   2  -2  -3  436.50   10.80 
  -2   2   3  421.98   11.13 
   1  -2  -3  451.11   11.37 
  -1   2   3  452.09   11.68 
   0   2   3   54.14    1.72 
   0   2   3   50.82    1.89 
   1   2   3   81.08    2.51 
   1   2   3   80.61    2.57 
   2   2   3   41.29    1.63 
   2   2   3   42.01    1.64 
   3   2   3  149.82    4.43 
   3   2   3  152.50    4.61 
   4   2   3   97.71    3.14 
   4   2   3   94.14    3.38 
   5   2   3   24.38    1.61 
   6   2   3   -0.50    0.90 
   7   2   3    5.09    1.16 
  10  -3  -3   60.10    2.85 
   9  -3  -3    2.80    0.95 
   8  -3  -3    9.26    1.12 
   8  -3  -3    9.06    1.12 
  -8   3   3    7.16    1.11 
  -7   3   3   11.06    1.21 
  -6   3   3   38.91    1.90 
   5  -3  -3  142.81    3.99 
  -5   3   3  138.66    4.38 
   4  -3  -3   47.07    1.60 
  -4   3   3   45.55    1.96 
   3  -3  -3   14.79    0.79 
  -3   3   3   15.70    0.91 
  -3   3   3   15.26    1.13 
   2  -3  -3   77.42    2.28 
  -2   3   3   80.99    2.38 
   1  -3  -3  251.55    6.50 
  -1   3   3  249.55    6.70 
  -1   3   3  250.74    6.89 
   0   3   3  284.47    7.74 
   1   3   3   53.87    1.93 
   1   3   3   53.86    1.93 
   2   3   3    5.40    0.82 
   2   3   3    6.70    0.77 
   3   3   3    1.68    0.72 
   3   3   3    1.19    0.62 
   4   3   3   45.93    1.84 
   4   3   3   45.36    2.18 
   5   3   3  252.28    7.57 
   6   3   3   23.67    1.81 
   7   3   3    4.35    1.27 
  10  -4  -3   -1.16    0.84 
   9  -4  -3   31.57    1.93 
   9  -4  -3   35.33    1.99 
  -8   4   3   44.14    2.32 
  -7   4   3    4.64    1.01 
   6  -4  -3    1.11    0.61 
  -6   4   3    1.29    0.85 
   5  -4  -3    3.32    0.59 
  -5   4   3    5.18    0.93 
   4  -4  -3   52.12    1.63 
  -4   4   3   52.22    2.16 
  -4   4   3   46.41    1.91 
   3  -4  -3  193.19    4.70 
  -3   4   3  164.36    5.23 
   2  -4  -3    0.38    0.41 
  -2   4   3    0.64    0.54 
  -2   4   3    0.32    0.36 
  -1   4   3  134.34    4.06 
  -1   4   3  135.75    3.92 
   0   4   3    4.52    0.70 
   0   4   3    4.72    0.66 
   1   4   3  109.91    3.46 
   1   4   3  110.73    3.41 
   2   4   3  206.11    5.79 
   2   4   3  203.02    5.99 
   3   4   3   77.59    2.93 
   3   4   3   80.11    2.64 
   4   4   3   63.36    2.69 
   5   4   3   16.32    1.64 
   6   4   3   10.34    1.53 
  10  -5  -3    3.79    1.15 
   9  -5  -3    3.26    1.03 
  -9   5   3    5.04    1.21 
   8  -5  -3   41.97    1.89 
  -8   5   3   41.29    2.31 
   7  -5  -3  106.72    3.27 
  -7   5   3  102.73    3.84 
   6  -5  -3   24.64    1.24 
  -6   5   3   25.60    1.75 
   5  -5  -3   14.06    0.88 
  -5   5   3   14.83    1.38 
  -5   5   3   13.22    1.17 
   4  -5  -3   66.57    1.96 
  -4   5   3   64.89    2.38 
   3  -5  -3    5.16    0.52 
  -3   5   3    5.11    0.88 
  -3   5   3    5.20    0.76 
  -2   5   3  114.36    3.62 
  -2   5   3  112.23    3.49 
  -1   5   3  169.85    5.09 
  -1   5   3  175.70    5.03 
   0   5   3    4.40    0.82 
   0   5   3    6.85    0.83 
   1   5   3   55.31    2.10 
   1   5   3   58.79    2.31 
   2   5   3   10.20    0.92 
   2   5   3    9.13    1.15 
   3   5   3   79.08    3.05 
   4   5   3   36.05    2.06 
   5   5   3    1.20    1.06 
   6   5   3    4.24    1.36 
   9  -6  -3   33.25    2.11 
  -9   6   3   33.44    2.27 
  -8   6   3    1.18    1.09 
  -7   6   3   11.97    1.48 
  -6   6   3  122.70    4.30 
  -5   6   3  168.67    5.31 
  -5   6   3  180.93    5.57 
  -3   6   3    0.20    0.73 
  -3   6   3   -0.49    0.61 
  -2   6   3    5.31    0.95 
  -2   6   3    3.55    0.76 
  -1   6   3   24.52    1.49 
  -1   6   3   23.64    1.44 
   0   6   3  171.04    5.14 
   0   6   3  174.62    5.24 
   1   6   3   34.56    1.63 
   1   6   3   33.08    1.80 
   2   6   3   20.40    1.62 
   3   6   3    3.22    1.00 
   4   6   3   20.53    1.84 
   5   6   3   62.86    3.02 
  -9   7   3   32.46    2.36 
  -8   7   3   74.07    3.41 
  -7   7   3    8.28    1.33 
  -6   7   3    8.44    1.34 
  -6   7   3    9.81    1.24 
  -5   7   3   27.50    1.69 
  -5   7   3   25.31    1.67 
  -4   7   3  157.83    5.08 
  -4   7   3  154.78    4.90 
  -3   7   3   86.43    3.13 
  -3   7   3   88.22    3.23 
  -2   7   3   10.75    1.15 
  -2   7   3   11.37    1.23 
  -1   7   3   10.95    1.16 
  -1   7   3   13.12    1.26 
   0   7   3    1.19    0.77 
   0   7   3    1.63    0.87 
   1   7   3  149.95    4.65 
   1   7   3  156.35    5.05 
   2   7   3  158.03    5.26 
   3   7   3   40.17    2.34 
   4   7   3    5.07    1.33 
  -9   8   3    8.16    1.58 
  -8   8   3    6.19    1.47 
  -7   8   3   68.60    3.17 
  -6   8   3   69.25    3.11 
  -6   8   3   69.70    2.98 
  -5   8   3    2.11    0.96 
  -5   8   3    1.55    0.89 
  -4   8   3   35.98    2.12 
  -4   8   3   37.96    1.99 
  -3   8   3    2.16    0.89 
  -3   8   3    0.82    0.92 
  -2   8   3  171.20    5.44 
  -2   8   3  173.29    5.44 
  -1   8   3  173.33    5.42 
  -1   8   3  175.18    5.56 
   0   8   3   -0.34    0.77 
   0   8   3   -0.17    0.92 
   1   8   3    3.09    1.04 
   2   8   3   -1.24    0.90 
   3   8   3   49.29    2.69 
  -8   9   3   11.61    1.78 
  -7   9   3   25.16    2.02 
  -7   9   3   26.25    2.07 
  -6   9   3    2.40    1.04 
  -6   9   3    4.41    1.15 
  -5   9   3   44.51    2.46 
  -5   9   3   45.34    2.36 
  -4   9   3   21.61    1.73 
  -4   9   3   25.34    1.98 
  -3   9   3   21.91    1.77 
  -3   9   3   17.57    1.62 
  -2   9   3    0.72    0.88 
  -2   9   3    0.20    0.89 
  -1   9   3    9.13    1.38 
  -1   9   3   11.46    1.29 
   0   9   3   19.03    1.75 
   1   9   3    3.07    1.20 
   2   9   3   11.04    1.57 
  -8  10   3   29.77    2.29 
  -7  10   3   -0.48    0.98 
  -7  10   3   -0.37    1.04 
  -6  10   3    5.33    1.29 
  -6  10   3    6.62    1.40 
  -5  10   3    1.33    0.99 
  -5  10   3    0.73    1.04 
  -4  10   3   65.36    3.08 
  -4  10   3   64.79    2.99 
  -3  10   3   38.11    2.24 
  -3  10   3   36.61    2.26 
  -2  10   3    1.15    0.99 
  -2  10   3    1.67    0.99 
  -1  10   3   24.85    2.07 
   0  10   3   12.45    1.68 
   1  10   3   41.17    2.57 
  -6  11   3   73.81    3.53 
  -6  11   3   69.30    3.38 
  -5  11   3    9.12    1.59 
  -5  11   3    6.86    1.37 
  -4  11   3    4.93    1.33 
  -4  11   3    4.40    1.26 
  -3  11   3    6.55    1.36 
  -3  11   3    5.51    1.37 
  -2  11   3   73.46    3.38 
  -1  11   3   85.97    3.77 
   0  11  -4    1.89    1.32 
  -1  11  -4   45.37    2.80 
  -2  11  -4   55.91    3.04 
  -3  11  -4    7.34    1.39 
   3 -11   4    6.11    1.23 
  -4  11  -4    3.88    1.22 
   4 -11   4    3.43    1.14 
  -5  11  -4   -1.19    0.93 
   5 -11   4   -0.16    1.03 
   2  10  -4   48.25    2.77 
   1  10  -4   13.56    1.72 
   0  10  -4    6.42    1.38 
  -1  10  -4    4.13    1.26 
  -2  10  -4    3.97    1.22 
   2 -10   4    4.97    0.99 
  -3  10  -4   34.75    2.21 
   3 -10   4   29.86    1.90 
  -4  10  -4    0.58    0.94 
   4 -10   4    0.56    0.91 
  -5  10  -4    3.75    1.24 
   5 -10   4    4.32    1.18 
  -6  10  -4   10.50    1.64 
   6 -10   4    9.12    1.44 
   3   9  -4    2.87    1.17 
   2   9  -4    1.98    1.06 
   1   9  -4   69.95    3.20 
   0   9  -4   32.91    2.20 
  -1   9  -4   12.64    1.54 
  -2   9  -4    7.17    1.26 
   2  -9   4    5.24    0.98 
  -3   9  -4    0.79    0.92 
   3  -9   4    1.55    0.87 
  -4   9  -4   40.85    2.34 
   4  -9   4   39.81    2.17 
  -5   9  -4  132.65    4.97 
   5  -9   4  139.26    4.78 
  -6   9  -4   18.25    1.84 
   6  -9   4   18.19    1.78 
   7  -9   4    1.75    1.07 
   4   8  -4   91.39    3.81 
   4   8  -4   97.26    3.49 
   3   8  -4   82.82    3.03 
   3   8  -4   78.22    3.38 
   2   8  -4    0.99    0.95 
   1   8  -4    1.01    0.99 
   0   8  -4    1.53    0.94 
  -1   8  -4   88.06    3.48 
   1  -8   4   93.90    3.16 
  -2   8  -4  198.73    6.22 
   2  -8   4  193.71    5.88 
  -3   8  -4    5.96    1.10 
   3  -8   4    7.16    1.08 
  -4   8  -4    4.53    1.11 
   4  -8   4    7.03    1.08 
  -5   8  -4    7.29    1.28 
   5  -8   4    8.11    1.23 
   6  -8   4   51.26    2.53 
   7  -8   4   46.62    2.43 
   8  -8   4   16.57    1.77 
   5   7  -4    9.35    1.22 
   5   7  -4    7.94    1.34 
   4   7  -4   15.40    1.55 
   4   7  -4   17.00    1.45 
   3   7  -4    8.64    1.09 
   3   7  -4    9.53    1.35 
   2   7  -4   91.79    3.04 
   2   7  -4   88.39    3.40 
   1   7  -4   93.53    3.53 
   1   7  -4   99.55    3.11 
   0   7  -4    3.60    0.72 
   0   7  -4    5.23    1.08 
   0  -7   4    4.51    0.74 
  -1   7  -4   17.09    1.14 
  -1   7  -4   15.52    1.45 
   1  -7   4   15.40    1.16 
  -2   7  -4   35.34    2.04 
   2  -7   4   39.57    1.84 
  -3   7  -4  106.50    3.82 
   3  -7   4  105.11    3.63 
  -4   7  -4   42.11    2.24 
   4  -7   4   43.08    2.13 
  -5   7  -4    0.16    0.86 
   5  -7   4    0.11    0.74 
   6  -7   4   -0.45    0.72 
   7  -7   4   42.40    2.37 
   8  -7   4   80.20    3.45 
   6   6  -4   13.21    1.65 
   6   6  -4   15.58    1.53 
   5   6  -4   20.78    1.62 
   5   6  -4   16.05    1.64 
   4   6  -4   -0.53    0.86 
   4   6  -4    1.46    0.78 
   3   6  -4   12.10    1.13 
   3   6  -4   10.04    1.24 
   2   6  -4    2.48    0.87 
   2   6  -4    0.94    0.71 
   1   6  -4  128.46    4.20 
   1   6  -4  126.16    3.73 
  -1  -6   4  124.25    3.70 
   0   6  -4   71.58    2.79 
   0   6  -4   73.76    2.38 
   0  -6   4   70.46    2.41 
  -1   6  -4    1.50    0.73 
  -1   6  -4    2.26    0.66 
   1  -6   4    0.98    0.64 
  -2   6  -4   29.88    1.38 
  -2   6  -4   32.21    1.80 
   2  -6   4   27.65    1.54 
  -3   6  -4   17.48    1.45 
   3  -6   4   14.68    1.24 
  -4   6  -4   54.70    2.45 
   4  -6   4   50.03    2.29 
   5  -6   4  142.64    4.64 
   6  -6   4    6.50    1.09 
   7  -6   4   15.80    1.57 
   8  -6   4    3.85    1.23 
   7   5  -4    7.02    1.35 
   6   5  -4   -0.08    0.93 
   5   5  -4   14.02    1.35 
   5   5  -4   12.18    1.33 
   4   5  -4   92.52    3.18 
   4   5  -4   93.59    3.38 
   3   5  -4  143.11    4.31 
   3   5  -4  143.55    4.55 
   2   5  -4    5.40    0.94 
   2   5  -4    5.74    0.86 
   1   5  -4  133.95    3.89 
   1   5  -4  132.48    4.22 
  -1  -5   4  134.51    3.86 
   0   5  -4    1.01    0.57 
   0   5  -4    0.33    0.68 
   0  -5   4    1.45    0.56 
  -1   5  -4   51.33    2.09 
  -1   5  -4   47.21    1.80 
   1  -5   4   45.91    1.86 
  -2   5  -4  133.97    4.20 
  -2   5  -4  124.35    3.77 
   2  -5   4  135.34    4.06 
  -3   5  -4   15.05    1.28 
   3  -5   4   15.38    1.18 
  -4   5  -4   22.76    1.70 
   4  -5   4   25.79    1.52 
   5  -5   4   32.38    1.83 
   6  -5   4   48.79    2.38 
   7  -5   4   28.33    1.95 
   8  -5   4    2.97    1.16 
   7   4  -4   89.22    3.54 
   6   4  -4   37.27    2.01 
   5   4  -4    0.21    0.72 
   4   4  -4    3.55    0.88 
   4   4  -4    2.57    0.82 
   3   4  -4    0.22    0.65 
   3   4  -4    1.49    0.73 
   2   4  -4  372.30    9.74 
   2   4  -4  368.67   10.15 
  -2  -4   4  376.71    9.83 
   1   4  -4  154.08    4.55 
   1   4  -4  153.47    4.33 
   0   4  -4   19.51    1.26 
   0   4  -4   21.30    1.14 
   0  -4   4   20.42    1.13 
  -1   4  -4    1.79    0.66 
  -1   4  -4    4.46    0.69 
   1  -4   4    1.86    0.60 
  -2   4  -4  144.02    4.18 
  -2   4  -4  146.85    4.47 
   2  -4   4  150.28    4.41 
  -3   4  -4   96.81    3.31 
   4  -4   4   48.50    2.03 
   5  -4   4    8.25    1.12 
   6  -4   4    8.31    1.23 
   7  -4   4   10.79    1.37 
   8  -4   4   86.70    3.54 
   8   3  -4    2.62    1.08 
   7   3  -4    0.95    0.93 
   6   3  -4  103.64    3.61 
   5   3  -4  129.59    4.16 
   4   3  -4   20.23    1.35 
   4   3  -4   19.30    1.25 
   3   3  -4    6.60    0.83 
   3   3  -4    7.08    0.82 
  -3  -3   4    6.93    0.50 
   2   3  -4   55.13    1.93 
   2   3  -4   53.78    1.91 
  -2  -3   4   49.10    1.72 
   1   3  -4  132.89    3.90 
   1   3  -4  132.76    3.76 
   0   3  -4  649.15   16.75 
   0   3  -4  631.67   16.06 
   0  -3   4  635.28   16.68 
  -1   3  -4  130.45    3.92 
  -1   3  -4  134.66    3.78 
   1  -3   4  132.82    3.91 
  -2   3  -4   61.60    2.31 
  -2   3  -4   63.19    2.22 
   2  -3   4   65.84    2.29 
   3  -3   4   -0.02    0.24 
   4  -3   4  157.93    4.85 
   5  -3   4  210.12    6.29 
   6  -3   4   80.39    3.07 
   7  -3   4    0.36    0.90 
   8  -3   4    8.30    1.34 
   8  -3   4    9.05    1.30 
   8   2  -4    7.55    1.21 
   7   2  -4    7.08    1.05 
   6   2  -4   41.33    1.97 
   5   2  -4   14.13    1.13 
   4   2  -4  132.12    3.94 
  -4  -2   4  129.80    3.61 
   3   2  -4   52.33    1.90 
   3   2  -4   52.01    1.85 
  -3  -2   4   51.52    1.67 
   2   2  -4    1.87    0.57 
   2   2  -4    2.42    0.49 
  -2  -2   4    0.94    0.43 
   1   2  -4  120.97    3.38 
   1   2  -4  115.70    3.38 
   0   2  -4    2.22    0.47 
   0   2  -4    1.75    0.55 
   0  -2   4    2.35    0.56 
  -1   2  -4  223.73    5.97 
  -1   2  -4  217.61    6.11 
   1  -2   4  224.51    6.17 
   3  -2   4   37.24    1.66 
   4  -2   4    4.28    0.81 
   5  -2   4    6.16    1.02 
   6  -2   4   72.57    2.89 
   7  -2   4   43.12    2.25 
   7  -2   4   39.44    2.16 
   8  -2   4   19.33    1.79 
   9   1  -4    2.27    1.07 
   8   1  -4   28.53    1.84 
   7   1  -4  108.31    3.72 
   6   1  -4   26.10    1.51 
   5   1  -4   12.58    1.01 
   4   1  -4   73.84    2.39 
  -4  -1   4   72.84    2.27 
   3   1  -4   28.29    1.15 
  -3  -1   4   26.66    1.12 
   2   1  -4  483.16   12.29 
   2   1  -4  475.70   12.56 
  -2  -1   4  491.56   12.69 
   1   1  -4   52.87    1.75 
   1   1  -4   51.94    1.59 
   0   1  -4   17.55    0.90 
   0   1  -4   16.58    1.02 
   0  -1   4   17.44    1.05 
   1  -1   4   40.58    1.53 
   2  -1   4   39.81    1.63 
   3  -1   4   37.63    1.71 
   4  -1   4   45.78    2.01 
   5  -1   4    5.13    0.95 
   6  -1   4   33.27    2.02 
   6  -1   4   38.02    1.95 
   7  -1   4    0.78    0.92 
   7  -1   4    0.73    0.98 
   8  -1   4   70.42    3.19 
   9   0  -4   25.56    1.82 
   8   0  -4    0.65    0.80 
   7   0  -4   -0.77    0.64 
   6   0  -4   96.76    3.18 
   5   0  -4  131.03    3.99 
   5   0  -4  129.09    3.88 
  -5   0   4  136.29    3.91 
   4   0  -4   50.26    1.68 
   4   0  -4   47.25    1.85 
   3   0  -4   36.79    1.26 
   3   0  -4   36.19    1.44 
   2   0  -4    1.41    0.51 
   2   0  -4    1.24    0.24 
  -2   0   4   -0.05    0.39 
  -1   0  -4    0.12    0.46 
   1   0   4    0.09    0.56 
   2   0   4   79.71    2.70 
   3   0   4    4.84    0.80 
   3   0   4    3.59    0.70 
   4   0   4   36.75    1.87 
   4   0   4   41.31    1.82 
   5   0   4  156.32    4.92 
   5   0   4  152.64    4.77 
   6   0   4   31.56    1.99 
   6   0   4   32.51    1.81 
   7   0   4    2.49    1.03 
   8   0   4   23.57    2.03 
   9  -1  -4   54.68    2.50 
   8  -1  -4   38.10    1.96 
   7  -1  -4    0.00    0.66 
   6  -1  -4   12.48    0.99 
  -6   1   4   13.18    1.08 
   5  -1  -4   83.97    2.82 
   5  -1  -4   88.16    2.73 
  -5   1   4   89.25    2.88 
   4  -1  -4  688.56   17.68 
   4  -1  -4  678.95   17.22 
  -4   1   4  677.77   17.88 
   3  -1  -4  471.60   12.18 
   3  -1  -4  472.10   11.99 
  -3   1   4  471.43   12.49 
   2  -1  -4    4.91    0.63 
  -2   1   4    4.74    0.63 
   1  -1  -4    4.25    0.69 
  -1   1   4    5.51    0.70 
  -1   1   4    4.75    0.36 
   0  -1  -4    0.59    0.60 
   0   1   4    0.18    0.46 
   0   1   4   -0.09    0.34 
   1   1   4  307.75    8.40 
   2   1   4  576.84   15.13 
   2   1   4  561.91   15.03 
   3   1   4   30.65    1.53 
   3   1   4   33.75    1.68 
   4   1   4    5.28    0.95 
   4   1   4    3.90    0.90 
   5   1   4    7.34    1.10 
   5   1   4   10.19    1.19 
   6   1   4   19.37    1.64 
   7   1   4   38.09    2.27 
   9  -2  -4    2.16    0.90 
   8  -2  -4   14.24    1.29 
   7  -2  -4  146.43    4.59 
  -7   2   4  156.40    4.76 
   6  -2  -4  190.68    5.40 
   6  -2  -4  192.14    5.43 
  -6   2   4  185.67    5.61 
   5  -2  -4    0.02    0.59 
  -5   2   4    0.60    0.67 
   4  -2  -4   40.94    1.58 
  -4   2   4   43.72    1.79 
   3  -2  -4   59.04    1.93 
  -3   2   4   60.07    2.17 
   2  -2  -4  233.31    6.14 
  -2   2   4  235.94    6.53 
  -2   2   4  233.60    6.11 
   1  -2  -4  150.91    4.24 
  -1   2   4  156.93    4.14 
   0  -2  -4   58.07    2.08 
   0   2   4   58.94    1.89 
   0   2   4   61.97    2.15 
   1   2   4    0.55    0.44 
   1   2   4    0.07    0.52 
   2   2   4   32.40    1.55 
   2   2   4   31.23    1.49 
   3   2   4  111.24    3.46 
   3   2   4  101.92    3.47 
   4   2   4   89.30    3.26 
   4   2   4   90.17    3.10 
   5   2   4    3.46    0.90 
   5   2   4    3.94    0.97 
   6   2   4   -0.81    0.83 
   7   2   4   19.31    1.82 
  10  -3  -4   30.21    1.95 
   9  -3  -4    0.67    0.86 
   9  -3  -4    1.51    0.94 
   8  -3  -4   14.92    1.33 
   8  -3  -4   16.36    1.32 
  -8   3   4   16.30    1.51 
   7  -3  -4   20.40    1.38 
  -7   3   4   23.45    1.59 
   6  -3  -4   38.82    1.68 
  -6   3   4   38.11    1.90 
   5  -3  -4   45.98    1.74 
  -5   3   4   46.31    2.07 
   4  -3  -4    1.65    0.50 
  -4   3   4    1.96    0.72 
   3  -3  -4   71.21    2.20 
  -3   3   4   72.88    2.20 
  -3   3   4   72.85    2.57 
   2  -3  -4   25.66    1.21 
  -2   3   4   25.25    1.04 
   1  -3  -4  199.36    5.39 
  -1   3   4  202.77    5.72 
  -1   3   4  197.96    5.42 
   0   3   4  178.39    4.99 
   0   3   4  178.79    5.18 
   1   3   4   16.45    1.04 
   1   3   4   15.67    1.18 
   2   3   4   31.77    1.55 
   2   3   4   32.51    1.64 
   3   3   4   22.73    1.40 
   3   3   4   18.93    1.35 
   4   3   4   25.68    1.61 
   4   3   4   22.89    1.44 
   5   3   4  197.27    6.24 
   6   3   4   40.01    2.29 
  10  -4  -4    6.24    1.13 
   9  -4  -4   89.25    3.23 
   8  -4  -4   28.68    1.67 
  -8   4   4   31.47    1.94 
   7  -4  -4   17.47    1.22 
  -7   4   4   15.61    1.52 
   6  -4  -4   15.22    1.12 
  -6   4   4   13.58    1.37 
   5  -4  -4    3.19    0.61 
  -5   4   4    4.50    0.95 
   4  -4  -4  142.12    3.97 
  -4   4   4  148.30    4.56 
   3  -4  -4  441.51   11.07 
  -3   4   4  429.29   11.54 
  -3   4   4  438.83   11.87 
   2  -4  -4    2.63    0.59 
  -2   4   4    0.79    0.40 
  -2   4   4    2.83    0.70 
  -1   4   4   59.46    2.21 
  -1   4   4   59.47    2.01 
   0   4   4   52.61    1.98 
   0   4   4   56.22    2.15 
   1   4   4   59.05    2.22 
   1   4   4   57.70    2.17 
   2   4   4   35.96    1.68 
   2   4   4   31.69    1.76 
   3   4   4    6.76    1.08 
   3   4   4    8.64    1.00 
   4   4   4   18.54    1.64 
   5   4   4    7.54    1.29 
   6   4   4    0.46    1.05 
  -9   5   4    0.13    0.97 
  -8   5   4   49.31    2.52 
   7  -5  -4  186.79    5.26 
  -7   5   4  185.35    5.98 
   6  -5  -4   80.00    2.56 
  -6   5   4   80.29    3.13 
   5  -5  -4    1.81    0.53 
  -5   5   4    2.27    0.93 
  -5   5   4    1.21    0.67 
   4  -5  -4   40.33    1.50 
  -4   5   4   40.88    1.75 
   3  -5  -4   39.38    1.50 
  -3   5   4   40.75    1.89 
  -3   5   4   40.63    1.68 
   2  -5  -4  187.58    4.96 
  -2   5   4  188.89    5.27 
  -2   5   4  172.57    5.43 
  -1   5   4  115.61    3.58 
  -1   5   4  116.21    3.73 
   0   5   4   -0.40    0.61 
   0   5   4   -0.25    0.65 
   1   5   4    4.80    0.90 
   1   5   4    5.23    0.88 
   2   5   4    9.75    1.17 
   2   5   4   14.23    1.16 
   3   5   4   49.05    2.37 
   4   5   4   35.64    2.07 
   5   5   4    0.08    0.97 
  -9   6   4   22.38    2.04 
  -8   6   4    2.17    1.10 
  -7   6   4    1.56    1.04 
  -6   6   4   63.56    2.83 
  -5   6   4  163.57    5.02 
  -5   6   4  165.30    5.34 
  -4   6   4   39.62    1.72 
  -4   6   4   33.28    1.79 
   3  -6  -4    3.57    0.59 
  -3   6   4    3.08    0.76 
  -3   6   4    2.96    0.93 
  -2   6   4   12.37    1.23 
  -2   6   4   15.05    1.17 
  -1   6   4  128.36    4.16 
  -1   6   4  129.38    4.09 
   0   6   4  213.38    6.37 
   0   6   4  221.44    6.42 
   1   6   4  132.07    4.30 
   1   6   4  126.88    4.12 
   2   6   4   -0.39    0.83 
   3   6   4    2.40    1.06 
   4   6   4   14.45    1.64 
   5   6   4   95.22    3.99 
  -9   7   4   36.90    2.50 
  -8   7   4   33.10    2.30 
  -7   7   4    4.09    1.22 
  -6   7   4   42.46    2.22 
  -6   7   4   46.15    2.45 
  -5   7   4   10.49    1.18 
  -5   7   4   10.15    1.24 
  -4   7   4  103.21    3.78 
  -4   7   4   98.70    3.45 
  -3   7   4  124.69    4.11 
  -3   7   4  129.04    4.32 
  -2   7   4    2.80    0.82 
  -2   7   4    1.54    0.87 
  -1   7   4   26.55    1.67 
  -1   7   4   26.65    1.66 
   0   7   4   11.90    1.21 
   0   7   4   13.79    1.34 
   1   7   4   92.74    3.25 
   1   7   4   93.43    3.48 
   2   7   4   76.65    3.23 
   3   7   4   36.18    2.28 
   4   7   4   -0.69    1.06 
  -9   8   4   31.59    2.61 
  -8   8   4    6.37    1.39 
  -7   8   4  121.77    4.63 
  -6   8   4   12.88    1.40 
  -6   8   4   14.10    1.54 
  -5   8   4    0.45    0.98 
  -5   8   4    0.80    0.89 
  -4   8   4   67.77    2.77 
  -4   8   4   68.78    2.95 
  -3   8   4    2.53    1.05 
  -3   8   4    4.51    0.99 
  -2   8   4   43.61    2.27 
  -2   8   4   45.40    2.21 
  -1   8   4   47.98    2.35 
  -1   8   4   48.54    2.35 
   0   8   4    0.78    0.87 
   0   8   4    1.21    0.96 
   1   8   4    0.50    1.00 
   2   8   4    1.81    1.12 
   3   8   4   18.67    1.92 
  -8   9   4    0.81    1.26 
  -7   9   4    2.74    1.16 
  -6   9   4   35.71    2.24 
  -6   9   4   35.04    2.30 
  -5   9   4   44.70    2.28 
  -5   9   4   42.55    2.42 
  -4   9   4    7.11    1.20 
  -4   9   4    9.63    1.43 
  -3   9   4    1.19    1.01 
  -3   9   4    2.20    0.96 
  -2   9   4    0.46    0.94 
  -2   9   4    0.38    0.90 
  -1   9   4    6.92    1.19 
  -1   9   4    8.97    1.30 
   0   9   4   61.05    2.96 
   1   9   4    7.89    1.44 
   2   9   4   14.58    1.72 
  -7  10   4   -0.54    1.00 
  -6  10   4   16.17    1.88 
  -5  10   4    1.26    1.21 
  -5  10   4    2.27    1.02 
  -4  10   4   96.62    3.89 
  -4  10   4   97.61    3.81 
  -3  10   4  113.53    4.21 
  -3  10   4  106.88    4.16 
  -2  10   4   18.85    1.76 
  -2  10   4   19.95    1.80 
  -1  10   4    9.16    1.49 
   0  10   4    9.35    1.54 
  -6  11   4   82.59    3.81 
  -5  11   4    1.79    1.31 
  -4  11   4    3.13    1.31 
  -4  11   4    7.36    1.41 
  -3  11   4   11.09    1.59 
  -3  11   4   13.70    1.70 
  -2  11   4   38.33    2.51 
  -1  11  -5   23.43    2.17 
  -2  11  -5   25.61    2.28 
  -3  11  -5    1.04    1.10 
   3 -11   5    1.42    1.01 
  -4  11  -5    1.75    1.29 
   4 -11   5    3.08    1.13 
   2  10  -5   51.39    2.95 
   1  10  -5   16.18    1.86 
   0  10  -5    5.25    1.32 
  -1  10  -5    1.29    1.13 
  -2  10  -5   46.87    2.61 
  -3  10  -5   44.32    2.61 
   3 -10   5   44.99    2.33 
  -4  10  -5   11.80    1.62 
   4 -10   5   11.38    1.44 
  -5  10  -5    5.80    1.41 
   5 -10   5    7.30    1.34 
  -6  10  -5   25.84    2.31 
   6 -10   5   26.27    1.99 
   3   9  -5   -0.08    0.99 
   2   9  -5   -0.56    0.97 
   1   9  -5  107.87    4.20 
   0   9  -5  139.73    4.98 
  -1   9  -5   25.88    2.01 
  -2   9  -5    0.56    1.02 
   2  -9   5    2.08    0.91 
  -3   9  -5    0.09    0.98 
   3  -9   5    0.74    0.76 
  -4   9  -5   58.75    2.91 
   4  -9   5   58.64    2.69 
  -5   9  -5   93.48    4.02 
   5  -9   5   96.12    3.71 
  -6   9  -5   60.80    3.12 
   6  -9   5   59.47    2.94 
   4   8  -5   77.70    3.11 
   4   8  -5   82.03    3.50 
   3   8  -5   43.72    2.11 
   3   8  -5   42.06    2.48 
   2   8  -5    0.00    0.73 
   2   8  -5    0.98    0.95 
   1   8  -5    9.07    1.35 
   0   8  -5    3.03    1.08 
  -1   8  -5  114.45    4.16 
   1  -8   5  113.35    3.77 
  -2   8  -5  130.96    4.57 
   2  -8   5  130.37    4.30 
  -3   8  -5    1.52    1.02 
   3  -8   5    0.39    0.82 
  -4   8  -5    2.80    1.05 
   4  -8   5    4.25    1.04 
  -5   8  -5   20.09    1.92 
   5  -8   5   18.76    1.68 
   6  -8   5   40.82    2.27 
   7  -8   5   43.50    2.48 
   5   7  -5    9.63    1.42 
   5   7  -5   11.44    1.38 
   4   7  -5    9.90    1.41 
   4   7  -5    7.99    1.14 
   3   7  -5   10.91    1.19 
   3   7  -5    9.60    1.35 
   2   7  -5   26.36    1.79 
   2   7  -5   29.49    1.66 
   1   7  -5    2.50    0.74 
   1   7  -5    2.41    0.96 
   0   7  -5   15.41    1.39 
   0   7  -5   10.63    1.04 
   0  -7   5   10.62    1.02 
  -1   7  -5    6.57    0.91 
  -1   7  -5    6.35    1.14 
   1  -7   5    6.18    0.91 
  -2   7  -5    7.67    1.13 
   2  -7   5    8.76    1.08 
  -3   7  -5   69.44    3.00 
   3  -7   5   69.57    2.74 
  -4   7  -5   30.24    1.95 
   4  -7   5   30.80    1.88 
  -5   7  -5    1.10    0.96 
   5  -7   5    1.63    0.97 
   6  -7   5   14.70    1.54 
   7  -7   5    8.05    1.39 
   6   6  -5   44.31    2.31 
   6   6  -5   39.94    2.43 
   5   6  -5   23.36    1.82 
   5   6  -5   23.71    1.68 
   4   6  -5    0.57    0.90 
   4   6  -5    0.13    0.78 
   3   6  -5   23.97    1.64 
   3   6  -5   22.55    1.49 
   2   6  -5    4.14    0.85 
   2   6  -5    4.35    0.98 
   1   6  -5  141.07    4.59 
   1   6  -5  144.48    4.27 
  -1  -6   5  145.69    4.26 
   0   6  -5   98.31    3.38 
   0   6  -5   93.10    2.99 
   0  -6   5   92.77    3.07 
  -1   6  -5   13.93    1.26 
  -1   6  -5   13.48    1.11 
   1  -6   5   12.27    1.12 
  -2   6  -5   43.37    2.16 
  -2   6  -5   43.45    1.85 
   2  -6   5   47.94    2.05 
  -3   6  -5   33.18    1.87 
  -3   6  -5   31.40    1.63 
   3  -6   5   32.69    1.73 
  -4   6  -5    9.00    1.26 
   4  -6   5    8.28    1.14 
   5  -6   5  121.70    4.22 
   6  -6   5   10.43    1.30 
   7  -6   5    5.70    1.20 
   8  -6   5   14.62    1.75 
   7   5  -5    0.80    0.99 
   7   5  -5    0.22    1.02 
   6   5  -5    5.25    1.05 
   6   5  -5    3.90    1.10 
   5   5  -5   30.75    1.90 
   5   5  -5   26.90    1.73 
   4   5  -5  166.56    5.05 
   4   5  -5  165.93    5.24 
   3   5  -5  186.73    5.44 
   3   5  -5  186.60    5.68 
   2   5  -5   26.73    1.48 
   2   5  -5   27.58    1.63 
   1   5  -5   31.61    1.69 
   1   5  -5   32.90    1.59 
  -1  -5   5   33.96    1.49 
   0   5  -5    0.81    0.60 
   0   5  -5   -0.20    0.69 
   0  -5   5    0.90    0.63 
  -1   5  -5  134.21    4.23 
  -1   5  -5  136.52    3.94 
   1  -5   5  128.03    4.08 
  -2   5  -5  127.53    4.22 
  -2   5  -5  130.25    3.90 
   2  -5   5  132.45    4.13 
  -3   5  -5   13.98    1.30 
   3  -5   5   13.01    1.20 
   4  -5   5    0.59    0.67 
   5  -5   5    8.61    1.13 
   6  -5   5   34.62    2.10 
   7  -5   5   35.44    2.14 
   8  -5   5    6.36    1.36 
   7   4  -5   53.08    2.56 
   7   4  -5   52.90    2.54 
   6   4  -5   33.82    1.93 
   6   4  -5   34.68    1.98 
   5   4  -5    0.54    0.79 
   5   4  -5    1.13    0.84 
   4   4  -5    1.57    0.79 
   4   4  -5    0.05    0.75 
   3   4  -5   64.09    2.34 
   3   4  -5   57.53    2.31 
   2   4  -5  214.89    5.93 
   2   4  -5  211.44    6.12 
   1   4  -5    5.55    0.80 
   1   4  -5    5.87    0.79 
  -1  -4   5    4.03    0.71 
   0   4  -5    4.73    0.76 
   0   4  -5    5.33    0.75 
   0  -4   5    3.14    0.68 
  -1   4  -5    8.19    0.89 
  -1   4  -5    7.60    0.90 
   1  -4   5    7.38    0.83 
  -2   4  -5  118.64    3.78 
  -2   4  -5  112.07    3.63 
   2  -4   5  121.31    3.80 
   3  -4   5   -0.25    0.43 
   4  -4   5   85.18    3.12 
   5  -4   5   10.55    1.30 
   6  -4   5    2.69    1.02 
   7  -4   5   20.09    1.75 
   8  -4   5   99.42    3.99 
   8   3  -5    0.16    0.96 
   8   3  -5   -0.63    0.87 
   7   3  -5   -1.33    0.73 
   7   3  -5   -0.25    0.85 
   6   3  -5   49.87    2.28 
   6   3  -5   50.03    2.26 
   5   3  -5   56.00    2.27 
   5   3  -5   55.19    2.32 
   4   3  -5    1.32    0.70 
   4   3  -5    1.40    0.75 
   3   3  -5   34.74    1.62 
   3   3  -5   34.75    1.58 
  -3  -3   5   37.09    1.36 
   2   3  -5    4.34    0.72 
   2   3  -5    5.69    0.71 
  -2  -3   5    3.47    0.58 
   1   3  -5  193.00    5.40 
   1   3  -5  197.10    5.53 
  -1  -3   5  200.10    5.60 
   0   3  -5  221.98    6.14 
   0   3  -5  221.13    5.99 
   0  -3   5  216.94    6.18 
  -1   3  -5   78.53    2.58 
  -1   3  -5   77.47    2.60 
   1  -3   5   74.94    2.60 
  -2   3  -5   33.59    1.65 
  -2   3  -5   33.41    1.63 
   2  -3   5   34.05    1.60 
   3  -3   5   -0.17    0.22 
   4  -3   5    1.36    0.83 
   5  -3   5  244.82    7.25 
   6  -3   5   65.91    2.85 
   7  -3   5    0.23    0.95 
   8  -3   5    1.09    1.08 
   8  -3   5   -0.69    0.94 
   8   2  -5   21.08    1.74 
   8   2  -5   14.37    1.47 
   7   2  -5   12.66    1.29 
   7   2  -5   10.69    1.21 
   6   2  -5   23.08    1.41 
   6   2  -5   20.00    1.48 
   5   2  -5    2.20    0.69 
   5   2  -5    2.72    0.72 
   4   2  -5   63.73    2.22 
  -4  -2   5   59.75    1.98 
   3   2  -5  151.62    4.41 
   3   2  -5  157.51    4.50 
   2   2  -5    0.14    0.42 
   2   2  -5    0.40    0.58 
  -2  -2   5   -0.17    0.50 
   1   2  -5  159.65    4.51 
   1   2  -5  158.34    4.45 
  -1  -2   5  162.14    4.68 
   0   2  -5    1.23    0.66 
   0   2  -5   -0.17    0.42 
   0  -2   5   -0.12    0.52 
  -1   2  -5   96.11    2.98 
  -1   2  -5   95.95    3.04 
   1  -2   5   93.73    3.09 
   3  -2   5   11.19    1.08 
   4  -2   5   19.16    1.50 
   5  -2   5    0.45    0.86 
   6  -2   5   56.97    2.57 
   7  -2   5   35.33    2.13 
   7  -2   5   38.12    2.18 
   8  -2   5    0.63    1.07 
   9   1  -5   22.07    1.92 
   8   1  -5   18.17    1.65 
   8   1  -5   20.88    1.62 
   7   1  -5   99.30    3.38 
   7   1  -5   93.48    3.44 
   6   1  -5   43.78    1.92 
   6   1  -5   42.25    1.92 
   5   1  -5    7.64    0.95 
   5   1  -5    7.54    0.83 
   4   1  -5    0.67    0.48 
   4   1  -5   -0.01    0.21 
  -4  -1   5    0.60    0.48 
   3   1  -5   46.77    1.60 
  -3  -1   5   46.11    1.73 
   2   1  -5  319.96    8.50 
   2   1  -5  328.80    8.53 
  -2  -1   5  326.64    8.81 
   1   1  -5   95.53    2.89 
   1   1  -5   94.73    2.70 
  -1  -1   5   96.97    3.06 
   0   1  -5    0.20    0.57 
   0  -1   5    0.40    0.60 
  -1   1  -5   16.35    1.25 
   1  -1   5   14.67    1.00 
   2  -1   5   55.74    2.17 
   3  -1   5  148.09    4.56 
   4  -1   5   49.27    2.20 
   5  -1   5    5.22    1.03 
   5  -1   5    2.85    0.86 
   6  -1   5   54.77    2.54 
   6  -1   5   55.76    2.59 
   7  -1   5    0.17    0.93 
   7  -1   5    2.42    1.02 
   9   0  -5   12.46    1.50 
   8   0  -5    0.67    0.89 
   8   0  -5    0.14    0.74 
   7   0  -5    9.55    1.20 
   7   0  -5    8.03    0.98 
   6   0  -5  177.07    5.19 
   6   0  -5  182.11    5.29 
   5   0  -5   51.73    2.01 
   5   0  -5   47.99    1.79 
  -5   0   5   47.87    1.89 
   4   0  -5    0.91    0.66 
   4   0  -5    1.42    0.44 
  -4   0   5    0.00    0.51 
   3   0  -5   -0.39    0.30 
   3   0  -5   -0.38    0.50 
  -3   0   5   -0.36    0.48 
   2   0  -5   12.23    0.90 
  -2   0   5   13.31    1.05 
   1   0  -5  186.78    4.95 
  -1   0   5  170.14    5.12 
   1   0   5  190.53    5.56 
   2   0   5   29.32    1.58 
   3   0   5   10.95    1.01 
   3   0   5    8.41    1.08 
   4   0   5   44.22    2.03 
   4   0   5   42.54    2.10 
   5   0   5  126.59    4.33 
   5   0   5  132.77    4.37 
   6   0   5   54.86    2.56 
   6   0   5   55.62    2.58 
   7   0   5    8.42    1.37 
   9  -1  -5   75.52    3.12 
   8  -1  -5   34.28    1.91 
   7  -1  -5    2.71    0.69 
   7  -1  -5    3.23    0.83 
   6  -1  -5   37.83    1.60 
   6  -1  -5   36.87    1.81 
  -6   1   5   37.35    1.77 
   5  -1  -5    7.87    0.95 
   5  -1  -5    7.42    0.67 
  -5   1   5    7.44    0.88 
   4  -1  -5  168.56    4.57 
   4  -1  -5  169.60    4.79 
  -4   1   5  170.05    4.96 
   3  -1  -5  288.13    7.54 
  -3   1   5  283.25    7.87 
   2  -1  -5   35.95    1.50 
  -2   1   5   35.77    1.61 
   1  -1  -5   14.57    1.12 
  -1   1   5   13.78    1.06 
  -1   1   5   13.59    0.57 
   0  -1  -5   20.38    1.30 
   0   1   5   20.80    1.14 
   0   1   5   17.20    0.87 
  -1  -1  -5  350.54    9.34 
   1   1   5  351.67    9.37 
   1   1   5  349.77    9.61 
   2   1   5  377.37   10.38 
   2   1   5  379.22   10.22 
   3   1   5   33.84    1.65 
   3   1   5   35.51    1.82 
   4   1   5    6.16    1.01 
   4   1   5    5.59    1.09 
   5   1   5    1.40    0.91 
   5   1   5    1.12    0.83 
   6   1   5   56.18    2.65 
   7   1   5   62.20    3.04 
   9  -2  -5    5.69    1.12 
   8  -2  -5    1.36    0.86 
   7  -2  -5   71.96    2.77 
   7  -2  -5   78.65    2.68 
  -7   2   5   77.48    2.87 
   6  -2  -5   91.96    3.12 
   6  -2  -5   94.93    2.96 
  -6   2   5   95.91    3.30 
   5  -2  -5    2.72    0.71 
   5  -2  -5    1.75    0.45 
  -5   2   5    1.70    0.73 
   4  -2  -5    6.81    0.48 
   4  -2  -5    6.51    0.80 
  -4   2   5    6.21    0.88 
   3  -2  -5   38.97    1.55 
  -3   2   5   36.34    1.69 
   2  -2  -5  108.67    3.27 
  -2   2   5  112.11    3.51 
   0  -2  -5    7.59    0.92 
   0   2   5    7.39    0.61 
   0   2   5    9.47    1.00 
   1   2   5   13.62    1.11 
   1   2   5   12.73    0.93 
   2   2   5   45.94    1.88 
   2   2   5   46.05    2.02 
   3   2   5   89.73    3.15 
   3   2   5   89.91    3.15 
   4   2   5   97.29    3.36 
   4   2   5   94.14    3.40 
   5   2   5    7.88    1.11 
   5   2   5    5.49    1.07 
   6   2   5   18.39    1.73 
   7   2   5    2.90    1.17 
   9  -3  -5    0.53    0.91 
   8  -3  -5    7.68    1.15 
  -8   3   5    8.75    1.24 
   7  -3  -5    2.41    0.66 
   7  -3  -5    2.46    0.83 
  -7   3   5    4.23    1.00 
   6  -3  -5   77.06    2.66 
  -6   3   5   77.10    2.93 
   5  -3  -5   46.06    1.81 
  -5   3   5   41.63    2.03 
   4  -3  -5    3.96    0.66 
  -4   3   5    2.01    0.78 
   3  -3  -5  142.92    4.14 
  -3   3   5  150.44    4.02 
  -3   3   5  148.14    4.54 
   2  -3  -5   27.93    1.41 
  -2   3   5   27.19    1.06 
   1  -3  -5  102.89    3.26 
  -1   3   5  108.76    3.48 
  -1   3   5  108.61    3.10 
   0   3   5  192.50    5.56 
   0   3   5  185.01    5.28 
   1   3   5   74.13    2.49 
   1   3   5   68.06    2.62 
   2   3   5   24.99    1.44 
   2   3   5   20.03    1.42 
   3   3   5   68.61    2.62 
   3   3   5   67.17    2.60 
   4   3   5   12.07    1.30 
   4   3   5   13.25    1.27 
   5   3   5   79.81    3.23 
   6   3   5   37.77    2.36 
   9  -4  -5   86.53    3.25 
   8  -4  -5   44.84    2.10 
  -8   4   5   45.27    2.36 
   7  -4  -5    4.62    0.89 
  -7   4   5    3.64    1.02 
   6  -4  -5   15.54    1.17 
  -6   4   5   18.79    1.55 
   5  -4  -5   12.06    0.96 
  -5   4   5    8.57    1.13 
   4  -4  -5  105.79    3.18 
  -4   4   5  108.51    3.20 
  -4   4   5  106.92    3.63 
   3  -4  -5  273.56    7.36 
  -3   4   5  283.55    7.49 
   2  -4  -5   28.39    1.42 
  -2   4   5   27.53    1.58 
  -2   4   5   29.72    1.23 
   1  -4  -5    7.53    0.89 
  -1   4   5    7.53    0.96 
  -1   4   5    7.56    0.73 
   0   4   5   22.49    1.27 
   0   4   5   22.85    1.50 
   1   4   5   55.31    2.25 
   1   4   5   53.80    2.16 
   2   4   5  112.51    3.78 
   2   4   5  114.69    3.75 
   3   4   5    5.81    1.01 
   3   4   5    5.88    1.07 
   4   4   5    2.40    1.04 
   5   4   5   -1.69    0.96 
   6   4   5   27.04    2.25 
  -9   5   5    0.55    1.03 
  -8   5   5   11.01    1.48 
   7  -5  -5  183.08    5.23 
  -7   5   5  182.91    5.92 
   6  -5  -5  108.74    3.27 
  -6   5   5  104.72    3.88 
   5  -5  -5    8.13    0.84 
  -5   5   5    8.02    1.16 
   4  -5  -5    2.95    0.68 
  -4   5   5    1.10    0.59 
  -4   5   5    0.67    0.58 
   3  -5  -5   75.76    2.41 
  -3   5   5   73.80    2.48 
   2  -5  -5  150.43    4.35 
  -2   5   5  154.94    4.83 
  -2   5   5  152.21    4.46 
  -1   5   5   50.84    1.94 
  -1   5   5   49.29    2.18 
   0   5   5    0.70    0.69 
   0   5   5    1.02    0.72 
   1   5   5   33.81    1.78 
   1   5   5   31.72    1.74 
   2   5   5   38.25    1.95 
   2   5   5   37.10    1.89 
   3   5   5  156.57    5.14 
   4   5   5   84.08    3.39 
   5   5   5   -1.49    1.05 
  -9   6   5    1.00    1.11 
  -8   6   5    5.97    1.35 
  -7   6   5    6.02    1.19 
  -6   6   5   41.96    2.33 
  -5   6   5  121.52    4.34 
  -5   6   5  122.71    3.91 
  -4   6   5   23.77    1.54 
  -4   6   5   23.31    1.37 
   3  -6  -5   14.77    1.10 
  -3   6   5   15.97    1.41 
  -3   6   5   15.63    1.21 
  -2   6   5    0.71    0.77 
  -2   6   5    0.13    0.66 
  -1   6   5  104.39    3.42 
  -1   6   5  100.34    3.58 
   0   6   5  237.25    6.97 
   0   6   5  236.79    6.93 
   1   6   5   51.17    2.37 
   1   6   5   55.90    2.31 
   2   6   5    0.83    0.74 
   2   6   5   -0.38    0.80 
   3   6   5    9.40    1.34 
   4   6   5    3.37    1.23 
  -9   7   5   46.80    2.79 
  -8   7   5    7.29    1.48 
  -7   7   5    5.49    1.31 
  -6   7   5   22.91    1.95 
  -5   7   5    0.28    0.75 
  -4   7   5   29.63    1.96 
  -4   7   5   27.89    1.58 
  -3   7   5  193.31    5.89 
  -3   7   5  177.15    5.53 
  -2   7   5    3.30    1.01 
  -2   7   5    2.21    0.81 
  -1   7   5   63.40    2.60 
  -1   7   5   64.30    2.70 
   0   7   5    0.79    0.80 
   0   7   5    0.74    0.84 
   1   7   5   23.46    1.68 
   1   7   5   24.67    1.69 
   2   7   5   26.53    1.84 
   3   7   5   11.34    1.54 
  -9   8   5   21.06    2.21 
  -8   8   5    0.80    1.13 
  -7   8   5   54.32    2.93 
  -6   8   5   23.39    1.99 
  -5   8   5    0.58    0.92 
  -4   8   5   24.39    1.93 
  -4   8   5   20.46    1.53 
  -3   8   5    2.20    0.91 
  -3   8   5    1.54    0.96 
  -2   8   5   48.08    2.39 
  -2   8   5   43.57    2.20 
  -1   8   5   22.43    1.69 
  -1   8   5   22.15    1.70 
   0   8   5    1.32    0.87 
   0   8   5    0.15    0.91 
   1   8   5   19.63    1.76 
   2   8   5    6.80    1.31 
  -8   9   5   -1.20    1.17 
  -7   9   5   -0.56    1.06 
  -6   9   5   75.50    3.45 
  -5   9   5   93.22    3.83 
  -4   9   5    4.01    1.16 
  -3   9   5   10.43    1.41 
  -3   9   5   10.45    1.32 
  -2   9   5    1.07    1.00 
  -2   9   5    0.51    0.96 
  -1   9   5   36.09    2.12 
  -1   9   5   33.68    2.15 
   0   9   5  130.48    4.74 
   1   9   5   29.44    2.18 
  -7  10   5    1.83    1.27 
  -6  10   5    8.41    1.59 
  -5  10   5    0.86    1.10 
  -4  10   5   62.16    3.11 
  -3  10   5  120.15    4.53 
  -2  10   5   18.96    1.78 
  -2  10   5   24.53    1.92 
  -1  10   5   -0.56    1.02 
   0  10   5    2.68    1.22 
  -5  11   5    0.00    1.18 
  -4  11   5   -0.42    1.14 
  -3  11   5    6.55    1.44 
   1  10  -6   14.44    1.83 
   0  10  -6    5.20    1.40 
  -1  10  -6    0.54    1.14 
  -2  10  -6   33.83    2.39 
  -3  10  -6   81.11    3.71 
   3 -10   6   89.00    3.50 
  -4  10  -6   45.95    2.80 
   4 -10   6   45.25    2.52 
  -5  10  -6    1.30    1.26 
   5 -10   6    1.67    1.13 
   3   9  -6    7.90    1.49 
   2   9  -6    0.67    1.02 
   1   9  -6   30.99    2.12 
   0   9  -6   64.61    3.03 
  -1   9  -6   42.62    2.50 
  -2   9  -6    3.32    1.14 
   2  -9   6    5.79    1.12 
  -3   9  -6    0.91    1.00 
   3  -9   6   -0.26    0.86 
  -4   9  -6   47.23    2.63 
   4  -9   6   44.77    2.45 
  -5   9  -6   39.17    2.62 
   5  -9   6   43.85    2.47 
   6  -9   6   17.86    1.85 
   4   8  -6   50.61    2.41 
   4   8  -6   41.15    2.48 
   3   8  -6   26.65    1.93 
   3   8  -6   23.53    1.80 
   2   8  -6    5.73    1.03 
   2   8  -6    6.02    1.26 
   1   8  -6    4.24    1.18 
   0   8  -6    0.12    0.97 
  -1   8  -6   63.55    2.83 
   1  -8   6   62.16    2.61 
  -2   8  -6   33.53    2.01 
   2  -8   6   32.20    1.90 
  -3   8  -6    2.37    1.05 
   3  -8   6    2.90    0.96 
  -4   8  -6    8.58    1.44 
   4  -8   6    4.93    1.16 
  -5   8  -6    0.49    1.10 
   5  -8   6    1.90    1.09 
   6  -8   6   52.80    2.68 
   5   7  -6    0.67    1.01 
   5   7  -6    1.89    1.12 
   4   7  -6    0.68    1.01 
   4   7  -6    0.95    0.92 
   3   7  -6    6.04    1.23 
   3   7  -6    5.97    1.09 
   2   7  -6   57.45    2.37 
   2   7  -6   55.98    2.64 
   1   7  -6   13.31    1.24 
   1   7  -6   12.32    1.40 
   0   7  -6   31.89    1.69 
   0   7  -6   29.49    1.92 
   0  -7   6   31.27    1.68 
  -1   7  -6    9.35    1.10 
  -1   7  -6    9.07    1.20 
   1  -7   6   10.21    1.13 
  -2   7  -6   14.06    1.49 
  -2   7  -6   16.77    1.29 
   2  -7   6   15.44    1.38 
  -3   7  -6   85.80    3.47 
   3  -7   6   86.43    3.30 
  -4   7  -6   14.54    1.57 
   4  -7   6   15.29    1.51 
   5  -7   6    2.86    1.01 
   6  -7   6   39.39    2.33 
   7  -7   6    1.09    1.05 
   6   6  -6   71.10    3.08 
   6   6  -6   71.81    3.16 
   5   6  -6   50.76    2.50 
   5   6  -6   48.93    2.41 
   4   6  -6    0.53    0.92 
   4   6  -6    0.23    0.85 
   3   6  -6   13.34    1.40 
   3   6  -6   12.66    1.31 
   2   6  -6    4.85    0.93 
   2   6  -6    3.40    0.95 
   1   6  -6  113.01    3.87 
   1   6  -6  114.37    3.60 
  -1  -6   6  108.02    3.56 
   0   6  -6  187.10    5.73 
   0   6  -6  188.08    5.38 
   0  -6   6  186.23    5.54 
  -1   6  -6   62.74    2.39 
  -1   6  -6   58.95    2.54 
   1  -6   6   59.78    2.42 
  -2   6  -6   22.69    1.49 
  -2   6  -6   23.83    1.61 
   2  -6   6   22.51    1.55 
  -3   6  -6   -0.24    0.77 
  -3   6  -6    0.18    0.79 
   3  -6   6    0.95    0.85 
   4  -6   6   30.64    1.84 
   5  -6   6   64.01    2.83 
   6  -6   6    4.74    1.12 
   7  -6   6    3.17    1.21 
   6   5  -6    6.95    1.19 
   6   5  -6    7.41    1.27 
   5   5  -6   10.04    1.30 
   5   5  -6    7.63    1.18 
   4   5  -6  100.32    3.49 
   4   5  -6   98.13    3.54 
   3   5  -6  162.31    4.97 
   3   5  -6  167.51    5.15 
   2   5  -6   19.20    1.41 
   2   5  -6   17.84    1.35 
   1   5  -6    8.28    1.04 
   1   5  -6    8.44    1.05 
  -1  -5   6   11.38    1.05 
   0   5  -6   20.60    1.34 
   0   5  -6   17.17    1.33 
   0  -5   6   19.84    1.30 
  -1   5  -6   90.82    3.03 
  -1   5  -6   86.40    3.12 
   1  -5   6   88.11    3.09 
  -2   5  -6  106.26    3.51 
  -2   5  -6  104.71    3.65 
   2  -5   6  110.71    3.64 
  -3   5  -6    5.19    1.02 
  -3   5  -6    6.71    1.06 
   3  -5   6    6.27    1.01 
   4  -5   6    3.22    0.84 
   5  -5   6   32.33    1.97 
   6  -5   6   66.43    3.01 
   7  -5   6   44.80    2.57 
   7   4  -6   24.24    1.83 
   6   4  -6   21.64    1.66 
   6   4  -6   21.62    1.73 
   5   4  -6    5.68    1.08 
   5   4  -6    5.81    1.01 
   4   4  -6    5.43    0.99 
   4   4  -6    6.20    0.94 
   3   4  -6   88.85    3.08 
   3   4  -6   89.38    3.05 
   2   4  -6   92.27    3.03 
   2   4  -6   84.75    2.98 
  -2  -4   6   90.81    2.95 
   1   4  -6   12.76    1.10 
   1   4  -6   12.77    1.13 
  -1  -4   6   15.10    1.16 
   0   4  -6    2.14    0.72 
   0   4  -6    2.24    0.78 
   0  -4   6    1.32    0.67 
  -1   4  -6    5.11    0.85 
  -1   4  -6    6.30    0.91 
   1  -4   6    5.83    0.86 
  -2   4  -6   62.36    2.48 
  -2   4  -6   61.95    2.48 
   2  -4   6   62.76    2.51 
   3  -4   6  421.67   11.69 
   4  -4   6  106.30    3.76 
   5  -4   6   -0.55    0.89 
   6  -4   6   15.33    1.62 
   7  -4   6    9.13    1.43 
   8   3  -6   10.24    1.42 
   7   3  -6    0.52    0.88 
   6   3  -6   55.24    2.38 
   6   3  -6   53.50    2.43 
   5   3  -6   94.71    3.40 
   5   3  -6   99.63    3.35 
   4   3  -6    0.25    0.63 
   4   3  -6    0.46    0.76 
   3   3  -6   37.18    1.82 
   3   3  -6   38.20    1.63 
  -3  -3   6   37.73    1.59 
   2   3  -6   76.44    2.67 
   2   3  -6   74.90    2.54 
  -2  -3   6   78.97    2.63 
   1   3  -6   91.16    2.88 
   1   3  -6   89.45    2.97 
  -1  -3   6   91.07    3.07 
   0   3  -6  150.80    4.45 
   0   3  -6  154.16    4.51 
   0  -3   6  149.76    4.61 
  -1   3  -6   66.24    2.38 
  -1   3  -6   68.64    2.47 
   1  -3   6   64.14    2.45 
  -2   3  -6   30.05    1.68 
   2  -3   6   28.69    1.62 
   3  -3   6    2.83    0.79 
   4  -3   6   14.32    1.40 
   5  -3   6   71.17    2.92 
   6  -3   6    5.40    1.13 
   7  -3   6   -0.25    1.02 
   8   2  -6   35.97    2.13 
   7   2  -6   -0.33    0.78 
   6   2  -6    9.88    1.16 
   6   2  -6    7.18    0.99 
   5   2  -6    4.83    0.78 
   5   2  -6    4.86    0.89 
   4   2  -6   36.14    1.79 
   4   2  -6   40.02    1.64 
  -4  -2   6   39.06    1.56 
   3   2  -6  183.66    5.35 
   3   2  -6  193.92    5.24 
  -3  -2   6  181.80    5.32 
   2   2  -6   12.62    0.88 
   2   2  -6   11.80    1.03 
  -2  -2   6   10.04    0.97 
   1   2  -6   47.42    1.68 
   1   2  -6   46.27    1.93 
  -1  -2   6   53.25    2.05 
   0   2  -6    7.60    0.71 
   0   2  -6    6.27    0.92 
   0  -2   6    6.71    0.91 
  -1   2  -6   61.92    2.37 
   1  -2   6   61.11    2.42 
  -2   2  -6    6.40    0.99 
   3  -2   6    7.39    1.09 
   4  -2   6   10.83    1.28 
   5  -2   6    0.07    0.83 
   6  -2   6   66.55    2.94 
   7  -2   6   62.63    2.93 
   7  -2   6   62.78    2.97 
   8   1  -6   26.43    1.88 
   7   1  -6   88.74    3.33 
   6   1  -6   50.72    2.20 
   5   1  -6    2.33    0.64 
   5   1  -6    2.94    0.74 
   4   1  -6    2.74    0.56 
  -4  -1   6    2.12    0.62 
   3   1  -6   73.87    2.25 
  -3  -1   6   76.83    2.58 
   2   1  -6  348.92    8.78 
  -2  -1   6  320.74    9.18 
   1   1  -6  113.94    3.52 
   1   1  -6  113.27    3.23 
  -1  -1   6  119.50    3.69 
   0   1  -6    5.91    0.87 
   0  -1   6    5.54    0.91 
  -1   1  -6    1.61    0.76 
   1  -1   6    0.20    0.41 
  -2   1  -6   38.82    1.92 
   2  -1   6   41.36    2.01 
   3  -1   6  175.18    5.42 
   4  -1   6  153.15    4.94 
   5  -1   6    1.62    0.83 
   5  -1   6    1.18    0.98 
   6  -1   6   28.95    2.02 
   6  -1   6   29.73    1.88 
   7  -1   6    2.67    1.13 
   7  -1   6    1.19    1.12 
   9   0  -6    0.12    0.98 
   8   0  -6    3.82    1.08 
   7   0  -6    8.00    1.13 
   6   0  -6  151.44    4.70 
   5   0  -6  262.22    7.03 
   5   0  -6  256.55    7.19 
  -5   0   6  257.58    7.27 
   4   0  -6   33.70    1.61 
   4   0  -6   34.60    1.24 
  -4   0   6   33.45    1.55 
   3   0  -6    7.83    0.88 
  -3   0   6    7.45    0.88 
   2   0  -6    3.04    0.72 
  -2   0   6    3.45    0.76 
   1   0  -6  200.44    5.67 
  -1   0   6  204.25    5.91 
   2   0   6   11.42    0.96 
   2   0   6   11.32    1.26 
   3   0   6    0.06    0.65 
   3   0   6    0.16    0.82 
   4   0   6   71.28    2.73 
   4   0   6   73.13    3.01 
   5   0   6  100.52    3.53 
   5   0   6   89.10    3.61 
   6   0   6   37.15    2.13 
   6   0   6   34.35    2.29 
   7   0   6    3.51    1.14 
   9  -1  -6   64.67    2.89 
   8  -1  -6   22.32    1.66 
   7  -1  -6    3.74    0.91 
   6  -1  -6  114.11    3.75 
  -6   1   6  116.94    3.80 
   5  -1  -6    6.36    0.95 
  -5   1   6    7.36    0.93 
   4  -1  -6  106.64    3.35 
  -4   1   6  104.43    3.41 
   3  -1  -6  148.52    4.34 
  -3   1   6  149.68    4.56 
   2  -1  -6    5.60    0.82 
  -2   1   6    4.57    0.78 
   1  -1  -6    9.60    1.00 
  -1   1   6    8.37    0.52 
  -1   1   6   10.06    1.03 
   0  -1  -6   13.60    1.15 
   0   1   6   13.77    0.80 
  -1  -1  -6  112.24    3.67 
   1   1   6  115.88    3.40 
   1   1   6  112.80    3.73 
   2   1   6   83.59    2.80 
   2   1   6   82.58    3.07 
   3   1   6    5.40    1.05 
   3   1   6    4.32    0.85 
   4   1   6   -0.62    0.83 
   4   1   6    0.26    0.79 
   5   1   6    1.29    0.95 
   5   1   6    0.49    0.82 
   6   1   6   89.72    3.63 
   9  -2  -6    8.98    1.36 
   8  -2  -6    0.70    0.88 
   7  -2  -6   66.23    2.63 
  -7   2   6   67.17    2.72 
   6  -2  -6    1.59    0.76 
  -6   2   6    2.92    0.89 
   5  -2  -6   13.59    1.15 
  -5   2   6   13.53    1.20 
   4  -2  -6    6.16    0.84 
  -4   2   6    4.52    0.87 
   3  -2  -6    4.81    0.79 
  -3   2   6    5.06    0.89 
   2  -2  -6  176.44    5.10 
  -2   2   6  182.11    5.37 
   1  -2  -6    8.36    0.97 
  -1   2   6    7.23    0.53 
   0  -2  -6   36.24    1.81 
   0   2   6   36.87    1.80 
   1   2   6   44.26    2.07 
   1   2   6   45.35    1.75 
   2   2   6   15.26    1.38 
   2   2   6   19.47    1.24 
   3   2   6   44.94    2.14 
   3   2   6   44.82    2.05 
   4   2   6   48.92    2.35 
   4   2   6   58.10    2.46 
   5   2   6    3.63    1.01 
   5   2   6    1.29    0.99 
   6   2   6   33.95    2.12 
   9  -3  -6    2.37    1.06 
   8  -3  -6   11.02    1.27 
  -8   3   6   12.03    1.39 
   7  -3  -6    1.94    0.83 
  -7   3   6    4.59    1.06 
   6  -3  -6  183.06    5.36 
  -6   3   6  189.48    5.79 
   5  -3  -6  138.73    4.13 
  -5   3   6  137.86    4.49 
   4  -3  -6   20.89    1.36 
  -4   3   6   22.82    1.46 
   3  -3  -6   41.03    1.74 
  -3   3   6   40.19    1.95 
   2  -3  -6   25.31    1.48 
  -2   3   6   24.41    0.97 
   1  -3  -6   14.69    1.22 
  -1   3   6   17.18    1.27 
  -1   3   6   13.53    0.89 
   0   3   6  307.26    8.60 
   0   3   6  298.56    8.21 
   1   3   6   56.18    2.09 
   1   3   6   50.59    2.30 
   2   3   6   23.68    1.44 
   2   3   6   21.87    1.58 
   3   3   6   13.51    1.35 
   3   3   6   15.07    1.27 
   4   3   6    5.45    1.09 
   4   3   6    4.79    1.04 
   5   3   6   27.29    1.86 
   6   3   6   14.34    1.66 
   9  -4  -6   89.61    3.37 
   8  -4  -6   83.47    3.05 
  -8   4   6   83.57    3.37 
   7  -4  -6   17.45    1.36 
  -7   4   6   17.69    1.64 
   6  -4  -6   23.40    1.44 
  -6   4   6   25.24    1.76 
   5  -4  -6    1.15    0.70 
  -5   4   6    2.04    0.89 
   4  -4  -6  222.65    6.00 
  -4   4   6  213.03    6.51 
   2  -4  -6   44.10    1.82 
  -2   4   6   43.39    1.97 
  -2   4   6   39.24    1.52 
   1  -4  -6   23.08    1.45 
  -1   4   6   22.62    1.60 
  -1   4   6   24.12    1.23 
   0   4   6   62.56    2.30 
   0   4   6   65.67    2.63 
   1   4   6   86.55    3.02 
   1   4   6   89.36    3.22 
   2   4   6  108.04    3.74 
   2   4   6  107.09    3.66 
   3   4   6    1.66    0.88 
   3   4   6   -0.80    0.75 
   4   4   6    1.49    1.03 
   5   4   6    0.11    1.09 
  -9   5   6    0.59    1.06 
  -8   5   6   18.18    1.74 
   7  -5  -6   68.35    2.51 
  -7   5   6   66.04    2.93 
   6  -5  -6   50.46    2.07 
  -6   5   6   51.38    2.55 
   5  -5  -6   10.67    0.99 
  -5   5   6   11.46    1.35 
   4  -5  -6    4.98    0.86 
  -4   5   6    4.32    1.00 
   3  -5  -6   71.43    2.48 
  -3   5   6   72.02    2.83 
   2  -5  -6  189.73    5.20 
  -2   5   6  168.76    5.15 
  -2   5   6  186.85    5.65 
  -1   5   6   10.32    1.20 
  -1   5   6    8.51    0.90 
   0   5   6    7.10    1.14 
   0   5   6    8.97    0.99 
   1   5   6   10.17    1.14 
   1   5   6   11.72    1.29 
   2   5   6   19.13    1.56 
   2   5   6   23.42    1.70 
   3   5   6  115.12    4.12 
   4   5   6  147.47    5.12 
  -9   6   6    2.50    1.26 
  -8   6   6   17.70    1.80 
  -7   6   6    7.88    1.37 
  -6   6   6   52.05    2.58 
  -5   6   6   46.65    2.43 
  -4   6   6    4.95    0.96 
   3  -6  -6   35.19    1.65 
  -3   6   6   36.20    2.08 
  -2   6   6   28.37    1.52 
  -2   6   6   29.06    1.77 
  -1   6   6    1.80    0.91 
  -1   6   6    3.20    0.82 
   0   6   6  129.18    4.25 
   0   6   6  119.72    4.07 
   1   6   6   33.95    1.92 
   1   6   6   33.45    1.90 
   2   6   6    0.05    0.82 
   2   6   6   -0.45    0.87 
   3   6   6    3.99    1.18 
   4   6   6    5.04    1.30 
  -9   7   6   87.61    3.96 
  -8   7   6   89.07    3.86 
  -7   7   6    0.45    1.08 
  -6   7   6   20.74    1.95 
  -5   7   6    0.85    0.85 
  -4   7   6   42.39    2.28 
  -3   7   6   70.48    3.04 
  -2   7   6    1.31    0.96 
  -1   7   6   18.01    1.61 
  -1   7   6   15.04    1.39 
   0   7   6    0.87    0.85 
   0   7   6   -0.09    0.88 
   1   7   6   18.69    1.63 
   1   7   6   17.38    1.60 
   2   7   6   23.67    1.89 
   3   7   6    2.96    1.23 
  -8   8   6   23.92    2.26 
  -7   8   6   62.47    3.12 
  -6   8   6   43.19    2.44 
  -5   8   6    0.97    1.02 
  -4   8   6   -0.32    0.92 
  -3   8   6   26.77    1.98 
  -2   8   6   62.75    2.88 
  -1   8   6   18.25    1.67 
  -1   8   6   17.54    1.52 
   0   8   6    0.02    0.90 
   0   8   6    1.10    0.96 
   1   8   6    3.82    1.21 
   2   8   6    2.87    1.24 
  -8   9   6    1.36    1.37 
  -7   9   6    4.38    1.24 
  -6   9   6   77.84    3.52 
  -5   9   6  111.06    4.42 
  -4   9   6   48.95    2.67 
  -3   9   6    0.41    1.04 
  -2   9   6    2.58    1.17 
  -1   9   6   32.74    2.13 
   0   9   6   91.34    3.75 
  -6  10   6   16.70    1.99 
  -5  10   6    2.39    1.23 
  -4  10   6   15.81    1.85 
  -3  10   6   58.43    3.02 
  -2  10   6    6.10    1.40 
   0  10  -7   -0.16    1.16 
  -1  10  -7    1.85    1.23 
  -2  10  -7   11.68    1.68 
  -3  10  -7  114.49    4.67 
   3 -10   7  115.12    4.34 
  -4  10  -7   61.51    3.21 
   2   9  -7    4.50    1.35 
   1   9  -7   14.68    1.75 
   0   9  -7   26.77    2.10 
  -1   9  -7    4.77    1.29 
  -2   9  -7    1.79    1.07 
   2  -9   7    3.25    1.07 
  -3   9  -7    0.62    1.15 
   3  -9   7    0.66    0.99 
  -4   9  -7   19.83    1.96 
   4  -9   7   22.85    1.96 
  -5   9  -7   30.22    2.30 
   5  -9   7   30.82    2.17 
   3   8  -7   14.06    1.64 
   3   8  -7   15.62    1.58 
   2   8  -7    6.72    1.32 
   2   8  -7    6.87    1.24 
   1   8  -7   23.59    1.93 
   0   8  -7   15.28    1.60 
  -1   8  -7   46.03    2.47 
   1  -8   7   54.48    2.44 
  -2   8  -7   10.66    1.47 
   2  -8   7   10.03    1.31 
  -3   8  -7    3.03    1.07 
   3  -8   7    3.96    1.12 
  -4   8  -7    9.86    1.53 
   4  -8   7   11.69    1.51 
   5  -8   7    2.70    1.16 
   6  -8   7   40.78    2.51 
   4   7  -7   11.44    1.45 
   4   7  -7   11.24    1.47 
   3   7  -7   83.50    3.34 
   3   7  -7   78.28    3.11 
   2   7  -7  100.11    3.79 
   2   7  -7  100.78    3.60 
   1   7  -7   20.25    1.70 
   1   7  -7   22.54    1.65 
   0   7  -7    9.70    1.28 
   0   7  -7    7.05    1.08 
   0  -7   7    9.13    1.13 
  -1   7  -7    8.78    1.25 
  -1   7  -7   10.57    1.16 
   1  -7   7    9.40    1.19 
  -2   7  -7    8.08    1.12 
  -2   7  -7    6.54    1.22 
   2  -7   7    7.32    1.15 
  -3   7  -7   48.92    2.59 
   3  -7   7   54.83    2.55 
  -4   7  -7   36.49    2.23 
   4  -7   7   39.67    2.18 
   5  -7   7    1.88    1.00 
   6  -7   7    4.83    1.20 
   5   6  -7   74.79    3.11 
   4   6  -7    1.79    0.94 
   4   6  -7    1.55    1.01 
   3   6  -7   -0.11    0.87 
   3   6  -7   -0.39    0.85 
   2   6  -7    1.12    0.88 
   2   6  -7    2.88    0.98 
   1   6  -7   73.53    2.80 
   1   6  -7   73.22    2.94 
  -1  -6   7   78.57    2.86 
   0   6  -7  189.81    5.79 
   0   6  -7  187.96    5.54 
   0  -6   7  183.35    5.63 
  -1   6  -7   60.72    2.41 
  -1   6  -7   61.49    2.63 
   1  -6   7   59.86    2.51 
  -2   6  -7    0.42    0.88 
  -2   6  -7    1.61    0.90 
   2  -6   7    1.52    0.88 
  -3   6  -7    3.02    1.06 
  -3   6  -7    2.50    0.96 
   3  -6   7    3.89    1.06 
   4  -6   7   81.44    3.33 
   5  -6   7   62.32    2.89 
   6  -6   7   34.83    2.26 
   6   5  -7   10.30    1.42 
   5   5  -7    4.74    1.11 
   4   5  -7   57.19    2.56 
   4   5  -7   60.80    2.59 
   3   5  -7   47.25    2.19 
   3   5  -7   44.37    2.15 
   2   5  -7   -0.16    0.80 
   2   5  -7   -0.07    0.74 
   1   5  -7    0.23    0.71 
   1   5  -7    1.08    0.81 
  -1  -5   7   -0.13    0.77 
   0   5  -7   32.38    1.79 
   0   5  -7   29.66    1.76 
   0  -5   7   30.65    1.69 
  -1   5  -7   97.07    3.45 
  -1   5  -7  102.20    3.40 
   1  -5   7   97.53    3.45 
  -2   5  -7   99.77    3.61 
  -2   5  -7  100.72    3.47 
   2  -5   7  104.03    3.63 
  -3   5  -7    2.65    0.98 
   3  -5   7    5.66    1.08 
   4  -5   7    0.80    0.85 
   5  -5   7    5.18    1.12 
   6  -5   7   70.88    3.17 
   7  -5   7   83.67    3.69 
   7   4  -7   22.33    1.91 
   6   4  -7   -0.05    0.84 
   5   4  -7   41.04    2.15 
   4   4  -7    6.18    0.94 
   4   4  -7    7.70    1.15 
   3   4  -7   81.61    3.08 
   3   4  -7   91.68    3.05 
   2   4  -7  102.57    3.33 
   2   4  -7   97.22    3.37 
  -2  -4   7  103.23    3.34 
   1   4  -7    8.12    0.92 
   1   4  -7    5.51    0.97 
  -1  -4   7    7.79    1.04 
   0   4  -7   36.59    1.93 
   0   4  -7   38.22    1.82 
   0  -4   7   42.10    1.98 
  -1   4  -7   65.00    2.51 
  -1   4  -7   68.53    2.59 
   1  -4   7   65.16    2.62 
  -2   4  -7    2.39    0.91 
   2  -4   7    1.75    0.80 
   3  -4   7   64.42    2.66 
   4  -4   7   78.24    3.13 
   5  -4   7   -0.83    0.85 
   6  -4   7   15.85    1.72 
   7  -4   7    1.84    1.22 
   7   3  -7    1.09    0.93 
   6   3  -7   46.28    2.24 
   5   3  -7   77.43    2.95 
   4   3  -7    6.29    1.05 
   3   3  -7    4.08    0.71 
   3   3  -7    2.97    0.89 
  -3  -3   7    4.46    0.77 
   2   3  -7   22.07    1.26 
   2   3  -7   19.02    1.36 
  -2  -3   7   18.86    1.31 
   1   3  -7   59.97    2.38 
   1   3  -7   63.61    2.22 
  -1  -3   7   65.04    2.50 
   0   3  -7  106.56    3.55 
   0   3  -7  108.32    3.35 
   0  -3   7  105.14    3.62 
  -1   3  -7   45.42    2.09 
   1  -3   7   43.65    2.12 
  -2   3  -7   -0.49    0.81 
   2  -3   7    0.13    0.77 
   3  -3   7    8.85    1.13 
   4  -3   7    7.33    1.17 
   5  -3   7   18.29    1.71 
   6  -3   7    0.17    0.97 
   7  -3   7   18.33    1.80 
   7  -3   7   15.78    1.77 
   8   2  -7   40.36    2.30 
   7   2  -7    8.36    1.18 
   6   2  -7    3.60    0.92 
   5   2  -7   29.13    1.67 
   4   2  -7  121.11    3.87 
  -4  -2   7  118.50    3.71 
   3   2  -7   64.53    2.50 
   3   2  -7   70.86    2.25 
  -3  -2   7   69.15    2.53 
   2   2  -7    1.43    0.49 
   2   2  -7    0.98    0.81 
  -2  -2   7    1.09    0.71 
   1   2  -7    0.71    0.51 
   1   2  -7    0.77    0.80 
  -1  -2   7    0.56    0.75 
   0   2  -7   30.69    1.67 
   0  -2   7   31.22    1.80 
  -1   2  -7  170.62    5.14 
   1  -2   7  172.85    5.38 
  -2   2  -7  169.08    5.32 
   2  -2   7  180.12    5.46 
   3  -2   7    1.50    0.86 
   4  -2   7   24.32    1.82 
   5  -2   7   -0.56    0.90 
   6  -2   7   81.05    3.49 
   6  -2   7   80.97    3.32 
   7  -2   7   68.15    3.15 
   7  -2   7   65.03    3.26 
   8   1  -7   23.39    1.91 
   7   1  -7   55.40    2.49 
   6   1  -7    7.91    1.14 
   5   1  -7   25.27    1.56 
   4   1  -7    0.15    0.65 
  -4  -1   7    0.29    0.66 
   2   1  -7  270.87    7.01 
  -2  -1   7  261.06    7.58 
  -1   1  -7    8.24    1.10 
  -2   1  -7   10.27    1.29 
   2  -1   7   10.23    1.30 
   3  -1   7  267.13    7.98 
   4  -1   7  137.74    4.80 
   4  -1   7  141.17    4.52 
   5  -1   7    9.11    1.23 
   5  -1   7    8.62    1.42 
   6  -1   7    1.47    1.02 
   6  -1   7    3.07    1.27 
   8   0  -7   11.55    1.38 
   7   0  -7   12.17    1.36 
   6   0  -7   51.74    2.32 
   5   0  -7  106.41    3.55 
  -5   0   7  104.70    3.48 
   4   0  -7   19.05    1.43 
  -4   0   7   21.00    1.37 
   3   0  -7   38.66    1.86 
  -3   0   7   37.91    1.82 
   2   0  -7   17.56    1.35 
  -2   0   7   17.33    1.39 
  -1   0   7   74.09    2.75 
   2   0   7    2.35    0.90 
   2   0   7    3.87    0.71 
   3   0   7    1.31    0.89 
   3   0   7    0.17    0.67 
   4   0   7   21.00    1.78 
   4   0   7   19.45    1.53 
   5   0   7   78.96    3.37 
   5   0   7   82.05    3.19 
   6   0   7   12.68    1.49 
   6   0   7    9.64    1.53 
   9  -1  -7   51.88    2.62 
   8  -1  -7   32.99    2.01 
   7  -1  -7    0.78    0.90 
   6  -1  -7   10.27    1.19 
  -6   1   7    9.01    1.12 
   5  -1  -7   -0.43    0.76 
  -5   1   7    0.06    0.67 
   4  -1  -7   14.41    1.25 
  -4   1   7   14.00    1.21 
   3  -1  -7   64.28    2.46 
  -3   1   7   68.21    2.61 
   2  -1  -7    0.10    0.82 
  -2   1   7    0.40    0.73 
   1  -1  -7  123.36    3.83 
  -1   1   7  117.46    3.95 
   0  -1  -7    2.47    0.94 
   0   1   7   -0.47    0.29 
   0   1   7    0.62    0.36 
  -1  -1  -7   93.30    3.43 
   1   1   7  106.25    3.63 
   1   1   7  103.48    3.14 
   2   1   7   36.90    2.00 
   2   1   7   33.91    1.61 
   3   1   7    5.42    0.89 
   3   1   7    2.79    1.03 
   4   1   7   20.44    1.70 
   4   1   7   18.68    1.51 
   5   1   7    6.08    1.24 
   5   1   7    6.19    1.19 
   6   1   7   47.00    2.50 
   9  -2  -7   -0.64    0.94 
   8  -2  -7   35.12    2.01 
   7  -2  -7   67.01    2.71 
  -7   2   7   68.36    2.78 
   6  -2  -7    4.69    0.96 
  -6   2   7    7.24    1.06 
   5  -2  -7   18.80    1.39 
  -5   2   7   20.25    1.39 
   4  -2  -7    2.75    0.83 
  -4   2   7    1.72    0.81 
   3  -2  -7   62.58    2.36 
  -3   2   7   60.15    2.48 
   2  -2  -7  282.62    7.76 
  -2   2   7  285.76    8.17 
   0  -2  -7    7.63    1.08 
   0   2   7    9.02    0.76 
   0   2   7    9.23    1.15 
   1   2   7   55.95    2.03 
   1   2   7   51.98    2.33 
   2   2   7    1.86    0.71 
   2   2   7    1.67    0.93 
   3   2   7  119.46    4.15 
   3   2   7  117.26    3.92 
   4   2   7   43.90    2.17 
   4   2   7   43.28    2.27 
   5   2   7    1.32    0.98 
   5   2   7    1.15    1.00 
   9  -3  -7    0.65    1.01 
   8  -3  -7    1.72    0.94 
   7  -3  -7    0.85    0.86 
  -7   3   7    1.02    0.90 
   6  -3  -7  148.93    4.58 
  -6   3   7  152.44    4.94 
   5  -3  -7  210.40    5.87 
  -5   3   7  199.21    6.23 
   4  -3  -7   62.23    2.36 
  -4   3   7   58.04    2.49 
   3  -3  -7    9.29    1.10 
  -3   3   7   11.49    1.27 
   2  -3  -7    9.41    1.08 
   1  -3  -7   27.99    1.65 
  -1   3   7   27.69    1.66 
   0   3   7  115.23    4.05 
   0   3   7  123.80    3.62 
   1   3   7   97.52    3.13 
   1   3   7   88.36    3.42 
   2   3   7    1.83    0.77 
   2   3   7    0.19    0.81 
   3   3   7    0.74    0.95 
   3   3   7    0.39    0.79 
   4   3   7   22.81    1.75 
   4   3   7   25.20    1.80 
   5   3   7   67.06    2.98 
   9  -4  -7   27.85    1.93 
   8  -4  -7   46.35    2.28 
  -8   4   7   47.48    2.49 
   7  -4  -7    3.01    0.93 
  -7   4   7    5.06    1.17 
   6  -4  -7   -0.33    0.76 
  -6   4   7   -0.29    0.80 
   5  -4  -7   10.18    1.06 
  -5   4   7    7.98    1.23 
   4  -4  -7   82.61    2.87 
  -4   4   7   85.13    3.21 
   3  -4  -7   91.70    3.13 
  -3   4   7  101.53    3.52 
   2  -4  -7    8.61    1.11 
  -2   4   7    7.60    1.06 
   1  -4  -7    1.02    0.85 
  -1   4   7    0.94    0.90 
   0   4   7   17.25    1.54 
   0   4   7   19.99    1.26 
   1   4   7  147.32    4.45 
   1   4   7  137.69    4.70 
   2   4   7   95.83    3.62 
   2   4   7   99.49    3.46 
   3   4   7    2.99    0.99 
   3   4   7    4.68    1.15 
   4   4   7    6.27    1.20 
  -9   5   7    6.96    1.41 
  -8   5   7   22.32    1.97 
   7  -5  -7   40.42    2.01 
  -7   5   7   45.46    2.38 
   6  -5  -7   13.87    1.24 
  -6   5   7   15.72    1.65 
   5  -5  -7   29.33    1.63 
  -5   5   7   30.71    1.88 
   4  -5  -7    3.14    0.86 
  -4   5   7    3.42    0.99 
   3  -5  -7   23.27    1.50 
  -3   5   7   22.86    1.62 
   2  -5  -7  171.53    5.20 
  -2   5   7  184.01    5.66 
  -1   5   7  115.98    4.07 
   0   5   7    9.78    1.25 
   0   5   7   11.07    1.10 
   1   5   7   77.27    2.90 
   1   5   7   76.20    3.13 
   2   5   7    0.78    0.92 
   2   5   7    1.36    0.89 
   3   5   7   41.85    2.28 
   4   5   7   36.41    2.21 
  -9   6   7    2.61    1.24 
  -8   6   7   17.13    1.90 
  -7   6   7   15.78    1.69 
  -6   6   7   38.68    2.26 
  -5   6   7   40.09    2.31 
  -4   6   7   15.59    1.56 
   3  -6  -7   24.94    1.55 
  -3   6   7   25.35    1.88 
  -2   6   7   28.99    1.95 
  -1   6   7   21.74    1.70 
   0   6   7   51.38    2.47 
   1   6   7   15.82    1.59 
   1   6   7   13.45    1.37 
   2   6   7    0.61    0.91 
   3   6   7    0.16    0.99 
  -8   7   7   53.26    2.97 
  -7   7   7    9.53    1.59 
  -6   7   7    2.42    1.21 
  -5   7   7    1.14    0.86 
  -4   7   7   79.80    3.40 
  -3   7   7   74.45    3.25 
  -2   7   7   -0.53    0.97 
  -1   7   7    0.46    1.01 
   0   7   7    0.74    0.98 
   1   7   7   38.19    2.19 
   2   7   7   52.85    2.70 
  -8   8   7   20.93    2.18 
  -7   8   7   54.46    3.05 
  -6   8   7   34.15    2.33 
  -5   8   7    4.73    1.26 
  -4   8   7    3.31    1.25 
  -3   8   7   34.67    2.26 
  -2   8   7  119.01    4.43 
  -1   8   7   62.56    2.96 
   0   8   7    1.97    1.15 
  -7   9   7    0.71    1.08 
  -6   9   7   42.31    2.58 
  -5   9   7   96.43    4.16 
  -4   9   7   30.49    2.21 
  -3   9   7   10.14    1.55 
  -2   9   7    3.43    1.22 
  -1   9   7   25.63    2.15 
  -5  10   7    0.46    1.18 
  -4  10   7    6.09    1.52 
  -3  10   7   21.96    2.15 
   1   9  -8   11.14    1.62 
   0   9  -8   16.73    1.82 
  -1   9  -8   -0.07    1.05 
  -2   9  -8    8.56    1.51 
   2  -9   8    6.98    1.32 
  -3   9  -8    0.29    1.16 
   3  -9   8    0.72    1.09 
  -4   9  -8   33.07    2.44 
   4  -9   8   31.52    2.31 
   3   8  -8   13.21    1.61 
   2   8  -8    0.15    1.10 
   2   8  -8    0.55    1.06 
   1   8  -8   12.38    1.52 
   0   8  -8   24.06    1.90 
  -1   8  -8   81.52    3.42 
   1  -8   8   76.93    3.21 
  -2   8  -8   58.95    2.89 
   2  -8   8   55.18    2.69 
  -3   8  -8   -0.79    0.94 
   3  -8   8    2.10    1.09 
  -4   8  -8   11.90    1.63 
   4  -8   8   10.02    1.51 
   5  -8   8    4.23    1.26 
   4   7  -8   -0.49    0.97 
   3   7  -8   29.06    1.96 
   2   7  -8  114.11    4.05 
   2   7  -8  114.98    4.18 
   1   7  -8   59.63    2.65 
   1   7  -8   56.99    2.66 
   0   7  -8    0.65    0.95 
   0   7  -8   -0.43    0.87 
   0  -7   8    0.81    0.88 
  -1   7  -8    2.48    0.94 
  -1   7  -8    3.17    1.08 
   1  -7   8    0.52    0.89 
  -2   7  -8   36.52    1.96 
  -2   7  -8   32.88    2.11 
   2  -7   8   32.64    1.95 
  -3   7  -8   70.59    3.17 
   3  -7   8   70.93    3.12 
   4  -7   8   41.72    2.44 
   5  -7   8   -1.12    1.04 
   5   6  -8   66.00    3.01 
   4   6  -8   13.14    1.50 
   3   6  -8    8.69    1.29 
   2   6  -8   -0.75    0.79 
   2   6  -8   -0.64    0.86 
   1   6  -8   53.36    2.41 
   1   6  -8   51.96    2.39 
   0   6  -8   62.43    2.61 
   0   6  -8   61.44    2.63 
   0  -6   8   58.90    2.60 
  -1   6  -8    5.47    1.09 
  -1   6  -8    4.84    1.06 
   1  -6   8    6.68    1.11 
  -2   6  -8    1.52    0.93 
  -2   6  -8    0.64    0.91 
   2  -6   8    0.80    0.90 
  -3   6  -8    4.86    1.09 
   3  -6   8    3.02    1.08 
   4  -6   8  116.45    4.30 
   5  -6   8   77.43    3.40 
   6  -6   8   13.66    1.70 
   6   5  -8    1.15    1.11 
   5   5  -8    0.17    0.98 
   4   5  -8   53.82    2.52 
   3   5  -8    4.41    1.11 
   2   5  -8    5.02    0.95 
   2   5  -8    5.10    1.08 
   1   5  -8   12.24    1.17 
   1   5  -8   11.21    1.28 
  -1  -5   8   12.14    1.28 
   0   5  -8   37.33    1.92 
   0   5  -8   34.52    1.96 
   0  -5   8   34.05    1.97 
  -1   5  -8   77.12    2.96 
  -1   5  -8   77.78    2.96 
   1  -5   8   78.53    3.07 
  -2   5  -8   74.97    2.97 
  -2   5  -8   80.27    3.06 
   2  -5   8   75.03    3.09 
  -3   5  -8    1.63    0.98 
   3  -5   8   -0.08    0.89 
   4  -5   8    5.75    1.11 
   5  -5   8    4.51    1.10 
   6  -5   8   37.73    2.36 
   6   4  -8    2.20    1.01 
   5   4  -8   32.60    2.02 
   4   4  -8    0.44    0.90 
   3   4  -8    1.28    0.93 
   2   4  -8  101.94    3.60 
  -2  -4   8  105.57    3.57 
   1   4  -8   51.07    2.32 
   1   4  -8   50.74    2.06 
  -1  -4   8   51.85    2.30 
   0   4  -8   34.08    1.69 
   0   4  -8   35.62    1.96 
   0  -4   8   36.37    2.02 
  -1   4  -8   76.22    2.83 
  -1   4  -8   76.37    2.88 
   1  -4   8   77.31    3.07 
  -2   4  -8    8.18    1.22 
   2  -4   8    5.58    1.09 
   3  -4   8   46.98    2.36 
   4  -4   8   26.71    1.80 
   5  -4   8    1.50    1.02 
   6  -4   8    4.36    1.32 
   7   3  -8   -1.99    0.83 
   6   3  -8   50.77    2.49 
   5   3  -8   83.14    3.19 
   4   3  -8   25.66    1.72 
   3   3  -8    2.02    0.92 
  -3  -3   8    1.12    0.76 
   2   3  -8    1.04    0.85 
  -2  -3   8    1.18    0.75 
   1   3  -8   44.54    2.08 
   1   3  -8   43.82    1.76 
  -1  -3   8   43.82    2.11 
   0   3  -8  104.54    3.33 
   0   3  -8   98.61    3.54 
   0  -3   8  103.32    3.70 
  -1   3  -8   -1.09    0.84 
   1  -3   8    1.62    0.96 
  -2   3  -8   16.28    1.52 
   2  -3   8   12.93    1.43 
   3  -3   8   15.06    1.49 
   4  -3   8   80.79    3.34 
   5  -3   8   30.85    2.17 
   6  -3   8    7.79    1.53 
   7   2  -8    7.21    1.18 
   6   2  -8   -0.70    0.77 
   5   2  -8   41.85    2.10 
   4   2  -8  228.30    6.64 
  -4  -2   8  229.46    6.64 
   3   2  -8   67.64    2.67 
  -3  -2   8   65.51    2.62 
   2   2  -8    0.09    0.84 
  -2  -2   8   -0.98    0.70 
   1   2  -8    1.26    0.85 
  -1  -2   8    0.78    0.76 
   0   2  -8   76.60    2.93 
   0  -2   8   78.42    2.99 
  -1   2  -8  136.61    4.53 
   1  -2   8  145.68    4.74 
  -2   2  -8  149.44    4.83 
   2  -2   8  146.91    4.94 
   3  -2   8    4.30    1.08 
   4  -2   8   23.60    1.85 
   5  -2   8    0.94    0.89 
   5  -2   8    2.03    1.18 
   6  -2   8   47.95    2.82 
   6  -2   8   48.08    2.52 
   8   1  -8   26.71    1.98 
   7   1  -8   29.59    1.95 
   6   1  -8   13.75    1.42 
   5   1  -8   21.47    1.55 
   4   1  -8   21.57    1.42 
  -4  -1   8   19.99    1.40 
   3   1  -8   33.39    1.68 
  -3  -1   8   30.19    1.73 
   2   1  -8  176.42    5.30 
  -2  -1   8  181.80    5.52 
   1   1  -8   62.80    2.47 
  -1  -1   8   60.60    2.53 
   0   1  -8    8.94    1.18 
   0  -1   8    9.23    1.20 
  -1   1  -8   -0.14    0.93 
   1  -1   8    2.04    0.89 
   2  -1   8    4.06    0.98 
   3  -1   8  134.05    4.27 
   3  -1   8  134.06    4.70 
   4  -1   8   55.84    2.78 
   4  -1   8   58.90    2.49 
   5  -1   8   14.09    1.71 
   5  -1   8   11.13    1.34 
   6  -1   8   -0.46    0.99 
   6  -1   8    1.30    1.27 
   8   0  -8   24.63    1.88 
   7   0  -8   16.55    1.54 
   6   0  -8   16.72    1.53 
   5   0  -8   94.62    3.43 
  -5   0   8  102.27    3.42 
   4   0  -8    0.30    0.77 
  -4   0   8    0.72    0.77 
   3   0  -8    8.52    1.13 
  -3   0   8    9.04    1.10 
   2   0  -8    2.45    0.95 
  -2   0   8    3.93    0.98 
   1   0  -8   65.19    2.50 
  -1   0   8   63.87    2.67 
   0   0  -8   67.17    2.63 
   0   0   8   65.01    2.73 
  -1   0  -8    0.34    0.75 
   1   0   8    0.10    0.66 
   1   0   8    1.21    0.57 
   2   0   8   44.70    2.34 
   2   0   8   46.33    1.92 
   3   0   8    2.22    1.05 
   3   0   8    1.73    0.77 
   4   0   8   26.23    1.99 
   4   0   8   27.73    1.75 
   5   0   8   63.74    2.87 
   5   0   8   67.53    3.03 
   6   0   8    6.58    1.42 
   8  -1  -8   54.06    2.60 
   7  -1  -8   -0.50    0.91 
   6  -1  -8   10.99    1.29 
  -6   1   8   12.69    1.26 
   5  -1  -8   21.45    1.45 
  -5   1   8   19.47    1.48 
   4  -1  -8   51.30    2.26 
  -4   1   8   49.85    2.30 
   3  -1  -8   27.61    1.60 
  -3   1   8   27.40    1.66 
   2  -1  -8   24.03    1.67 
  -2   1   8   23.02    1.69 
   1  -1  -8   19.86    1.53 
  -1   1   8   16.58    1.51 
   0  -1  -8    3.06    1.06 
   0   1   8    4.23    0.84 
  -1  -1  -8   70.15    2.87 
   1   1   8   66.53    2.81 
   2   1   8   61.54    2.28 
   2   1   8   55.14    2.63 
   3   1   8   -0.75    0.70 
   3   1   8   -0.42    0.90 
   4   1   8   33.05    1.93 
   4   1   8   33.85    2.11 
   5   1   8   10.82    1.48 
   5   1   8    8.09    1.31 
   9  -2  -8    0.47    1.05 
   8  -2  -8   94.18    3.56 
   7  -2  -8  100.30    3.58 
  -7   2   8   97.18    3.63 
   6  -2  -8   14.21    1.38 
  -6   2   8   16.63    1.50 
   5  -2  -8    2.17    0.90 
  -5   2   8    2.53    0.90 
   4  -2  -8    1.50    0.85 
  -4   2   8    1.60    0.89 
   3  -2  -8   69.38    2.73 
  -3   2   8   71.05    2.84 
   2  -2  -8  226.26    6.41 
  -2   2   8  220.51    6.73 
   1  -2  -8  136.93    4.36 
  -1   2   8  135.03    4.54 
   0  -2  -8    0.75    0.96 
   0   2   8    0.29    0.82 
   1   2   8    1.48    0.97 
   2   2   8    5.00    1.11 
   2   2   8    3.77    0.80 
   3   2   8   86.88    3.50 
   3   2   8   90.83    3.23 
   4   2   8   42.74    2.19 
   4   2   8   41.64    2.35 
   5   2   8   -0.32    0.94 
   5   2   8    0.06    0.99 
   9  -3  -8    1.28    1.08 
   8  -3  -8    4.77    1.11 
   7  -3  -8    1.48    0.92 
  -7   3   8    1.82    0.97 
   6  -3  -8   38.58    1.95 
  -6   3   8   31.34    2.00 
   5  -3  -8  164.82    4.96 
  -5   3   8  163.29    5.33 
   4  -3  -8   59.70    2.43 
  -4   3   8   61.37    2.67 
   3  -3  -8    1.39    0.95 
  -3   3   8    0.88    0.94 
   2  -3  -8    1.87    0.90 
  -2   3   8    2.99    0.91 
   1  -3  -8  122.67    3.95 
  -1   3   8  112.96    4.07 
   0   3   8   58.74    2.71 
   1   3   8   38.60    2.18 
   2   3   8   -0.48    0.69 
   2   3   8    1.62    1.00 
   3   3   8    7.18    1.13 
   3   3   8    6.57    1.30 
   4   3   8   42.38    2.39 
   4   3   8   41.55    2.28 
   9  -4  -8   29.47    1.95 
   8  -4  -8    6.85    1.21 
  -8   4   8    8.78    1.39 
   7  -4  -8    0.60    0.88 
  -7   4   8    0.71    1.04 
   6  -4  -8   19.88    1.54 
  -6   4   8   19.98    1.76 
   5  -4  -8    6.28    1.04 
  -5   4   8    6.90    1.23 
   4  -4  -8   47.15    2.18 
  -4   4   8   44.33    2.28 
   3  -4  -8   23.66    1.55 
  -3   4   8   24.35    1.63 
   2  -4  -8   34.83    1.88 
  -2   4   8   36.25    2.04 
   1  -4  -8    8.29    1.21 
  -1   4   8   11.89    1.37 
   0   4   8   10.28    1.31 
   1   4   8  129.89    4.53 
   2   4   8   89.68    3.54 
   3   4   8   12.90    1.58 
   3   4   8   14.90    1.46 
   4   4   8    3.70    1.17 
  -8   5   8   28.26    2.14 
  -7   5   8  112.98    4.35 
   6  -5  -8    5.01    1.02 
  -6   5   8    3.83    1.19 
   5  -5  -8   29.87    1.70 
  -5   5   8   29.52    1.96 
   4  -5  -8   10.50    1.13 
  -4   5   8   10.61    1.38 
   3  -5  -8    1.10    0.84 
  -3   5   8   -0.96    0.72 
   2  -5  -8   43.99    2.16 
  -2   5   8   42.02    2.24 
  -1   5   8   51.74    2.60 
   0   5   8    5.60    1.23 
   1   5   8   25.78    1.92 
   2   5   8    3.32    1.12 
  -8   6   8    4.39    1.39 
  -7   6   8   -0.53    1.06 
  -6   6   8   51.48    2.77 
  -5   6   8   62.42    3.00 
  -4   6   8   17.12    1.63 
   3  -6  -8    1.32    0.85 
  -3   6   8    0.46    1.03 
  -2   6   8    3.04    1.07 
  -1   6   8   17.62    1.70 
   0   6   8   31.73    2.10 
   1   6   8    6.02    1.28 
  -8   7   8   36.13    2.57 
  -7   7   8   12.04    1.75 
  -6   7   8    0.58    1.15 
  -5   7   8   30.22    2.13 
  -4   7   8  123.13    4.62 
  -3   7   8   75.15    3.34 
  -2   7   8    2.38    1.06 
  -1   7   8    1.65    1.09 
   0   7   8    6.16    1.28 
   1   7   8   67.27    3.12 
  -7   8   8   52.78    3.08 
  -6   8   8   16.39    1.86 
  -5   8   8    2.66    1.10 
  -4   8   8    4.40    1.35 
  -3   8   8    7.54    1.45 
  -2   8   8   89.00    3.78 
  -1   8   8   28.20    2.10 
   0   8   8    4.26    1.30 
  -6   9   8    4.10    1.42 
  -5   9   8   27.21    2.42 
  -4   9   8   13.75    1.86 
  -3   9   8    0.72    1.19 
  -2   9   8    1.39    1.23 
  -1   9  -9    2.81    1.26 
  -1   8  -9   66.23    3.10 
   1  -8   9   63.57    2.97 
  -2   8  -9   78.12    3.44 
   2  -8   9   75.31    3.33 
  -3   8  -9   12.72    1.69 
   3  -8   9   12.85    1.57 
   3   7  -9   33.03    2.22 
   2   7  -9   79.01    3.32 
   1   7  -9   33.88    2.14 
   0   7  -9    5.92    1.29 
   0  -7   9    4.09    1.15 
  -1   7  -9    6.73    1.24 
  -1   7  -9    6.84    1.22 
   1  -7   9    5.40    1.20 
  -2   7  -9    9.78    1.34 
  -2   7  -9   11.27    1.48 
   2  -7   9    9.46    1.40 
   3  -7   9   78.86    3.39 
   4  -7   9   14.27    1.67 
   4   6  -9    1.34    1.15 
   3   6  -9   18.64    1.80 
   2   6  -9   -0.46    1.01 
   1   6  -9   37.96    2.27 
   0   6  -9   23.67    1.81 
   0  -6   9   22.75    1.80 
  -1   6  -9   -0.77    0.82 
  -1   6  -9   -0.81    0.91 
   1  -6   9   -0.58    0.94 
  -2   6  -9   10.86    1.39 
  -2   6  -9   11.85    1.38 
   2  -6   9    9.01    1.31 
  -3   6  -9   -0.31    1.00 
   3  -6   9    0.32    1.02 
   4  -6   9   18.69    1.83 
   5  -6   9   62.76    3.14 
   5   5  -9    9.41    1.43 
   4   5  -9   75.34    3.18 
   3   5  -9   10.62    1.43 
   2   5  -9    3.55    1.09 
   1   5  -9   39.80    2.21 
  -1  -5   9   36.45    2.05 
   0   5  -9    2.14    1.07 
   0  -5   9    0.78    0.98 
  -1   5  -9   76.63    3.03 
  -1   5  -9   72.73    3.03 
   1  -5   9   79.78    3.26 
  -2   5  -9   25.63    1.83 
   2  -5   9   25.60    1.94 
   3  -5   9    2.77    1.10 
   4  -5   9   15.05    1.59 
   5  -5   9    6.90    1.37 
   6   4  -9   15.10    1.70 
   5   4  -9    8.33    1.35 
   4   4  -9    0.59    0.99 
   3   4  -9   19.63    1.70 
   2   4  -9  110.96    3.99 
  -2  -4   9  118.91    4.02 
   1   4  -9   66.06    2.89 
  -1  -4   9   69.48    2.85 
   0   4  -9    0.14    0.91 
   0  -4   9   -0.29    0.89 
  -1   4  -9   -1.32    0.89 
   1  -4   9    0.76    0.94 
  -2   4  -9    3.35    1.10 
   2  -4   9    2.84    1.05 
   3  -4   9   44.19    2.41 
   4  -4   9    7.78    1.37 
   5  -4   9   -0.66    1.12 
   6   3  -9   30.71    2.03 
   5   3  -9   37.25    2.16 
   4   3  -9    1.48    0.93 
   3   3  -9   -0.05    0.84 
  -3  -3   9   -0.02    0.80 
   2   3  -9   16.01    1.52 
  -2  -3   9   14.54    1.39 
   1   3  -9  104.99    3.70 
  -1  -3   9   95.80    3.59 
   0   3  -9   92.21    3.43 
   0  -3   9   95.63    3.57 
  -1   3  -9   27.27    1.76 
   1  -3   9   26.03    1.83 
  -2   3  -9    1.08    1.02 
   2  -3   9   -1.12    0.98 
   3  -3   9    5.76    1.24 
   4  -3   9   84.61    3.68 
   5  -3   9  126.73    4.91 
   7   2  -9   10.49    1.44 
   6   2  -9    4.38    1.10 
   5   2  -9   31.12    1.89 
   4   2  -9  125.11    4.21 
  -4  -2   9  122.20    4.11 
   3   2  -9   56.41    2.43 
  -3  -2   9   49.32    2.35 
   2   2  -9    0.70    0.92 
  -2  -2   9    1.29    0.87 
   1   2  -9   33.66    2.01 
  -1  -2   9   32.81    1.96 
   0   2  -9    1.65    1.00 
   0  -2   9   -0.73    0.86 
  -1   2  -9   92.21    3.47 
   1  -2   9   90.19    3.50 
  -2   2  -9  184.60    5.87 
   2  -2   9  186.85    6.07 
   3  -2   9   11.73    1.51 
   4  -2   9    4.32    1.38 
   5  -2   9    1.60    1.23 
   5  -2   9    0.79    0.87 
   7   1  -9   51.04    2.61 
   6   1  -9    5.98    1.13 
   5   1  -9   19.94    1.65 
   4   1  -9   20.96    1.59 
  -4  -1   9   23.75    1.68 
   3   1  -9    0.18    0.78 
  -3  -1   9    2.40    0.92 
   2   1  -9   29.82    1.82 
  -2  -1   9   28.80    1.87 
   1   1  -9   36.59    1.92 
  -1  -1   9   38.71    2.12 
   0   1  -9    4.13    0.96 
   0  -1   9    3.42    0.99 
  -1   1  -9   15.69    1.51 
   1  -1   9   17.87    1.54 
   2  -1   9   16.46    1.60 
   3  -1   9   33.16    2.11 
   4  -1   9    0.76    1.02 
   4  -1   9    3.41    0.96 
   5  -1   9    0.86    0.95 
   5  -1   9   -0.67    1.14 
   8   0  -9    3.09    1.11 
   7   0  -9   -1.51    0.91 
   6   0  -9   35.84    2.06 
   5   0  -9   58.85    2.65 
  -5   0   9   59.89    2.51 
   4   0  -9    1.02    0.92 
  -4   0   9    2.49    0.91 
   3   0  -9    0.11    0.88 
  -3   0   9   -1.10    0.82 
   2   0  -9    1.73    0.99 
  -2   0   9    2.19    0.98 
   1   0  -9   75.17    2.96 
  -1   0   9   78.69    3.08 
   0   0  -9   80.59    3.09 
   0   0   9   77.82    3.13 
  -1   0  -9   -0.65    0.84 
   1   0   9    0.69    0.85 
   2   0   9   21.08    1.82 
   3   0   9    6.02    1.26 
   4   0   9   22.03    1.67 
   4   0   9   24.17    1.86 
   5   0   9   45.71    2.68 
   5   0   9   48.80    2.48 
   8  -1  -9   15.56    1.68 
   7  -1  -9    1.40    0.93 
   6  -1  -9   -1.12    0.92 
  -6   1   9    1.79    0.88 
   5  -1  -9   44.81    2.29 
  -5   1   9   51.62    2.33 
   4  -1  -9  154.32    4.86 
  -4   1   9  152.46    5.05 
   3  -1  -9   88.65    3.26 
  -3   1   9   88.29    3.40 
   2  -1  -9   -1.28    0.79 
  -2   1   9   -0.18    0.81 
   1  -1  -9   11.18    1.36 
  -1   1   9   12.83    1.39 
   0  -1  -9   -1.35    0.92 
   0   1   9   -0.64    0.68 
  -1  -1  -9   44.35    2.27 
   1   1   9   43.96    2.37 
   2   1   9  137.99    4.83 
   3   1   9    4.92    1.27 
   4   1   9    2.34    1.15 
   8  -2  -9   36.16    2.20 
   7  -2  -9   75.42    3.11 
  -7   2   9   78.55    3.20 
   6  -2  -9   42.46    2.18 
  -6   2   9   37.36    2.15 
   5  -2  -9    7.93    1.18 
  -5   2   9    8.25    1.24 
   4  -2  -9   19.27    1.59 
  -4   2   9   19.65    1.71 
   3  -2  -9   34.44    1.93 
  -3   2   9   44.74    2.30 
   2  -2  -9  158.48    4.91 
  -2   2   9  153.72    5.18 
   1  -2  -9   82.29    3.09 
  -1   2   9   78.47    3.22 
   0  -2  -9   13.06    1.50 
   0   2   9   13.97    1.47 
   1   2   9   -0.42    0.90 
   2   2   9   19.21    1.77 
   3   2   9   94.60    3.76 
   4   2   9   33.73    2.23 
   8  -3  -9    7.24    1.31 
   7  -3  -9    0.51    1.03 
  -7   3   9    0.32    0.93 
   6  -3  -9    9.08    1.29 
  -6   3   9   11.43    1.43 
   5  -3  -9   69.74    2.82 
  -5   3   9   65.91    2.96 
   4  -3  -9   12.16    1.40 
  -4   3   9   13.10    1.47 
   3  -3  -9    2.17    0.93 
  -3   3   9    3.67    1.13 
   2  -3  -9    1.04    0.97 
  -2   3   9    0.67    0.78 
   1  -3  -9   74.47    2.95 
  -1   3   9   70.45    3.06 
   0   3   9   42.15    2.37 
   1   3   9    3.69    1.12 
   2   3   9    9.30    1.37 
   3   3   9    2.30    1.15 
   8  -4  -9   -1.39    1.00 
  -8   4   9   -0.91    1.01 
   7  -4  -9   11.98    1.39 
  -7   4   9   12.07    1.58 
   6  -4  -9   27.68    1.87 
  -6   4   9   29.41    2.06 
   5  -4  -9   15.56    1.50 
  -5   4   9   15.99    1.67 
   4  -4  -9   50.42    2.35 
  -4   4   9   54.09    2.65 
   3  -4  -9   44.69    2.15 
  -3   4   9   39.89    2.21 
   2  -4  -9   -0.46    0.88 
  -2   4   9   -1.19    0.75 
   1  -4  -9   66.17    2.80 
  -1   4   9   66.42    3.03 
   0   4   9    2.90    1.10 
   1   4   9   56.90    2.79 
   2   4   9   60.85    2.91 
   3   4   9    1.83    1.13 
  -8   5   9   19.52    2.00 
  -7   5   9   90.49    3.85 
   6  -5  -9   25.05    1.82 
  -6   5   9   25.21    1.93 
   5  -5  -9    3.54    1.02 
  -5   5   9    4.42    1.18 
   4  -5  -9   17.48    1.49 
  -4   5   9   15.97    1.70 
   3  -5  -9    0.75    0.96 
  -3   5   9    0.35    0.88 
   2  -5  -9  106.44    3.77 
  -2   5   9  105.72    4.10 
  -1   5   9   52.41    2.72 
   0   5   9    0.68    1.05 
   1   5   9    2.08    1.15 
   2   5   9    4.28    1.25 
  -8   6   9    0.42    1.21 
  -7   6   9    4.95    1.32 
  -6   6   9   25.92    2.22 
  -5   6   9   73.68    3.35 
  -4   6   9    9.73    1.39 
   3  -6  -9   14.94    1.43 
  -3   6   9   15.45    1.70 
  -2   6   9    2.60    1.09 
  -1   6   9   75.46    3.28 
   0   6   9   41.55    2.49 
   1   6   9    5.67    1.35 
  -7   7   9    1.95    1.27 
  -6   7   9    6.40    1.51 
  -5   7   9   14.59    1.71 
  -4   7   9   89.87    3.81 
  -3   7   9   77.39    3.45 
  -2   7   9    4.23    1.32 
  -1   7   9    6.62    1.40 
   0   7   9    0.60    1.14 
  -6   8   9   22.22    2.18 
  -5   8   9   10.49    1.67 
  -4   8   9   10.74    1.68 
  -3   8   9    1.51    1.20 
  -2   8   9   32.33    2.36 
   2   7 -10   34.19    2.30 
   1   7 -10    6.27    1.43 
   0   7 -10    5.58    1.35 
  -1   7 -10    3.11    1.21 
   1  -7  10    2.43    1.20 
   2  -7  10   19.95    1.96 
   3  -7  10   87.90    3.84 
   3   6 -10   13.47    1.66 
   2   6 -10   -0.46    1.09 
   1   6 -10   40.86    2.51 
   0   6 -10   25.08    1.97 
   0  -6  10   22.31    1.92 
  -1   6 -10   -0.17    1.06 
   1  -6  10    0.53    1.08 
  -2   6 -10   34.82    2.26 
   2  -6  10   34.05    2.35 
   3  -6  10    5.39    1.42 
   4  -6  10   11.32    1.71 
   4   5 -10   61.25    2.97 
   3   5 -10   22.67    1.96 
   2   5 -10    0.53    1.07 
   1   5 -10    8.58    1.46 
  -1  -5  10    9.61    1.32 
   0   5 -10    0.77    1.01 
   0  -5  10   -0.29    0.98 
  -1   5 -10   48.89    2.51 
   1  -5  10   48.92    2.68 
  -2   5 -10   37.86    2.28 
   2  -5  10   38.75    2.36 
   3  -5  10    1.05    1.13 
   4  -5  10    2.67    1.28 
   5   4 -10    4.05    1.30 
   4   4 -10    0.38    0.96 
   3   4 -10   30.87    2.08 
   2   4 -10   78.61    3.33 
  -2  -4  10   84.38    3.31 
   1   4 -10   49.46    2.53 
  -1  -4  10   44.39    2.34 
   0   4 -10    1.85    1.06 
   0  -4  10    2.26    0.96 
  -1   4 -10   -0.03    1.05 
   1  -4  10    1.85    1.10 
  -2   4 -10   30.25    2.12 
   2  -4  10   34.24    2.22 
   3  -4  10   63.39    3.20 
   4  -4  10   11.93    1.64 
   6   3 -10   14.30    1.69 
   5   3 -10   37.72    2.22 
   4   3 -10   -0.91    0.98 
   3   3 -10    6.21    1.27 
  -3  -3  10    5.84    1.13 
   2   3 -10    9.14    1.42 
  -2  -3  10    8.96    1.26 
   1   3 -10  180.62    5.86 
  -1  -3  10  190.56    5.98 
   0   3 -10   82.33    3.28 
   0  -3  10   85.59    3.43 
  -1   3 -10    0.85    1.05 
   1  -3  10    0.02    1.00 
  -2   3 -10    1.11    1.10 
   2  -3  10    2.44    1.10 
   3  -3  10   -0.20    1.02 
   4  -3  10   41.34    2.70 
   6   2 -10   11.33    1.51 
   5   2 -10    1.19    0.90 
   4   2 -10   74.17    3.09 
   3   2 -10   55.27    2.61 
  -3  -2  10   58.73    2.65 
   2   2 -10    0.03    0.91 
  -2  -2  10   -0.15    0.91 
   1   2 -10   14.38    1.56 
  -1  -2  10   19.86    1.72 
   0   2 -10    4.67    1.20 
   0  -2  10    4.05    1.11 
  -1   2 -10   29.96    1.95 
   1  -2  10   31.85    2.01 
  -2   2 -10   56.93    2.80 
   2  -2  10   53.60    2.67 
   3  -2  10    6.54    1.36 
   4  -2  10    0.06    1.19 
   7   1 -10   41.19    2.42 
   6   1 -10   11.47    1.51 
   5   1 -10    6.57    1.18 
   4   1 -10    1.29    0.83 
  -4  -1  10    0.37    0.89 
   3   1 -10    1.23    0.97 
  -3  -1  10   -0.73    0.85 
   2   1 -10   16.80    1.60 
  -2  -1  10   15.86    1.55 
   1   1 -10    9.41    1.30 
  -1  -1  10    9.66    1.33 
   0   1 -10   16.40    1.59 
   0  -1  10   19.54    1.75 
  -1   1 -10    9.81    1.37 
   1  -1  10    7.88    1.19 
   2  -1  10   25.78    1.83 
   3  -1  10   28.06    2.05 
   4  -1  10    3.38    1.26 
   7   0 -10    0.75    1.09 
   6   0 -10   66.07    2.98 
   5   0 -10   53.98    2.59 
  -5   0  10   51.82    2.52 
   4   0 -10    0.36    1.00 
  -4   0  10    0.78    0.92 
   3   0 -10    8.59    1.38 
  -3   0  10    5.54    1.19 
   2   0 -10    6.21    1.27 
  -2   0  10    7.87    1.29 
   1   0 -10   90.59    3.44 
  -1   0  10   89.90    3.60 
   0   0 -10  141.61    4.76 
   0   0  10  145.32    4.93 
  -1   0 -10    9.89    1.40 
   1   0  10    9.92    1.32 
   2   0  10   11.68    1.53 
   3   0  10   14.52    1.64 
   4   0  10   21.41    2.03 
   7  -1 -10   -0.28    1.08 
   6  -1 -10   -0.85    0.96 
  -6   1  10   -0.87    0.82 
   5  -1 -10   25.95    1.86 
  -5   1  10   27.52    1.87 
   4  -1 -10  158.86    5.13 
  -4   1  10  157.10    5.31 
   3  -1 -10   62.33    2.75 
  -3   1  10   54.67    2.72 
   2  -1 -10   10.36    1.38 
  -2   1  10    9.82    1.35 
   1  -1 -10    1.68    1.12 
  -1   1  10    3.50    1.08 
   0  -1 -10   15.86    1.65 
   0   1  10   16.42    1.58 
   1   1  10   42.10    2.32 
   2   1  10   83.57    3.49 
   3   1  10    9.68    1.47 
   7  -2 -10   31.12    2.08 
   6  -2 -10   20.48    1.76 
  -6   2  10   21.14    1.81 
   5  -2 -10    2.61    1.11 
  -5   2  10    1.50    1.04 
   4  -2 -10    3.18    1.18 
  -4   2  10    4.01    1.10 
   3  -2 -10    0.32    1.02 
  -3   2  10    4.35    1.11 
   2  -2 -10   81.74    3.25 
  -2   2  10   83.56    3.46 
   1  -2 -10   15.36    1.57 
  -1   2  10   13.44    1.48 
   0  -2 -10    0.28    1.05 
   0   2  10    0.46    0.98 
   1   2  10    1.76    1.04 
   2   2  10   41.41    2.40 
   3   2  10   91.66    3.87 
   7  -3 -10   -0.20    1.01 
  -7   3  10   -0.75    0.98 
   6  -3 -10   20.21    1.76 
  -6   3  10   15.08    1.69 
   5  -3 -10   28.97    2.04 
  -5   3  10   25.89    1.92 
   4  -3 -10    3.99    1.15 
  -4   3  10    5.40    1.23 
   3  -3 -10   29.38    1.90 
  -3   3  10   27.11    2.06 
   2  -3 -10    1.45    1.02 
  -2   3  10   -0.20    0.81 
   1  -3 -10   22.37    1.85 
  -1   3  10   26.15    1.90 
   0   3  10   55.50    2.74 
   1   3  10    1.54    1.07 
   2   3  10   24.35    2.10 
   7  -4 -10    3.20    1.22 
  -7   4  10    2.46    1.22 
   6  -4 -10   24.88    1.94 
  -6   4  10   26.18    2.07 
   5  -4 -10   10.32    1.39 
  -5   4  10   12.96    1.58 
   4  -4 -10   93.13    3.48 
  -4   4  10   97.46    3.84 
   3  -4 -10   20.06    1.72 
  -3   4  10   21.31    1.90 
   2  -4 -10   -0.11    1.03 
  -2   4  10   -0.05    0.96 
   1  -4 -10   36.34    2.17 
  -1   4  10   34.51    2.32 
   0   4  10    3.89    1.17 
   1   4  10    7.15    1.41 
   2   4  10   46.60    2.66 
  -7   5  10   52.10    2.94 
  -6   5  10   52.80    2.91 
   5  -5 -10    8.05    1.28 
  -5   5  10    8.59    1.53 
   4  -5 -10    1.72    1.06 
  -4   5  10    2.83    1.14 
   3  -5 -10   19.12    1.63 
  -3   5  10   18.82    1.75 
   2  -5 -10   77.42    3.19 
  -2   5  10   74.59    3.44 
  -1   5  10   13.59    1.75 
   0   5  10    1.91    1.20 
   1   5  10   -0.44    1.14 
  -7   6  10   11.73    1.81 
  -6   6  10   42.65    2.70 
  -5   6  10   46.20    2.79 
  -4   6  10    4.21    1.20 
  -3   6  10    2.14    1.17 
  -2   6  10    2.69    1.23 
  -1   6  10   71.86    3.37 
   0   6  10   89.63    3.82 
  -6   7  10   22.80    2.29 
  -5   7  10    0.01    1.11 
  -4   7  10   29.03    2.26 
  -3   7  10   52.62    2.89 
  -2   7  10    0.25    1.21 
   2   6 -11   -0.50    1.20 
   1   6 -11   18.37    1.96 
   0   6 -11   58.88    2.98 
   0  -6  11   59.50    2.96 
  -1   6 -11    5.04    1.34 
   1  -6  11    1.13    1.25 
  -2   6 -11    3.51    1.33 
   2  -6  11    0.98    1.30 
   3   5 -11   41.03    2.56 
   2   5 -11    1.41    1.28 
   1   5 -11    1.90    1.24 
  -1  -5  11   -0.29    1.01 
   0   5 -11   12.04    1.62 
   0  -5  11   10.85    1.54 
  -1   5 -11   47.58    2.62 
   1  -5  11   46.60    2.68 
  -2   5 -11   62.28    3.11 
   2  -5  11   60.00    3.11 
   4   4 -11    0.46    1.06 
   3   4 -11   38.99    2.46 
   2   4 -11   48.43    2.73 
  -2  -4  11   49.73    2.51 
   1   4 -11    4.92    1.34 
  -1  -4  11    5.07    1.22 
   0   4 -11   -0.38    1.05 
   0  -4  11    1.58    1.08 
  -1   4 -11    6.68    1.44 
   1  -4  11    6.41    1.34 
  -2   4 -11   30.80    2.26 
   2  -4  11   29.29    2.27 
   3  -4  11   88.81    3.92 
   5   3 -11   13.55    1.71 
   4   3 -11    1.82    1.21 
   3   3 -11   35.16    2.32 
  -3  -3  11   36.95    2.19 
   2   3 -11    2.68    1.24 
  -2  -3  11    2.15    1.07 
   1   3 -11   29.14    2.04 
  -1  -3  11   24.32    1.94 
   0   3 -11   35.00    2.17 
   0  -3  11   38.39    2.28 
  -1   3 -11    6.30    1.38 
   1  -3  11    9.61    1.48 
  -2   3 -11    6.40    1.46 
   2  -3  11    7.91    1.50 
   3  -3  11    8.17    1.46 
   6   2 -11    6.28    1.40 
   5   2 -11    0.39    1.04 
   4   2 -11   40.30    2.36 
   3   2 -11   32.03    2.07 
  -3  -2  11   34.86    2.14 
   2   2 -11   10.75    1.52 
  -2  -2  11    9.71    1.44 
   1   2 -11   14.64    1.66 
  -1  -2  11   16.96    1.70 
   0   2 -11    4.48    1.27 
   0  -2  11    5.18    1.25 
  -1   2 -11   29.42    2.15 
   1  -2  11   32.15    2.18 
   2  -2  11    9.86    1.51 
   3  -2  11    3.26    1.27 
   6   1 -11   18.24    1.89 
   5   1 -11    0.16    1.06 
   4   1 -11    5.57    1.18 
  -4  -1  11    4.59    1.17 
   3   1 -11   35.77    2.16 
  -3  -1  11   37.06    2.23 
   2   1 -11   71.79    3.06 
  -2  -1  11   70.76    3.19 
   1   1 -11    6.19    1.20 
  -1  -1  11    8.77    1.39 
   0   1 -11   21.28    1.89 
   0  -1  11   20.59    1.86 
  -1   1 -11    0.16    0.95 
   1  -1  11    0.00    0.88 
   2  -1  11   18.71    1.85 
   3  -1  11   63.86    3.20 
   6   0 -11   59.04    2.93 
   5   0 -11   52.98    2.74 
  -5   0  11   54.20    2.64 
   4   0 -11    7.57    1.44 
  -4   0  11    7.53    1.33 
   3   0 -11    9.99    1.49 
  -3   0  11    9.99    1.43 
   2   0 -11   -1.06    0.97 
  -2   0  11    1.49    1.12 
   1   0 -11   85.57    3.39 
  -1   0  11   77.33    3.45 
   0   0 -11   92.84    3.74 
   0   0  11  101.57    3.94 
  -1   0 -11   43.06    2.51 
   1   0  11   45.69    2.46 
   2   0  11    2.76    1.14 
   3   0  11    0.05    1.05 
   7  -1 -11    7.96    1.50 
   6  -1 -11    4.32    1.28 
  -6   1  11    1.75    1.13 
   5  -1 -11    2.05    1.18 
  -5   1  11    2.32    1.04 
   4  -1 -11   57.60    2.81 
  -4   1  11   52.22    2.75 
   3  -1 -11   50.31    2.65 
  -3   1  11   56.33    2.80 
   2  -1 -11   17.99    1.75 
  -2   1  11   18.09    1.79 
   1  -1 -11    5.36    1.31 
  -1   1  11    5.39    1.32 
   0  -1 -11    5.75    1.35 
   0   1  11    5.20    1.16 
   1   1  11   43.82    2.57 
   2   1  11   23.32    2.05 
   7  -2 -11   21.55    1.94 
   6  -2 -11    6.15    1.37 
  -6   2  11    7.04    1.40 
   5  -2 -11   13.86    1.67 
  -5   2  11   13.81    1.63 
   4  -2 -11    2.74    1.19 
  -4   2  11    4.26    1.28 
   3  -2 -11    9.50    1.42 
  -3   2  11    7.03    1.43 
   2  -2 -11   31.08    2.11 
  -2   2  11   34.68    2.28 
   1  -2 -11    9.98    1.51 
  -1   2  11    9.72    1.38 
   0  -2 -11   12.32    1.65 
   0   2  11   13.09    1.63 
   1   2  11   11.79    1.62 
   2   2  11   13.31    1.76 
   7  -3 -11   -0.34    1.16 
  -7   3  11   -1.77    0.99 
   6  -3 -11   55.50    2.85 
  -6   3  11   54.15    2.89 
   5  -3 -11   40.65    2.41 
  -5   3  11   42.56    2.56 
   4  -3 -11    2.94    1.14 
  -4   3  11    3.76    1.18 
   3  -3 -11    7.04    1.30 
  -3   3  11    8.72    1.55 
   2  -3 -11    1.54    1.12 
  -2   3  11    2.30    1.08 
   1  -3 -11   29.72    2.11 
  -1   3  11   32.66    2.19 
   0   3  11   67.11    3.17 
   1   3  11   10.21    1.62 
   6  -4 -11    5.59    1.37 
  -6   4  11    6.21    1.49 
   5  -4 -11   -1.65    0.98 
  -5   4  11    0.10    1.13 
   4  -4 -11   42.06    2.34 
  -4   4  11   45.30    2.65 
   3  -4 -11   70.97    3.07 
  -3   4  11   71.64    3.37 
   2  -4 -11   10.39    1.48 
  -2   4  11    9.14    1.42 
  -1   4  11    6.23    1.48 
   0   4  11    0.10    1.19 
  -6   5  11   31.45    2.43 
   5  -5 -11   -1.17    0.95 
  -5   5  11    1.87    1.28 
   4  -5 -11    0.84    1.05 
  -4   5  11    1.91    1.15 
   3  -5 -11   32.48    2.17 
  -3   5  11   30.95    2.24 
   2  -5 -11   79.53    3.26 
  -2   5  11   69.41    3.47 
  -1   5  11    8.45    1.50 
  -5   6  11   68.28    3.50 
  -4   6  11    0.96    1.15 
  -3   6  11   15.47    1.90 
  -2   6  11    1.91    1.28 
   3   4 -12   29.66    2.46 
   2   4 -12   63.50    3.25 
  -2  -4  12   66.69    3.12 
   1   4 -12   10.17    1.66 
  -1  -4  12   12.95    1.65 
   0   4 -12   13.71    1.74 
   0  -4  12   12.35    1.68 
  -1   4 -12    3.04    1.34 
   1  -4  12    0.03    1.06 
   4   3 -12    3.81    1.41 
   3   3 -12   37.69    2.46 
   2   3 -12    0.10    1.22 
  -2  -3  12   -0.15    1.03 
   1   3 -12   15.69    1.86 
  -1  -3  12   15.87    1.74 
   0   3 -12   32.39    2.32 
   0  -3  12   29.29    2.11 
  -1   3 -12    6.62    1.52 
   1  -3  12    8.03    1.42 
   4   2 -12   30.51    2.15 
   3   2 -12    4.65    1.31 
  -3  -2  12    7.60    1.40 
   2   2 -12   -0.11    0.97 
  -2  -2  12    2.03    1.15 
   1   2 -12   -0.04    1.03 
  -1  -2  12   -0.81    1.07 
   0   2 -12    7.70    1.56 
   0  -2  12    5.11    1.36 
  -1   2 -12   40.67    2.59 
   1  -2  12   41.58    2.60 
   5   1 -12    0.51    1.17 
   4   1 -12    4.78    1.40 
  -4  -1  12    2.40    1.17 
   3   1 -12   82.95    3.61 
  -3  -1  12   84.50    3.60 
   2   1 -12   86.18    3.69 
  -2  -1  12   96.83    3.91 
   1   1 -12   15.52    1.73 
  -1  -1  12   15.36    1.76 
   0   1 -12    8.15    1.45 
   0  -1  12    9.52    1.48 
  -1   1 -12   -0.26    1.11 
   1  -1  12   -0.22    1.04 
   5   0 -12   54.05    2.79 
  -5   0  12   47.89    2.67 
   4   0 -12    1.72    1.33 
  -4   0  12   -0.23    1.08 
   3   0 -12    4.26    1.39 
  -3   0  12    5.90    1.37 
   2   0 -12    3.05    1.18 
  -2   0  12    4.54    1.31 
   1   0 -12   43.49    2.54 
  -1   0  12   44.64    2.55 
   0   0 -12   64.48    3.10 
   0   0  12   63.38    3.18 
   1   0  12   29.68    2.20 
   5  -1 -12    5.12    1.45 
  -5   1  12    2.23    1.19 
   4  -1 -12   12.96    1.74 
  -4   1  12   13.01    1.75 
   3  -1 -12   20.30    1.95 
  -3   1  12   18.44    1.95 
   2  -1 -12    4.74    1.36 
  -2   1  12    4.54    1.33 
   1  -1 -12    2.98    1.30 
  -1   1  12    2.05    1.24 
   0  -1 -12   10.13    1.63 
   0   1  12   11.43    1.60 
   1   1  12   44.76    2.73 
   5  -2 -12   11.62    1.70 
  -5   2  12    8.58    1.47 
   4  -2 -12    5.39    1.35 
  -4   2  12    5.50    1.44 
   3  -2 -12   22.64    2.02 
  -3   2  12   23.67    2.12 
   2  -2 -12   18.62    1.85 
  -2   2  12   21.51    2.02 
   1  -2 -12    3.33    1.32 
  -1   2  12    5.03    1.30 
   0   2  12   22.59    2.09 
   5  -3 -12   78.32    3.51 
  -5   3  12   74.52    3.58 
   4  -3 -12   -1.95    1.04 
  -4   3  12    2.40    1.27 
   3  -3 -12    1.05    1.13 
  -3   3  12    2.06    1.25 
   2  -3 -12    0.98    1.17 
  -2   3  12    0.15    1.10 
   1  -3 -12   27.36    2.22 
  -1   3  12   27.09    2.30 
   4  -4 -12   52.92    2.69 
  -4   4  12   44.62    2.81 
   3  -4 -12   48.13    2.58 
  -3   4  12   43.86    2.77 
   2  -4 -12    4.64    1.43 
  -2   4  12    5.61    1.44 
   2   1 -13   88.10    3.85 
  -2  -1  13   92.14    3.97 
   3   0 -13    3.56    1.43 
  -3   0  13    1.26    1.28 
   2   0 -13    2.46    1.34 
  -2   0  13   -0.48    1.15 
   0   0   0    0.00    0.00 
;
_shelx_hkl_checksum              96625
loop_
_space_group_symop_operation_xyz
'x, y, z'
'-x, -y, -z'
loop_
_atom_site_label
_atom_site_type_symbol
_atom_site_fract_x
_atom_site_fract_y
_atom_site_fract_z
_atom_site_U_iso_or_equiv
_atom_site_adp_type
_atom_site_occupancy
_atom_site_site_symmetry_order
_atom_site_calc_flag
_atom_site_refinement_flags_posn
_atom_site_refinement_flags_adp
_atom_site_refinement_flags_occupancy
_atom_site_disorder_assembly
_atom_site_disorder_group
Cd1 Cd 0.5000 1.0000 0.5000 0.0099(3) Uani 1 2 d S . P . .
Cd2 Cd 0.69266(7) 0.66224(6) 0.50547(5) 0.0109(3) Uani 1 1 d . . . . .
O1 O 0.5621(7) 0.4214(6) 0.3956(5) 0.0112(11) Uani 1 1 d . . . . .
O2 O 0.8181(8) 0.4276(6) 0.2707(6) 0.0143(12) Uani 1 1 d . . . . .
O3 O 0.6765(7) 0.1964(6) 0.3905(5) 0.0123(11) Uani 1 1 d . . . . .
O4 O 0.9599(8) 0.6876(6) 0.4323(6) 0.0179(12) Uani 1 1 d . . . . .
H4A H 0.9603 0.6242 0.3701 0.027 Uiso 1 1 d R U . . .
H4B H 1.0708 0.7522 0.4574 0.027 Uiso 1 1 d R U . . .
O5 O 0.8290(8) 0.5659(7) 0.6944(6) 0.0198(13) Uani 1 1 d . . . . .
H5A H 0.8949 0.5838 0.7764 0.030 Uiso 1 1 d R U . . .
H5B H 0.8077 0.4730 0.6680 0.030 Uiso 1 1 d R U . . .
O6 O 0.8286(13) 0.3586(9) 0.9806(8) 0.050(2) Uani 1 1 d . . . . .
H6A H 0.7821 0.3739 0.9002 0.075 Uiso 1 1 d R U . . .
H6B H 0.7602 0.3705 1.0330 0.075 Uiso 1 1 d R U . . .
Cl1 Cl 0.5173(2) 0.7891(2) 0.32213(18) 0.0120(4) Uani 1 1 d . . . . .
N1 N -0.1355(9) -0.0970(7) -0.3807(6) 0.0130(13) Uani 1 1 d . . . . .
N2 N -0.2226(9) 0.0078(7) -0.3559(6) 0.0113(13) Uani 1 1 d . . . . .
N3 N 0.0422(9) 0.0629(7) -0.2046(6) 0.0104(13) Uani 1 1 d . . . . .
P1 P 0.6408(3) 0.3269(2) 0.31448(19) 0.0083(4) Uani 1 1 d . . . . .
C1 C 0.4631(10) 0.2482(8) 0.1573(7) 0.0104(15) Uani 1 1 d . . . . .
C2 C 0.4103(10) 0.0959(8) 0.1085(8) 0.0111(15) Uani 1 1 d . . . . .
H2 H 0.4686 0.0337 0.1560 0.013 Uiso 1 1 calc R U . . .
C3 C 0.2708(10) 0.0357(8) -0.0112(8) 0.0104(15) Uani 1 1 d . . . . .
H3 H 0.2319 -0.0673 -0.0417 0.012 Uiso 1 1 calc R U . . .
C4 C 0.1918(10) 0.1299(8) -0.0833(7) 0.0088(14) Uani 1 1 d . . . . .
C5 C 0.2460(11) 0.2827(8) -0.0407(8) 0.0138(16) Uani 1 1 d . . . . .
H5 H 0.1932 0.3455 -0.0927 0.017 Uiso 1 1 calc R U . . .
C6 C 0.3812(12) 0.3420(9) 0.0816(8) 0.0151(16) Uani 1 1 d . . . . .
H6 H 0.4168 0.4445 0.1127 0.018 Uiso 1 1 calc R U . . .
C7 C -0.1103(10) 0.1032(8) -0.2517(8) 0.0123(15) Uani 1 1 d . . . . .
H7 H -0.1318 0.1863 -0.2153 0.015 Uiso 1 1 calc R U . . .
C8 C 0.0227(12) -0.0585(9) -0.2895(9) 0.0176(17) Uani 1 1 d . . . . .
H8 H 0.1102 -0.1075 -0.2835 0.021 Uiso 1 1 calc R U . . .
loop_
_atom_site_aniso_label
_atom_site_aniso_U_11
_atom_site_aniso_U_22
_atom_site_aniso_U_33
_atom_site_aniso_U_23
_atom_site_aniso_U_13
_atom_site_aniso_U_12
Cd1 0.0088(5) 0.0095(5) 0.0108(4) 0.0012(3) 0.0000(3) 0.0038(3)
Cd2 0.0088(4) 0.0091(4) 0.0138(4) -0.0013(2) 0.0020(2) 0.0023(3)
O1 0.012(3) 0.006(2) 0.016(3) -0.002(2) 0.003(2) 0.004(2)
O2 0.009(3) 0.013(3) 0.018(3) 0.000(2) 0.008(2) -0.002(2)
O3 0.011(3) 0.011(3) 0.015(3) -0.001(2) 0.003(2) 0.003(2)
O4 0.018(3) 0.017(3) 0.017(3) 0.001(2) 0.005(2) 0.003(2)
O5 0.017(3) 0.031(3) 0.019(3) 0.008(3) 0.004(2) 0.018(3)
O6 0.068(6) 0.048(5) 0.036(5) -0.007(4) 0.010(4) 0.023(4)
Cl1 0.0145(9) 0.0123(9) 0.0120(9) 0.0018(7) 0.0024(7) 0.0084(7)
N1 0.011(3) 0.012(3) 0.013(3) -0.002(3) -0.004(3) 0.005(3)
N2 0.012(3) 0.008(3) 0.014(3) 0.001(2) 0.005(3) 0.004(3)
N3 0.009(3) 0.011(3) 0.008(3) -0.004(2) -0.004(2) 0.003(3)
P1 0.0059(9) 0.0079(9) 0.0094(9) -0.0007(7) 0.0008(7) 0.0011(7)
C1 0.011(4) 0.012(4) 0.007(3) -0.001(3) 0.003(3) 0.002(3)
C2 0.008(4) 0.009(4) 0.017(4) 0.002(3) 0.002(3) 0.004(3)
C3 0.007(3) 0.007(3) 0.013(4) -0.002(3) -0.003(3) 0.001(3)
C4 0.005(3) 0.012(4) 0.004(3) -0.002(3) -0.003(3) -0.001(3)
C5 0.014(4) 0.010(4) 0.014(4) 0.003(3) -0.003(3) 0.004(3)
C6 0.022(4) 0.006(4) 0.018(4) -0.003(3) 0.004(3) 0.006(3)
C7 0.013(4) 0.011(4) 0.014(4) 0.001(3) 0.003(3) 0.005(3)
C8 0.021(4) 0.018(4) 0.018(4) -0.003(3) -0.002(3) 0.017(4)
loop_
_atom_type_symbol
_atom_type_description
_atom_type_scat_dispersion_real
_atom_type_scat_dispersion_imag
_atom_type_scat_source
C C 0.0033 0.0016 'International Tables Vol C Tables 4.2.6.8 and 6.1.1.4'
H H 0.0000 0.0000 'International Tables Vol C Tables 4.2.6.8 and 6.1.1.4'
N N 0.0061 0.0033 'International Tables Vol C Tables 4.2.6.8 and 6.1.1.4'
O O 0.0106 0.0060 'International Tables Vol C Tables 4.2.6.8 and 6.1.1.4'
P P 0.1023 0.0942 'International Tables Vol C Tables 4.2.6.8 and 6.1.1.4'
Cd Cd -0.8075 1.2024 'International Tables Vol C Tables 4.2.6.8 and 6.1.1.4'
Cl Cl 0.1484 0.1585 'International Tables Vol C Tables 4.2.6.8 and 6.1.1.4'
loop_
_geom_angle_atom_site_label_1
_geom_angle_atom_site_label_2
_geom_angle_atom_site_label_3
_geom_angle
_geom_angle_site_symmetry_1
_geom_angle_site_symmetry_3
N2 Cd1 N2 180.0 2_565 1_666
N2 Cd1 O3 91.7(2) 2_565 1_565
N2 Cd1 O3 88.3(2) 1_666 1_565
N2 Cd1 O3 88.3(2) 2_565 2_666
N2 Cd1 O3 91.7(2) 1_666 2_666
O3 Cd1 O3 180.0 1_565 2_666
N2 Cd1 Cl1 91.72(16) 2_565 2_676
N2 Cd1 Cl1 88.28(16) 1_666 2_676
O3 Cd1 Cl1 89.04(13) 1_565 2_676
O3 Cd1 Cl1 90.96(13) 2_666 2_676
N2 Cd1 Cl1 88.28(16) 2_565 .
N2 Cd1 Cl1 91.72(16) 1_666 .
O3 Cd1 Cl1 90.96(13) 1_565 .
O3 Cd1 Cl1 89.04(13) 2_666 .
Cl1 Cd1 Cl1 180.0 2_676 .
O4 Cd2 O1 88.66(19) . .
O4 Cd2 O1 164.06(19) . 2_666
O1 Cd2 O1 82.47(19) . 2_666
O4 Cd2 N1 84.4(2) . 1_666
O1 Cd2 N1 172.2(2) . 1_666
O1 Cd2 N1 103.5(2) 2_666 1_666
O4 Cd2 O5 85.04(19) . .
O1 Cd2 O5 89.1(2) . .
O1 Cd2 O5 81.62(19) 2_666 .
N1 Cd2 O5 86.8(2) 1_666 .
O4 Cd2 Cl1 102.67(15) . .
O1 Cd2 Cl1 96.37(14) . .
O1 Cd2 Cl1 91.50(13) 2_666 .
N1 Cd2 Cl1 88.53(16) 1_666 .
O5 Cd2 Cl1 170.58(14) . .
O4 Cd2 Cd2 128.76(15) . 2_666
O1 Cd2 Cd2 41.41(13) . 2_666
O1 Cd2 Cd2 41.06(12) 2_666 2_666
N1 Cd2 Cd2 144.28(16) 1_666 2_666
O5 Cd2 Cd2 83.85(15) . 2_666
Cl1 Cd2 Cd2 95.22(5) . 2_666
P1 O1 Cd2 132.0(3) . .
P1 O1 Cd2 128.5(3) . 2_666
Cd2 O1 Cd2 97.53(19) . 2_666
P1 O3 Cd1 134.9(3) . 1_545
Cd2 O4 H4A 120.9 . .
Cd2 O4 H4B 131.4 . .
H4A O4 H4B 107.6 . .
Cd2 O5 H5A 147.3 . .
Cd2 O5 H5B 105.2 . .
H5A O5 H5B 107.4 . .
H6A O6 H6B 108.2 . .
Cd2 Cl1 Cd1 95.69(6) . .
C8 N1 N2 106.6(6) . .
C8 N1 Cd2 126.6(5) . 1_444
N2 N1 Cd2 121.8(5) . 1_444
C7 N2 N1 107.1(6) . .
C7 N2 Cd1 132.1(5) . 1_444
N1 N2 Cd1 120.6(5) . 1_444
C7 N3 C8 106.2(6) . .
C7 N3 C4 127.4(6) . .
C8 N3 C4 126.4(7) . .
O3 P1 O2 111.1(3) . .
O3 P1 O1 112.8(3) . .
O2 P1 O1 111.7(3) . .
O3 P1 C1 108.9(3) . .
O2 P1 C1 106.1(3) . .
O1 P1 C1 105.9(3) . .
C2 C1 C6 119.2(7) . .
C2 C1 P1 120.9(6) . .
C6 C1 P1 119.9(6) . .
C1 C2 C3 120.5(7) . .
C1 C2 H2 119.8 . .
C3 C2 H2 119.8 . .
C4 C3 C2 119.2(7) . .
C4 C3 H3 120.4 . .
C2 C3 H3 120.4 . .
C3 C4 C5 121.8(7) . .
C3 C4 N3 117.9(6) . .
C5 C4 N3 120.2(7) . .
C4 C5 C6 119.0(7) . .
C4 C5 H5 120.5 . .
C6 C5 H5 120.5 . .
C1 C6 C5 120.2(7) . .
C1 C6 H6 119.9 . .
C5 C6 H6 119.9 . .
N2 C7 N3 109.7(6) . .
N2 C7 H7 125.2 . .
N3 C7 H7 125.2 . .
N1 C8 N3 110.3(7) . .
N1 C8 H8 124.8 . .
N3 C8 H8 124.8 . .
loop_
_geom_bond_atom_site_label_1
_geom_bond_atom_site_label_2
_geom_bond_distance
_geom_bond_site_symmetry_2
Cd1 N2 2.301(6) 2_565
Cd1 N2 2.301(6) 1_666
Cd1 O3 2.333(5) 1_565
Cd1 O3 2.333(5) 2_666
Cd1 Cl1 2.6849(17) 2_676
Cd1 Cl1 2.6849(17) .
Cd2 O4 2.275(6) .
Cd2 O1 2.281(5) .
Cd2 O1 2.298(5) 2_666
Cd2 N1 2.320(6) 1_666
Cd2 O5 2.316(5) .
Cd2 Cl1 2.5954(18) .
Cd2 Cd2 3.4437(10) 2_666
O1 P1 1.533(5) .
O1 Cd2 2.298(5) 2_666
O2 P1 1.535(5) .
O3 P1 1.522(5) .
O3 Cd1 2.333(5) 1_545
O4 H4A 0.8528 .
O4 H4B 0.8479 .
O5 H5A 0.8509 .
O5 H5B 0.8527 .
O6 H6A 0.8455 .
O6 H6B 0.8490 .
N1 C8 1.299(11) .
N1 N2 1.406(9) .
N1 Cd2 2.320(6) 1_444
N2 C7 1.304(10) .
N2 Cd1 2.301(6) 1_444
N3 C7 1.353(10) .
N3 C8 1.351(10) .
N3 C4 1.450(9) .
P1 C1 1.810(8) .
C1 C2 1.389(10) .
C1 C6 1.393(11) .
C2 C3 1.393(10) .
C2 H2 0.9300 .
C3 C4 1.368(10) .
C3 H3 0.9300 .
C4 C5 1.376(11) .
C5 C6 1.396(11) .
C5 H5 0.9300 .
C6 H6 0.9300 .
C7 H7 0.9300 .
C8 H8 0.9300 .
