#------------------------------------------------------------------------------
#$Date: 2021-03-15 09:52:16 +0200 (Mon, 15 Mar 2021) $
#$Revision: 263032 $
#$URL: file:///home/coder/svn-repositories/cod/cif/1/56/10/1561010.cif $
#------------------------------------------------------------------------------
#
# This file is available in the Crystallography Open Database (COD),
# http://www.crystallography.net/
#
# All data on this site have been placed in the public domain by the
# contributors.
#
data_1561010
loop_
_publ_author_name
'Li, Qiang'
'Geng, Lei'
'Lu, Hong-Yan'
'Dai, Kai'
'Cheng, Wen-Dan'
_publ_section_title
;
 Crystal structures and characterizations of two new selenite chlorides:
 1D Ba2Zn(SeO3)2Cl2 and 2D BaZn2(SeO3)2Cl2
;
_journal_name_full               'Journal of Solid State Chemistry'
_journal_page_first              117
_journal_page_last               122
_journal_paper_doi               10.1016/j.jssc.2018.05.035
_journal_volume                  265
_journal_year                    2018
_chemical_formula_sum            'Ba2 Cl2 O6 Se2 Zn'
_chemical_formula_weight         664.87
_space_group_crystal_system      orthorhombic
_space_group_IT_number           58
_space_group_name_Hall           '-P 2 2n'
_space_group_name_H-M_alt        'P n n m'
_atom_sites_solution_hydrogens   .
_cell_angle_alpha                90
_cell_angle_beta                 90
_cell_angle_gamma                90
_cell_formula_units_Z            2
_cell_length_a                   6.7677(3)
_cell_length_b                   12.6321(4)
_cell_length_c                   5.3916(2)
_cell_measurement_reflns_used    6680
_cell_measurement_temperature    293(2)
_cell_measurement_theta_max      54.997
_cell_measurement_theta_min      6.451
_cell_volume                     460.93(3)
_computing_structure_refinement  'SHELXL-2014/7 (Sheldrick, 2014)'
_diffrn_ambient_temperature      293(2)
_diffrn_measured_fraction_theta_full 1.000
_diffrn_measured_fraction_theta_max 1.000
_diffrn_measurement_device_type  'Bruker D8 QUEST'
_diffrn_radiation_type           MoK\a
_diffrn_radiation_wavelength     0.71073
_diffrn_reflns_av_R_equivalents  0.0214
_diffrn_reflns_av_unetI/netI     0.0083
_diffrn_reflns_Laue_measured_fraction_full 1.000
_diffrn_reflns_Laue_measured_fraction_max 1.000
_diffrn_reflns_limit_h_max       8
_diffrn_reflns_limit_h_min       -8
_diffrn_reflns_limit_k_max       16
_diffrn_reflns_limit_k_min       -16
_diffrn_reflns_limit_l_max       7
_diffrn_reflns_limit_l_min       -7
_diffrn_reflns_number            8151
_diffrn_reflns_point_group_measured_fraction_full 1.000
_diffrn_reflns_point_group_measured_fraction_max 1.000
_diffrn_reflns_theta_full        25.242
_diffrn_reflns_theta_max         27.501
_diffrn_reflns_theta_min         3.225
_exptl_absorpt_coefficient_mu    19.496
_exptl_absorpt_correction_type   multi-scan
_exptl_crystal_colour            colorless
_exptl_crystal_density_diffrn    4.791
_exptl_crystal_description       needle-like
_exptl_crystal_F_000             584
_exptl_crystal_size_max          0.200
_exptl_crystal_size_mid          0.100
_exptl_crystal_size_min          0.100
_exptl_transmission_factor_max   0.142
_exptl_transmission_factor_min   0.111
_refine_diff_density_max         0.463
_refine_diff_density_min         -0.565
_refine_diff_density_rms         0.118
_refine_ls_extinction_coef       0.0046(2)
_refine_ls_extinction_expression Fc^*^=kFc[1+0.001xFc^2^\l^3^/sin(2\q)]^-1/4^
_refine_ls_extinction_method     'SHELXL-2014/7 (Sheldrick 2014'
_refine_ls_goodness_of_fit_ref   1.013
_refine_ls_hydrogen_treatment    undef
_refine_ls_matrix_type           full
_refine_ls_number_parameters     39
_refine_ls_number_reflns         583
_refine_ls_number_restraints     0
_refine_ls_restrained_S_all      1.013
_refine_ls_R_factor_all          0.0092
_refine_ls_R_factor_gt           0.0088
_refine_ls_shift/su_max          0.001
_refine_ls_shift/su_mean         0.000
_refine_ls_structure_factor_coef Fsqd
_refine_ls_weighting_details
'w=1/[\s^2^(Fo^2^)+(0.0145P)^2^+0.4032P] where P=(Fo^2^+2Fc^2^)/3'
_refine_ls_weighting_scheme      calc
_refine_ls_wR_factor_gt          0.0227
_refine_ls_wR_factor_ref         0.0228
_reflns_Friedel_coverage         0.000
_reflns_Friedel_fraction_full    .
_reflns_Friedel_fraction_max     .
_reflns_number_gt                570
_reflns_number_total             583
_reflns_threshold_expression     'I > 2\s(I)'
_cod_data_source_file            JSSC-2018-265-117.cif
_cod_data_source_block           a
_cod_database_code               1561010
_shelx_space_group_comment
;
The symmetry employed for this shelxl refinement is uniquely defined
by the following loop, which should always be used as a source of
symmetry information in preference to the above space-group names.
They are only intended as comments.
;
_shelx_estimated_absorpt_t_min   0.112
_shelx_estimated_absorpt_t_max   0.246
_shelx_res_file
;

    a.res created by SHELXL-2014/7


TITL a in Pnnm
CELL  0.71073    6.7677   12.6321    5.3916    90.000    90.000    90.000
ZERR        2    0.0003    0.0004    0.0002     0.000     0.000     0.000
LATT   1
SYMM             - X ,            - Y ,              Z
SYMM     0.50000 + X ,    0.50000 - Y ,    0.50000 - Z
SYMM     0.50000 - X ,    0.50000 + Y ,    0.50000 - Z
SFAC Ba Cl  O Se Zn
UNIT     4    4  12   4   2
TEMP   20
size 0.2 0.1 0.1
L.S. 5
FMAP 2
PLAN -20
ACTA
BOND $H
CONF
WGHT    0.014500    0.403200
EXTI    0.004559
FVAR       0.09963
BA1   1    0.298798    0.269140    0.000000    10.50000    0.00822    0.01138 =
         0.01072    0.00000    0.00000   -0.00146
ZN1   5    0.000000    0.000000    0.000000    10.25000    0.01555    0.01080 =
         0.00692    0.00000    0.00000   -0.00392
SE1   4    0.254121    0.072999    0.500000    10.50000    0.00929    0.00813 =
         0.00709    0.00000    0.00000    0.00165
O1    3    0.102256    0.108901    0.260702    11.00000    0.01378    0.01208 =
         0.00917   -0.00067   -0.00394    0.00051
O2    3    0.413694    0.174048    0.500000    10.50000    0.00798    0.02143 =
         0.02335    0.00000    0.00000   -0.00500
CL1   2   -0.324363    0.103184    0.000000    10.50000    0.01480    0.01731 =
         0.01540    0.00000    0.00000    0.00184

HKLF 4

REM  a in Pnnm
REM R1 =  0.0088 for     570 Fo > 4sig(Fo)  and  0.0092 for all     583 data
REM     39 parameters refined using      0 restraints

END

WGHT      0.0111      0.1596

REM Highest difference peak  0.463,  deepest hole -0.565,  1-sigma level  0.118
Q1    1   0.1043  0.2483  0.0000  10.50000  0.05    0.46
Q2    1   0.7913  0.0426  0.0000  10.50000  0.05    0.45
Q3    1   0.5317  0.3820  0.0000  10.50000  0.05    0.42
Q4    1  -0.1878  0.4113  0.0000  10.50000  0.05    0.42
Q5    1  -0.1793  0.3324  0.0000  10.50000  0.05    0.39
Q6    1  -0.0561  0.3991  0.0000  10.50000  0.05    0.34
Q7    1   0.2631  0.2225  0.1581  11.00000  0.05    0.34
Q8    1  -0.1988  0.1161  0.0000  10.50000  0.05    0.33
Q9    1   0.5285  0.1256  0.0000  10.50000  0.05    0.30
Q10   1   0.4799  0.3176  0.0000  10.50000  0.05    0.30
Q11   1   0.5859  0.0516  0.0000  10.50000  0.05    0.30
Q12   1   0.3738  0.2480  0.0000  10.50000  0.05    0.29
Q13   1   0.5831  0.4311  0.1247  11.00000  0.05    0.28
Q14   1   0.6495  0.0805  0.0824  11.00000  0.05    0.28
Q15   1   0.3040  0.3050  0.1109  11.00000  0.05    0.27
Q16   1  -0.0840  0.3811  0.1174  11.00000  0.05    0.27
Q17   1   0.6638  0.4183  0.0000  10.50000  0.05    0.24
Q18   1   0.7003  0.0244  0.1473  11.00000  0.05    0.23
Q19   1   0.6924  0.3844  0.1668  11.00000  0.05    0.23
Q20   1   0.1567  0.1832  0.0919  11.00000  0.05    0.22
;
_shelx_res_checksum              94173
_shelx_hkl_file
;
   0   0   1   -0.55    0.07
   0   0  -1   -0.48    0.07
   0   0  -1   -0.41    0.10
   0   0  -1   -0.20    0.13
   0   0   1   -0.20    0.13
   0   0   2  972.57   17.41
   0   0  -2  953.59   18.28
   0   0   2  945.11   17.78
   0   0   2  986.23   17.89
   0   0  -2  998.32   17.88
   0   0  -2 1000.00   17.45
   0   0  -3   -0.25    0.08
   0   0  -3   -0.07    0.17
   0   0   3   -0.11    0.16
   0   0   3   -0.24    0.14
   0   0   3    0.08    0.10
   0   0  -3   -0.14    0.13
   0   0   4  773.16   13.98
   0   0  -4  759.11   13.96
   0   0   4  770.77   13.67
   0   0  -4  783.63   13.91
   0   0   4  780.44   13.93
   0   0  -5    0.13    0.23
   0   0   5    0.20    0.13
   0   0   5    0.25    0.25
   0   0  -5    0.43    0.29
   0   0   5    0.42    0.30
   0   0  -6  301.35    5.92
   0   0   6  285.88    5.92
   0   0   6  306.67    5.85
   0   0  -7   -0.45    0.45
   0   0   7    0.08    0.54
   1   0   0   -0.03    0.08
  -1   0   0    0.18    0.12
   1   0   0    0.10    0.09
   1   0   1    0.55    0.17
   1   0  -1    0.57    0.16
   1   0   1    0.18    0.09
  -1   0  -1    0.41    0.14
   1   0  -1    0.08    0.13
  -1   0   1    0.23    0.14
   1   0   1    0.62    0.14
  -1   0  -1    0.10    0.09
   1   0   2   -0.16    0.08
   1   0   2   -0.07    0.11
  -1   0  -2   -0.19    0.10
  -1   0   2    0.02    0.10
   1   0  -2   -0.22    0.09
  -1   0   2   -0.22    0.11
  -1   0   2   -0.21    0.13
   1   0   2   -0.19    0.11
   1   0   2   -0.18    0.08
   1   0  -2   -0.32    0.12
   1   0   3   -0.05    0.09
   1   0   3   -0.20    0.14
   1   0  -3    0.06    0.10
   1   0   3   -0.13    0.09
  -1   0   3   -0.21    0.18
  -1   0  -3   -0.08    0.14
  -1   0   3   -0.02    0.14
   1   0   3    0.16    0.14
  -1   0   3    0.09    0.11
   1   0  -3    0.03    0.13
   1   0  -3    0.04    0.16
  -1   0  -4    0.32    0.21
   1   0  -4    0.12    0.21
   1   0  -4    0.16    0.11
  -1   0   4   -0.13    0.20
   1   0   4   -0.06    0.19
   1   0   4    0.14    0.12
   1   0   4   -0.02    0.11
  -1   0   4    0.20    0.14
   1   0  -4   -0.08    0.17
  -1   0   4    0.30    0.26
   1   0   5    1.28    0.16
  -1   0   5    1.06    0.35
   1   0  -5    1.08    0.15
   1   0  -5    1.80    0.32
   1   0  -5    0.80    0.29
   1   0   5    1.42    0.31
   1   0   5    1.31    0.33
   1   0   5    1.60    0.22
  -1   0   5    1.60    0.29
  -1   0   5    0.97    0.28
  -1   0  -5    0.91    0.29
  -1   0  -6    0.47    0.31
   1   0   6    0.23    0.33
   1   0  -6   -0.61    0.31
  -1   0   6   -0.31    0.30
   1   0   6   -0.31    0.36
  -2   0   0  422.90    7.35
  -2   0   0  385.30    7.38
   2   0   0  394.09    7.38
   2   0   0  420.78    7.38
  -2   0   0  413.30    7.35
   2   0   0  419.91    7.34
  -2   0   1   -0.10    0.12
   2   0   1    0.07    0.12
   2   0  -1   -0.24    0.12
   2   0   1    0.18    0.09
   2   0  -1    0.02    0.15
   2   0  -1    0.08    0.13
  -2   0  -1   -0.01    0.11
  -2   0   1   -0.07    0.14
  -2   0   1   -0.09    0.13
  -2   0  -1   -0.11    0.13
   2   0   1    0.25    0.15
  -2   0   2  388.95    7.04
   2   0  -2  389.61    6.94
  -2   0   2  386.41    7.02
   2   0   2  365.36    6.98
   2   0   2  386.43    6.91
   2   0  -2  394.16    7.05
   2   0  -2  372.82    6.98
   2   0   2  393.76    6.92
  -2   0   2  391.76    7.00
   2   0   3    0.05    0.12
   2   0  -3   -0.16    0.18
   2   0   3    0.14    0.15
  -2   0   3    0.12    0.17
  -2   0   3    0.09    0.22
   2   0  -3    0.04    0.13
   2   0  -3   -0.14    0.13
  -2   0  -3   -0.14    0.13
  -2   0   3    0.05    0.14
   2   0   3   -0.05    0.16
   2   0   3   -0.23    0.15
   2   0   4  204.49    3.73
   2   0  -4  196.08    4.03
   2   0   4  203.50    3.90
   2   0   4  202.54    3.70
   2   0  -4  199.05    3.72
   2   0  -4  202.24    3.92
  -2   0   4  207.89    3.77
  -2   0   4  199.82    3.93
  -2   0   4  199.27    4.05
   2   0   4  201.76    3.95
  -2   0  -4  198.13    3.88
   2   0   5    0.04    0.26
   2   0  -5    0.01    0.15
   2   0  -5    0.02    0.28
   2   0   5    0.03    0.26
  -2   0  -5    0.14    0.24
  -2   0   5    0.13    0.36
   2   0   5    0.21    0.14
  -2   0   5    0.28    0.20
   2   0  -5   -0.18    0.24
  -2   0   5    0.23    0.26
   2   0   5    0.19    0.16
  -2   0   6  120.92    2.73
   2   0   6  117.89    2.71
   2   0  -6  118.56    2.33
   2   0  -6  120.37    2.86
   2   0   6  117.44    2.70
  -2   0   6  118.45    2.32
   3   0   0   -0.03    0.14
  -3   0   0    0.02    0.13
  -3   0   0   -0.02    0.16
   3   0   0    0.08    0.12
   3   0   0    0.18    0.17
  -3   0   0    0.08    0.12
  -3   0  -1  364.18    6.57
  -3   0  -1  350.25    6.62
  -3   0   1  356.93    6.58
   3   0   1  359.88    6.62
   3   0  -1  364.72    6.56
   3   0  -1  365.68    6.58
  -3   0   1  369.59    6.58
  -3   0   1  356.72    6.61
   3   0   1  360.66    6.46
   3   0   1  356.54    6.55
   3   0  -1  359.74    6.61
   3   0   2    0.02    0.10
   3   0  -2    0.23    0.15
   3   0   2    0.39    0.15
  -3   0   2    0.37    0.19
   3   0   2    0.11    0.15
   3   0   2    0.28    0.11
  -3   0   2    0.11    0.15
   3   0  -2    0.25    0.17
  -3   0   2    0.18    0.19
  -3   0  -2    0.01    0.12
  -3   0   3  247.36    4.49
   3   0   3  239.73    4.45
   3   0   3  240.51    4.43
  -3   0   3  240.15    4.57
  -3   0   3  237.46    4.64
   3   0  -3  236.86    4.55
   3   0  -3  242.50    4.65
   3   0  -3  236.30    4.48
   3   0   3  233.03    4.56
   3   0   4   -0.15    0.16
   3   0  -4    0.11    0.23
   3   0  -4    0.13    0.19
   3   0   4    0.48    0.27
   3   0   4    0.06    0.19
  -3   0   4    0.15    0.19
  -3   0   4    0.36    0.32
   3   0   4    0.13    0.19
   3   0   4   -0.03    0.23
   3   0  -4    0.10    0.31
  -3   0   4   -0.22    0.43
   3   0   5  134.78    2.60
   3   0  -5  133.80    2.60
   3   0  -5  130.37    2.99
  -3   0   5  130.23    3.04
   3   0   5  130.50    2.55
   3   0  -5  129.75    2.86
   3   0   5  131.95    2.90
  -3   0   5  133.17    2.65
  -3   0   5  135.76    2.91
   3   0   5  135.92    2.90
   3   0   5  129.58    2.76
   3   0  -6    0.07    0.39
   3   0   6    0.03    0.37
   3   0  -6    0.27    0.34
  -3   0   6    0.49    0.40
   3   0   6   -0.07    0.22
   3   0   6   -0.20    0.38
  -4   0   0  159.00    3.10
   4   0   0  161.11    3.04
   4   0   0  165.00    3.17
  -4   0   0  165.56    3.17
  -4   0   0  160.51    3.25
   4   0   0  157.06    3.22
  -4   0   1    0.35    0.19
  -4   0   1   -0.13    0.16
  -4   0  -1    0.12    0.11
   4   0   1    0.25    0.19
   4   0  -1   -0.01    0.19
   4   0   1   -0.24    0.20
   4   0   1    0.16    0.14
  -4   0  -1    0.36    0.22
  -4   0   1   -0.24    0.22
   4   0  -1    0.15    0.17
   4   0  -1    0.08    0.19
  -4   0  -1    0.00    0.17
  -4   0   2  256.25    4.75
   4   0  -2  254.15    4.78
   4   0   2  250.61    4.58
   4   0  -2  255.97    4.80
   4   0   2  245.25    4.80
  -4   0  -2  247.68    4.81
   4   0  -2  252.33    4.76
   4   0   2  251.18    4.72
  -4   0   2  246.55    4.80
  -4   0   2  247.79    4.80
  -4   0  -2  246.06    4.73
   4   0   2  250.34    4.55
   4   0  -3    0.02    0.24
   4   0   3    0.13    0.15
  -4   0   3    0.31    0.28
  -4   0   3    0.40    0.28
   4   0  -3   -0.27    0.24
   4   0   3    0.23    0.16
  -4   0   3    0.06    0.31
   4   0  -3    0.28    0.24
   4   0   3    0.27    0.26
   4   0   3    0.35    0.22
  -4   0   4   98.54    2.35
   4   0  -4   99.11    2.30
   4   0   4   83.37    2.35
   4   0  -4   97.44    2.09
  -4   0   4   99.67    2.10
   4   0   4   94.48    2.00
   4   0   4   98.88    2.24
   4   0   4   97.96    2.05
  -4   0   4   98.23    2.23
   4   0   4  102.61    2.03
   4   0   4   97.13    2.23
   4   0  -4   97.44    2.21
   4   0  -5    0.48    0.25
   4   0   5   -0.09    0.23
   4   0   5    0.43    0.26
   4   0   5    0.22    0.33
   4   0   5    0.15    0.25
  -4   0   5    0.11    0.27
   4   0   5    0.48    0.41
   4   0  -5    0.45    0.34
   4   0   5    0.13    0.23
  -4   0   5    0.11    0.34
   4   0  -6   81.19    1.80
   4   0   6   81.40    1.96
   4   0   6   79.44    2.18
   4   0   6   85.48    2.01
   4   0  -6   79.43    2.32
  -4   0   6   78.34    2.19
  -5   0   0   -0.13    0.22
   5   0   0   -0.01    0.17
  -5   0   0    0.33    0.20
   5   0   0    0.30    0.23
   5   0   0   -0.16    0.26
  -5   0   0   -0.20    0.27
   5   0   1  124.83    2.62
  -5   0   1  131.13    2.64
  -5   0   1  125.59    2.64
  -5   0  -1  130.49    2.66
   5   0  -1  126.18    2.71
   5   0   1  126.22    2.41
   5   0  -1  124.34    2.54
  -5   0  -1  122.39    2.74
  -5   0   1  124.73    2.74
   5   0  -1  125.81    2.65
  -5   0  -1  126.01    2.42
   5   0   1  125.93    2.73
  -5   0   2   -0.12    0.30
   5   0   2    0.23    0.18
   5   0  -2    0.00    0.28
   5   0   2    0.05    0.12
   5   0   2    0.20    0.30
   5   0  -2    0.34    0.28
  -5   0   2    0.15    0.25
  -5   0  -2    0.11    0.28
  -5   0  -2   -0.20    0.25
   5   0   2    0.46    0.25
  -5   0   2    0.23    0.29
   5   0  -2    0.16    0.24
  -5   0   3   99.42    2.17
   5   0  -3   98.32    2.19
   5   0   3   97.31    2.26
  -5   0   3   94.84    2.30
   5   0   3  100.17    2.13
   5   0   3   96.84    1.95
   5   0  -3   96.61    2.24
  -5   0   3   96.11    2.25
   5   0  -3   98.86    2.24
   5   0   3   96.55    1.92
  -5   0   4    0.12    0.29
   5   0   4    0.15    0.21
  -5   0   4    0.34    0.34
   5   0   4   -0.03    0.26
   5   0   4    0.62    0.18
   5   0  -4   -0.03    0.27
  -5   0   4    0.27    0.41
   5   0   4    0.74    0.35
   5   0  -4    0.15    0.32
  -5   0   5   47.48    1.32
   5   0   5   42.95    1.23
   5   0   5   47.84    1.26
   5   0   5   48.82    1.23
  -5   0   5   48.30    1.54
   5   0   5   47.97    1.20
   5   0  -5   47.05    1.59
   5   0   5   45.04    1.51
   5   0  -5   47.18    1.31
  -6   0   0    0.90    0.36
   6   0   0    1.29    0.23
   6   0   0    0.73    0.30
  -6   0   0    1.48    0.30
   6   0   0    1.16    0.37
  -6   0   0    0.72    0.30
  -6   0  -1   -0.06    0.30
   6   0   1    0.09    0.15
   6   0  -1   -0.18    0.19
   6   0  -1    0.09    0.33
   6   0   1   -0.30    0.24
   6   0   1    0.29    0.37
  -6   0   1   -0.14    0.27
   6   0  -1    0.23    0.28
  -6   0   1   -0.27    0.30
  -6   0   1    0.35    0.27
  -6   0  -1   -0.23    0.25
  -6   0  -2    4.44    0.57
   6   0  -2    3.69    0.44
  -6   0   2    2.93    0.47
   6   0   2    4.11    0.62
  -6   0   2    2.89    0.39
   6   0   2    2.42    0.37
   6   0  -2    2.16    0.33
  -6   0   2    2.39    0.44
   6   0  -2    2.69    0.44
  -6   0  -2    2.43    0.42
  -6   0   3    0.48    0.33
  -6   0   3   -0.02    0.42
   6   0   3    0.08    0.28
   6   0  -3    0.31    0.35
   6   0   3    0.04    0.35
  -6   0   3   -0.10    0.35
   6   0  -3   -0.15    0.31
   6   0  -3    0.05    0.28
  -6   0   4   -0.19    0.37
   6   0  -4    0.84    0.37
   6   0   4    0.46    0.32
  -6   0   4   -0.04    0.36
   6   0  -4    0.49    0.33
   6   0   5   -0.53    0.61
  -6   0   5    1.69    0.46
   6   0   5    0.52    0.44
   6   0   5    0.01    0.52
   6   0  -5    0.01    0.44
  -6   0   5    0.82    0.56
   6   0  -5    0.63    0.45
   7   0   0    0.46    0.38
   7   0   0    0.07    0.21
  -7   0   0    0.09    0.32
  -7   0   0    0.06    0.33
   7   0   0   -0.31    0.29
  -7   0   0    0.24    0.30
   7   0   1   67.77    1.88
  -7   0   1   69.28    1.77
  -7   0  -1   69.67    1.92
   7   0  -1   69.75    1.60
  -7   0   1   67.44    1.80
  -7   0  -1   68.31    1.84
  -7   0   1   68.16    1.92
   7   0   1   68.55    1.41
   7   0   1   66.91    1.77
   7   0  -1   67.74    1.81
   7   0  -1   68.09    1.89
  -7   0   2   -0.29    0.49
   7   0   2    0.55    0.33
   7   0  -2    0.35    0.47
  -7   0  -2   -0.34    0.40
   7   0  -2   -0.04    0.36
  -7   0   2    0.28    0.36
  -7   0  -2   -0.19    0.37
  -7   0   2    0.07    0.34
   7   0  -3   50.51    1.46
   7   0  -3   49.45    1.54
  -7   0   3   51.89    1.69
   7   0   3   49.17    1.45
  -7   0   3   48.28    1.78
  -7   0   4    0.10    0.53
   7   0  -4   -0.54    0.42
   7   0   4   -0.33    0.39
   7   0  -4    0.35    0.41
   8   0   0    2.57    0.49
   8   0   0    2.33    0.28
  -8   0   0    2.59    0.55
  -8   0   0    2.27    0.41
  -8   0   1    1.14    0.46
   8   0   1    0.51    0.39
  -8   0   1   -0.93    0.48
   8   0  -1    0.56    0.27
  -8   0  -1   -0.31    0.39
   8   0  -1    0.61    0.41
  -8   0   2    4.18    0.66
  -8   0   2    5.19    0.68
   8   0  -2    4.36    0.63
   8   0  -2    5.21    0.58
   8   0   2    5.51    0.59
  -8   0  -2    4.76    0.70
   0   1  -1   21.53    0.45
   0   1   1   21.65    0.51
   0  -1   1   21.32    0.50
   0  -1   1   21.35    0.45
   0  -1   1   22.57    0.46
   0   1  -1   21.87    0.46
   0   1  -1   21.47    0.50
   0  -1  -1   22.29    0.51
   0   1   1   22.75    0.48
   0  -1   2    0.03    0.13
   0  -1  -2   -0.02    0.11
   0   1  -2    0.15    0.12
   0  -1   2    0.02    0.08
   0   1   2    0.06    0.10
   0  -1   2    0.03    0.09
   0   1  -2    0.04    0.08
   0   1   2    0.18    0.13
   0  -1  -2    0.05    0.09
   0   1  -2   -0.08    0.07
   0   1  -3   10.01    0.40
   0   1  -3    9.39    0.44
   0  -1  -3    9.67    0.44
   0  -1   3    8.95    0.44
   0   1   3    9.86    0.46
   0   1   3    9.74    0.41
   0  -1   3    9.28    0.31
   0  -1  -3    9.95    0.40
   0  -1   3    9.80    0.41
   0   1  -3    9.47    0.29
   0  -1   4    0.22    0.19
   0   1  -4    0.16    0.17
   0  -1   4   -0.05    0.24
   0  -1  -4    0.27    0.18
   0  -1   4    0.11    0.14
   0   1  -4   -0.13    0.21
   0  -1  -4    0.10    0.20
   0   1   4    0.21    0.19
   0   1   4   -0.04    0.24
   0   1  -4    0.25    0.12
   0   1   5   10.71    0.62
   0   1  -5   11.28    0.61
   0  -1   5   10.14    0.59
   0  -1   5   10.02    0.40
   0  -1   5   10.04    0.68
   0   1  -5   10.21    0.64
   0  -1  -5   11.67    0.60
   0   1   5    9.35    0.76
   0  -1   6   -0.10    0.39
   0  -1   6    0.17    0.18
   0   1   6    0.75    0.42
   0  -1   6    0.01    0.31
   0   1   6   -0.01    0.32
   0   1  -6    0.08    0.32
   0  -1  -6   -0.33    0.31
   1  -1   0   39.05    0.78
  -1   1   0   38.11    0.77
   1  -1   0   38.97    0.80
   1   1   0   39.34    0.77
  -1  -1   0   39.44    0.80
  -1  -1   0   41.35    0.78
   1   1   0   37.89    0.80
   1   1   0   38.25    0.72
  -1  -1   0   38.58    0.72
  -1   1   0   38.10    0.78
  -1   1   0   38.32    0.81
   1   1  -1   71.09    1.33
   1   1  -1   69.09    1.36
  -1  -1  -1   68.24    1.29
  -1   1   1   67.83    1.40
  -1   1   1   68.66    1.31
  -1   1   1   69.21    1.34
   1   1  -1   68.72    1.34
   1  -1   1   67.95    1.33
  -1  -1  -1   70.70    1.31
   1   1   1   65.69    1.34
   1  -1  -1   71.83    1.32
   1   1   1   69.18    1.29
   1   1   1   72.72    1.31
   1  -1  -1   70.44    1.40
  -1  -1   1   72.26    1.35
  -1  -1   1   70.20    1.36
  -1  -1   1   69.28    1.33
   1   1  -2    0.21    0.14
   1  -1   2    0.09    0.11
  -1   1   2    0.04    0.14
   1  -1   2    0.23    0.09
   1  -1   2    0.04    0.10
  -1  -1  -2    0.07    0.10
   1   1  -2    0.10    0.09
  -1   1   2   -0.06    0.11
   1   1  -2    0.14    0.09
   1  -1  -2    0.10    0.14
   1   1   2    0.14    0.11
  -1  -1   2    0.12    0.13
  -1   1  -2    0.33    0.12
  -1  -1   2    0.21    0.10
   1   1   2    0.22    0.08
   1  -1  -2    0.26    0.09
  -1  -1   2    0.18    0.11
   1   1   2    0.16    0.11
   1  -1  -2    0.09    0.10
   1   1  -3   53.15    1.17
   1  -1   3   52.24    1.06
  -1   1   3   51.82    1.19
  -1  -1  -3   52.80    1.18
  -1   1   3   52.52    1.27
   1  -1   3   53.18    1.18
   1   1  -3   51.08    1.25
   1  -1   3   53.06    1.21
  -1   1   3   52.26    1.04
   1   1  -3   52.67    1.07
   1   1   3   52.65    1.19
  -1  -1   3   51.97    1.25
   1  -1  -3   52.26    1.02
  -1   1  -3   52.46    1.20
   1   1   3   52.43    1.20
  -1  -1   3   53.76    1.19
   1   1   3   52.15    1.01
   1   1   3   52.20    1.00
   1  -1  -3   52.39    1.27
  -1  -1   3   51.47    1.15
   1  -1  -3   53.64    1.19
   1   1  -4   12.36    0.54
   1   1  -4   12.53    0.40
  -1   1   4   12.35    0.67
   1  -1   4   12.66    0.56
  -1   1   4   13.01    0.38
   1  -1   4   11.82    0.40
  -1   1   4   13.15    0.59
  -1  -1  -4   11.99    0.56
   1  -1   4   11.54    0.61
   1   1  -4   13.26    0.64
  -1  -1   4   12.51    0.65
  -1  -1   4   12.31    0.44
  -1  -1   4   12.65    0.57
   1   1   4   12.81    0.57
   1  -1  -4   12.56    0.63
   1   1   4   12.58    0.60
   1  -1  -4   12.30    0.34
  -1   1  -4   12.14    0.58
   1  -1   5   25.81    0.88
   1   1  -5   24.68    0.94
  -1   1   5   24.85    0.90
   1  -1   5   23.83    0.92
   1   1  -5   25.13    0.64
   1   1  -5   23.98    0.86
   1  -1   5   24.80    0.63
   1  -1   5   24.99    0.65
  -1   1   5   25.00    1.02
  -1  -1  -5   25.45    0.88
  -1  -1   5   25.15    0.98
   1  -1  -5   23.47    0.94
   1   1   5   24.42    0.92
   1   1   5   25.42    0.88
   1  -1  -5   24.44    0.87
  -1  -1   5   24.51    0.88
  -1  -1   5   24.73    0.67
  -1   1  -5   21.94    1.26
   1  -1   6    0.63    0.38
   1  -1   6    0.85    0.19
  -1   1   6    0.43    0.33
   1  -1   6    0.57    0.19
   1  -1   6    0.77    0.34
   1   1  -6    0.17    0.34
  -1  -1  -6    1.04    0.35
   1  -1  -6    0.94    0.36
  -1  -1   6   -0.16    0.32
  -1  -1   6    0.54    0.21
   1   1   6    0.80    0.41
  -1   1  -6    1.39    0.35
   1   1   6    0.96    0.36
   2  -1   0   50.60    1.05
   2   1   0   51.64    1.06
   2   1   0   48.84    1.11
   2   1   0   50.47    0.96
  -2  -1   0   49.58    1.11
  -2  -1   0   50.93    1.06
  -2  -1   0   52.10    0.98
  -2   1   0   49.35    1.08
   2  -1   0   49.77    1.07
   2  -1   0   50.99    1.09
  -2   1   0   48.89    1.09
   2   1  -1  158.51    3.15
  -2   1   1  162.82    3.06
  -2   1   1  162.71    3.10
   2   1  -1  168.08    3.05
  -2  -1  -1  166.01    3.03
   2   1  -1  164.82    3.04
   2  -1   1  165.88    3.03
  -2  -1  -1  160.29    3.07
  -2   1   1  164.16    3.04
   2  -1   1  162.29    3.01
   2  -1   1  160.13    3.05
  -2   1  -1  160.13    3.06
   2  -1  -1  169.54    3.05
  -2  -1   1  163.26    3.07
  -2   1  -1  159.70    3.03
   2  -1  -1  164.68    3.09
   2  -1  -1  159.02    3.13
  -2  -1   1  163.45    3.04
  -2  -1   1  165.59    3.04
   2   1   1  168.45    3.03
   2  -1   2  120.21    2.29
   2   1  -2  121.83    2.30
   2  -1   2  121.50    2.28
   2  -1   2  118.48    2.32
   2   1  -2  120.79    2.37
  -2  -1  -2  122.56    2.23
  -2   1   2  121.17    2.28
  -2   1   2  119.33    2.42
  -2  -1  -2  117.91    2.26
   2   1  -2  118.89    2.32
  -2   1   2  121.32    2.34
  -2  -1   2  118.49    2.37
   2   1   2  116.03    2.34
   2  -1  -2  116.97    2.32
   2  -1  -2  120.07    2.28
  -2  -1   2  119.97    2.30
  -2  -1   2  119.87    2.33
   2  -1  -2  120.10    2.40
   2   1   2  118.74    2.25
   2   1   2  120.79    2.24
   2  -1   3  124.18    2.33
  -2   1   3  121.54    2.44
   2  -1   3  123.14    2.33
  -2   1   3  125.36    2.57
   2  -1   3  122.94    2.44
   2   1  -3  119.46    2.51
  -2   1   3  120.24    2.53
   2   1  -3  122.00    2.34
   2  -1   3  119.89    2.43
  -2  -1  -3  123.98    2.37
   2  -1   3  120.60    2.41
   2   1  -3  122.07    2.43
   2  -1  -3  120.06    2.43
  -2  -1   3  121.29    2.36
   2   1   3  121.63    2.38
  -2  -1   3  125.09    2.45
  -2  -1   3  119.99    2.50
   2  -1  -3  120.81    2.53
   2   1   3  120.83    2.45
   2   1   3  120.02    2.45
   2   1   3  121.19    2.29
   2  -1  -3  119.40    2.30
   2  -1   4   22.60    0.92
  -2   1   4   26.04    0.86
   2  -1   4   27.25    0.84
   2  -1   4   25.57    0.66
  -2   1   4   26.12    0.67
  -2  -1  -4   25.79    0.78
   2   1  -4   25.26    0.67
   2   1  -4   26.58    0.82
   2  -1   4   26.45    0.69
   2   1  -4   24.25    0.91
  -2   1   4   25.03    0.98
   2  -1  -4   25.20    0.63
   2  -1  -4   25.48    0.82
   2   1   4   25.91    0.60
   2   1   4   25.58    0.85
   2   1   4   25.84    0.81
  -2  -1   4   25.72    0.84
  -2  -1   4   25.17    0.71
  -2  -1   4   25.48    0.94
   2  -1  -4   24.26    0.91
   2   1   4   24.46    0.62
  -2   1   5   58.99    1.56
   2   1  -5   60.63    1.31
  -2   1   5   61.04    1.27
   2   1  -5   61.52    1.67
  -2   1   5   61.07    1.73
   2  -1   5   60.97    1.56
   2  -1   5   63.02    1.32
   2  -1   5   61.06    1.29
   2  -1   5   60.50    1.55
   2   1  -5   60.17    1.53
  -2  -1  -5   60.47    1.49
   2   1   5   59.96    1.52
  -2  -1   5   60.67    1.35
   2   1   5   59.85    1.57
  -2  -1   5   59.99    1.55
   2  -1  -5   59.46    1.54
   2  -1  -5   60.57    1.23
   2  -1  -5   62.01    1.68
  -2  -1   5   59.59    1.68
   2   1  -6   25.48    1.12
   2   1  -6   25.18    0.72
  -2   1   6   24.73    1.05
   2  -1   6   24.73    1.03
   2  -1   6   24.72    0.67
   2  -1   6   24.23    1.01
   2  -1   6   24.70    0.71
  -2  -1  -6   26.21    0.99
  -2  -1   6   25.69    1.06
   2   1   6   25.39    1.04
  -2  -1   6   24.80    0.75
   2  -1  -6   25.18    1.13
   2   1   6   25.64    1.04
  -3   1   0   32.99    0.85
  -3  -1   0   34.42    0.84
   3   1   0   33.75    0.91
  -3  -1   0   33.32    0.91
   3   1   0   35.02    0.85
   3   1   0   34.60    0.72
  -3  -1   0   34.34    0.76
   3  -1   0   34.22    0.88
   3  -1   0   33.66    0.84
  -3   1   0   32.77    0.90
   3  -1   0   34.35    0.83
  -3  -1  -1   44.73    1.04
  -3   1   1   44.51    1.08
   3   1  -1   44.84    1.08
  -3   1   1   45.11    1.09
  -3   1   1   44.94    1.04
   3  -1   1   44.41    1.08
   3  -1   1   45.85    0.99
  -3  -1  -1   43.74    1.09
   3  -1   1   45.03    1.03
   3   1  -1   44.66    1.00
  -3   1  -1   44.06    0.97
  -3  -1   1   46.10    1.05
   3   1   1   43.42    1.09
   3  -1  -1   44.69    1.06
   3   1   1   45.09    1.03
  -3   1  -1   44.92    1.09
  -3  -1   1   45.05    1.26
  -3  -1   1   46.17    1.10
   3  -1  -1   45.62    1.05
   3  -1  -1   45.93    1.07
   3  -1   2   46.20    1.01
   3  -1   2   44.77    1.10
   3   1  -2   46.16    1.09
   3   1  -2   46.48    1.11
   3  -1   2   46.45    1.06
  -3   1   2   45.84    1.12
  -3   1   2   47.28    1.07
   3  -1   2   45.92    1.03
  -3  -1  -2   46.32    1.06
   3   1  -2   46.43    1.12
   3   1   2   46.24    0.94
   3  -1  -2   46.29    1.16
   3  -1  -2   46.05    1.08
  -3  -1   2   46.99    1.09
   3   1   2   45.45    1.04
  -3  -1   2   47.79    1.14
  -3  -1   2   46.63    1.13
   3   1   2   45.69    1.12
   3   1   2   45.53    0.93
   3  -1  -2   47.74    1.11
   3   1  -3   20.52    0.75
   3  -1   3   18.95    0.78
   3  -1   3   21.36    0.63
   3   1  -3   20.62    0.70
  -3   1   3   20.73    0.63
   3  -1   3   21.57    0.64
   3   1  -3   20.75    0.66
   3  -1   3   21.25    0.63
  -3   1   3   20.93    0.73
  -3   1   3   20.76    0.83
   3  -1  -3   19.94    0.79
   3  -1  -3   21.35    0.65
  -3  -1   3   20.71    0.66
   3   1   3   20.06    0.72
   3  -1  -3   20.93    0.69
  -3  -1   3   21.39    0.80
   3   1   3   20.62    0.58
   3   1   3   19.89    0.61
  -3  -1   3   20.72    0.73
   3   1  -4   14.60    0.66
   3   1  -4   14.79    0.55
   3  -1   4   13.71    0.59
   3   1  -4   13.43    0.92
   3  -1   4   14.66    0.55
   3  -1   4   14.90    0.66
   3  -1   4   15.07    0.68
  -3   1   4   15.09    0.54
  -3   1   4   14.40    0.84
   3  -1   4   15.30    0.53
   3  -1  -4   14.64    0.53
   3   1   4   14.32    0.49
  -3  -1   4   13.99    0.79
   3   1   4   15.34    0.52
  -3  -1   4   14.77    0.75
   3   1   4   14.90    0.70
   3   1   4   13.18    0.79
  -3  -1   4   15.97    0.60
   3  -1  -4   14.38    0.65
   3   1   4   14.27    0.56
  -3   1   5   12.95    0.94
  -3   1   5   12.62    0.76
   3  -1   5   13.73    0.67
   3  -1   5   12.89    0.72
   3   1  -5   13.21    0.55
  -3   1   5   12.48    0.53
   3   1  -5   12.43    0.73
   3   1  -5   13.15    0.80
   3  -1   5   13.75    0.52
   3  -1   5   13.94    0.77
   3  -1   5   13.24    0.56
   3   1   5   14.09    0.76
   3  -1  -5   14.27    0.75
   3   1   5   12.66    0.49
  -3  -1   5   13.70    0.77
   3  -1  -5   13.09    0.79
   3  -1  -5   13.64    0.50
   3   1   5   12.43    0.44
   3   1   5   12.66    0.77
  -3  -1   5   13.85    0.93
  -3  -1   5   12.25    0.61
   3   1   5   13.50    0.66
   3   1  -6   11.32    0.89
   3  -1   6   11.65    0.76
  -3   1   6    9.02    0.83
   3  -1   6   11.63    0.56
   3   1  -6   10.85    0.55
   3  -1   6   10.46    0.81
   3  -1   6   11.71    0.51
   3   1   6   10.57    0.76
   3  -1  -6   11.29    0.92
  -3  -1   6   10.41    0.59
  -3  -1   6   10.09    0.85
   3   1   6   10.60    0.84
   3  -1  -6   11.54    0.48
  -4   1   0  134.21    2.79
   4  -1   0  137.30    2.64
  -4  -1   0  135.56    2.59
  -4  -1   0  135.46    2.70
   4  -1   0  133.64    2.70
  -4   1   0  132.38    2.68
   4   1   0  135.67    2.70
  -4  -1   0  132.52    2.79
  -4   1   0  137.07    2.71
   4  -1   0  135.95    2.76
   4   1   0  135.95    2.78
   4   1   0  133.34    2.53
   4   1  -1   23.54    0.67
   4  -1   1   23.91    0.67
   4  -1   1   23.37    0.73
  -4  -1  -1   23.40    0.74
  -4   1   1   24.30    0.73
  -4   1   1   23.89    0.81
   4   1  -1   23.85    0.76
  -4   1   1   23.66    0.78
  -4  -1  -1   23.98    0.82
   4  -1   1   22.57    0.79
   4   1  -1   22.76    0.79
  -4   1  -1   23.30    0.73
   4   1   1   23.94    0.73
  -4   1  -1   22.69    0.64
  -4  -1   1   22.69    0.81
  -4  -1   1   23.97    0.71
   4   1   1   22.85    0.81
   4  -1  -1   23.54    0.73
  -4   1  -1   23.21    0.81
   4  -1  -1   24.51    0.78
  -4  -1   1   24.40    0.74
   4  -1  -1   23.37    0.75
   4   1  -2   80.96    1.79
   4  -1   2   80.97    1.75
   4   1  -2   81.05    1.80
  -4   1   2   81.65    1.83
   4  -1   2   82.00    1.67
   4  -1   2   82.18    1.74
  -4  -1  -2   81.23    1.85
  -4   1   2   83.30    1.78
   4   1  -2   84.00    1.84
  -4  -1  -2   84.22    1.78
  -4   1   2   80.24    1.87
  -4  -1   2   78.27    1.83
  -4  -1   2   79.37    1.83
   4  -1  -2   81.60    1.79
   4  -1  -2   80.53    1.81
   4  -1  -2   81.13    1.83
   4   1   2   80.89    1.74
  -4   1  -2   77.95    1.82
   4   1   2   78.64    1.83
  -4  -1   2   82.16    1.81
   4  -1   3   21.36    0.64
   4   1  -3   20.89    0.75
  -4   1   3   20.81    0.74
   4  -1   3   20.31    0.70
  -4   1   3   20.77    0.82
   4   1  -3   20.24    0.79
   4   1  -3   21.01    0.78
   4  -1   3   19.42    0.78
  -4   1   3   20.55    0.90
   4  -1   3   20.43    0.62
   4   1   3   21.34    0.69
   4  -1  -3   20.50    0.77
  -4  -1   3   20.07    0.86
  -4  -1   3   20.16    0.73
   4   1   3   20.05    0.55
   4  -1  -3   19.75    0.74
   4   1   3   19.67    0.79
  -4  -1   3   20.49    0.82
   4   1   3   19.34    0.55
   4  -1  -3   20.34    0.84
   4  -1   4   72.06    1.79
   4  -1   4   71.50    1.61
   4   1  -4   74.05    1.86
   4   1  -4   72.34    1.77
   4   1  -4   71.74    1.66
  -4   1   4   72.48    1.80
   4  -1   4   76.70    1.64
  -4   1   4   74.35    1.65
  -4   1   4   71.54    1.92
   4  -1   4   71.31    1.63
   4  -1   4   71.83    1.78
   4  -1   4   68.42    1.61
   4   1   4   74.61    1.56
   4   1   4   70.58    1.55
   4   1   4   72.53    1.81
   4   1   4   73.88    1.60
  -4  -1   4   72.73    1.68
  -4  -1   4   74.20    1.80
  -4  -1   4   73.57    1.91
   4  -1  -4   72.78    1.64
   4   1   4   73.68    1.81
   4  -1  -4   72.13    1.88
   4  -1  -4   72.04    1.77
   4  -1   5   10.23    0.61
   4  -1   5   10.22    0.57
   4   1  -5   10.55    0.80
  -4   1   5   10.01    0.55
   4  -1   5   10.22    0.60
   4  -1   5   10.39    0.78
   4   1  -5    9.63    0.58
   4  -1   5    9.51    0.71
  -4   1   5   11.02    0.77
   4  -1   5    9.39    0.53
   4  -1  -5    9.89    0.78
  -4  -1   5    9.62    0.76
  -4  -1   5    9.36    0.59
   4   1   5   10.74    0.75
   4   1   5    9.48    0.52
   4   1   5    9.93    0.48
   4  -1  -5    9.92    0.55
   4   1   5   10.39    0.57
   4  -1   6   29.11    1.27
   4  -1   6   31.14    1.11
   4  -1   6   30.80    0.95
   4   1  -6   29.62    1.38
  -4   1   6   31.05    1.33
   4  -1   6   32.82    1.09
   4   1   6   30.29    1.30
   4  -1  -6   28.32    1.37
   4  -1  -6   31.97    0.95
  -4  -1   6   29.86    1.31
   5  -1   0    0.58    0.28
  -5  -1   0    1.09    0.32
  -5  -1   0    1.02    0.27
   5  -1   0    1.47    0.29
   5   1   0    0.83    0.17
  -5  -1   0    0.76    0.22
  -5   1   0    1.35    0.25
   5  -1   0    0.81    0.24
   5   1   0    1.15    0.27
  -5   1   0    1.57    0.36
   5   1   0    1.19    0.35
  -5   1   0    1.02    0.25
  -5   1   1    3.84    0.44
  -5  -1  -1    3.57    0.53
   5   1  -1    5.51    0.56
   5  -1   1    4.11    0.46
   5   1  -1    4.11    0.38
   5  -1   1    4.83    0.40
  -5   1   1    4.63    0.57
  -5  -1  -1    4.01    0.46
   5   1  -1    3.98    0.49
   5  -1   1    4.99    0.56
  -5   1   1    4.44    0.50
  -5   1  -1    4.17    0.56
   5   1   1    4.67    0.47
  -5   1  -1    4.53    0.45
  -5  -1   1    4.41    0.56
   5  -1  -1    4.31    0.52
  -5  -1   1    4.38    0.46
   5   1   1    4.14    0.57
  -5   1  -1    4.12    0.36
   5  -1  -1    4.28    0.49
   5  -1  -1    3.80    0.45
  -5  -1   1    4.87    0.46
  -5   1   2   14.30    0.76
  -5  -1  -2   14.51    0.69
   5   1  -2   13.89    0.62
   5   1  -2   14.11    0.71
   5   1  -2   15.63    0.77
  -5   1   2   15.96    0.78
   5  -1   2   14.77    0.77
  -5   1   2   14.75    0.67
  -5  -1  -2   14.14    0.75
   5  -1   2   14.88    0.55
   5  -1   2   13.61    0.64
  -5   1  -2   14.71    0.75
   5  -1  -2   14.94    0.69
   5   1   2   14.12    0.76
  -5  -1   2   13.87    0.67
  -5  -1   2   14.76    0.78
  -5   1  -2   14.22    0.69
   5   1   2   13.69    0.64
   5  -1  -2   13.48    0.70
   5  -1  -2   14.57    0.71
   5   1  -3    3.30    0.46
  -5   1   3    3.56    0.47
   5   1  -3    2.89    0.39
   5  -1   3    2.97    0.30
  -5   1   3    2.65    0.40
   5  -1   3    2.71    0.41
   5  -1   3    2.92    0.35
  -5   1   3    3.10    0.50
   5   1  -3    2.43    0.38
   5  -1   3    3.17    0.35
   5  -1  -3    2.75    0.39
  -5  -1   3    3.34    0.47
   5  -1  -3    1.63    0.50
   5  -1  -3    3.30    0.41
  -5  -1   3    2.80    0.44
   5   1   3    3.87    0.56
  -5  -1   3    3.08    0.42
   5   1   3    2.65    0.33
  -5   1   4    0.31    0.42
   5  -1   4    0.62    0.28
   5   1  -4    1.34    0.32
   5  -1   4    1.70    0.37
   5  -1   4    0.71    0.26
  -5   1   4    0.27    0.33
   5   1  -4    0.74    0.31
   5   1  -4    0.25    0.34
  -5   1   4    0.63    0.29
   5  -1   4    0.51    0.21
   5   1   4    0.67    0.20
   5  -1  -4    0.62    0.33
   5  -1  -4    0.91    0.35
  -5  -1   4    0.51    0.31
  -5  -1   4    0.12    0.44
   5   1   4    1.08    0.28
   5   1   4    0.56    0.18
   5  -1  -4    0.80    0.32
   5   1   4    0.42    0.35
  -5  -1   4    0.78    0.37
  -5   1   5    1.71    0.48
   5   1  -5    1.57    0.43
   5  -1   5    2.46    0.36
   5  -1   5    2.15    0.45
   5  -1   5    2.18    0.32
   5  -1   5    1.98    0.34
   5   1  -5    1.80    0.37
   5  -1   5    2.18    0.40
  -5   1   5    2.48    0.38
   5   1   5    1.87    0.29
   5   1   5    1.65    0.39
   5   1   5    1.33    0.33
   5  -1  -5    1.05    0.42
  -5  -1   5    2.05    0.39
   5   1   5    1.79    0.45
   5   1   5    2.35    0.30
  -5  -1   5    1.57    0.45
   5  -1  -5    1.59    0.38
   6   1   0  121.15    2.79
  -6   1   0  125.03    2.62
   6  -1   0  124.27    2.71
   6   1   0  125.37    2.43
   6   1   0  127.65    2.73
  -6   1   0  122.96    2.71
   6  -1   0  123.00    2.80
  -6  -1   0  125.97    2.83
  -6  -1   0  128.08    2.73
   6  -1   0  126.80    2.79
  -6  -1   0  127.18    2.52
  -6   1   0  126.08    3.23
  -6   1   1  104.91    2.35
  -6  -1  -1  104.39    2.46
   6   1  -1  103.73    2.36
   6  -1   1  105.25    2.43
   6   1  -1  104.81    2.16
   6  -1   1  106.59    2.12
   6   1  -1  105.21    2.43
  -6   1   1  103.91    2.46
   6  -1   1  105.10    2.33
  -6  -1  -1  108.58    2.38
   6  -1  -1  101.62    2.34
  -6   1  -1  107.92    2.38
   6   1   1  105.52    2.46
   6   1   1   98.91    2.31
  -6  -1   1  104.24    2.35
  -6  -1   1   96.99    2.99
  -6   1  -1  103.21    2.14
   6  -1  -1  104.68    2.23
  -6   1  -1  101.00    2.46
   6  -1  -1  104.55    2.41
  -6  -1   1  106.85    2.28
   6  -1   2   84.99    1.76
  -6   1   2   82.60    2.10
   6   1  -2   84.48    1.90
  -6  -1  -2   83.29    2.11
   6  -1   2   83.81    1.97
  -6  -1  -2   84.13    2.02
   6   1  -2   85.07    2.03
   6  -1   2   83.31    2.09
  -6   1   2   83.98    1.99
  -6   1   2   82.76    2.10
   6   1  -2   83.63    2.10
  -6  -1   2   82.16    1.99
  -6  -1   2   82.77    2.11
  -6   1  -2   84.49    2.03
   6  -1  -2   84.87    2.07
   6  -1  -2   84.44    1.97
   6  -1  -2   82.98    2.06
   6   1   2   83.61    1.95
  -6  -1   2   85.47    2.03
  -6   1  -2   81.96    2.10
   6   1   2   83.28    2.10
   6  -1   3   71.92    1.76
  -6   1   3   72.40    1.79
   6  -1   3   73.63    1.58
   6   1  -3   68.79    1.90
   6   1  -3   72.43    1.85
   6  -1   3   71.46    1.50
  -6   1   3   70.96    2.00
   6  -1   3   69.36    1.89
  -6  -1  -3   74.21    1.85
  -6   1   3   71.19    1.91
   6   1  -3   66.02    2.02
   6  -1  -3   72.24    1.88
   6  -1  -3   71.94    1.84
   6   1   3   73.79    1.96
  -6  -1   3   73.45    1.94
  -6  -1   3   69.79    1.92
   6   1   3   72.01    1.93
  -6  -1   3   73.37    1.82
   6  -1  -3   74.41    1.86
   6  -1   4   71.16    1.77
  -6   1   4   74.30    1.81
   6   1  -4   73.46    1.94
   6  -1   4   70.54    1.54
   6  -1   4   74.88    1.63
   6   1  -4   71.25    1.85
  -6   1   4   70.40    1.96
  -6  -1   4   69.05    1.83
   6   1   4   71.74    1.75
  -6  -1   4   71.87    2.30
  -6  -1   4   71.10    1.98
   6  -1  -4   69.32    1.84
   6  -1  -4   72.98    1.96
  -6   1   5   56.23    2.50
   6   1  -5   46.26    1.62
   6   1  -5   47.37    1.47
   6  -1   5   42.68    1.35
   6  -1   5   43.69    1.62
   6  -1   5   48.55    1.38
  -6   1   5   47.61    1.37
   6   1   5   48.30    1.32
   6  -1  -5   47.57    1.46
   6   1   5   44.81    1.67
   6  -1  -5   46.58    1.67
  -6  -1   5   45.50    1.86
   7  -1   0    2.87    0.41
   7  -1   0    2.76    0.41
  -7  -1   0    3.01    0.35
  -7  -1   0    3.25    0.47
   7   1   0    2.88    0.33
   7   1   0    3.17    0.43
  -7   1   0    3.54    0.49
  -7  -1   0    4.96    0.68
  -7   1   0    4.15    0.59
   7   1   0    2.66    0.47
  -7   1   0    2.84    0.45
   7  -1   0    2.85    0.49
   7   1  -1   43.66    1.38
  -7   1   1   43.42    1.35
  -7  -1  -1   45.00    1.48
   7   1  -1   41.32    1.45
   7  -1   1   45.81    1.37
  -7   1   1   46.55    1.50
   7  -1   1   44.56    1.46
  -7   1   1   42.27    1.39
   7   1  -1   44.94    1.15
   7  -1   1   46.09    1.10
  -7   1  -1   42.60    1.38
   7   1   1   44.24    1.48
  -7   1  -1   45.22    1.48
  -7  -1   1   46.50    1.51
   7   1   1   44.92    1.36
  -7   1  -1   45.97    1.14
   7  -1  -1   45.52    1.24
   7  -1  -1   43.58    1.43
  -7  -1   1   44.12    1.37
   7  -1  -1   45.95    1.40
   7   1  -2    4.38    0.53
   7   1  -2    4.53    0.49
   7  -1   2    3.64    0.47
   7  -1   2    4.28    0.31
   7  -1   2    3.59    0.53
  -7  -1  -2    4.50    0.61
   7  -1   2    5.37    0.39
  -7   1   2    5.34    0.75
  -7   1   2    4.64    0.64
  -7  -1  -2    4.84    0.73
  -7   1   2    4.08    0.52
   7  -1  -2    3.81    0.54
   7  -1  -2    4.18    0.51
  -7   1  -2    3.50    0.52
  -7  -1   2    4.12    0.59
   7   1   2    3.66    0.46
  -7   1  -2    4.92    0.61
  -7  -1   2    5.01    0.72
  -7  -1   2    3.90    0.59
   7   1  -3   32.61    1.11
  -7   1   3   32.43    1.32
   7   1  -3   33.24    1.25
   7  -1   3   32.42    1.15
  -7   1   3   31.97    1.53
   7  -1  -3   31.25    1.22
   7   1   3   31.14    1.11
  -7  -1   3   30.79    1.32
  -7  -1   3   31.63    1.45
   7  -1  -3   32.71    1.17
   7   1  -4    1.76    0.49
  -7   1   4    1.53    0.56
   7  -1   4    1.97    0.45
   7   1  -4    1.83    0.45
   7   1   4    1.45    0.44
   7  -1  -4    2.46    0.51
   7  -1  -4    1.13    0.51
  -7  -1   4    1.83    0.60
   8  -1   0   40.29    1.08
  -8  -1   0   38.68    1.08
  -8   1   0   39.29    1.48
   8  -1   0   38.65    1.35
   8   1   0   38.61    1.36
  -8  -1   0   40.76    1.49
   8   1   0   40.34    0.96
  -8   1   0   37.58    1.26
  -8   1   1    8.96    0.89
   8  -1   1    6.40    0.75
   8   1  -1    7.77    0.52
  -8   1   1    7.41    0.99
  -8  -1  -1    7.25    0.84
   8   1  -1    6.47    0.76
   8  -1  -1    8.10    0.59
   8  -1  -1    8.35    0.79
  -8  -1   1    7.42    0.84
  -8   1  -1    8.97    0.88
   8   1   1    8.14    0.77
  -8  -1   1    7.80    0.87
  -8   1   2   48.21    1.74
  -8  -1  -2   46.36    1.70
   8   1  -2   46.76    1.46
   8  -1   2   48.43    1.54
  -8   1   2   48.47    1.74
   8   1  -2   48.75    1.61
  -8  -1   2   48.24    1.74
   8   1   2   49.74    1.55
   8  -1  -2   50.41    1.63
   8  -1  -2   49.86    1.42
  -8  -1   2   49.64    1.65
  -8   1  -2   49.95    1.73
   0   2   0   30.27    0.57
   0  -2   0   28.39    0.58
   0   2   0   25.17    0.54
   0   2   0   29.30    0.61
   0  -2   0   30.32    0.62
   0  -2  -1    0.03    0.09
   0  -2   1   -0.10    0.07
   0   2  -1   -0.04    0.07
   0   2   1    0.06    0.06
   0  -2   1    0.07    0.11
   0  -2  -1   -0.04    0.14
   0   2   1   -0.08    0.08
   0  -2   1   -0.19    0.09
   0   2  -1   -0.12    0.09
   0  -2   2   38.69    0.83
   0   2  -2   38.53    0.83
   0   2   2   39.46    1.01
   0   2  -2   38.95    0.90
   0  -2   2   38.26    0.81
   0  -2  -2   37.62    0.85
   0  -2   2   37.22    0.89
   0  -2  -2   38.92    0.89
   0   2  -2   37.88    0.80
   0   2   2   38.99    0.86
   0   2   3    0.12    0.14
   0  -2  -3    0.18    0.17
   0  -2   3    0.20    0.14
   0  -2   3    0.01    0.12
   0   2  -3   -0.09    0.09
   0   2  -3   -0.05    0.15
   0   2   3    0.27    0.18
   0  -2  -3    0.13    0.14
   0  -2   3   -0.07    0.16
   0   2  -3   -0.14    0.11
   0  -2  -4   10.30    0.49
   0   2  -4    9.80    0.48
   0  -2   4    9.86    0.39
   0   2   4    9.87    0.52
   0  -2   4    8.57    0.56
   0   2  -4    9.01    0.55
   0  -2  -4    8.64    0.53
   0   2  -4    9.49    0.37
   0  -2   4   10.02    0.50
   0   2   4    9.58    0.61
   0   2   5    0.33    0.32
   0  -2   5    0.09    0.30
   0   2  -5    0.03    0.24
   0  -2  -5    0.55    0.26
   0   2   5    0.07    0.24
   0   2  -5    0.01    0.26
   0  -2   5    0.10    0.23
   0  -2   5    0.01    0.17
   0  -2   6    7.08    0.65
   0  -2   6    7.98    0.44
   0  -2  -6    6.95    0.90
   0   2   6    6.09    0.83
   0   2  -6    7.09    0.69
   0   2   6    7.09    0.68
   1  -2   0   20.92    0.55
   1   2   0   21.08    0.48
  -1  -2   0   21.01    0.50
  -1   2   0   19.96    0.55
  -1  -2   0   21.32    0.48
   1   2   0   20.08    0.51
   1  -2   0   20.84    0.45
  -1   2   0   20.54    0.48
   1   2  -1   76.58    1.45
  -1  -2  -1   75.54    1.40
   1  -2   1   73.15    1.42
   1  -2   1   77.52    1.45
  -1   2   1   73.83    1.41
  -1   2   1   77.79    1.45
   1  -2   1   73.86    1.47
   1   2  -1   74.08    1.44
  -1  -2  -1   77.20    1.41
   1   2  -1   74.33    1.47
   1  -2  -1   76.06    1.44
   1  -2  -1   73.76    1.54
  -1  -2   1   77.38    1.45
   1   2   1   75.33    1.42
  -1  -2   1   76.50    1.45
  -1  -2   1   73.46    1.46
   1   2   1   74.61    1.46
   1   2   1   76.62    1.40
   1  -2  -1   75.47    1.42
   1   2  -2    1.72    0.18
  -1   2   2    2.06    0.13
  -1  -2  -2    1.38    0.19
   1  -2   2    1.69    0.18
   1   2  -2    1.94    0.19
   1  -2   2    1.81    0.19
   1   2  -2    2.32    0.24
  -1   2   2    1.57    0.22
   1  -2   2    1.64    0.23
  -1   2   2    1.74    0.21
  -1  -2   2    1.57    0.24
   1   2   2    2.17    0.22
   1  -2  -2    2.10    0.15
   1   2   2    1.61    0.22
   1  -2  -2    1.90    0.19
   1  -2  -2    1.50    0.20
  -1  -2   2    1.66    0.19
  -1  -2   2    1.67    0.20
  -1   2   3   52.99    1.29
   1   2  -3   51.72    1.16
  -1  -2  -3   51.44    1.17
   1  -2   3   52.16    1.09
   1  -2   3   54.15    1.18
  -1   2   3   52.84    1.20
   1   2  -3   50.48    1.24
   1   2  -3   52.45    1.10
   1  -2   3   52.83    1.23
   1  -2  -3   52.56    1.18
   1  -2  -3   51.63    1.27
   1   2   3   50.91    1.20
   1   2   3   52.96    1.20
  -1  -2   3   51.66    1.17
  -1  -2   3   51.46    1.11
  -1   2  -3   53.05    1.22
  -1  -2   3   52.54    1.25
   1   2  -4    6.96    0.43
  -1  -2  -4    6.71    0.46
   1  -2   4    6.66    0.43
   1   2  -4    6.73    0.34
  -1   2   4    6.58    0.60
  -1   2   4    7.46    0.49
   1  -2   4    6.26    0.48
   1  -2   4    6.18    0.33
   1   2  -4    6.13    0.50
  -1   2  -4    6.40    0.47
   1   2   4    6.71    0.47
  -1  -2   4    6.54    0.37
  -1  -2   4    5.65    0.53
  -1  -2   4    7.02    0.46
   1  -2  -4    6.40    0.52
   1   2   4    6.03    0.50
   1  -2  -4    6.31    0.43
   1   2  -5   25.37    0.69
   1  -2   5   26.13    0.89
   1   2  -5   26.85    0.90
   1  -2   5   25.85    0.95
  -1   2   5   26.12    0.91
   1   2  -5   24.99    0.97
   1  -2   5   25.15    0.68
  -1   2   5   24.96    1.06
  -1  -2  -5   26.01    0.90
   1   2   5   25.87    0.95
  -1  -2   5   24.39    0.70
  -1  -2   5   25.36    0.99
   1   2   5   25.27    0.90
  -1   2  -5   25.11    0.94
   1  -2  -5   25.75    0.88
   1  -2  -5   24.37    0.97
  -1  -2   5   25.05    0.87
   1  -2   6    0.47    0.37
   1   2  -6    0.12    0.34
   1  -2   6    0.09    0.21
   1  -2   6    0.35    0.21
  -1  -2  -6    0.31    0.31
  -1   2   6    0.61    0.34
   1  -2   6   -0.01    0.32
   1   2  -6    0.57    0.23
   1  -2  -6    0.69    0.35
   1   2   6   -0.22    0.38
   1   2   6   -0.60    0.31
  -1  -2   6    0.64    0.24
  -1  -2   6    0.31    0.32
   2  -2   0  124.39    2.34
  -2   2   0  122.23    2.37
  -2  -2   0  123.83    2.34
   2   2   0  126.47    2.34
  -2  -2   0  124.18    2.39
   2   2   0  123.62    2.23
  -2  -2   0  120.39    2.23
  -2   2   0  120.78    2.40
   2   2   0  123.03    2.40
   2  -2   0  124.00    2.40
   2  -2   0  126.26    2.34
  -2   2   0  121.57    2.34
   2  -2   1   59.08    1.24
  -2   2   1   59.15    1.46
   2   2  -1   59.58    1.24
  -2  -2  -1   60.17    1.27
   2  -2   1   61.12    1.23
  -2   2   1   59.54    1.24
  -2  -2  -1   58.79    1.21
   2   2  -1   63.24    1.51
   2   2  -1   60.16    1.22
  -2   2   1   57.21    1.21
   2  -2   1   60.67    1.24
   2   2   1   60.94    1.21
   2   2   1   58.38    1.26
  -2  -2   1   59.26    1.22
  -2   2  -1   59.34    1.23
  -2   2  -1   58.97    1.23
   2  -2  -1   61.76    1.31
   2  -2  -1   59.69    1.32
   2  -2  -1   59.26    1.23
  -2  -2   1   58.67    1.26
  -2  -2   1   59.67    1.24
   2   2  -2   89.47    1.75
   2  -2   2   89.55    1.74
   2   2  -2   87.68    1.83
   2  -2   2   86.04    1.76
  -2   2   2   85.48    1.71
   2  -2   2   87.11    1.77
  -2   2   2   87.90    1.78
   2  -2   2   87.24    1.76
   2   2  -2   86.13    1.76
  -2  -2  -2   91.42    1.66
  -2  -2  -2   87.88    1.70
   2  -2   2   89.04    1.74
  -2  -2   2   88.42    1.81
   2   2   2   88.65    1.69
   2  -2  -2   86.46    1.72
   2   2   2   88.57    1.80
   2   2   2   84.18    1.67
  -2  -2   2   87.05    1.75
  -2  -2   2   90.17    1.79
   2  -2  -2   87.88    1.87
   2  -2  -2   89.44    1.77
   2  -2   3   37.74    0.87
   2   2  -3   38.03    0.94
   2  -2   3   36.79    0.95
  -2   2   3   36.43    0.96
   2  -2   3   38.03    0.94
   2   2  -3   37.46    0.88
  -2  -2  -3   37.26    0.87
   2   2  -3   37.38    1.02
  -2   2   3   37.17    0.82
   2  -2   3   37.44    0.87
  -2   2   3   36.36    1.11
   2  -2   3   37.23    0.93
   2  -2  -3   36.82    0.82
   2   2   3   36.93    0.89
   2   2   3   37.65    0.80
  -2  -2   3   36.36    0.89
  -2  -2   3   37.92    0.97
   2  -2  -3   36.24    0.94
   2   2   3   35.38    0.98
   2  -2  -3   36.20    1.06
   2   2   3   36.05    0.96
   2   2  -4   53.61    1.19
   2  -2   4   52.68    1.17
   2   2  -4   52.70    1.41
  -2   2   4   51.35    1.48
  -2   2   4   52.15    1.11
   2  -2   4   52.52    1.33
   2  -2   4   54.42    1.32
  -2  -2  -4   52.56    1.26
  -2   2   4   53.16    1.35
   2  -2   4   53.75    1.19
   2   2  -4   51.10    1.29
   2  -2  -4   52.90    1.45
   2  -2  -4   53.09    1.08
   2  -2  -4   54.70    1.33
  -2  -2   4   53.42    1.33
   2   2   4   53.33    1.04
   2   2   4   53.01    1.35
  -2  -2   4   53.71    1.22
   2   2   4   54.81    1.30
   2   2  -5   10.91    0.65
  -2  -2  -5   10.36    0.58
  -2   2   5   10.49    0.84
   2   2  -5   10.75    0.70
   2   2  -5   11.13    0.47
   2  -2   5   11.14    0.49
   2  -2   5   11.04    0.66
   2  -2   5   10.27    0.45
   2  -2   5   11.42    0.63
  -2   2   5   10.47    0.66
  -2  -2   5   10.56    0.65
   2  -2  -5   10.44    0.70
   2   2   5   11.11    0.65
  -2  -2   5   11.59    0.78
   2   2   5   11.27    0.64
   2  -2  -5   10.55    0.62
  -2  -2   5   10.96    0.52
   2  -2   6   23.99    0.75
   2  -2   6   25.65    0.72
   2   2  -6   24.59    0.75
  -2  -2  -6   23.91    0.94
  -2   2   6   23.69    1.03
   2  -2   6   23.22    0.98
   2  -2   6   22.56    1.02
   2   2  -6   23.19    1.10
   2  -2  -6   24.77    1.13
   2   2   6   23.65    1.02
   2   2   6   23.55    1.02
  -2  -2   6   24.60    0.78
  -2  -2   6   24.90    1.04
   3   2   0    1.06    0.14
  -3  -2   0    0.94    0.17
  -3  -2   0    1.08    0.23
   3  -2   0    0.86    0.20
  -3  -2   0    1.22    0.17
   3   2   0    0.64    0.20
   3   2   0    0.63    0.17
  -3   2   0    0.36    0.19
   3  -2   0    0.57    0.18
   3  -2   0    1.15    0.19
  -3   2   0    0.93    0.18
  -3   2   0    0.64    0.34
   3  -2   1   48.35    1.16
   3   2  -1   48.30    1.17
  -3   2   1   50.69    1.13
  -3   2   1   49.38    1.22
  -3  -2  -1   50.99    1.13
   3   2  -1   49.98    1.08
  -3  -2  -1   49.57    1.18
  -3   2   1   50.49    1.16
   3  -2   1   49.62    1.13
   3  -2   1   51.13    1.13
   3   2  -1   50.81    1.15
   3  -2  -1   49.56    1.14
  -3   2  -1   49.30    1.14
   3   2   1   50.36    1.11
   3  -2  -1   49.93    1.20
  -3  -2   1   50.92    1.14
   3  -2  -1   50.42    1.14
   3   2   1   49.42    1.19
  -3   2  -1   50.27    1.17
  -3  -2   1   50.17    1.20
  -3  -2   1   50.16    1.16
   3   2  -2   33.55    0.88
   3   2  -2   33.40    0.89
  -3  -2  -2   33.76    0.85
   3  -2   2   35.89    0.85
  -3   2   2   34.47    1.01
  -3   2   2   33.80    0.84
   3  -2   2   34.12    1.02
   3  -2   2   33.55    0.86
  -3   2   2   34.07    0.91
   3   2  -2   34.27    0.91
  -3  -2   2   34.82    0.93
   3   2   2   34.21    0.83
  -3  -2   2   34.46    0.87
   3  -2  -2   34.94    0.88
   3   2   2   33.66    0.92
  -3  -2   2   33.09    0.89
   3  -2  -2   34.66    0.99
   3  -2  -2   34.70    0.88
  -3   2   3   33.51    0.97
   3  -2   3   34.62    0.92
   3   2  -3   34.97    0.91
   3  -2   3   34.76    0.91
  -3   2   3   34.35    1.10
   3   2  -3   34.49    0.95
   3  -2   3   34.63    0.89
   3   2  -3   33.63    1.00
   3  -2   3   34.44    0.91
  -3   2   3   34.13    0.86
   3   2   3   33.64    0.99
  -3  -2   3   35.63    0.99
   3   2   3   34.61    0.84
   3  -2  -3   34.93    1.08
   3   2   3   33.38    0.81
  -3  -2   3   34.88    1.02
   3  -2  -3   34.27    0.89
   3  -2  -3   35.32    0.95
  -3  -2   3   33.56    0.91
   3  -2   4    1.41    0.29
   3   2  -4    1.72    0.31
  -3   2   4    1.36    0.33
   3  -2   4    1.44    0.30
  -3   2   4    1.44    0.22
  -3   2   4    1.71    0.40
   3   2  -4    1.91    0.27
   3  -2   4    1.64    0.28
   3  -2   4    1.85    0.24
   3  -2   4    1.91    0.26
   3  -2  -4    1.53    0.37
   3   2   4    1.69    0.35
  -3  -2   4    1.29    0.34
  -3  -2   4    1.54    0.32
   3   2   4    1.42    0.21
   3  -2  -4    1.47    0.23
   3   2   4    1.52    0.19
   3  -2  -4    1.45    0.29
   3   2   4    1.70    0.32
  -3  -2   4    1.15    0.32
   3   2   4    1.80    0.26
  -3   2   5   19.87    0.91
  -3   2   5   19.37    1.11
   3  -2   5   19.39    0.65
   3  -2   5   19.90    0.80
   3   2  -5   20.51    0.88
   3   2  -5   20.64    0.69
   3   2  -5   17.92    0.91
  -3   2   5   19.03    0.59
   3  -2   5   20.66    0.70
   3  -2   5   20.98    0.84
   3  -2   5   20.67    0.88
  -3  -2   5   19.17    1.02
  -3  -2   5   19.34    0.72
  -3  -2   5   19.97    0.87
   3   2   5   18.73    0.66
   3   2   5   20.80    0.78
   3   2   5   21.27    0.95
   3   2   5   19.23    0.55
   3  -2  -5   19.57    0.59
   3   2   5   19.62    0.88
   3  -2  -5   18.97    0.95
   3  -2  -5   18.50    0.85
   3  -2   6    9.41    0.77
   3   2  -6    9.61    0.86
   3  -2   6   10.52    0.53
  -3   2   6    9.51    0.85
   3  -2   6   10.69    0.79
   3  -2   6    8.87    0.56
   3   2  -6   10.80    0.58
  -3  -2   6    9.41    0.83
  -3  -2   6    8.57    0.63
   3   2   6    9.11    0.80
   3  -2  -6    8.52    0.88
   3   2   6    9.89    0.76
   4   2   0   15.83    0.42
   4   2   0   16.45    0.61
  -4   2   0   15.53    0.59
  -4  -2   0   16.04    0.59
   4  -2   0   16.73    0.64
  -4  -2   0   16.44    0.48
  -4  -2   0   16.26    0.68
   4  -2   0   15.77    0.60
  -4   2   0   15.95    0.68
  -4   2   0   16.16    0.62
   4   2   0   16.54    0.69
   4  -2   0   16.53    0.63
   4  -2   1   36.97    0.98
  -4  -2  -1   36.07    1.05
  -4   2   1   37.88    1.07
  -4   2   1   36.03    0.96
  -4  -2  -1   37.81    0.98
   4  -2   1   36.98    0.95
   4  -2   1   37.13    1.11
  -4   2   1   37.71    1.05
   4   2  -1   36.79    1.06
   4   2  -1   38.90    1.01
   4   2  -1   37.01    0.88
   4  -2  -1   37.35    1.00
  -4  -2   1   37.14    0.92
  -4  -2   1   37.11    0.98
   4  -2  -1   37.17    1.00
  -4   2  -1   35.13    0.93
   4  -2  -1   36.67    1.09
   4   2   1   38.39    1.01
  -4  -2   1   37.69    1.08
  -4   2  -1   35.31    1.04
   4   2   1   36.23    1.06
  -4   2  -1   36.06    0.97
   4   2  -2   19.83    0.67
  -4  -2  -2   20.65    0.67
  -4  -2  -2   18.87    0.75
   4   2  -2   19.13    0.74
   4  -2   2   18.37    0.78
   4   2  -2   18.64    0.71
   4  -2   2   19.75    0.68
  -4   2   2   19.98    0.75
   4  -2   2   20.14    0.64
  -4   2   2   18.52    0.66
   4   2   2   20.49    0.76
   4  -2  -2   20.10    0.71
  -4  -2   2   19.14    0.77
   4  -2  -2   20.87    0.73
   4   2   2   20.00    0.67
  -4  -2   2   19.69    0.70
  -4   2  -2   20.18    0.74
   4  -2  -2   19.31    0.78
  -4  -2   2   19.27    0.72
   4   2  -3   22.07    0.82
   4  -2   3   21.66    0.82
  -4   2   3   22.64    0.86
   4  -2   3   23.46    0.76
  -4   2   3   23.05    0.73
  -4   2   3   23.46    0.98
   4  -2   3   21.71    0.69
  -4  -2  -3   23.44    0.74
   4   2  -3   22.70    0.83
   4  -2   3   22.89    0.72
   4   2  -3   21.58    0.78
   4   2   3   22.29    0.57
  -4  -2   3   22.27    0.86
   4  -2  -3   23.46    0.93
  -4  -2   3   21.53    0.88
  -4  -2   3   22.66    0.78
   4  -2  -3   23.19    0.79
   4  -2  -3   21.85    0.79
   4   2   3   23.58    0.72
   4   2   3   22.54    0.56
   4  -2   4    7.52    0.56
   4   2  -4    9.27    0.62
   4  -2   4    8.22    0.62
  -4   2   4    8.56    0.64
   4  -2   4    8.37    0.51
   4  -2   4    8.99    0.51
   4   2  -4    7.96    0.51
   4  -2   4    8.30    0.49
   4   2  -4    8.87    0.63
   4  -2   4    8.25    0.50
  -4   2   4    8.18    0.75
   4  -2  -4    8.19    0.68
   4   2   4    7.78    0.60
   4  -2  -4    8.48    0.52
  -4  -2   4    8.35    0.54
  -4  -2   4    8.43    0.73
   4  -2  -4    7.34    0.56
  -4  -2   4    7.67    0.63
   4   2   4    8.27    0.66
   4   2   4    8.06    0.41
   4   2   4    8.02    0.46
   4  -2   5   18.44    0.77
   4  -2   5   16.70    0.72
   4   2  -5   14.72    1.06
  -4   2   5   17.16    0.66
   4  -2   5   18.19    0.86
   4   2  -5   16.37    0.92
   4  -2   5   17.13    0.77
  -4   2   5   16.20    0.90
   4  -2   5   19.16    0.92
   4  -2   5   17.29    0.68
   4   2   5   16.84    0.89
   4   2   5   18.13    0.58
   4   2   5   16.55    0.62
   4  -2  -5   18.28    0.67
  -4  -2   5   16.31    0.90
   4   2   5   19.07    0.92
  -4  -2   5   17.94    0.78
   4  -2   6    6.64    0.71
   4   2  -6    6.93    0.92
   4  -2   6    5.77    0.61
   4  -2   6    4.56    0.61
   4   2  -6    5.14    0.59
   4  -2   6    5.07    0.54
  -4   2   6    4.57    0.66
  -4  -2   6    5.07    0.66
   4   2   6    4.87    0.66
   4  -2  -6    7.62    0.99
  -5  -2   0   59.49    1.58
  -5   2   0   61.60    1.49
  -5  -2   0   61.27    1.48
  -5   2   0   61.13    1.49
   5   2   0   60.70    1.23
  -5   2   0   58.56    1.57
   5  -2   0   59.20    1.43
   5   2   0   60.10    1.48
   5   2   0   60.98    1.59
  -5  -2   0   59.28    1.30
   5  -2   0   61.37    1.53
   5  -2   0   60.34    1.48
  -5   2   1  237.59    4.66
  -5   2   1  242.51    4.56
   5  -2   1  241.62    4.47
   5   2  -1  230.64    4.39
   5  -2   1  238.73    4.62
   5   2  -1  237.29    4.58
  -5  -2  -1  241.03    4.57
   5  -2   1  235.09    4.55
  -5   2   1  236.88    4.63
   5   2  -1  233.93    4.65
  -5  -2  -1  225.73    4.64
   5   2   1  237.39    4.54
  -5  -2   1  228.21    4.65
   5   2   1  239.26    4.68
  -5  -2   1  233.95    4.55
  -5   2  -1  230.11    4.46
  -5  -2   1  235.69    4.46
  -5   2  -1  225.02    4.63
  -5   2  -1  238.56    4.57
   5  -2  -1  235.54    4.56
   5  -2  -1  228.46    4.57
   5  -2  -1  233.36    4.54
  -5  -2  -2   53.37    1.49
   5  -2   2   56.10    1.30
   5  -2   2   53.61    1.38
   5   2  -2   54.32    1.48
   5   2  -2   54.15    1.33
  -5   2   2   55.22    1.55
   5  -2   2   54.54    1.47
  -5   2   2   54.77    1.38
   5   2  -2   54.15    1.42
  -5  -2  -2   55.61    1.40
  -5   2   2   52.85    1.47
   5  -2  -2   54.93    1.41
   5   2   2   53.55    1.50
  -5  -2   2   53.48    1.55
  -5  -2   2   52.76    1.49
   5   2   2   54.81    1.35
   5  -2  -2   54.63    1.44
   5  -2  -2   56.27    1.44
  -5   2  -2   53.63    1.47
  -5  -2   2   55.26    1.42
  -5  -2  -3  163.20    3.39
   5  -2   3  167.19    3.57
   5   2  -3  169.55    3.51
   5  -2   3  167.32    3.25
  -5   2   3  167.10    3.50
   5  -2   3  170.83    3.31
   5  -2   3  168.94    3.39
  -5   2   3  172.07    3.39
   5   2  -3  166.06    3.45
  -5   2   3  166.53    3.62
  -5  -2   3  169.25    3.42
   5   2   3  171.18    3.34
   5   2   3  164.53    3.52
  -5  -2   3  162.92    3.48
   5  -2  -3  169.51    3.56
   5  -2  -3  167.87    3.43
  -5  -2   3  169.59    3.52
   5  -2  -3  167.69    3.46
   5   2  -4   32.35    1.16
   5  -2   4   31.28    1.14
   5  -2   4   34.46    0.99
  -5   2   4   30.82    1.33
   5  -2   4   33.32    1.13
  -5   2   4   32.42    1.16
  -5   2   4   32.58    0.99
   5   2  -4   31.85    1.05
   5  -2   4   30.74    1.01
   5   2  -4   32.33    1.14
   5  -2   4   33.72    0.95
  -5  -2   4   31.64    1.27
   5  -2  -4   31.26    1.11
   5  -2  -4   33.26    1.07
  -5  -2   4   30.82    1.15
   5   2   4   31.55    1.17
   5  -2  -4   32.79    1.22
  -5  -2   4   32.88    1.06
   5   2   4   32.65    0.98
  -5   2   5  100.59    2.49
   5   2  -5  103.59    2.52
   5   2  -5  101.16    2.28
   5  -2   5   97.10    2.42
   5  -2   5   96.37    2.18
   5  -2   5   95.83    2.20
   5  -2   5  100.73    2.24
  -5   2   5  101.03    2.19
   5  -2   5  103.73    2.28
   5   2   5  106.99    2.30
   5   2   5   97.40    2.48
   5  -2  -5   98.59    2.56
   5   2   5  102.27    2.13
  -5  -2   5   96.46    2.45
  -5  -2   5   96.37    2.27
   5   2   5   94.13    2.10
   5   2   5  100.28    2.24
   5  -2  -5   94.89    2.39
  -6  -2   0   11.22    0.68
   6   2   0   11.40    0.40
   6   2   0   11.30    0.78
  -6   2   0   12.13    0.67
   6  -2   0   11.62    0.66
  -6  -2   0   11.35    0.56
  -6  -2   0   11.19    0.73
   6  -2   0   11.83    0.59
   6  -2   0   11.19    0.72
   6   2   0   10.94    0.68
   6   2  -1   15.92    0.77
   6  -2   1   16.27    0.73
   6   2  -1   16.82    0.69
  -6   2   1   17.14    0.85
  -6  -2  -1   15.22    0.88
  -6   2   1   15.38    0.73
   6   2  -1   17.25    0.87
   6  -2   1   16.79    0.85
  -6   2   1   18.12    0.88
  -6  -2  -1   16.41    0.79
   6  -2   1   16.65    0.74
  -6   2  -1   14.89    0.98
  -6  -2   1   16.47    0.77
   6  -2  -1   16.86    0.81
   6  -2  -1   16.23    0.77
   6   2   1   15.70    0.74
  -6  -2   1   16.89    1.08
  -6   2  -1   15.23    0.75
   6   2   1   16.93    0.87
   6  -2  -1   16.11    0.70
  -6   2  -1   15.51    0.65
  -6  -2   1   16.86    0.70
   6  -2   2    8.71    0.71
   6   2  -2    7.70    0.50
  -6  -2  -2    7.76    0.66
   6   2  -2    7.13    0.71
  -6  -2  -2    7.58    0.68
  -6   2   2    7.12    0.79
   6  -2   2    7.83    0.59
   6   2  -2    7.37    0.63
  -6   2   2    7.68    0.69
   6  -2   2    7.64    0.51
  -6   2   2    7.88    0.58
  -6  -2   2    8.27    0.72
  -6  -2   2    7.64    0.67
   6  -2  -2    7.17    0.63
  -6  -2   2    9.00    0.63
   6   2   2    7.50    0.58
  -6   2  -2    7.32    0.67
   6   2   2    8.71    0.74
   6  -2  -2    7.07    0.58
   6  -2  -2    8.36    0.67
  -6   2   3    9.81    0.99
   6  -2   3   11.62    0.49
  -6   2   3   12.19    0.82
   6  -2   3   12.60    0.82
   6   2  -3   12.16    0.84
   6   2  -3   10.75    0.68
   6  -2   3   10.93    0.67
  -6  -2  -3   13.56    0.82
   6  -2   3   12.83    0.61
  -6   2   3   10.75    0.65
   6   2  -3   10.81    0.72
   6   2   3   11.02    0.67
   6  -2  -3   11.12    0.74
  -6  -2   3    9.51    0.81
   6   2   3   11.67    0.85
  -6  -2   3   10.37    0.72
   6  -2  -3   12.53    0.77
  -6  -2   3   11.17    0.87
   6  -2  -3   11.49    0.75
   6  -2   4    8.16    0.59
   6  -2   4    8.00    0.66
   6  -2   4    6.63    0.67
   6  -2   4    7.76    0.56
   6   2  -4    8.22    0.70
  -6   2   4    7.49    0.65
  -6   2   4    8.02    0.79
   6   2  -4    7.45    0.70
  -6  -2   4    6.37    0.98
   6   2   4    6.97    0.62
   6  -2  -4    7.67    0.76
  -6  -2   4    8.23    0.82
  -6  -2   4    6.60    0.69
   6  -2  -4    7.67    0.72
   6  -2   5    7.98    0.94
   6  -2   5   10.07    0.97
   6   2  -5    7.20    0.76
  -6   2   5    8.74    0.76
   6  -2   5    6.98    0.93
   6  -2   5    7.99    0.73
   6   2  -5    8.91    0.89
   6  -2  -5    8.67    0.95
   6  -2  -5    8.68    0.81
   6   2   5    7.93    1.15
  -6  -2   5    9.53    1.14
   6   2   5    6.07    0.65
   7  -2   0   83.85    2.08
   7  -2   0   84.27    1.89
  -7  -2   0   84.35    2.20
   7   2   0   83.63    1.67
  -7   2   0   84.24    2.18
   7   2   0   82.03    2.17
   7  -2   0   83.16    2.12
  -7   2   0   85.57    2.03
  -7   2   0   80.39    2.07
  -7  -2   0   82.16    2.09
   7   2   0   83.04    2.07
  -7  -2   0   90.19    1.81
   7   2  -1   38.07    0.98
   7  -2   1   37.03    1.21
   7   2  -1   38.20    1.27
  -7   2   1   36.51    1.34
  -7  -2  -1   34.49    1.29
  -7   2   1   36.01    1.21
  -7  -2  -1   35.00    1.25
  -7   2   1   34.74    1.29
   7  -2   1   38.24    1.02
   7  -2   1   33.91    1.26
   7   2   1   35.00    1.32
  -7   2  -1   35.56    1.05
   7  -2  -1   35.76    1.21
   7   2   1   36.55    1.20
  -7  -2   1   34.88    1.11
  -7   2  -1   34.73    1.22
  -7  -2   1   35.11    1.22
   7  -2  -1   34.77    1.26
   7  -2  -1   36.83    1.10
  -7   2  -1   35.56    1.31
  -7  -2   1   36.55    1.34
  -7  -2  -2   39.48    1.41
  -7  -2  -2   37.24    1.38
  -7   2   2   38.35    1.45
   7  -2   2   38.42    1.26
   7   2  -2   38.83    1.31
   7   2  -2   39.03    1.12
   7  -2   2   40.21    1.38
  -7   2   2   39.55    1.41
  -7   2   2   33.84    1.22
   7  -2   2   39.32    1.05
  -7  -2   2   38.12    1.36
   7  -2  -2   37.96    1.30
  -7   2  -2   39.99    1.40
   7  -2  -2   40.34    1.24
   7   2   2   39.52    1.24
  -7  -2   2   39.44    1.42
  -7  -2  -3   27.93    1.28
   7  -2   3   29.28    0.80
   7   2  -3   29.74    1.04
   7   2  -3   28.06    1.17
  -7   2   3   30.59    1.29
  -7   2   3   26.28    1.49
   7  -2   3   30.13    0.91
   7  -2   3   29.38    1.11
  -7  -2   3   29.85    1.29
  -7  -2   3   28.13    1.35
   7   2   3   28.28    1.07
   7  -2  -3   29.81    1.14
   7  -2  -3   28.35    1.18
   7   2  -4   47.90    1.53
  -7   2   4   46.60    1.80
   7   2  -4   48.32    1.58
   7  -2   4   46.64    1.48
   7  -2  -4   51.98    1.66
  -7  -2   4   47.19    1.77
   7   2   4   48.73    1.43
   7  -2  -4   47.61    1.58
  -8   2   0  110.58    2.56
  -8  -2   0  111.49    2.81
   8  -2   0  112.51    2.68
   8   2   0  113.78    2.69
   8  -2   0  110.99    2.39
  -8   2   0  113.28    2.82
  -8   2   1    2.34    0.61
  -8  -2  -1    1.95    0.48
  -8   2   1    2.05    0.53
   8   2  -1    2.69    0.40
   8   2  -1    2.43    0.49
   8  -2   1    2.38    0.49
   8  -2   1    2.60    0.33
   8  -2  -1    2.32    0.39
   8   2   1    2.10    0.48
  -8   2  -1    3.42    0.56
   8  -2  -1    1.98    0.51
  -8  -2   1    3.04    0.56
  -8  -2   1    1.76    0.77
   8  -2   2   92.51    2.38
   8   2  -2   96.14    2.16
  -8  -2  -2   92.80    2.55
  -8   2   2   94.48    2.58
   8   2  -2   92.39    2.43
  -8   2   2   98.62    2.60
  -8  -2   2   94.97    2.58
  -8   2  -2   96.84    2.56
  -8  -2   2   94.57    2.37
   8  -2  -2   94.08    2.44
   8  -2  -2   96.50    2.30
   8   2   2   94.32    2.36
   0  -3   0    0.09    0.14
   0   3   0   -0.18    0.04
   0  -3   0   -0.16    0.09
   0   3   0    0.02    0.12
   0   3   0   -0.31    0.09
   0  -3  -1  103.44    1.91
   0   3   1  103.25    2.01
   0   3  -1  103.81    1.93
   0   3  -1  100.54    1.86
   0  -3  -1  102.82    2.01
   0  -3   1   99.91    1.86
   0   3   1  105.31    1.91
   0  -3  -1  100.16    1.85
   0  -3   1  100.49    1.92
   0   3   1  102.55    1.86
   0   3  -2   -0.16    0.10
   0   3   2    0.04    0.17
   0   3   2   -0.09    0.11
   0  -3  -2   -0.12    0.10
   0  -3   2    0.02    0.13
   0   3  -2   -0.13    0.08
   0  -3   2   -0.19    0.10
   0  -3  -2    0.28    0.16
   0  -3   3   48.73    1.20
   0   3  -3   49.66    1.06
   0   3  -3   47.84    1.20
   0  -3  -3   49.94    1.14
   0  -3  -3   48.43    1.19
   0  -3   3   48.87    1.07
   0   3   3   51.54    1.42
   0  -3   3   49.57    1.11
   0   3   3   49.80    1.15
   0   3  -3   49.96    1.10
   0  -3   4    0.03    0.22
   0  -3  -4   -0.03    0.21
   0  -3   4    0.45    0.20
   0  -3   4    0.16    0.17
   0   3  -4    0.06    0.22
   0  -3  -4   -0.03    0.18
   0   3  -4   -0.21    0.16
   0   3   4    0.78    0.30
   0   3  -4    0.19    0.16
   0   3   4    0.07    0.20
   0  -3   5   25.64    0.73
   0  -3   5   24.47    1.00
   0   3   5   26.39    1.03
   0  -3  -5   23.51    1.11
   0  -3   5   24.84    0.97
   0   3   5   25.40    0.92
   0   3  -5   25.81    0.88
   0   3  -5   25.18    0.96
   0   3  -5   24.03    0.71
   0  -3  -6   -0.34    0.31
   0  -3   6    0.41    0.26
   0  -3   6    0.08    0.31
   0   3   6   -0.52    0.29
   0   3  -6    0.36    0.35
   0   3   6    0.68    0.45
  -1   3   0   17.98    0.57
   1   3   0   18.40    0.50
  -1  -3   0   19.41    0.49
   1   3   0   18.36    0.47
  -1  -3   0   19.24    0.48
   1  -3   0   18.38    0.58
  -1  -3   0   19.60    0.47
  -1   3   0   18.80    0.45
   1  -3   0   19.00    0.42
   1  -3   0   19.00    0.47
   1   3  -1  829.78   14.84
   1  -3   1  814.89   14.88
  -1  -3  -1  839.12   14.60
   1   3  -1  778.55   14.64
   1  -3   1  823.99   14.72
   1  -3   1  780.13   14.52
  -1  -3  -1  845.56   14.60
  -1   3   1  829.88   14.72
  -1   3   1  775.99   14.48
   1  -3  -1  785.83   14.57
   1   3   1  837.43   14.57
   1   3   1  818.22   14.68
  -1  -3   1  796.31   14.67
   1   3   1  790.28   14.51
  -1  -3   1  822.98   14.78
  -1  -3   1  819.38   14.74
   1  -3  -1  821.66   14.70
   1  -3  -1  782.44   14.78
   1   3  -2   41.58    1.01
   1   3  -2   42.22    0.93
   1  -3   2   42.88    0.91
  -1   3   2   42.90    1.08
   1  -3   2   42.92    0.93
   1  -3   2   42.83    1.01
  -1  -3  -2   42.92    0.83
  -1   3   2   43.54    0.96
   1   3  -2   41.71    0.94
  -1  -3  -2   42.05    0.93
  -1  -3   2   42.30    0.94
   1  -3  -2   42.98    0.86
  -1  -3   2   41.75    0.93
   1  -3  -2   44.12    1.07
  -1  -3   2   39.66    0.99
   1   3   2   44.25    0.97
   1   3   2   43.16    0.97
   1   3   2   44.02    0.82
   1  -3  -2   43.32    0.95
  -1   3  -2   43.78    0.93
  -1   3   3  496.85    8.94
   1  -3   3  486.80    8.72
   1  -3   3  486.00    8.86
   1   3  -3  473.37    8.75
   1  -3   3  493.25    8.76
   1   3  -3  481.63    8.88
  -1  -3  -3  503.64    8.79
  -1   3   3  486.48    8.81
   1   3  -3  474.47    8.72
   1  -3  -3  478.87    8.79
   1  -3  -3  477.91    8.90
   1   3   3  501.11    8.82
  -1  -3   3  491.38    8.73
   1   3   3  476.79    8.81
  -1  -3   3  475.00    8.76
   1   3  -4    6.52    0.52
  -1   3   4    5.91    0.48
   1  -3   4    6.32    0.36
  -1  -3  -4    6.49    0.46
   1  -3   4    6.01    0.43
   1  -3   4    6.32    0.52
   1   3  -4    6.20    0.42
  -1   3   4    5.89    0.64
   1   3  -4    5.85    0.36
   1  -3  -4    5.78    0.55
  -1  -3   4    6.26    0.45
   1   3   4    5.48    0.53
  -1  -3   4    5.57    0.38
   1  -3  -4    5.40    0.42
   1   3   4    5.71    0.46
  -1  -3   4    5.98    0.54
   1  -3   5  289.15    5.57
  -1  -3  -5  288.13    5.48
  -1   3   5  289.71    5.51
   1  -3   5  291.88    5.27
   1   3  -5  283.71    5.61
   1   3  -5  284.87    5.44
   1  -3   5  274.78    5.54
  -1   3   5  289.71    5.67
   1   3  -5  282.48    5.26
   1  -3  -5  285.34    5.48
  -1  -3   5  277.51    5.29
   1   3   5  285.54    5.53
  -1  -3   5  290.54    5.63
  -1  -3   5  285.23    5.45
   1  -3  -5  275.12    5.59
   1   3   5  278.01    5.49
  -1   3   6    4.87    0.68
   1  -3   6    5.91    0.62
   1   3  -6    5.67    0.67
   1   3  -6    6.35    0.46
   1  -3   6    5.98    0.44
  -1  -3  -6    5.31    0.61
  -1  -3   6    5.45    0.48
   1   3   6    5.00    0.77
  -1  -3   6    6.23    0.66
   1   3   6    5.56    0.67
   1  -3  -6    5.38    0.71
  -2   3   0  246.79    4.60
  -2   3   0  240.37    4.82
   2   3   0  247.50    4.65
  -2  -3   0  249.72    4.49
   2  -3   0  251.33    4.56
  -2  -3   0  270.13    4.86
   2   3   0  250.90    4.59
   2  -3   0  251.29    4.59
   2  -3   0  248.84    4.68
  -2  -3   0  257.63    4.64
   2  -3   1   14.27    0.48
  -2   3   1   13.74    0.41
   2   3  -1   14.30    0.45
  -2  -3  -1   14.10    0.46
   2  -3   1   14.10    0.44
  -2   3   1   15.13    0.58
   2  -3   1   14.29    0.44
   2   3  -1   13.74    0.42
  -2  -3  -1   13.74    0.42
  -2   3   1   14.17    0.44
   2   3   1   13.97    0.41
  -2   3  -1   14.47    0.56
   2  -3  -1   13.82    0.56
   2  -3  -1   13.97    0.58
  -2  -3   1   14.93    0.46
   2   3   1   14.17    0.47
   2  -3  -1   14.09    0.43
  -2  -3   1   13.98    0.42
  -2   3  -1   13.56    0.42
  -2  -3   1   14.06    0.48
  -2   3   2   57.33    1.40
  -2  -3  -2   57.98    1.19
   2  -3   2   56.68    1.27
   2   3  -2   58.30    1.24
  -2   3   2   56.84    1.18
  -2  -3  -2   58.41    1.14
   2  -3   2   56.54    1.23
   2   3  -2   58.98    1.30
   2  -3   2   58.23    1.23
   2   3  -2   56.58    1.24
  -2   3   2   58.04    1.26
  -2  -3   2   58.91    1.25
   2   3   2   57.47    1.28
   2   3   2   57.79    1.17
  -2  -3   2   60.18    1.30
   2  -3  -2   59.69    1.25
   2  -3  -2   57.93    1.21
  -2  -3   2   57.76    1.26
   2   3   2   58.93    1.17
  -2   3   3    6.93    0.68
   2  -3   3    6.87    0.38
  -2   3   3    6.91    0.43
   2  -3   3    6.24    0.41
  -2   3   3    6.21    0.28
   2  -3   3    6.52    0.38
   2   3  -3    6.70    0.37
  -2  -3  -3    6.62    0.34
   2   3  -3    6.82    0.38
   2  -3   3    6.21    0.35
   2   3  -3    6.66    0.45
   2  -3  -3    5.77    0.51
   2  -3  -3    6.62    0.31
   2   3   3    6.57    0.27
   2   3   3    6.22    0.38
  -2  -3   3    6.71    0.39
   2   3   3    6.47    0.59
  -2  -3   3    7.01    0.43
   2   3   3    6.55    0.42
   2   3  -4   88.42    1.91
   2   3  -4   87.52    1.82
   2  -3   4   87.46    1.98
   2  -3   4   88.52    1.92
   2  -3   4   87.33    1.81
  -2  -3  -4   87.85    1.86
   2  -3   4   88.97    1.92
  -2   3   4   88.70    1.97
  -2   3   4   84.36    1.67
   2   3  -4   85.88    2.03
  -2  -3   4   89.44    1.94
   2  -3  -4   86.39    1.66
   2   3   4   88.16    1.98
   2  -3  -4   87.06    1.94
  -2  -3   4   88.53    1.85
   2  -3  -4   87.99    2.10
  -2  -3   4   84.31    2.03
   2   3   4   90.38    1.92
   2   3  -5    4.40    0.54
  -2   3   5    2.82    0.49
   2  -3   5    3.59    0.38
   2  -3   5    3.19    0.42
  -2   3   5    3.40    0.42
   2  -3   5    3.80    0.44
   2  -3   5    2.40    0.45
   2   3  -5    3.53    0.45
  -2  -3  -5    3.86    0.45
   2   3  -5    2.86    0.35
  -2  -3   5    4.15    0.52
   2  -3  -5    3.53    0.50
  -2  -3   5    3.42    0.40
   2   3   5    3.04    0.41
   2   3   5    3.29    0.40
  -2  -3   5    3.78    0.49
   2  -3  -5    2.92    0.42
  -2   3   6   20.74    0.99
  -2  -3  -6   20.53    0.88
   2  -3   6   19.90    1.12
   2  -3   6   20.24    0.72
   2   3  -6   20.58    0.73
   2  -3   6   19.17    0.91
   2  -3   6   20.55    0.69
   2   3  -6   19.34    1.03
   2  -3  -6   18.08    1.03
  -2  -3   6   20.44    0.97
   2   3   6   20.04    0.95
  -2  -3   6   17.19    0.84
   2   3   6   20.08    0.95
  -3   3   0   59.78    1.39
   3  -3   0   59.25    1.37
  -3  -3   0   60.13    1.37
  -3  -3   0   59.62    1.29
   3   3   0   59.27    1.29
  -3   3   0   58.28    1.33
   3   3   0   57.78    1.37
   3  -3   0   59.37    1.29
   3  -3   0   59.26    1.29
  -3   3   0   58.44    1.29
  -3  -3   0   59.03    1.14
   3   3   0   58.60    1.13
   3  -3   1  297.83    5.52
  -3   3   1  310.32    5.69
  -3   3   1  302.27    5.54
   3  -3   1  297.71    5.54
   3   3  -1  307.39    5.47
   3   3  -1  299.82    5.58
  -3  -3  -1  305.02    5.59
   3  -3   1  297.03    5.55
   3   3  -1  297.04    5.53
  -3   3   1  285.47    5.50
  -3  -3  -1  302.15    5.51
   3   3   1  306.46    5.50
  -3  -3   1  299.96    5.59
   3  -3  -1  292.73    5.51
   3   3   1  301.94    5.59
   3  -3  -1  294.92    5.52
   3  -3  -1  300.08    5.65
  -3   3  -1  295.57    5.56
  -3   3  -1  297.64    5.54
  -3  -3   1  308.95    5.60
   3  -3   2   33.12    0.89
  -3  -3  -2   34.87    0.86
   3  -3   2   35.07    0.90
  -3   3   2   34.37    0.92
   3   3  -2   35.67    0.92
   3  -3   2   35.04    0.89
   3   3  -2   35.44    0.91
  -3   3   2   34.90    1.06
  -3   3   2   33.59    0.84
   3   3  -2   34.93    0.90
   3  -3  -2   35.19    0.90
   3   3   2   33.98    0.94
  -3  -3   2   34.94    0.91
   3  -3  -2   34.41    1.03
   3   3   2   34.71    0.84
  -3  -3   2   34.65    0.90
   3  -3  -2   34.56    0.89
  -3  -3   2   34.27    0.94
   3   3  -3  230.56    4.45
  -3   3   3  226.23    4.57
   3  -3   3  228.04    4.37
  -3  -3  -3  230.01    4.26
  -3   3   3  226.79    4.25
   3  -3   3  232.99    4.33
  -3  -3  -3  233.69    4.18
  -3   3   3  231.30    4.40
   3   3  -3  222.46    4.37
   3  -3   3  233.52    4.33
   3   3  -3  228.70    4.34
   3  -3   3  232.89    4.38
   3  -3   3  227.52    4.36
   3   3   3  226.12    4.21
   3   3   3  233.89    4.23
  -3  -3   3  213.65    4.45
   3  -3  -3  228.74    4.38
  -3  -3   3  231.17    4.44
  -3  -3   3  228.16    4.40
   3  -3  -3  226.71    4.29
   3  -3  -3  229.70    4.54
   3   3   3  235.18    4.44
  -3   3   4   25.48    1.06
  -3   3   4   25.85    0.70
   3  -3   4   27.15    0.80
   3  -3   4   27.33    0.87
   3  -3   4   26.59    0.87
   3   3  -4   27.43    0.81
  -3   3   4   26.33    0.93
   3  -3   4   27.83    0.89
   3  -3   4   26.88    0.80
  -3  -3  -4   27.26    0.74
   3   3  -4   26.17    0.88
   3  -3   4   26.60    0.85
   3   3  -4   26.53    1.02
   3  -3  -4   26.37    0.72
  -3  -3   4   27.28    1.01
  -3  -3   4   26.97    0.92
   3   3   4   27.42    0.95
   3  -3  -4   26.49    0.88
   3   3   4   27.10    0.97
  -3  -3   4   26.41    0.82
   3  -3  -4   27.30    1.05
   3   3   4   26.54    0.67
   3   3   4   25.71    0.78
  -3   3   5  116.31    2.58
   3  -3   5  111.89    2.50
   3   3  -5  113.62    2.52
   3  -3   5  114.37    2.51
   3  -3   5  118.01    2.39
   3   3  -5  112.76    2.65
   3   3  -5  111.78    2.34
  -3   3   5  114.25    2.18
  -3   3   5  105.31    2.73
  -3  -3  -5  115.96    2.36
   3  -3   5  110.92    2.33
   3  -3   5  117.66    2.53
   3  -3  -5  114.53    2.73
   3   3   5  107.94    2.58
   3   3   5  111.70    2.40
   3  -3  -5  106.99    2.51
   3  -3  -5  113.29    2.17
  -3  -3   5  113.93    2.54
  -3  -3   5  108.55    2.66
   3   3   5  114.65    2.59
  -3  -3   5  111.06    2.38
  -3   3   6   10.28    0.88
   3   3  -6   11.87    0.90
   3  -3   6   10.88    0.66
   3  -3   6   11.14    0.59
   3  -3   6    9.69    0.77
   3   3  -6   10.15    0.73
   3  -3   6    9.93    0.80
   3   3   6   10.38    0.83
  -3  -3   6   11.64    0.85
   3   3   6    8.22    0.76
   3  -3  -6   11.12    0.93
  -3  -3   6   10.05    0.69
   4  -3   0  165.19    3.22
   4  -3   0  161.74    3.21
   4  -3   0  163.14    3.25
  -4   3   0  158.82    3.20
   4   3   0  163.68    3.21
   4   3   0  167.79    3.32
  -4   3   0  162.78    3.29
  -4  -3   0  162.70    3.21
  -4   3   0  162.14    3.28
  -4  -3   0  164.80    3.30
   4   3   0  162.74    2.98
  -4  -3   0  164.69    3.02
  -4  -3  -1    9.80    0.49
  -4   3   1   10.01    0.59
   4   3  -1    9.84    0.59
  -4  -3  -1    8.97    0.54
   4   3  -1    9.21    0.39
  -4   3   1    9.67    0.57
   4  -3   1    9.62    0.49
   4  -3   1    9.95    0.54
   4  -3   1   10.31    0.52
  -4   3   1    9.15    0.46
   4   3  -1   10.10    0.53
  -4   3  -1    9.60    0.49
  -4  -3   1    9.66    0.59
   4   3   1    9.35    0.48
  -4  -3   1    9.46    0.42
   4  -3  -1    9.30    0.48
  -4   3  -1    9.44    0.55
   4  -3  -1    9.39    0.57
   4   3   1    8.51    0.67
   4  -3  -1   10.23    0.52
  -4   3   2  186.95    3.67
   4   3  -2  189.76    3.73
   4  -3   2  193.29    3.71
  -4   3   2  189.71    3.75
   4  -3   2  189.87    3.68
  -4  -3  -2  187.51    3.79
   4   3  -2  188.13    3.68
   4   3  -2  193.86    3.78
  -4  -3  -2  197.30    3.70
  -4   3   2  188.98    3.89
   4  -3   2  187.70    3.74
  -4  -3   2  187.27    3.78
  -4   3  -2  192.35    3.75
   4  -3  -2  194.79    3.73
  -4  -3   2  191.33    3.72
   4   3   2  185.32    3.78
  -4  -3   2  193.31    3.70
   4   3   2  192.76    3.68
   4  -3  -2  187.67    3.83
   4  -3  -2  192.79    3.72
   4   3  -3    7.67    0.52
   4  -3   3    7.40    0.48
  -4   3   3    8.33    0.46
  -4   3   3    8.63    0.75
   4  -3   3    7.45    0.54
   4  -3   3    7.43    0.47
  -4  -3  -3    7.56    0.48
   4  -3   3    7.50    0.49
   4   3  -3    8.13    0.56
  -4   3   3    8.40    0.60
   4  -3   3    8.57    0.49
   4   3  -3    7.42    0.53
   4  -3  -3    7.57    0.54
   4   3   3    7.43    0.59
   4  -3  -3    8.12    0.66
  -4  -3   3    7.32    0.52
  -4  -3   3    7.86    0.60
  -4  -3   3    7.78    0.62
   4   3   3    8.16    0.47
   4  -3  -3    8.08    0.52
   4  -3   4   87.95    1.94
   4  -3   4   84.40    1.95
   4   3  -4   87.20    2.11
   4   3  -4   87.19    1.96
  -4   3   4   88.37    1.90
   4  -3   4   88.56    2.05
  -4   3   4   84.85    2.27
  -4   3   4   88.97    2.08
   4  -3   4   86.80    1.93
   4  -3   4   85.33    2.07
   4  -3   4   88.63    1.97
   4   3  -4   88.18    2.05
   4  -3  -4   88.76    1.91
   4  -3  -4   87.81    2.04
  -4  -3   4   87.90    1.98
   4   3   4   87.86    2.11
  -4  -3   4   89.90    2.08
   4   3   4   89.22    1.83
   4   3   4   86.40    1.78
   4   3   4   87.05    2.09
   4  -3  -4   87.03    2.21
  -4  -3   4   88.07    2.14
   4  -3   5    3.94    0.47
   4  -3   5    3.94    0.50
   4  -3   5    3.91    0.54
   4  -3   5    3.00    0.41
  -4   3   5    4.19    0.43
   4  -3   5    3.19    0.61
   4   3  -5    4.26    0.49
   4   3  -5    3.43    0.51
  -4   3   5    3.36    0.51
   4  -3   5    3.40    0.45
   4  -3  -5    3.79    0.45
   4   3   5    4.15    0.48
  -4  -3   5    3.40    0.41
   4   3   5    3.88    0.38
   4   3   5    3.43    0.49
   4   3   5    3.68    0.34
  -4  -3   5    3.18    0.48
   4  -3  -5    3.87    0.56
   4   3  -6   57.61    1.96
   4   3  -6   61.71    1.55
  -4   3   6   60.28    2.01
   4  -3   6   58.17    1.71
   4  -3   6   61.77    1.71
   4  -3   6   59.13    1.77
   4  -3   6   60.77    1.54
   4   3   6   60.65    1.99
  -4  -3   6   60.93    1.73
  -4  -3   6   60.19    1.85
   5  -3   0    0.94    0.28
   5  -3   0    0.36    0.27
   5   3   0    0.39    0.26
   5   3   0    0.59    0.13
  -5   3   0    0.42    0.28
  -5   3   0    0.65    0.32
  -5  -3   0    0.58    0.18
   5   3   0    0.76    0.36
   5  -3   0    0.90    0.27
  -5   3   0    0.44    0.21
  -5  -3   0    0.82    0.31
  -5  -3   0    0.79    0.28
   5   3  -1   32.41    1.03
   5  -3   1   33.36    1.06
   5   3  -1   34.25    1.13
   5   3  -1   32.42    0.84
  -5   3   1   30.35    1.29
  -5   3   1   32.12    0.98
  -5   3   1   33.01    1.09
   5  -3   1   32.80    0.99
  -5  -3  -1   34.37    1.06
  -5  -3  -1   32.23    1.08
   5  -3   1   33.91    1.00
   5   3   1   33.09    0.99
  -5   3  -1   31.51    1.08
  -5  -3   1   34.07    0.91
  -5  -3   1   33.45    1.12
  -5  -3   1   31.50    1.00
   5   3   1   32.27    1.13
   5  -3  -1   32.52    1.04
  -5   3  -1   32.46    0.97
   5  -3  -1   33.94    1.03
   5  -3  -1   32.87    1.01
   5   3  -2    5.26    0.42
   5   3  -2    5.08    0.60
  -5  -3  -2    5.30    0.53
   5  -3   2    4.74    0.49
   5  -3   2    4.99    0.56
  -5   3   2    5.83    0.47
   5  -3   2    5.72    0.49
  -5  -3  -2    5.41    0.67
   5   3  -2    5.67    0.54
  -5   3   2    5.08    0.70
  -5   3   2    4.53    0.58
   5  -3  -2    5.41    0.53
  -5  -3   2    4.69    0.60
   5   3   2    5.28    0.62
  -5  -3   2    4.61    0.61
   5   3   2    5.94    0.49
   5  -3  -2    5.39    0.59
  -5   3  -2    5.64    0.55
   5  -3  -2    5.93    0.53
  -5  -3   2    5.60    0.52
   5  -3   3   24.34    0.78
   5   3  -3   24.36    0.89
   5  -3   3   24.38    0.83
  -5   3   3   22.99    0.94
  -5  -3  -3   24.60    0.89
   5   3  -3   24.03    0.97
   5  -3   3   23.64    0.94
  -5   3   3   23.40    1.09
  -5   3   3   23.94    0.82
   5   3  -3   22.83    0.86
   5  -3  -3   23.80    0.98
   5  -3  -3   24.35    0.90
   5   3   3   25.72    0.99
   5   3   3   23.77    0.80
   5  -3  -3   24.37    0.90
  -5  -3   3   23.35    0.88
  -5  -3   3   25.42    0.98
  -5  -3   3   24.70    0.96
   5  -3   4    0.41    0.33
   5  -3   4   -0.03    0.24
   5   3  -4   -0.03    0.36
   5   3  -4    0.07    0.27
   5  -3   4   -0.01    0.32
  -5   3   4    0.35    0.34
  -5   3   4    0.01    0.49
   5  -3   4   -0.42    0.27
   5   3  -4    0.02    0.28
   5  -3   4    0.80    0.27
   5  -3  -4    0.56    0.37
   5   3   4    0.21    0.26
   5   3   4    0.41    0.36
   5  -3  -4    0.27    0.31
  -5  -3   4    1.11    0.45
   5  -3  -4    0.17    0.33
  -5  -3   4    1.03    0.38
  -5  -3   4   -0.34    0.30
   5   3  -5   15.74    0.82
   5  -3   5   15.41    0.77
   5  -3   5   15.41    0.74
   5  -3   5   14.53    0.90
   5  -3   5   16.19    0.82
  -5   3   5   13.99    0.70
  -5   3   5   15.48    0.98
   5   3  -5   14.24    0.93
   5  -3   5   15.60    0.77
   5   3   5   15.10    0.65
   5  -3  -5   14.56    1.02
   5   3   5   16.10    0.98
  -5  -3   5   14.49    0.84
   5  -3  -5   15.61    0.78
   5   3   5   15.01    0.65
  -5  -3   5   15.72    0.98
   6  -3   0   71.53    1.67
  -6  -3   0   72.88    1.75
  -6   3   0   65.83    1.96
   6  -3   0   69.43    1.72
   6  -3   0   69.09    1.75
  -6   3   0   61.33    2.30
   6   3   0   69.47    1.72
   6   3   0   72.12    1.84
  -6  -3   0   66.13    2.09
  -6   3   0   68.46    1.72
   6  -3   1    8.16    0.57
  -6   3   1    8.35    0.75
  -6   3   1    8.27    0.72
   6   3  -1    9.13    0.75
  -6  -3  -1    7.89    0.64
   6  -3   1    8.22    0.59
   6  -3   1    8.68    0.67
  -6   3   1    7.60    0.56
  -6  -3  -1    7.93    0.63
   6   3  -1    7.68    0.41
   6   3  -1    8.25    0.62
  -6  -3   1    7.85    0.68
   6  -3  -1    7.52    0.57
   6  -3  -1    7.69    0.63
   6  -3  -1    7.93    0.61
  -6   3  -1    8.91    0.58
   6   3   1    9.63    0.75
   6   3   1    7.70    0.59
  -6  -3   1    8.27    0.52
  -6  -3   1    7.54    0.62
   6  -3   2   92.67    2.00
   6   3  -2   89.01    2.14
   6  -3   2   88.73    2.16
  -6   3   2   90.32    2.09
  -6   3   2   90.82    2.30
  -6   3   2   88.43    2.19
   6   3  -2   90.33    1.98
  -6  -3  -2   90.05    2.22
   6   3  -2   89.51    2.23
  -6  -3  -2   87.35    2.11
   6  -3   2   89.40    2.10
  -6  -3   2   93.85    2.08
  -6  -3   2   90.91    2.24
   6  -3  -2   84.50    2.38
   6   3   2   89.65    2.06
  -6  -3   2   91.71    2.13
  -6   3  -2   87.47    2.19
   6   3   2   87.50    2.21
   6  -3  -2   90.65    2.14
   6  -3  -2   85.35    2.10
  -6  -3  -3    7.35    0.77
  -6   3   3    6.46    0.96
  -6   3   3    7.44    0.59
   6  -3   3    7.61    0.59
   6   3  -3    8.05    0.58
   6  -3   3    6.97    0.71
   6  -3   3    6.06    0.56
   6   3  -3    5.52    0.62
  -6   3   3    7.62    0.75
   6   3  -3    7.40    0.78
   6  -3   3    7.34    0.61
  -6  -3   3    8.43    0.80
   6  -3  -3    6.44    0.67
   6  -3  -3    5.51    0.65
   6   3   3    7.34    0.58
  -6  -3   3    6.94    0.77
  -6  -3   3    6.32    0.67
   6   3   3    7.78    0.81
   6  -3  -3    6.85    0.68
   6  -3   4   37.86    1.26
   6  -3   4   42.38    1.30
   6   3  -4   41.90    1.35
   6  -3   4   42.52    1.15
  -6   3   4   42.80    1.45
   6   3  -4   41.04    1.33
   6  -3   4   44.31    1.23
  -6   3   4   40.39    1.23
   6  -3  -4   42.59    1.48
  -6  -3   4   39.56    1.63
  -6  -3   4   42.22    1.47
   6   3   4   42.38    1.23
   6  -3  -4   38.80    1.31
   7   3   0   21.47    1.08
  -7   3   0   22.66    1.02
  -7  -3   0   21.90    0.98
   7   3   0   20.82    0.96
   7  -3   0   20.94    0.83
   7  -3   0   22.57    0.95
  -7  -3   0   20.45    1.04
   7  -3   0   22.11    0.99
  -7   3   0   21.94    1.03
  -7   3   0   20.75    0.93
   7   3  -1    1.38    0.41
   7   3  -1    3.26    0.37
  -7  -3  -1    3.20    0.51
   7  -3   1    2.41    0.44
   7  -3   1    2.83    0.38
  -7  -3  -1    2.22    0.47
   7   3  -1    2.20    0.47
  -7   3   1    1.97    0.54
  -7   3   1    2.67    0.48
  -7   3   1    2.66    0.45
   7  -3   1    2.51    0.42
  -7  -3   1    2.73    0.40
   7   3   1    2.88    0.45
   7  -3  -1    1.78    0.44
   7   3   1    2.95    0.59
  -7  -3   1    3.52    0.53
   7  -3  -1    2.53    0.44
   7  -3  -1    2.38    0.44
  -7   3  -1    2.87    0.42
  -7  -3   1    1.98    0.48
  -7   3  -1    3.58    0.54
   7   3  -2   15.59    0.90
  -7  -3  -2   15.73    0.99
   7  -3   2   16.08    0.86
  -7   3   2   14.48    0.89
   7   3  -2   17.22    0.70
   7  -3   2   16.80    0.95
  -7   3   2   16.76    1.00
   7  -3   2   17.05    0.75
  -7   3   2   14.99    1.16
  -7  -3  -2   16.09    0.94
   7  -3  -2   17.56    0.84
   7  -3  -2   16.07    0.90
   7   3   2   17.98    1.05
  -7  -3   2   17.67    1.01
  -7   3  -2   16.82    0.98
  -7  -3   2   17.59    0.99
   7   3  -3    2.69    0.39
   7  -3   3    3.03    0.45
   7  -3   3    2.56    0.38
   7   3  -3    2.18    0.46
  -7   3   3    3.02    0.55
   7  -3   3    2.43    0.43
  -7  -3  -3    2.29    0.61
   7   3   3    2.45    0.42
  -7  -3   3    2.20    0.54
   7  -3  -3    2.71    0.50
  -7  -3   3    2.55    0.64
   7  -3  -3    2.71    0.47
   7  -3   4   12.08    0.88
   7   3  -4   13.20    0.87
   7   3  -4   11.20    0.94
  -7   3   4   14.61    1.51
  -7  -3   4   15.75    1.36
   7  -3  -4   13.80    1.02
   7  -3  -4   10.87    0.96
   7   3   4   13.35    0.82
  -8  -3   0   18.58    1.05
   8  -3   0   15.20    0.93
   8  -3   0   16.17    0.90
  -8   3   0   15.68    1.05
  -8   3   0   15.55    1.06
   8   3   0   15.30    0.95
   8  -3   1    0.54    0.43
   8   3  -1    1.19    0.47
   8   3  -1    2.22    0.28
  -8   3   1    0.98    0.60
   8  -3   1    1.50    0.34
  -8  -3  -1    2.08    0.50
  -8   3   1    1.40    0.51
   8   3   1    1.50    0.47
  -8   3  -1    2.23    0.48
   8  -3  -1    2.09    0.38
  -8   3  -1    0.69    0.44
   8  -3  -1    1.57    0.47
  -8  -3   1    1.73    0.55
  -8   3   2    3.71    0.83
  -8   3   2    5.08    0.70
   8  -3   2    4.06    0.59
   8   3  -2    4.28    0.62
   8  -3   2    4.80    0.56
  -8  -3  -2    2.88    0.61
  -8  -3   2    4.00    0.66
   8  -3  -2    4.02    0.52
  -8   3  -2    5.53    0.71
   8  -3  -2    3.85    0.60
   8   3   2    5.02    0.59
   0  -4   0   68.04    1.31
   0  -4   0   68.98    1.41
   0   4   0   67.01    1.22
   0   4   0   67.33    1.38
   0   4   0   65.53    1.23
   0   4   0   68.82    1.31
   0   4   1    0.03    0.14
   0   4   1   -0.06    0.07
   0   4  -1    0.01    0.10
   0   4  -1    0.05    0.05
   0   4   1    0.06    0.08
   0  -4  -1    0.30    0.17
   0  -4  -1    0.00    0.07
   0  -4   1    0.14    0.11
   0  -4   1   -0.02    0.11
   0  -4   1    0.08    0.06
   0  -4   2  215.65    4.15
   0   4   2  223.06    4.07
   0  -4  -2  222.32    4.16
   0  -4  -2  224.49    4.07
   0  -4   2  217.78    4.06
   0  -4   2  213.77    4.00
   0   4  -2  215.78    4.00
   0   4  -2  220.36    4.06
   0   4   2  231.93    4.20
   0  -4  -3    0.11    0.14
   0  -4  -3    0.08    0.19
   0   4  -3    0.27    0.14
   0   4   3    0.48    0.22
   0  -4   3   -0.12    0.17
   0   4  -3    0.13    0.12
   0   4   3   -0.22    0.13
   0  -4   3   -0.04    0.14
   0  -4   3   -0.01    0.13
   0   4   4   51.81    1.29
   0  -4   4   50.33    1.16
   0   4   4   50.23    1.38
   0   4  -4   49.44    1.22
   0   4  -4   49.78    1.15
   0  -4  -4   50.49    1.32
   0  -4   4   50.39    1.21
   0  -4  -4   50.86    1.26
   0  -4   4   49.28    1.36
   0   4  -5    0.24    0.26
   0  -4   5    0.11    0.20
   0  -4  -5    0.31    0.28
   0   4  -5    0.37    0.20
   0   4   5    0.15    0.26
   0   4   5    0.00    0.34
   0  -4   5   -0.18    0.29
   0  -4  -6   51.54    1.56
   0   4   6   49.00    1.62
   0  -4   6   53.52    1.49
   0   4   6   53.43    1.55
   0  -4   6   55.13    1.31
  -1   4   0  229.75    4.14
  -1  -4   0  237.57    4.23
   1  -4   0  225.35    4.11
   1  -4   0  232.25    4.20
   1   4   0  229.80    4.21
  -1  -4   0  235.31    4.18
   1  -4   0  229.35    4.33
   1   4   0  233.09    4.20
  -1  -4   0  232.00    4.20
  -1  -4  -1    2.05    0.26
   1   4  -1    2.10    0.17
  -1   4   1    2.03    0.17
  -1   4   1    2.31    0.32
  -1  -4  -1    2.14    0.18
   1   4  -1    1.82    0.20
   1  -4   1    1.94    0.24
   1  -4   1    2.00    0.14
   1   4   1    1.87    0.16
  -1  -4   1    1.85    0.21
  -1  -4   1    2.20    0.20
  -1   4  -1    1.81    0.19
   1  -4  -1    1.85    0.16
   1   4   1    2.20    0.23
  -1  -4   1    1.94    0.26
   1  -4  -1    2.27    0.16
   1   4   1    2.26    0.21
   1  -4  -1    1.82    0.26
  -1  -4  -2  151.15    2.87
   1   4  -2  150.52    2.95
   1  -4   2  152.53    2.80
  -1  -4  -2  150.04    2.75
  -1   4   2  157.76    3.05
   1  -4   2  152.60    2.86
   1   4  -2  147.24    3.02
   1  -4   2  154.90    2.96
   1   4  -2  145.57    2.86
  -1   4   2  153.09    2.87
   1   4   2  153.44    2.88
  -1   4  -2  150.28    2.86
  -1  -4   2  150.21    2.87
  -1  -4   2  149.16    2.83
   1  -4  -2  152.93    2.86
  -1  -4   2  152.09    2.94
   1   4   2  150.46    2.73
   1   4   2  150.91    2.91
   1  -4  -2  149.77    2.74
   1  -4  -2  154.78    3.03
   1  -4  -2  152.69    2.77
  -1   4   3    0.49    0.27
   1  -4   3    0.76    0.17
  -1   4   3    0.06    0.16
   1  -4   3    0.39    0.14
   1  -4   3    0.28    0.19
   1   4  -3    0.25    0.15
  -1  -4  -3    0.31    0.17
   1   4  -3    0.30    0.19
   1   4  -3    0.52    0.14
   1  -4  -3    0.22    0.14
   1   4   3    0.32    0.21
   1   4   3    0.21    0.16
  -1  -4   3    0.44    0.25
   1  -4  -3   -0.04    0.22
  -1  -4   3    0.38    0.16
  -1   4  -3    0.21    0.15
  -1  -4   3    0.34    0.17
  -1  -4  -4  116.73    2.42
   1  -4   4  116.67    2.32
  -1   4   4  118.50    2.45
   1  -4   4  116.07    2.53
   1   4  -4  117.09    2.38
   1  -4   4  116.53    2.37
   1   4  -4  115.20    2.32
  -1   4   4  112.13    2.60
  -1  -4   4  115.91    2.34
   1   4   4  118.07    2.46
  -1  -4   4  116.23    2.40
   1   4   4  116.00    2.52
   1  -4  -4  118.59    2.43
  -1  -4   4  115.03    2.54
   1  -4  -4  115.76    2.56
   1   4  -5    1.48    0.24
   1   4  -5    1.16    0.33
   1  -4   5    1.30    0.34
  -1   4   5    1.13    0.32
  -1  -4  -5    0.98    0.29
   1  -4   5    1.11    0.24
   1   4  -5    1.01    0.31
  -1   4   5    0.92    0.37
  -1  -4   5    1.18    0.30
   1   4   5    1.32    0.30
   1  -4  -5    0.55    0.27
  -1  -4   5    1.56    0.26
   1   4   5    1.20    0.37
   1  -4  -5    0.95    0.32
  -1  -4   5    0.66    0.36
   1   4  -6   52.21    1.76
   1  -4   6   49.91    1.27
   1  -4   6   53.27    1.45
  -1   4   6   49.53    1.51
   1   4  -6   48.86    1.60
  -1  -4  -6   52.22    1.48
   1   4  -6   50.26    1.24
   1   4   6   49.81    1.51
  -1  -4   6   51.21    1.28
  -1  -4   6   51.13    1.46
   1  -4  -6   51.11    1.60
   1   4   6   47.78    1.54
  -2  -4   0   17.07    0.41
  -2   4   0   16.44    0.49
   2  -4   0   16.34    0.60
   2   4   0   16.95    0.49
   2  -4   0   17.05    0.45
  -2  -4   0   17.05    0.52
  -2   4   0   16.05    0.60
   2   4   0   17.40    0.57
  -2  -4   0   16.84    0.43
   2  -4   0   16.81    0.49
  -2  -4   0   17.07    0.49
  -2   4   1   14.18    0.44
   2  -4   1   13.82    0.43
   2   4  -1   13.13    0.57
   2  -4   1   14.30    0.52
   2   4  -1   13.79    0.46
   2  -4   1   15.12    0.47
  -2  -4  -1   14.24    0.38
  -2   4   1   13.99    0.60
  -2  -4  -1   15.04    0.61
  -2  -4  -1   14.21    0.47
   2   4   1   14.53    0.49
   2  -4  -1   14.36    0.59
  -2   4  -1   14.17    0.51
  -2   4  -1   14.22    0.41
   2   4   1   14.51    0.43
   2   4   1   13.96    0.34
  -2  -4   1   13.90    0.49
  -2  -4   1   14.59    0.47
   2  -4  -1   14.59    0.44
  -2  -4   1   13.81    0.60
  -2   4   2    3.69    0.31
  -2  -4  -2    3.49    0.22
   2  -4   2    3.40    0.32
   2   4  -2    3.54    0.27
   2  -4   2    3.95    0.27
  -2  -4  -2    3.44    0.24
  -2   4   2    3.58    0.45
   2   4  -2    3.45    0.29
   2  -4   2    3.31    0.28
   2   4  -2    3.51    0.32
   2   4   2    3.65    0.31
   2  -4  -2    3.77    0.27
  -2  -4   2    3.40    0.31
   2  -4  -2    3.24    0.43
   2   4   2    3.35    0.23
  -2  -4   2    3.55    0.30
   2   4   2    4.13    0.28
   2  -4  -2    3.49    0.27
  -2  -4   2    3.37    0.31
   2   4  -3    6.07    0.37
  -2   4   3    6.08    0.43
  -2  -4  -3    6.33    0.27
   2  -4   3    5.99    0.36
   2  -4   3    6.79    0.37
   2   4  -3    6.16    0.47
   2  -4   3    6.56    0.43
  -2   4   3    6.40    0.59
   2  -4   3    6.89    0.40
  -2  -4  -3    6.72    0.35
   2   4  -3    5.81    0.37
   2  -4   3    6.09    0.45
   2  -4  -3    6.18    0.33
   2   4   3    6.10    0.41
   2   4   3    5.96    0.42
  -2  -4   3    5.81    0.46
  -2  -4   3    6.31    0.40
   2  -4  -3    5.86    0.56
  -2  -4   3    6.37    0.42
   2   4   3    6.31    0.26
   2   4   3    6.43    0.44
   2  -4  -3    5.82    0.46
   2  -4   4    6.92    0.47
   2   4  -4    6.08    0.60
  -2   4   4    6.18    0.68
  -2  -4  -4    6.52    0.44
   2   4  -4    6.38    0.41
  -2   4   4    6.30    0.53
   2   4  -4    6.55    0.47
   2  -4   4    5.27    0.53
   2  -4   4    6.07    0.50
   2  -4   4    6.62    0.45
   2  -4  -4    5.69    0.47
   2   4   4    6.57    0.53
  -2  -4   4    5.96    0.45
   2  -4  -4    6.02    0.63
  -2  -4   4    6.82    0.59
   2   4   4    5.99    0.56
   2   4   4    6.74    0.51
  -2  -4   4    6.98    0.51
  -2  -4  -5    4.48    0.48
   2   4  -5    3.72    0.56
   2  -4   5    4.75    0.59
   2  -4   5    4.21    0.54
   2  -4   5    3.26    0.47
  -2   4   5    3.47    0.57
   2  -4   5    4.02    0.40
  -2   4   5    3.75    0.45
   2   4  -5    4.13    0.45
   2   4  -5    5.00    0.41
  -2  -4   5    3.28    0.37
  -2  -4   5    4.03    0.54
   2   4   5    4.30    0.56
   2  -4  -5    4.04    0.50
   2   4   5    3.84    0.53
  -2  -4   5    2.90    0.46
   2  -4  -5    3.46    0.40
   2  -4   6    2.48    0.34
   2  -4   6    1.28    0.32
   2   4  -6    1.93    0.44
  -2   4   6    1.86    0.44
   2  -4   6    1.70    0.39
  -2  -4  -6    1.89    0.38
   2  -4  -6    1.91    0.44
  -2  -4   6    1.68    0.35
   2   4   6    1.21    0.43
   2   4   6    1.56    0.41
  -2  -4   6    1.28    0.41
   3  -4   0  173.56    3.38
   3  -4   0  170.16    3.25
  -3  -4   0  165.49    3.09
   3  -4   0  171.51    3.22
  -3   4   0  168.36    3.39
   3   4   0  168.08    3.25
  -3   4   0  164.19    3.27
  -3  -4   0  177.30    3.26
  -3  -4   0  171.05    3.31
   3   4   0  169.06    3.34
   3   4  -1  127.07    2.58
  -3  -4  -1  130.67    2.58
  -3   4   1  124.60    2.70
   3  -4   1  130.17    2.54
  -3   4   1  129.61    2.54
   3   4  -1  131.38    2.47
  -3  -4  -1  130.60    2.51
   3  -4   1  126.02    2.59
   3  -4   1  125.66    2.52
   3   4  -1  130.62    2.55
   3   4   1  127.82    2.50
   3   4   1  125.52    2.59
  -3  -4   1  128.00    2.60
   3  -4  -1  126.66    2.49
   3  -4  -1  128.17    2.53
   3  -4  -1  129.50    2.70
  -3  -4   1  130.24    2.46
  -3   4  -1  126.74    2.61
  -3   4  -1  127.76    2.52
   3   4  -2  191.91    3.65
   3  -4   2  185.63    3.58
  -3   4   2  184.13    3.52
  -3   4   2  188.52    3.60
   3  -4   2  186.33    3.64
   3   4  -2  187.31    3.60
   3  -4   2  186.73    3.57
  -3   4   2  174.19    3.96
   3  -4   2  191.02    3.59
  -3  -4  -2  190.12    3.55
   3   4  -2  188.78    3.61
  -3  -4   2  190.51    3.60
   3  -4  -2  182.91    3.76
   3   4   2  182.00    3.63
   3   4   2  189.10    3.51
  -3  -4   2  186.66    3.62
   3  -4  -2  191.79    3.58
  -3  -4   2  187.77    3.59
   3  -4  -2  187.98    3.57
   3   4  -3   94.00    2.05
   3  -4   3   84.33    2.14
  -3   4   3   88.03    2.19
  -3   4   3   91.70    2.00
   3  -4   3   92.15    1.94
   3  -4   3   92.33    1.93
   3  -4   3   89.71    1.93
  -3  -4  -3   96.16    1.77
  -3  -4  -3   91.39    1.85
  -3   4   3   89.88    1.84
   3   4  -3   91.73    1.96
   3  -4   3   92.97    2.00
   3   4  -3   90.85    1.95
   3  -4   3   90.43    1.94
   3   4   3   93.00    1.81
   3   4   3   91.77    2.03
   3  -4  -3   92.15    1.89
  -3  -4   3   90.89    1.95
   3   4   3   89.92    1.81
  -3  -4   3   92.81    2.00
   3  -4  -3   90.56    2.16
  -3  -4   3   90.19    2.03
   3  -4  -3   92.39    1.97
   3  -4   4   85.99    1.95
   3   4  -4   83.87    1.92
   3  -4   4   84.39    1.85
   3   4  -4   86.65    2.05
  -3   4   4   85.58    1.98
  -3  -4  -4   87.25    1.76
   3  -4   4   85.53    1.90
   3  -4   4   86.44    1.86
   3  -4   4   89.43    1.93
   3  -4   4   84.89    1.96
   3   4  -4   85.00    1.86
  -3  -4   4   85.71    1.89
  -3  -4   4   85.75    1.96
   3   4   4   86.08    1.66
   3  -4  -4   84.20    1.93
   3  -4  -4   85.89    1.74
  -3  -4   4   82.53    2.02
   3   4   4   85.55    1.99
   3   4   4   82.67    1.98
   3  -4  -4   84.08    2.14
   3   4   4   80.53    2.00
   3   4  -5   50.47    1.53
   3  -4   5   49.49    1.36
   3   4  -5   50.10    1.42
   3  -4   5   49.38    1.39
   3  -4   5   48.95    1.37
   3  -4   5   49.00    1.26
  -3   4   5   50.85    1.46
  -3  -4  -5   50.19    1.24
  -3   4   5   46.29    1.67
   3  -4   5   49.00    1.41
   3  -4   5   48.36    1.24
   3   4   5   51.34    1.61
  -3  -4   5   48.23    1.29
  -3  -4   5   48.76    1.41
   3  -4  -5   48.18    1.40
   3  -4  -5   48.77    1.58
  -3  -4   5   46.01    1.53
   3   4   5   47.87    1.31
   3   4   5   50.63    1.46
   3  -4   6   52.57    1.55
   3   4  -6   52.79    1.75
  -3   4   6   51.63    1.66
   3  -4   6   52.49    1.57
   3  -4   6   55.56    1.42
  -3  -4  -6   57.19    1.47
   3  -4   6   53.14    1.36
   3   4  -6   53.76    1.39
  -3  -4   6   52.65    1.42
   3  -4  -6   52.28    1.79
  -3  -4   6   54.85    1.65
   3   4   6   49.63    1.52
   3   4   6   51.59    1.64
   4   4   0   69.17    1.67
  -4   4   0   69.31    1.67
   4  -4   0   66.97    1.54
   4   4   0   68.39    1.56
  -4  -4   0   69.15    1.63
   4  -4   0   70.09    1.65
   4  -4   0   69.54    1.54
  -4  -4   0   69.22    1.34
  -4   4   0   66.60    1.61
  -4  -4   0   66.59    1.66
  -4  -4  -1    5.20    0.48
   4   4  -1    5.02    0.52
  -4   4   1    5.13    0.50
   4   4  -1    5.40    0.46
   4   4  -1    5.18    0.33
   4  -4   1    5.24    0.49
   4  -4   1    5.44    0.41
  -4   4   1    6.00    0.59
  -4  -4  -1    5.81    0.41
  -4   4   1    5.37    0.38
   4  -4   1    5.21    0.46
  -4  -4   1    5.69    0.36
  -4   4  -1    5.51    0.48
   4  -4  -1    5.84    0.42
  -4  -4   1    5.02    0.52
   4   4   1    4.92    0.43
   4   4   1    6.22    0.63
   4  -4  -1    5.27    0.56
  -4   4  -1    5.09    0.44
   4  -4  -1    5.36    0.44
  -4  -4   1    5.46    0.43
  -4  -4  -2   16.10    0.70
   4   4  -2   15.84    0.61
   4   4  -2   16.00    0.71
   4  -4   2   16.16    0.64
   4   4  -2   15.99    0.67
  -4   4   2   15.58    0.70
  -4   4   2   15.12    0.84
   4  -4   2   15.60    0.67
  -4   4   2   15.70    0.59
  -4  -4  -2   16.61    0.63
   4  -4   2   16.00    0.66
  -4  -4   2   17.39    0.67
  -4   4  -2   16.11    0.66
   4   4   2   16.18    0.74
   4  -4  -2   16.44    0.63
   4  -4  -2   16.48    0.80
   4   4   2   16.72    0.62
   4  -4  -2   16.56    0.67
  -4  -4   2   16.04    0.74
  -4  -4   2   15.48    0.63
   4   4  -3    5.10    0.47
   4   4  -3    4.59    0.47
  -4   4   3    5.41    0.70
   4  -4   3    4.76    0.46
   4  -4   3    5.18    0.46
  -4   4   3    5.45    0.55
   4  -4   3    5.13    0.46
  -4   4   3    4.78    0.39
   4  -4   3    5.19    0.49
   4   4  -3    5.91    0.52
  -4  -4  -3    4.57    0.44
   4  -4   3    4.94    0.45
  -4  -4   3    5.26    0.56
   4  -4  -3    5.95    0.73
   4   4   3    5.76    0.43
   4  -4  -3    5.56    0.46
  -4  -4   3    5.49    0.48
   4   4   3    4.22    0.56
   4  -4  -3    5.17    0.49
  -4  -4   3    5.55    0.56
   4   4  -4   28.77    1.02
   4  -4   4   29.65    0.94
  -4   4   4   30.41    0.84
   4   4  -4   29.94    0.96
  -4   4   4   29.96    1.05
  -4   4   4   28.45    1.25
   4  -4   4   30.25    0.98
   4   4  -4   30.33    1.06
   4  -4   4   30.18    1.01
   4  -4   4   28.94    0.96
   4  -4   4   29.17    0.96
   4   4   4   30.26    0.81
  -4  -4   4   30.84    1.05
   4  -4  -4   29.20    0.90
   4   4   4   30.97    1.07
  -4  -4   4   28.76    1.11
  -4  -4   4   28.75    0.96
   4  -4  -4   29.17    0.99
   4  -4  -4   29.43    1.19
   4   4   4   30.19    1.11
   4  -4   5    2.81    0.44
   4  -4   5    2.73    0.40
   4  -4   5    3.38    0.43
   4  -4   5    4.36    0.59
   4   4  -5    1.73    0.43
   4  -4   5    2.41    0.44
  -4   4   5    2.94    0.48
   4   4  -5    2.87    0.38
   4   4   5    1.94    0.30
   4   4   5    2.26    0.30
   4  -4  -5    1.74    0.46
  -4  -4   5    3.08    0.50
   4   4   5    2.95    0.45
   4  -4  -5    2.86    0.33
   4   4   5    3.09    0.33
  -4  -4   5    1.64    0.37
   4  -4   6    5.27    0.80
   4  -4   6    5.55    0.79
  -4  -4   6    5.92    0.72
   5  -4   0   61.89    1.55
  -5  -4   0   63.04    1.50
   5  -4   0   61.52    1.50
   5  -4   0   58.64    1.48
  -5   4   0   58.60    1.57
  -5   4   0   53.94    1.73
   5   4   0   59.88    1.49
  -5  -4   0   59.98    1.57
   5   4   0   61.30    1.62
  -5  -4  -1   37.00    1.15
   5  -4   1   35.87    1.07
   5  -4   1   35.54    1.09
   5  -4   1   38.73    1.11
  -5   4   1   36.83    1.16
  -5   4   1   37.22    1.24
   5   4  -1   36.17    1.10
   5   4  -1   36.28    0.90
   5   4  -1   35.81    1.19
  -5   4   1   36.49    1.05
  -5  -4  -1   35.55    1.07
  -5  -4   1   37.02    1.19
   5  -4  -1   37.66    1.07
   5   4   1   35.59    1.21
  -5  -4   1   36.78    0.94
  -5  -4   1   36.32    1.08
  -5   4  -1   34.11    1.13
   5   4   1   35.58    1.06
   5  -4  -1   35.78    1.08
   5  -4  -1   35.85    1.15
  -5   4  -1   35.68    1.09
  -5   4   2   51.46    1.42
  -5  -4  -2   53.31    1.37
  -5  -4  -2   51.53    1.53
  -5   4   2   53.09    1.33
   5   4  -2   52.00    1.46
  -5   4   2   51.07    1.59
   5  -4   2   53.66    1.36
   5   4  -2   51.39    1.27
   5  -4   2   46.35    1.49
   5   4  -2   49.67    1.63
   5  -4   2   53.62    1.41
  -5  -4   2   52.42    1.48
  -5  -4   2   53.15    1.38
   5  -4  -2   51.51    1.37
   5   4   2   51.73    1.48
   5  -4  -2   49.69    1.46
  -5   4  -2   52.96    1.40
  -5  -4   2   50.06    1.43
   5   4   2   51.30    1.30
   5  -4  -2   55.12    1.37
  -5   4   3   23.22    1.15
  -5  -4  -3   24.88    0.89
   5   4  -3   23.49    0.87
   5  -4   3   24.94    0.87
   5  -4   3   24.73    0.89
   5  -4   3   24.80    0.87
  -5   4   3   24.85    0.97
   5  -4   3   25.04    0.94
   5  -4   3   24.13    0.82
   5   4  -3   24.23    0.99
  -5   4   3   23.79    0.82
   5   4  -3   23.37    0.90
  -5  -4   3   24.65    0.91
   5  -4  -3   23.73    1.02
   5  -4  -3   26.15    0.92
   5  -4  -3   23.40    0.90
  -5  -4   3   23.85    0.99
  -5  -4   3   24.58    0.97
   5   4   3   24.31    1.01
   5   4   3   24.36    0.81
   5  -4   4   32.84    1.08
   5  -4   4   32.57    1.11
   5   4  -4   33.26    1.15
   5  -4   4   35.27    1.09
   5  -4   4   33.64    1.06
  -5   4   4   31.85    1.19
   5  -4   4   35.18    1.17
  -5   4   4   34.56    1.65
   5  -4   4   34.57    1.11
   5   4  -4   31.59    1.22
  -5   4   4   34.40    1.00
   5   4  -4   35.27    1.12
  -5  -4   4   34.72    1.22
   5  -4  -4   34.04    1.19
   5  -4  -4   34.08    1.11
  -5  -4   4   33.54    1.11
  -5  -4   4   33.90    1.30
   5  -4  -4   35.12    1.35
   5   4   4   35.50    0.98
   5  -4   5   20.15    0.88
   5  -4   5   17.31    0.87
   5  -4   5   18.24    0.95
  -5   4   5   19.88    0.76
   5   4  -5   20.98    1.07
  -5   4   5   19.20    1.08
   5  -4   5   18.88    0.90
   5  -4   5   19.68    0.88
   5   4  -5   20.08    0.91
   5  -4  -5   19.72    0.87
   5   4   5   17.78    1.05
   5  -4  -5   19.85    1.16
  -5  -4   5   19.05    1.08
  -5  -4   5   18.68    1.05
   5   4   5   20.12    0.71
  -6   4   0   36.76    1.23
  -6  -4   0   37.00    1.24
  -6   4   0   33.37    1.40
   6   4   0   38.21    1.29
   6  -4   0   38.09    1.15
   6   4   0   36.92    1.14
   6  -4   0   33.90    1.13
  -6  -4   0   36.54    1.17
   6  -4   0   34.85    1.13
  -6  -4  -1   12.18    0.73
   6   4  -1   11.02    0.68
  -6   4   1   11.93    0.88
  -6  -4  -1   11.76    0.73
   6  -4   1   11.22    0.72
  -6   4   1   11.54    0.66
   6  -4   1   10.75    0.65
   6   4  -1   10.00    0.79
   6  -4   1   11.51    0.66
  -6   4   1   11.75    0.79
   6   4  -1   12.17    0.48
   6   4   1   11.85    0.68
  -6  -4   1   11.74    0.57
  -6  -4   1   13.14    0.72
   6  -4  -1   10.83    0.70
   6   4   1   10.70    0.82
   6  -4  -1   12.44    0.68
  -6   4  -1   10.88    0.99
   6  -4  -1   10.83    0.68
  -6   4  -1   12.73    0.71
  -6  -4   1   12.10    0.78
   6   4  -2   12.62    0.74
   6   4  -2   10.82    0.84
   6  -4   2   11.59    0.75
  -6   4   2   13.93    0.82
  -6   4   2   13.20    0.69
  -6   4   2   13.55    0.98
   6  -4   2   13.91    0.72
  -6  -4  -2   11.61    0.78
  -6  -4  -2   12.27    0.79
   6  -4   2   13.40    0.68
   6   4  -2   13.41    0.59
   6   4   2   13.48    0.89
   6   4   2   11.82    0.67
  -6  -4   2   12.09    0.74
  -6   4  -2   13.81    0.91
  -6  -4   2   12.33    0.72
   6  -4  -2   13.78    0.73
   6  -4  -2   13.09    0.78
  -6  -4   2   12.44    0.81
   6  -4  -2   12.88    0.74
  -6   4   3    8.43    0.78
   6   4  -3    9.88    0.88
  -6   4   3    9.34    0.63
   6   4  -3    9.58    0.70
   6   4  -3    8.81    0.61
   6  -4   3    8.71    0.56
   6  -4   3    9.80    0.75
   6  -4   3    8.94    0.65
   6  -4   3    8.46    0.65
  -6   4   3    7.68    1.04
  -6  -4  -3    8.95    0.82
  -6  -4   3    9.40    0.71
   6  -4  -3    8.43    0.74
   6   4   3    9.02    0.63
   6  -4  -3   10.03    0.74
  -6  -4   3    8.28    0.81
  -6  -4   3    8.94    0.81
   6  -4  -3    8.52    0.69
   6   4  -4   19.48    0.94
   6  -4   4   20.24    0.82
  -6   4   4   19.88    0.86
   6  -4   4   18.47    0.89
  -6   4   4   20.03    1.07
   6  -4   4   20.77    1.05
   6   4  -4   17.27    0.92
  -6  -4   4   19.24    1.07
   6  -4  -4   20.68    1.10
   6   4   4   19.72    0.83
  -6  -4   4   20.78    1.76
   6  -4  -4   20.40    0.97
   7   4   0   17.50    1.05
   7   4   0   17.43    0.88
  -7  -4   0   16.93    0.91
  -7  -4   0   17.88    0.98
  -7   4   0   16.48    1.01
  -7   4   0   18.41    0.96
   7  -4   0   16.56    0.86
   7  -4   0   15.89    0.78
   7  -4   0   15.46    0.89
  -7   4   1   90.76    2.30
   7   4  -1   89.81    1.84
  -7   4   1   86.54    2.32
  -7  -4  -1   83.73    2.18
  -7   4   1   86.80    2.33
   7  -4   1   86.20    2.17
   7  -4   1   88.41    2.16
  -7  -4  -1   88.65    2.28
   7   4  -1   86.71    2.18
   7  -4   1   90.57    2.07
  -7  -4   1   88.94    2.30
  -7   4  -1   88.51    2.27
  -7  -4   1   86.39    1.95
   7  -4  -1   86.61    2.17
   7  -4  -1   88.62    2.13
   7   4   1   90.82    2.15
   7  -4  -1   88.09    2.17
  -7   4  -1   89.55    2.14
  -7  -4  -2    7.61    0.90
  -7   4   2    7.71    1.13
  -7   4   2    9.40    0.86
  -7  -4  -2    8.79    0.81
   7   4  -2    9.96    0.58
   7   4  -2    9.77    0.76
   7  -4   2    8.74    0.72
   7  -4   2    7.80    0.77
   7  -4   2    8.47    0.67
  -7  -4   2    7.81    0.86
   7   4   2    9.26    0.70
   7  -4  -2    8.22    0.75
  -7  -4   2   10.59    0.88
   7  -4  -2    9.22    0.74
  -7   4  -2    8.96    0.81
   7  -4   3   68.93    1.67
   7  -4   3   71.32    1.77
  -7  -4  -3   68.80    1.98
  -7   4   3   70.25    2.03
   7  -4   3   72.86    1.89
   7   4  -3   71.72    1.78
   7   4  -3   68.39    1.93
  -7  -4   3   69.64    2.07
   7  -4  -3   70.68    1.97
   7   4   3   68.43    1.79
  -7  -4   3   67.28    1.97
   7  -4  -3   69.22    1.92
  -8   4   0   16.65    1.08
   8  -4   0   16.94    0.84
   8   4   0   17.85    1.00
  -8   4   0   17.40    1.11
  -8  -4   0   18.42    1.12
   8  -4   0   15.66    0.95
  -8   4   1    5.76    0.78
  -8  -4  -1    6.84    0.90
   8   4  -1    5.83    0.80
   8   4  -1    7.68    0.57
  -8   4   1    6.72    0.89
   8  -4   1    5.76    0.76
   8   4   1    7.58    0.79
  -8   4  -1    7.31    0.87
  -8  -4   1    5.30    0.69
   8  -4  -1    6.00    0.67
  -8   4  -1    6.94    0.87
   8  -4  -1    6.44    0.79
   8   4  -2   11.80    0.67
   8  -4   2   11.65    0.95
   8  -4   2   10.04    0.76
  -8   4   2   11.37    1.09
   8   4  -2    9.40    0.95
  -8  -4  -2   11.18    1.06
   8  -4  -2    9.82    0.93
  -8   4  -2   10.76    1.01
   8   4   2   10.74    0.87
  -8  -4   2   10.77    1.08
   8  -4  -2   10.22    0.82
   0   5   0   -0.03    0.09
   0   5   0    0.06    0.05
   0  -5   0    0.00    0.15
   0  -5   0    0.11    0.15
   0   5   0   -0.05    0.06
   0   5   0    0.06    0.22
   0  -5  -1   12.44    0.53
   0  -5   1   12.67    0.40
   0   5  -1   12.41    0.40
   0   5   1   13.06    0.51
   0   5   1   12.47    0.35
   0   5   1   12.19    0.34
   0  -5  -1   12.57    0.34
   0   5  -1   12.66    0.27
   0   5   2    0.48    0.21
   0   5   2    0.09    0.12
   0  -5  -2   -0.06    0.18
   0  -5  -2    0.13    0.07
   0  -5  -2   -0.04    0.10
   0  -5   2    0.13    0.09
   0   5  -2   -0.02    0.12
   0   5  -2    0.18    0.08
   0  -5   2    0.12    0.12
   0  -5   2   -0.17    0.14
   0  -5   3    7.42    0.49
   0   5  -3    7.76    0.35
   0  -5   3    7.55    0.39
   0  -5  -3    7.95    0.40
   0  -5   3    7.90    0.37
   0   5   3    7.93    0.55
   0   5  -3    7.98    0.39
   0  -5  -3    7.60    0.53
   0   5   3    8.02    0.42
   0  -5   4   -0.07    0.20
   0  -5  -4    0.03    0.24
   0   5   4    0.29    0.23
   0  -5   4   -0.23    0.25
   0   5   4   -0.02    0.31
   0   5  -4    0.06    0.17
   0  -5   4    0.10    0.19
   0   5  -5    1.32    0.25
   0  -5   5    0.71    0.32
   0  -5   5    0.81    0.36
   0  -5   5    1.46    0.26
   0   5   5    0.62    0.29
   0   5   5    0.17    0.37
   0  -5  -5    1.20    0.44
   0  -5   6    0.07    0.29
   0   5   6   -0.48    0.53
   0  -5  -6    0.59    0.37
   0  -5   6    0.44    0.31
   0   5   6   -0.31    0.34
  -1   5   0   26.05    0.62
   1   5   0   24.32    0.61
   1  -5   0   24.80    0.75
  -1  -5   0   26.41    0.67
   1   5   0   25.37    0.61
  -1   5   0   24.86    0.54
   1  -5   0   25.50    0.62
  -1  -5   0   25.25    0.57
   1  -5   0   25.53    0.50
  -1  -5   0   25.75    0.62
  -1   5   0   24.78    0.74
  -1  -5  -1   40.15    0.96
   1  -5   1   39.80    0.89
   1  -5   1   39.00    0.98
  -1  -5  -1   41.38    0.85
   1   5  -1   39.74    0.84
  -1   5   1   39.68    0.83
   1   5  -1   40.10    0.90
   1  -5   1   37.91    0.77
  -1   5   1   38.06    1.04
   1  -5   1   38.11    0.77
   1  -5  -1   38.00    1.06
  -1   5  -1   40.56    0.90
   1   5   1   42.37    0.92
   1  -5  -1   40.10    0.84
  -1  -5   1   39.13    0.90
   1   5   1   39.48    0.87
   1  -5  -1   39.85    0.82
   1   5   1   40.18    0.83
  -1  -5   1   38.89    0.92
  -1  -5   1   38.60    0.84
  -1  -5  -2  100.01    1.86
   1  -5   2   98.67    1.87
   1  -5   2   98.36    2.07
  -1   5   2   99.38    2.17
  -1   5   2  100.98    1.96
   1   5  -2   97.13    1.98
   1  -5   2   99.06    1.98
  -1  -5  -2   98.75    2.00
   1   5  -2   98.30    1.98
   1  -5  -2   98.18    2.15
  -1  -5   2  100.20    2.05
   1   5   2  101.43    2.05
   1   5   2  102.24    1.98
  -1  -5   2  100.06    1.99
   1  -5  -2   98.56    1.88
  -1   5  -2   97.64    1.98
   1  -5  -2   99.49    1.85
   1   5   2  100.32    1.84
   1  -5  -2   99.24    1.95
  -1  -5   2   98.28    1.92
   1  -5   3   21.96    0.65
  -1  -5  -3   22.45    0.70
   1   5  -3   21.24    0.65
   1  -5   3   21.34    0.76
  -1   5   3   19.44    1.27
   1   5  -3   21.66    0.62
  -1   5   3   21.80    0.69
   1  -5   3   22.51    0.61
   1   5   3   22.80    0.78
  -1  -5   3   21.31    0.65
  -1  -5   3   21.71    0.67
  -1  -5   3   21.88    0.76
   1   5   3   22.58    0.70
  -1   5  -3   21.70    0.66
   1  -5  -3   23.00    0.67
   1  -5  -3   21.96    0.84
   1   5  -4   18.12    0.65
  -1   5   4   18.41    0.90
  -1   5   4   18.47    0.73
   1  -5   4   19.02    0.80
  -1  -5  -4   17.64    0.71
   1   5  -4   18.24    0.63
   1  -5   4   18.41    0.64
   1  -5   4   18.47    0.64
   1   5   4   18.14    0.72
   1   5   4   14.85    1.23
  -1  -5   4   18.37    0.66
   1  -5  -4   17.25    0.83
  -1  -5   4   18.81    0.83
   1  -5  -4   18.82    0.74
  -1  -5   4   18.00    0.65
   1  -5   5   10.77    0.70
  -1   5   5   11.28    0.69
   1  -5   5   12.15    0.80
  -1   5   5    9.56    0.83
  -1  -5  -5   11.33    0.65
   1  -5   5   10.67    0.54
   1   5  -5   12.21    0.55
   1   5  -5   11.50    0.67
  -1  -5   5   11.08    0.78
   1  -5  -5   12.25    0.77
  -1  -5   5   11.14    0.58
   1   5   5   11.42    0.74
   1   5   5   11.88    0.68
  -1  -5   5   11.65    0.63
   1  -5  -5   11.63    0.65
  -1  -5  -6   24.77    1.00
   1  -5   6   21.74    0.93
   1   5  -6   24.88    0.82
   1  -5   6   23.41    0.82
  -1   5   6   23.35    1.05
   1   5  -6   23.55    1.17
   1   5   6   22.01    1.12
  -1  -5   6   21.82    0.84
   1  -5  -6   23.02    1.09
   1   5   6   23.29    1.05
  -1  -5   6   22.63    0.96
  -2  -5   0   62.90    1.25
  -2  -5   0   62.01    1.28
  -2  -5   0   63.47    1.33
   2  -5   0   62.33    1.32
   2  -5   0   62.02    1.48
  -2   5   0   61.90    1.48
  -2   5   0   60.69    1.29
   2  -5   0   63.42    1.23
  -2  -5   0   64.59    1.33
   2   5   0   64.29    1.32
   2   5  -1   48.21    1.09
   2   5  -1   48.68    1.09
   2  -5   1   46.75    1.02
  -2  -5  -1   48.35    1.05
   2  -5   1   47.75    1.20
  -2  -5  -1   47.38    1.03
  -2   5   1   49.45    1.05
  -2   5   1   46.79    1.27
   2  -5   1   49.90    1.10
   2   5   1   50.23    1.12
   2   5   1   49.31    1.04
  -2   5  -1   48.11    1.18
  -2  -5   1   51.30    1.11
  -2   5  -1   47.30    0.99
  -2  -5   1   47.56    1.10
  -2  -5   1   48.39    1.07
   2  -5  -1   48.25    1.10
   2  -5  -1   47.65    1.28
   2   5   1   48.62    0.98
   2  -5  -1   48.01    1.06
   2  -5   2   32.21    0.73
   2  -5   2   31.16    0.88
   2   5  -2   32.42    0.83
  -2  -5  -2   32.37    0.75
   2  -5   2   31.37    0.96
  -2  -5  -2   31.27    0.73
  -2   5   2   30.57    1.02
  -2   5   2   31.90    0.81
   2   5  -2   31.52    0.78
   2  -5   2   31.32    0.82
   2   5   2   32.25    0.72
   2  -5  -2   32.44    0.78
   2  -5  -2   29.38    0.76
  -2  -5   2   31.54    0.83
   2   5   2   30.75    0.77
   2   5   2   31.56    0.84
  -2  -5   2   31.74    0.85
  -2  -5   2   30.42    0.81
   2  -5  -2   31.75    1.02
  -2  -5  -3   27.26    0.65
   2  -5   3   27.82    0.75
   2   5  -3   26.66    0.79
  -2   5   3   27.62    1.04
  -2   5   3   28.90    0.83
   2  -5   3   26.79    0.89
   2   5  -3   27.55    0.76
  -2  -5  -3   27.86    0.73
   2  -5   3   27.96    0.88
   2   5  -3   25.61    0.87
   2  -5   3   27.80    0.74
  -2  -5   3   27.43    0.83
  -2  -5   3   28.23    0.82
   2   5   3   28.35    0.81
   2  -5  -3   25.92    0.99
   2   5   3   27.58    0.61
   2   5   3   28.16    0.85
  -2  -5   3   26.73    0.88
   2   5   3   28.32    0.84
   2  -5  -3   27.62    0.79
   2  -5  -3   26.52    0.69
   2   5  -4   30.94    0.90
   2  -5   4   31.39    0.89
  -2   5   4   28.90    1.12
   2   5  -4   29.88    1.05
  -2   5   4   30.92    1.18
   2  -5   4   30.89    1.02
   2  -5   4   31.44    0.88
   2   5  -4   30.85    0.88
   2  -5   4   30.95    0.89
  -2  -5  -4   31.47    0.87
  -2  -5   4   30.74    1.04
   2   5   4   30.88    1.00
   2   5   4   29.08    1.10
  -2  -5   4   30.58    0.90
   2   5   4   30.87    0.94
   2  -5  -4   29.70    0.92
   2  -5  -4   30.61    1.28
  -2  -5   4   31.22    0.93
  -2  -5  -5   16.23    0.70
   2   5  -5   15.71    0.77
   2  -5   5   16.41    0.72
   2   5  -5   16.51    0.67
  -2   5   5   16.64    0.81
   2  -5   5   16.93    0.86
   2  -5   5   16.30    0.66
   2   5  -5   16.56    0.87
  -2   5   5   16.62    1.02
   2  -5   5   14.59    0.73
  -2  -5   5   17.55    0.91
   2   5   5   17.82    0.82
  -2  -5   5   16.39    0.77
  -2  -5   5   15.65    0.69
   2  -5  -5   16.04    0.76
   2  -5  -5   17.47    0.93
   2   5   5   15.34    0.81
   2   5   5   16.93    0.87
   2  -5   6   11.34    0.67
   2   5  -6   11.18    0.92
   2  -5   6   12.64    0.65
  -2   5   6   11.71    0.89
   2   5  -6   11.40    0.66
   2  -5   6   10.33    0.74
  -2  -5  -6   11.63    0.75
   2  -5   6   11.61    0.91
  -2  -5   6   12.00    0.83
  -2  -5   6    9.95    0.68
   2   5   6    9.04    0.88
   2   5   6   11.48    0.83
   2  -5  -6   11.30    0.92
  -3  -5   0   28.48    0.82
  -3  -5   0   28.11    0.63
  -3   5   0   28.02    0.79
   3  -5   0   28.11    0.72
  -3   5   0   27.32    0.92
   3  -5   0   27.80    0.91
   3  -5   0   27.23    0.77
   3   5   0   27.55    0.85
  -3  -5   0   28.75    0.77
   3   5   0   27.52    0.77
  -3  -5   0   28.48    0.66
   3  -5   1   -0.05    0.14
  -3   5   1    0.15    0.19
  -3   5   1    0.06    0.25
   3   5  -1    0.36    0.19
  -3  -5  -1    0.44    0.19
   3  -5   1    0.34    0.16
  -3  -5  -1    0.27    0.16
   3  -5   1    0.40    0.21
   3  -5   1    0.75    0.19
   3   5   1    0.74    0.23
  -3  -5   1    0.13    0.20
  -3  -5   1    0.37    0.19
   3   5   1    0.39    0.18
  -3   5  -1    0.16    0.19
  -3  -5   1    0.32    0.14
   3  -5  -1    0.20    0.17
  -3   5  -1    0.12    0.16
   3  -5  -1    0.49    0.16
   3  -5  -1    0.12    0.25
   3   5  -2   42.92    1.08
   3  -5   2   42.70    1.07
  -3   5   2   42.67    1.08
  -3  -5  -2   43.41    1.16
   3  -5   2   42.96    1.14
   3   5  -2   43.52    1.07
   3   5  -2   42.06    1.08
  -3   5   2   44.02    1.31
   3  -5   2   41.67    1.09
   3  -5   2   42.70    1.04
   3  -5  -2   41.12    1.04
  -3  -5   2   43.00    1.07
  -3  -5   2   41.63    1.08
   3  -5  -2   39.97    1.26
   3  -5  -2   43.64    1.04
  -3  -5   2   41.59    1.11
   3   5   2   42.32    0.99
   3   5  -3    0.57    0.23
  -3  -5  -3    0.06    0.12
  -3   5   3   -0.07    0.33
   3  -5   3   -0.03    0.17
   3  -5   3    0.20    0.24
  -3  -5  -3    0.32    0.20
  -3   5   3    0.14    0.25
   3   5  -3   -0.16    0.21
   3  -5   3    0.15    0.20
   3   5  -3    0.05    0.21
   3  -5   3   -0.12    0.19
   3  -5   3    0.20    0.22
   3  -5   3   -0.07    0.21
   3  -5  -3    0.32    0.21
  -3  -5   3    0.38    0.24
   3   5   3    0.09    0.17
   3  -5  -3    0.28    0.23
  -3  -5   3    0.07    0.24
   3   5   3    0.29    0.18
   3  -5  -3   -0.04    0.32
   3   5   3    0.10    0.25
  -3  -5   3    0.42    0.27
  -3   5   4   15.02    0.95
   3  -5   4   15.52    0.63
  -3  -5  -4   16.55    0.55
  -3   5   4   16.03    0.75
   3  -5   4   14.12    0.73
   3  -5   4   15.31    0.64
   3  -5   4   16.48    0.68
   3  -5   4   16.67    0.66
   3   5  -4   15.67    0.76
   3  -5   4   15.41    0.73
   3   5  -4   15.46    0.71
   3   5  -4   15.03    0.64
  -3  -5   4   16.18    0.73
   3   5   4   16.15    0.79
   3  -5  -4   15.38    0.88
   3  -5  -4   15.43    0.70
   3   5   4   16.16    0.75
  -3  -5   4   15.73    0.68
   3   5   4   15.57    0.44
   3  -5  -4   14.97    0.56
   3   5   4   15.18    0.61
  -3  -5   4   15.67    0.80
   3  -5   5    0.38    0.28
   3  -5   5    0.29    0.27
   3  -5   5    0.39    0.30
   3  -5   5   -0.34    0.33
   3  -5   5    0.60    0.32
   3   5  -5    0.67    0.27
   3   5  -5   -0.48    0.29
   3   5  -5    0.48    0.38
  -3  -5  -5    0.49    0.26
  -3   5   5    0.26    0.33
   3  -5   5   -0.24    0.26
   3  -5  -5    0.33    0.36
   3  -5  -5    0.59    0.40
  -3  -5   5    0.53    0.32
   3   5   5    0.47    0.33
  -3  -5   5    0.08    0.31
   3   5   5   -0.27    0.30
   3  -5   6   11.41    0.82
   3  -5   6   12.90    0.90
   3   5  -6   12.08    0.72
   3  -5   6   13.99    0.74
   3   5  -6   12.15    1.03
   3  -5   6   11.52    0.71
  -3   5   6   11.94    0.98
  -3  -5  -6   14.46    0.79
  -3  -5   6    9.12    0.78
   3   5   6   12.39    0.96
  -3  -5   6   12.19    0.92
   3  -5  -6   12.66    1.05
   4   5   0  121.20    2.54
  -4  -5   0  129.03    2.56
  -4  -5   0  125.12    2.32
  -4   5   0  122.50    2.59
  -4  -5   0  125.35    2.62
  -4  -5   0  125.39    2.33
   4  -5   0  121.83    2.54
   4   5   0  120.12    2.80
   4  -5   0  126.30    2.69
   4  -5   0  128.20    2.51
  -4   5   0  122.95    2.71
  -4   5   1   48.92    1.27
   4   5  -1   49.64    1.25
   4  -5   1   48.41    1.22
   4  -5   1   48.95    1.32
   4  -5   1   48.23    1.21
  -4   5   1   50.81    1.44
  -4  -5  -1   48.25    1.23
  -4  -5  -1   48.74    1.28
  -4  -5   1   49.23    1.23
  -4  -5   1   48.00    1.10
  -4   5  -1   48.13    1.29
  -4  -5   1   48.21    1.31
  -4   5  -1   49.07    1.32
   4  -5  -1   48.11    1.39
   4   5   1   47.51    1.33
   4  -5  -1   49.25    1.23
   4   5   1   49.20    1.21
   4  -5  -1   49.74    1.19
   4   5  -2  117.35    2.38
  -4   5   2  114.87    2.43
   4  -5   2  114.03    2.42
   4  -5   2  116.61    2.47
   4   5  -2  116.53    2.47
  -4   5   2  117.02    2.68
   4  -5   2  114.54    2.40
  -4  -5  -2  114.65    2.37
   4  -5   2  112.92    2.40
   4   5  -2  110.84    2.41
   4  -5  -2  112.29    2.60
  -4  -5   2  116.49    2.43
   4  -5  -2  114.80    2.37
   4  -5  -2  112.80    2.40
  -4  -5   2  112.85    2.48
   4   5   2  114.07    2.50
   4   5   2  116.35    2.34
  -4  -5   2  114.88    2.36
   4  -5   3   38.08    1.11
   4   5  -3   36.67    1.29
   4  -5   3   37.64    1.07
  -4   5   3   37.61    1.13
   4  -5   3   37.59    1.07
   4   5  -3   39.50    1.12
   4  -5   3   35.44    1.09
   4  -5   3   38.04    1.07
  -4   5   3   37.56    1.37
  -4  -5  -3   38.38    1.03
   4   5  -3   37.84    1.11
   4  -5  -3   37.52    1.07
   4   5   3   38.92    0.97
   4  -5  -3   37.65    1.30
  -4  -5   3   37.10    1.10
  -4  -5   3   37.91    1.15
  -4  -5   3   37.33    1.12
   4   5   3   37.40    1.18
   4  -5  -3   36.96    1.06
   4  -5   4   66.69    1.59
   4   5  -4   65.51    1.61
   4   5  -4   67.49    1.73
  -4   5   4   65.03    1.70
  -4   5   4   63.52    1.96
   4  -5   4   66.41    1.63
   4   5  -4   62.19    1.65
   4  -5   4   63.69    1.65
   4  -5   4   63.51    1.58
   4  -5   4   62.92    1.62
  -4  -5   4   64.14    1.74
   4  -5  -4   65.31    1.87
   4   5   4   63.35    1.75
   4  -5  -4   64.28    1.53
  -4  -5   4   63.63    1.68
   4  -5  -4   64.66    1.63
   4   5   4   67.87    1.41
   4   5   4   67.44    1.73
  -4  -5   4   64.34    1.63
   4  -5   5   16.67    0.85
   4   5  -5   17.56    0.78
   4  -5   5   16.06    0.77
   4  -5   5   16.92    0.85
   4  -5   5   15.63    0.75
   4  -5   5   16.00    0.80
   4   5  -5   17.46    0.95
   4  -5   5   16.54    0.85
  -4   5   5   16.75    0.95
   4   5   5   16.76    0.85
  -4  -5   5   16.01    0.90
   4  -5  -5   16.51    1.05
  -4  -5   5   15.15    0.79
   4   5   5   17.03    0.91
   4  -5  -5   17.39    0.66
  -5   5   0  202.88    4.08
  -5   5   0  201.74    4.16
  -5  -5   0  204.84    4.11
   5  -5   0  205.63    4.11
   5   5   0  208.29    4.15
   5  -5   0  202.25    4.02
   5  -5   0  200.70    3.97
  -5  -5   0  196.77    4.00
   5   5   0  202.39    4.01
   5  -5   1   22.71    0.88
   5  -5   1   19.67    0.94
  -5  -5  -1   23.36    0.91
  -5   5   1   22.16    0.91
   5   5  -1   23.41    0.97
  -5  -5  -1   22.41    0.84
   5   5  -1   22.59    1.09
   5  -5   1   23.24    0.84
  -5   5   1   23.21    1.03
   5  -5  -1   24.17    0.83
  -5  -5   1   24.19    0.87
   5   5   1   22.74    0.99
  -5  -5   1   22.42    0.93
   5  -5  -1   23.82    0.86
  -5   5  -1   22.75    0.91
  -5   5  -1   22.26    0.88
  -5  -5   1   23.39    0.71
   5   5   1   22.27    0.82
   5  -5  -1   22.69    0.96
   5  -5   2  100.39    2.20
  -5   5   2   94.97    2.41
  -5  -5  -2   98.55    2.27
   5  -5   2   97.93    2.18
   5   5  -2   97.80    2.09
  -5  -5  -2   95.40    2.16
  -5   5   2   97.28    2.23
   5   5  -2   98.33    2.21
   5   5  -2   95.24    2.27
   5  -5   2   98.59    2.21
   5  -5  -2   96.98    2.19
  -5  -5   2   97.86    2.20
  -5   5  -2   95.85    2.18
   5   5   2   97.03    2.31
  -5  -5   2   93.65    2.51
   5  -5  -2  101.65    2.16
   5   5   2   96.36    2.10
  -5   5   3   17.90    0.86
   5  -5   3   17.79    0.77
   5  -5   3   17.64    0.78
   5  -5   3   17.49    0.77
  -5  -5  -3   17.14    0.80
   5  -5   3   18.68    0.84
   5   5  -3   17.74    0.89
   5   5  -3   17.53    0.78
  -5   5   3   17.34    0.70
   5  -5   3   17.63    0.78
   5   5  -3   17.91    0.80
  -5   5   3   17.40    1.10
   5   5   3   17.93    0.92
  -5  -5   3   17.68    0.87
   5  -5  -3   18.90    0.77
   5   5   3   17.63    0.69
   5  -5  -3   17.55    0.80
  -5  -5   3   18.76    0.89
   5  -5  -3   18.32    0.95
  -5  -5   3   17.61    0.80
   5   5  -4  108.69    2.50
   5  -5   4  103.54    2.40
   5  -5   4  102.22    2.38
   5   5  -4  102.48    2.50
  -5  -5  -4  106.78    2.32
   5  -5   4  109.30    2.44
   5  -5   4  104.02    2.38
  -5   5   4  104.67    2.50
   5  -5   4  107.19    2.39
   5  -5   4  105.58    2.42
   5   5  -4  108.62    2.59
   5   5   4  111.19    2.23
  -5  -5   4  101.64    2.53
   5  -5  -4  105.56    2.36
   5  -5  -4  104.49    2.67
  -5  -5   4  108.24    2.53
  -5  -5   4  103.35    2.41
   5  -5   5   11.05    0.79
   5   5  -5   10.73    0.89
   5  -5   5   11.15    0.82
   5  -5   5   11.49    0.81
   5   5  -5   10.27    0.76
  -5   5   5   10.40    0.95
   5  -5   5   10.67    0.76
   5  -5  -5    9.71    1.02
   5  -5  -5   11.02    0.74
  -5  -5   5   10.59    0.93
   5   5   5   11.46    0.96
   5   5   5   10.22    0.62
   6  -5   0   75.57    1.87
  -6  -5   0   76.87    1.88
   6  -5   0   77.59    1.91
  -6   5   0   74.77    1.98
  -6   5   0   74.19    2.01
   6   5   0   75.26    1.99
   6  -5   0   78.36    1.86
   6   5   0   75.55    1.87
  -6  -5   0   76.97    1.97
  -6   5   1   22.03    1.11
   6  -5   1   21.39    0.89
   6   5  -1   22.16    0.90
   6  -5   1   22.46    0.88
   6  -5   1   21.70    0.90
  -6  -5  -1   22.23    0.93
   6   5  -1   22.40    1.04
  -6   5   1   22.27    0.99
  -6  -5  -1   22.28    0.97
   6   5   1   23.23    1.05
   6  -5  -1   21.12    0.88
  -6   5  -1   20.95    0.96
   6  -5  -1   21.26    0.87
  -6   5  -1   21.22    0.97
  -6  -5   1   21.31    0.90
  -6  -5   1   21.76    0.97
  -6  -5   1   21.75    0.73
   6   5   1   20.85    0.85
   6   5  -2   71.08    1.98
   6  -5   2   76.85    1.86
  -6   5   2   75.27    1.82
   6  -5   2   75.18    1.88
  -6   5   2   74.73    1.94
  -6   5   2   74.12    2.13
   6  -5   2   75.04    1.86
  -6  -5  -2   74.89    1.88
   6   5  -2   73.74    1.70
  -6  -5  -2   74.68    1.96
   6   5  -2   73.10    1.88
  -6  -5   2   73.06    1.98
   6   5   2   68.38    1.97
   6   5   2   74.96    1.78
  -6  -5   2   74.38    1.77
  -6   5  -2   74.55    1.91
   6  -5  -2   72.50    1.94
  -6  -5   2   73.24    1.88
   6  -5  -2   74.75    1.84
   6  -5  -2   76.25    1.87
  -6   5   3   14.78    0.71
   6  -5   3   15.58    0.84
  -6   5   3   13.39    1.20
   6  -5   3   14.69    0.79
  -6   5   3   13.37    0.89
   6  -5   3   15.10    0.75
   6   5  -3   14.31    0.72
   6   5  -3   12.79    0.79
  -6  -5  -3   12.96    0.90
   6   5  -3   13.03    1.00
   6  -5   3   14.09    0.80
   6  -5   3   13.18    0.82
   6   5   3   13.75    0.69
   6  -5  -3   12.51    0.77
   6  -5  -3   16.40    0.94
  -6  -5   3   13.80    0.91
  -6  -5   3   14.56    0.94
   6  -5  -3   13.83    0.81
  -6  -5  -4   45.76    1.47
   6  -5   4   45.86    1.40
   6   5  -4   44.66    1.43
   6   5  -4   44.56    1.43
   6  -5   4   47.55    1.75
  -6   5   4   43.97    1.53
   6  -5   4   41.78    1.28
   6  -5   4   43.88    1.39
  -6  -5   4   44.81    1.57
   6  -5  -4   46.64    1.66
   6   5   4   47.42    1.30
   6  -5  -4   46.31    1.45
   7  -5   0    5.38    0.63
  -7   5   0    5.38    0.65
   7  -5   0    5.45    0.66
  -7   5   0    6.23    0.73
  -7  -5   0    6.11    0.75
   7   5   0    4.49    0.65
   7  -5   0    5.31    0.62
  -7  -5  -1   60.98    1.79
   7  -5   1   60.34    1.66
  -7   5   1   59.92    1.77
  -7  -5  -1   58.87    1.77
   7   5  -1   60.75    1.69
  -7   5   1   57.42    1.87
   7  -5   1   58.45    1.63
   7   5   1   60.66    1.64
  -7  -5   1   59.65    1.79
   7  -5  -1   58.11    1.64
  -7  -5   1   57.82    1.43
   7  -5  -1   58.72    1.67
  -7   5  -1   60.05    1.75
   7  -5  -1   60.17    1.67
  -7   5  -1   58.48    1.72
  -7   5   2    7.60    1.15
   7   5  -2    8.01    0.73
   7   5  -2    7.81    0.53
   7  -5   2    7.11    0.75
  -7  -5  -2    7.18    0.79
  -7   5   2    7.85    0.84
  -7  -5  -2    6.26    0.68
   7  -5   2    7.94    0.85
   7  -5   2    6.20    0.72
  -7   5  -2    7.53    0.80
   7  -5  -2    7.23    0.73
  -7  -5   2    6.19    0.62
   7   5   2    6.54    0.65
  -7  -5   2    6.74    0.83
   7  -5  -2    7.63    0.74
  -7   5   3   48.08    1.65
   7   5  -3   47.48    1.37
   7  -5   3   48.38    1.52
  -7  -5  -3   48.16    1.65
   7  -5   3   47.46    1.35
   7  -5   3   48.09    1.46
   7   5  -3   46.03    1.55
   7  -5  -3   45.96    1.52
   7   5   3   45.72    1.38
   7  -5  -3   46.42    1.58
  -7  -5   3   44.38    1.57
  -7  -5   3   48.46    1.67
   8  -5   0   18.81    1.03
   8   5   0   18.64    1.03
  -8  -5   0   19.24    1.15
  -8   5   0   19.18    1.15
  -8   5   0   16.98    1.18
   8  -5   0   19.76    0.92
  -8   5   1   84.02    2.30
   8  -5   1   81.49    2.01
   8   5  -1   79.79    2.18
   8  -5   1   76.70    2.13
  -8  -5  -1   78.35    2.27
  -8   5   1   74.60    2.36
  -8   5  -1   80.81    2.11
  -8  -5   1   81.50    2.29
   8  -5  -1   80.73    2.07
  -8   5  -1   81.35    2.24
   8  -5  -1   81.17    2.18
   8   5   1   80.94    2.12
   0  -6   0  358.70    6.59
   0  -6   0  349.71    6.44
   0   6   0  355.30    6.55
   0   6   0  364.41    6.45
   0   6   1    0.01    0.09
   0  -6  -1    0.03    0.16
   0  -6   1   -0.11    0.14
   0  -6   1   -0.05    0.13
   0   6  -1    0.01    0.11
   0  -6  -1    0.62    0.23
   0   6   1   -0.01    0.10
   0   6   1    0.05    0.17
   0   6   2  199.19    3.66
   0  -6  -2  204.41    3.87
   0  -6   2  191.82    3.57
   0  -6   2  198.36    3.71
   0   6  -2  197.99    3.71
   0   6  -2  191.89    3.56
   0  -6  -2  192.63    3.56
   0   6   2  204.69    3.87
   0  -6   2  186.71    3.79
   0  -6   2  197.07    3.81
   0   6   3    0.04    0.27
   0  -6   3   -0.09    0.21
   0  -6   3    0.21    0.15
   0  -6   3    0.04    0.23
   0  -6  -3    0.16    0.26
   0   6  -3   -0.07    0.12
   0   6   3    0.10    0.18
   0   6  -3    0.03    0.16
   0   6   4  181.05    3.78
   0  -6   4  177.96    3.49
   0  -6   4  182.53    3.74
   0  -6   4  180.55    3.54
   0   6   4  189.79    3.63
   0  -6  -4  186.85    3.71
   0   6  -4  173.86    3.51
   0   6  -4  181.19    3.52
   0   6   5    0.10    0.40
   0  -6   5   -0.07    0.37
   0   6  -5    0.18    0.24
   0  -6   5    0.01    0.25
   0  -6   5   -0.08    0.23
   0  -6  -5    0.00    0.31
   0   6   5    0.26    0.28
   0   6   6   72.94    1.93
   0  -6  -6   69.44    1.93
   0  -6   6   72.03    1.81
   0  -6   6   71.32    1.71
   1  -6   0   28.98    0.87
  -1  -6   0   28.23    0.62
  -1  -6   0   29.40    0.79
  -1   6   0   29.51    0.71
  -1  -6   0   28.58    0.70
   1  -6   0   29.17    0.70
   1   6   0   27.77    0.69
   1   6   0   29.18    0.70
   1   6   0   28.24    0.72
  -1   6   1   97.30    2.17
  -1  -6  -1  103.17    1.95
  -1   6   1  102.23    1.91
   1   6  -1   99.22    1.89
   1   6  -1  100.17    2.01
   1  -6   1  100.36    2.00
  -1  -6  -1  101.07    2.09
   1  -6   1  101.58    2.13
  -1   6  -1  102.27    2.11
  -1  -6   1  100.52    1.92
   1  -6  -1  100.68    1.91
  -1  -6   1  104.49    2.01
   1  -6  -1  101.52    2.22
   1   6   1  101.71    2.15
   1   6   1   98.44    2.04
   1   6   1  103.19    1.94
  -1  -6   1   99.34    2.06
   1  -6  -1  102.28    1.94
  -1   6   2    3.77    0.29
  -1  -6  -2    3.42    0.38
  -1  -6  -2    3.62    0.23
   1  -6   2    3.26    0.19
   1   6  -2    3.51    0.30
   1  -6   2    3.53    0.30
   1   6  -2    3.04    0.22
   1  -6   2    3.99    0.37
   1  -6   2    3.43    0.20
  -1   6   2    3.80    0.47
   1  -6  -2    3.23    0.20
   1  -6  -2    3.79    0.26
  -1   6  -2    3.20    0.30
  -1  -6   2    3.62    0.32
  -1  -6   2    3.39    0.27
   1   6   2    3.24    0.37
   1  -6  -2    3.57    0.51
   1   6   2    3.29    0.19
  -1  -6   2    3.48    0.35
   1  -6  -2    3.36    0.22
   1   6   2    3.48    0.29
   1   6  -3   56.66    1.32
   1  -6   3   55.35    1.43
  -1  -6  -3   58.23    1.37
   1  -6   3   58.56    1.47
  -1   6   3   59.62    1.35
   1  -6   3   58.77    1.23
   1  -6   3   58.70    1.34
   1   6  -3   58.33    1.25
  -1   6   3   59.32    1.58
   1   6   3   58.75    1.35
  -1  -6   3   55.24    1.33
   1  -6  -3   57.74    1.53
  -1  -6   3   55.72    1.43
  -1  -6   3   57.21    1.28
  -1   6  -3   58.30    1.32
   1   6   3   58.61    1.44
  -1  -6  -4   11.73    0.61
  -1   6   4   12.51    0.62
   1  -6   4   11.20    0.50
  -1   6   4   12.08    0.80
   1   6  -4   11.80    0.53
   1   6  -4   12.54    0.54
   1  -6   4   11.53    0.55
   1  -6   4   11.30    0.70
   1   6   4   11.19    0.71
  -1  -6   4   11.44    0.55
  -1  -6   4   11.66    0.73
   1   6   4   11.93    0.71
   1  -6  -4   12.02    0.58
  -1   6  -4   11.59    0.53
   1  -6  -4   13.74    0.75
  -1  -6   4   12.02    0.57
   1  -6   5   30.96    0.94
   1  -6   5   31.96    0.97
   1  -6   5   30.95    1.19
   1   6  -5   29.64    1.08
  -1  -6  -5   30.90    1.24
  -1   6   5   29.51    1.26
  -1   6   5   32.07    1.08
   1   6  -5   32.99    1.02
  -1  -6   5   30.22    1.18
  -1  -6   5   29.80    1.16
   1   6   5   33.02    1.08
  -1  -6   5   31.83    0.98
   1  -6  -5   31.36    1.03
   1  -6  -5   32.54    1.19
   1   6   5   31.01    1.15
   1   6  -6    1.80    0.35
   1  -6   6    1.57    0.39
   1  -6   6    2.84    0.39
  -1   6   6    1.57    0.43
   1   6  -6    1.45    0.47
  -1  -6  -6    1.91    0.42
   1   6   6    0.77    0.51
   1  -6  -6    2.22    0.48
   1   6   6    2.16    0.47
  -1  -6   6    1.20    0.38
  -1  -6   6    0.73    0.38
   2   6   0  476.60    8.66
  -2  -6   0  482.05    8.62
  -2   6   0  466.76    8.55
   2  -6   0  469.09    8.61
   2   6   0  472.78    8.61
  -2   6   0  479.82    8.83
  -2  -6   0  492.23    8.60
   2  -6   0  469.87    8.48
  -2  -6   0  483.72    8.62
   2  -6   0  483.88    8.83
  -2  -6  -1   16.73    0.51
  -2  -6  -1   15.37    0.54
   2   6  -1   16.10    0.51
  -2   6   1   15.27    0.71
   2   6  -1   16.10    0.54
   2  -6   1   16.28    0.66
   2  -6   1   15.65    0.43
  -2   6   1   16.86    0.49
   2  -6  -1   15.81    0.46
   2  -6  -1   16.02    0.74
   2  -6  -1   16.17    0.49
  -2  -6   1   16.80    0.55
   2   6   1   15.55    0.54
  -2   6  -1   15.93    0.63
   2   6   1   16.01    0.49
   2   6   1   15.84    0.45
  -2  -6   1   16.05    0.54
  -2  -6   1   15.92    0.52
   2  -6  -1   15.56    0.50
   2   6  -2  413.09    7.69
   2  -6   2  422.28    7.89
  -2  -6  -2  436.55    7.70
   2  -6   2  429.09    7.67
   2   6  -2  419.90    7.78
   2  -6   2  408.12    7.92
   2  -6   2  437.72    7.64
  -2  -6  -2  443.57    7.68
  -2   6   2  440.98    7.75
   2   6   2  445.99    7.73
   2   6   2  438.63    7.65
  -2  -6   2  429.55    7.75
  -2  -6   2  372.39    8.13
   2  -6  -2  425.42    7.70
   2   6   2  434.05    7.80
   2  -6  -2  431.01    7.67
  -2  -6   2  431.09    7.82
   2  -6  -2  428.19    8.03
   2  -6  -2  418.48    7.71
  -2   6   3    9.76    0.75
  -2  -6  -3    8.40    0.44
   2  -6   3    8.23    0.40
  -2  -6  -3    8.14    0.36
   2  -6   3    8.00    0.41
   2   6  -3    8.62    0.47
  -2   6   3    8.30    0.51
   2  -6   3    8.08    0.58
   2  -6   3    8.49    0.47
   2   6  -3    8.74    0.42
   2  -6   3    7.97    0.54
   2  -6  -3    9.05    0.46
  -2  -6   3    8.47    0.57
   2   6   3    8.90    0.51
   2   6   3    8.63    0.54
   2  -6  -3    8.42    0.71
   2   6   3    8.17    0.30
   2   6   3    8.46    0.50
  -2  -6   3    8.34    0.52
  -2  -6   3    8.06    0.51
   2  -6  -3    8.78    0.41
   2  -6   4  250.63    5.09
   2  -6   4  254.38    4.89
  -2   6   4  259.22    5.24
  -2   6   4  250.28    5.17
   2  -6   4  249.25    5.06
   2   6  -4  256.81    4.87
  -2  -6  -4  263.53    4.85
   2   6  -4  255.05    4.89
   2  -6   4  258.47    4.83
   2  -6   4  264.04    4.90
  -2  -6   4  254.44    5.07
   2  -6  -4  260.88    4.96
   2  -6  -4  265.61    5.20
  -2  -6   4  257.73    4.91
   2   6   4  254.68    4.99
   2   6   4  258.59    4.99
  -2  -6   4  252.80    4.90
   2   6   4  257.76    4.94
   2   6  -5    7.60    0.52
  -2   6   5    6.93    0.89
  -2  -6  -5    8.30    0.56
   2  -6   5    7.70    0.58
   2   6  -5    7.38    0.64
   2  -6   5    7.19    0.65
  -2   6   5    7.19    0.68
   2  -6   5    5.71    0.75
   2  -6   5    7.11    0.54
   2  -6  -5    7.72    0.79
  -2  -6   5    9.82    1.03
   2  -6  -5    6.93    0.61
   2   6   5    7.65    0.74
   2   6   5    7.77    0.70
   2   6   5    6.75    0.65
  -2  -6   5    7.81    0.61
  -2  -6   5    8.31    0.57
   2  -6   6  130.33    2.84
   2  -6   6  134.64    2.98
  -2   6   6  135.55    3.10
   2   6  -6  138.88    2.86
   2  -6   6  137.85    3.16
  -2  -6  -6  139.30    2.95
   2  -6   6  138.59    2.96
   2   6   6  132.09    3.06
   2   6   6  135.33    3.10
   2  -6  -6  137.93    3.30
  -2  -6   6  139.12    3.02
  -2  -6   6  129.40    2.88
   3  -6   0   -0.07    0.15
   3  -6   0    0.16    0.14
  -3  -6   0    0.37    0.19
  -3  -6   0    0.07    0.11
   3   6   0    0.11    0.23
   3  -6   0   -0.10    0.25
   3  -6   0    0.13    0.16
   3   6   0   -0.02    0.18
  -3  -6   0    0.10    0.18
  -3  -6   0    0.08    0.13
  -3   6   0   -0.13    0.18
  -3   6   1   30.34    1.59
   3  -6   1   40.25    1.03
  -3  -6  -1   38.42    0.99
   3  -6   1   36.80    0.90
  -3   6   1   37.21    0.96
   3   6  -1   37.64    1.01
  -3  -6  -1   39.28    0.96
   3   6  -1   38.67    0.99
   3  -6   1   37.20    1.09
   3  -6   1   37.53    0.98
   3  -6  -1   38.46    0.89
  -3  -6   1   37.27    1.10
   3  -6  -1   38.41    1.19
  -3  -6   1   38.67    0.92
   3   6   1   37.91    1.04
  -3   6  -1   37.87    0.91
  -3  -6   1   37.60    1.02
  -3   6  -1   36.44    1.10
   3  -6  -1   37.99    0.96
   3   6   1   38.82    0.95
  -3  -6  -2   12.88    0.52
   3  -6   2   14.02    0.54
   3  -6   2   13.05    0.57
  -3   6   2   13.27    0.58
  -3   6   2   14.13    0.82
   3  -6   2   13.74    0.66
   3   6  -2   13.67    0.56
   3  -6  -2   13.27    0.79
   3  -6  -2   13.86    0.56
   3   6   2   13.54    0.50
  -3  -6   2   14.13    0.60
   3   6   2   13.57    0.64
  -3  -6   2   13.38    0.57
  -3  -6   2   12.77    0.65
   3  -6  -2   13.18    0.51
   3  -6   3   26.60    0.85
   3  -6   3   25.27    0.90
   3  -6   3   25.81    0.93
   3   6  -3   25.32    0.81
   3   6  -3   26.24    0.90
   3  -6   3   26.53    0.76
   3   6  -3   25.74    0.83
  -3  -6  -3   26.39    0.64
  -3  -6  -3   26.35    0.74
   3  -6   3   26.00    0.78
  -3   6   3   26.63    0.87
  -3   6   3   25.32    1.12
   3   6   3   25.48    0.87
   3   6   3   26.32    0.93
   3   6   3   24.84    0.69
  -3  -6   3   25.68    0.87
  -3  -6   3   26.16    0.91
   3  -6  -3   26.07    0.81
   3  -6  -3   23.78    1.20
  -3  -6   3   25.65    0.85
   3   6   3   27.56    0.69
   3  -6  -3   24.77    0.79
   3   6  -4    0.51    0.29
   3  -6   4    0.93    0.32
  -3  -6  -4   -0.01    0.18
   3  -6   4   -0.15    0.23
   3   6  -4    0.17    0.22
   3   6  -4   -0.08    0.26
  -3   6   4   -0.32    0.40
   3  -6   4    0.11    0.21
   3  -6   4    0.35    0.29
   3  -6   4    0.08    0.28
  -3   6   4   -0.03    0.28
   3  -6  -4    0.32    0.34
   3   6   4    0.07    0.23
  -3  -6   4    0.09    0.27
   3  -6  -4    0.29    0.22
   3   6   4    0.65    0.34
   3  -6  -4   -0.21    0.22
  -3  -6   4    0.55    0.33
   3   6   4   -0.10    0.26
  -3  -6   4   -0.13    0.26
  -3   6   5   14.34    0.87
   3   6  -5   15.52    0.89
   3  -6   5   15.10    0.72
   3  -6   5   16.35    0.85
   3  -6   5   16.05    0.71
   3   6  -5   14.91    0.70
   3   6  -5   15.79    0.91
   3  -6   5   16.41    0.88
  -3  -6  -5   15.89    0.66
   3  -6   5   16.28    0.78
   3  -6   5   15.74    0.72
  -3  -6   5   14.41    0.75
   3   6   5   15.71    0.86
  -3  -6   5   15.15    0.83
   3  -6  -5   15.08    1.01
   3   6   5   14.99    0.76
   3  -6   6    2.52    0.47
  -3   6   6    2.55    0.59
   3  -6   6    3.02    0.54
   3  -6   6    3.66    0.47
   3   6  -6    3.28    0.45
  -3  -6  -6    2.84    0.45
   3   6   6    3.64    0.67
  -3  -6   6    2.55    0.51
   3  -6  -6    2.60    0.65
  -4  -6   0   32.31    0.73
   4  -6   0   32.90    0.87
  -4  -6   0   32.98    1.00
  -4   6   0   30.51    1.11
   4   6   0   30.89    0.94
  -4  -6   0   33.47    0.95
  -4   6   0   32.58    0.99
   4  -6   0   34.65    1.12
  -4  -6   0   32.10    0.76
   4  -6   0   31.58    0.93
   4  -6   1   31.49    0.88
   4  -6   1   31.26    1.06
   4   6  -1   30.08    1.18
  -4  -6  -1   32.55    0.98
   4  -6   1   32.06    0.94
   4   6  -1   32.10    0.96
  -4   6   1   29.15    1.13
  -4  -6  -1   32.03    0.93
  -4   6   1   31.75    0.98
   4   6   1   32.15    0.92
   4  -6  -1   32.70    1.15
  -4  -6   1   33.19    0.97
  -4  -6   1   30.86    1.00
  -4  -6   1   32.38    0.83
   4  -6  -1   32.21    0.87
  -4   6  -1   30.96    0.93
   4  -6  -1   32.71    0.94
   4   6   1   31.61    1.06
  -4   6  -1   32.36    1.07
   4  -6   2   48.71    1.35
   4  -6   2   50.75    1.30
   4   6  -2   48.35    1.31
   4   6  -2   49.08    1.30
   4  -6   2   49.39    1.25
  -4   6   2   50.06    1.30
   4  -6   2   51.26    1.29
  -4   6   2   51.43    1.57
  -4  -6  -2   50.87    1.28
  -4  -6   2   45.34    1.34
  -4  -6   2   49.84    1.36
   4   6   2   48.35    1.37
   4  -6  -2   49.47    1.27
   4  -6  -2   50.66    1.23
  -4  -6   2   48.43    1.29
   4  -6  -2   49.49    1.51
   4   6   2   50.46    1.21
   4  -6   3   26.80    0.89
   4  -6   3   27.38    0.90
   4   6  -3   26.11    0.92
  -4   6   3   24.04    1.05
   4   6  -3   27.19    0.92
   4  -6   3   26.39    0.95
  -4  -6  -3   27.68    0.86
  -4   6   3   28.76    1.21
   4  -6   3   27.11    0.87
   4   6  -3   25.88    0.90
   4  -6   3   25.33    0.95
  -4  -6   3   26.37    0.96
   4   6   3   26.52    0.77
   4  -6  -3   25.77    0.88
   4   6   3   26.22    1.00
   4  -6  -3   25.61    1.11
  -4  -6   3   25.91    0.94
   4  -6  -3   25.60    0.86
  -4  -6   3   26.29    0.91
   4  -6   4   19.91    0.80
   4  -6   4   18.77    0.79
   4  -6   4   19.26    0.85
  -4   6   4   18.27    1.16
   4  -6   4   19.59    0.87
  -4   6   4   18.72    0.88
   4   6  -4   20.12    0.80
   4   6  -4   19.38    0.88
   4   6  -4   18.27    0.87
   4  -6   4   18.41    0.76
   4  -6   4   18.87    0.79
  -4  -6  -4   18.99    0.73
  -4  -6   4   19.15    0.82
  -4  -6   4   20.05    0.88
   4  -6  -4   18.99    0.77
   4   6   4   21.62    1.02
   4   6   4   18.91    0.89
  -4  -6   4   19.54    0.95
   4  -6  -4   18.62    1.05
   4  -6  -4   19.72    0.81
   4  -6   5   12.74    0.85
   4  -6   5   14.66    0.74
   4   6  -5   12.78    0.88
   4   6  -5   13.05    0.73
   4  -6   5   13.68    0.80
  -4   6   5   10.09    0.89
   4  -6   5   11.41    0.71
   4  -6   5   12.41    0.83
   4  -6   5   11.85    0.74
   4  -6  -5   12.78    1.03
   4   6   5   13.99    0.89
  -4  -6   5   13.77    0.86
   4  -6  -5   12.70    0.61
  -4  -6   5   10.37    0.80
  -5  -6   0    0.98    0.32
  -5   6   0    0.76    0.39
   5   6   0    1.33    0.41
  -5  -6   0    0.95    0.30
  -5   6   0    1.10    0.32
   5  -6   0    1.16    0.37
   5   6   0    1.11    0.34
   5  -6   0    1.10    0.27
   5  -6   1  108.14    2.37
   5   6  -1  108.83    2.40
  -5   6   1  109.89    2.42
   5  -6   1  104.66    2.30
   5  -6   1  108.66    2.46
   5   6  -1  107.53    2.48
  -5   6   1  106.54    2.60
  -5  -6  -1  110.39    2.36
  -5  -6  -1  107.05    2.47
   5  -6  -1  110.14    2.30
   5   6   1  107.89    2.33
  -5  -6   1  107.00    2.37
  -5  -6   1  108.21    2.17
   5  -6  -1  109.02    2.53
  -5   6  -1  106.70    2.48
  -5   6  -1  106.27    2.37
   5   6   1  108.03    2.50
  -5  -6   1  106.36    2.44
   5  -6  -1  103.37    2.35
   5  -6   2    0.99    0.33
  -5  -6  -2    0.57    0.34
   5  -6   2    0.68    0.28
   5  -6   2    0.83    0.27
   5   6  -2    0.43    0.35
   5  -6   2    0.79    0.28
   5   6  -2    0.44    0.26
  -5   6   2    0.31    0.31
  -5   6   2    0.46    0.45
  -5   6  -2    0.85    0.29
   5  -6  -2    0.44    0.25
   5  -6  -2    0.04    0.33
  -5  -6   2    0.12    0.25
  -5  -6   2    0.52    0.31
   5   6   2    0.54    0.36
   5   6   2    0.54    0.25
   5  -6  -2    0.79    0.30
  -5   6   3   84.32    2.36
   5   6  -3   76.53    2.24
   5  -6   3   84.96    2.00
   5   6  -3   83.94    2.02
   5  -6   3   82.25    2.00
   5   6  -3   84.91    2.10
   5  -6   3   86.68    2.01
  -5   6   3   84.94    2.06
  -5  -6  -3   87.52    1.99
   5   6   3   87.17    1.88
  -5  -6   3   83.79    2.02
  -5  -6   3   84.52    2.03
  -5  -6   3   84.18    2.10
   5  -6  -3   86.59    1.99
   5  -6  -3   85.24    2.01
   5   6   3   84.74    2.15
   5  -6  -3   86.31    2.25
  -5  -6  -4    0.20    0.40
   5  -6   4    0.69    0.35
   5  -6   4    1.12    0.35
   5  -6   4    0.31    0.35
  -5   6   4    0.43    0.37
   5   6  -4   -0.28    0.44
   5   6  -4    0.97    0.36
   5   6  -4    0.87    0.36
   5  -6   4    0.76    0.36
   5  -6   4    0.99    0.34
   5  -6   4    0.53    0.31
   5   6   4    0.60    0.27
  -5  -6   4    1.17    0.50
   5  -6  -4    0.65    0.43
   5  -6  -4    1.33    0.41
  -5  -6   4    0.30    0.37
   5   6   4    0.43    0.36
  -5   6   5   45.67    1.61
   5  -6   5   47.91    1.45
   5  -6   5   47.72    1.43
   5   6  -5   45.25    1.58
   5   6  -5   44.73    1.42
   5  -6   5   46.12    1.51
   5  -6  -5   46.34    1.32
   5   6   5   44.32    1.62
   5  -6  -5   48.15    1.87
  -5  -6   5   45.87    1.59
   6  -6   0   15.22    0.74
  -6  -6   0   14.60    0.82
   6   6   0   15.28    0.94
  -6  -6   0   17.06    0.83
  -6   6   0   12.90    0.85
   6   6   0   14.71    0.75
   6  -6   0   14.45    1.11
  -6   6   0   14.47    0.96
   6  -6   0   17.05    0.79
   6  -6   1   32.84    1.17
   6   6  -1   32.61    1.26
  -6  -6  -1   32.45    1.14
   6   6  -1   32.09    1.10
  -6   6   1   33.02    1.19
  -6  -6  -1   32.82    1.17
   6  -6   1   31.07    1.09
  -6   6   1   30.11    1.36
   6  -6   1   32.04    1.05
   6  -6  -1   30.84    1.03
  -6   6  -1   32.41    1.15
   6   6   1   33.71    1.29
  -6  -6   1   30.44    1.16
  -6  -6   1   32.30    1.12
   6  -6  -1   30.67    1.07
   6  -6  -1   31.43    1.17
   6   6   1   30.67    1.04
  -6   6  -1   32.84    1.24
  -6  -6   1   31.78    0.89
   6   6  -2    5.36    0.61
   6  -6   2    5.76    0.62
  -6   6   2    7.21    0.73
  -6   6   2    7.25    0.98
  -6  -6  -2    8.16    0.71
   6  -6   2    6.80    0.64
  -6  -6  -2    5.58    0.57
   6   6  -2    6.80    0.64
   6   6   2    5.49    0.81
   6   6   2    7.91    0.59
  -6   6  -2    8.05    0.70
  -6  -6   2    6.82    0.67
   6  -6  -2    6.11    0.63
   6  -6  -2    7.19    0.73
   6  -6  -2    6.49    0.57
  -6  -6   2    5.65    0.64
  -6  -6   2    6.36    0.73
   6  -6   3   24.11    1.05
   6   6  -3   26.03    0.95
  -6  -6  -3   23.72    1.11
  -6   6   3   25.53    1.11
   6   6  -3   24.58    1.04
   6  -6   3   24.97    1.01
   6  -6   3   26.94    1.03
   6  -6  -3   24.66    1.16
   6  -6  -3   26.38    1.16
  -6  -6   3   23.65    1.10
   6   6   3   25.73    0.95
   6  -6  -3   24.43    1.02
  -6  -6   3   26.37    1.16
   6  -6   4    9.96    0.82
   6  -6   4    9.91    0.80
   6   6  -4    8.99    0.80
   6   6  -4    9.94    0.77
  -6   6   4    8.86    0.93
   6  -6   4    8.48    0.78
  -6  -6  -4   10.75    0.91
   6  -6   4    6.95    0.76
   6  -6   4    9.73    0.89
   6  -6  -4    9.28    0.86
   6  -6  -4    8.23    0.99
  -6  -6   4    9.09    0.96
   6   6   4    9.35    0.74
  -7   6   0    9.49    1.04
   7  -6   0    8.28    0.71
   7  -6   0    8.94    0.75
  -7  -6   0   10.74    0.84
  -7   6   0   10.60    0.82
   7   6   0    8.34    0.72
   7  -6   0    9.51    0.74
   7  -6   1    7.63    0.73
   7   6  -1    8.90    0.72
  -7   6   1    8.11    1.15
  -7  -6  -1   10.21    0.84
  -7   6   1    9.10    0.86
   7  -6   1    7.90    0.73
   7  -6   1    7.86    0.72
   7  -6  -1    7.41    0.70
  -7  -6   1    7.16    0.78
  -7   6  -1    8.76    0.95
  -7  -6   1    7.83    0.62
   7  -6  -1    8.80    0.75
  -7   6  -1    8.83    0.80
   7   6   1    6.66    0.68
   7  -6  -1    8.65    0.74
  -7   6   2   21.31    1.13
   7  -6   2   19.66    0.98
   7  -6   2   20.49    1.00
   7  -6   2   19.58    0.96
  -7  -6  -2   20.45    1.07
   7   6  -2   18.91    0.98
  -7  -6   2   19.81    1.03
   7  -6  -2   19.82    1.02
  -7  -6   2   20.31    1.09
  -7   6  -2   21.25    1.05
   7  -6  -2   20.62    1.01
   7   6   2   21.62    0.93
   7  -6   3    6.37    0.80
   7   6  -3    6.82    0.64
   7   6  -3    6.00    0.82
   7  -6   3    5.06    0.57
  -7   6   3    7.51    0.96
   7  -6   3    5.24    0.76
   7  -6  -3    7.17    0.84
  -7  -6   3    5.34    0.71
   7  -6  -3    6.81    0.90
   7   6   3    6.35    0.69
  -7  -6   3    7.06    0.96
  -8  -6   0    7.85    0.96
   8  -6   0    7.51    0.78
   8   6   0    7.42    0.87
  -8   6   0    6.42    0.81
  -8   6   0    7.56    0.95
   8  -6   0    5.52    0.66
   8  -6   1   17.70    0.98
  -8   6   1   20.48    1.20
  -8  -6  -1   18.53    1.18
   8  -6   1   22.74    1.51
  -8  -6   1   17.36    1.22
   8   6   1   17.78    1.03
  -8   6  -1   18.26    1.23
   8  -6  -1   18.06    1.12
  -8   6  -1   20.29    1.20
   8  -6  -1   18.44    1.01
   0  -7   0    0.02    0.12
   0   7   0   -0.14    0.11
   0  -7   0    0.43    0.20
   0   7   0   -0.04    0.15
   0   7   1  459.78    8.20
   0  -7  -1  456.87    8.45
   0   7   1  467.24    8.43
   0   7   1  450.03    8.14
   0  -7  -1  455.04    8.19
   0   7  -1  475.13    8.28
   0  -7   1  450.64    8.38
   0  -7   1  440.93    8.25
   0   7   2    0.16    0.11
   0  -7   2    0.17    0.11
   0   7  -2    0.00    0.16
   0  -7  -2   -0.08    0.11
   0   7  -2    0.01    0.08
   0  -7   2    0.23    0.37
   0   7   2    0.12    0.24
   0   7   2    0.10    0.13
   0  -7  -2    0.29    0.29
   0  -7   2   -0.03    0.18
   0  -7   2   -0.29    0.27
   0   7   3  346.56    6.28
   0  -7   3  338.05    6.16
   0  -7   3  336.91    6.43
   0   7   3  329.07    6.76
   0  -7  -3  350.50    6.46
   0   7  -3  334.39    6.29
   0  -7   3  342.88    6.30
   0   7  -3  336.34    6.15
   0   7   4    0.04    0.34
   0  -7   4    0.15    0.20
   0  -7   4   -0.05    0.29
   0   7  -4   -0.22    0.19
   0  -7   4    0.24    0.22
   0   7   4   -0.09    0.28
   0  -7  -4    0.08    0.27
   0   7   5  197.16    4.00
   0   7  -5  190.76    3.86
   0  -7   5  192.33    3.88
   0  -7  -5  195.58    4.07
   0  -7   5  209.44    4.47
   0  -7   5  195.42    3.86
   0   7   5  193.84    4.18
   0  -7   6    0.29    0.36
   0  -7  -6   -0.10    0.39
   0  -7   6   -0.35    0.38
   0   7   6   -0.11    0.42
  -1   7   0    1.27    0.23
   1  -7   0    1.10    0.26
   1   7   0    1.38    0.18
   1   7   0    2.20    0.26
  -1  -7   0    1.24    0.24
   1  -7   0    1.58    0.23
  -1   7   0    1.31    0.18
  -1  -7   0    1.73    0.20
  -1   7   1   35.76    0.77
  -1  -7  -1   36.39    0.83
  -1  -7  -1   35.25    1.00
  -1   7   1   35.78    1.07
   1   7  -1   35.24    0.74
   1  -7   1   37.01    1.03
   1   7  -1   35.00    0.89
   1  -7   1   35.72    0.89
   1   7   1   36.04    0.82
   1   7   1   35.77    0.86
   1   7   1   36.14    0.92
   1  -7  -1   35.64    0.77
  -1   7  -1   34.67    0.88
  -1  -7   1   36.63    0.89
  -1  -7   1   35.90    0.96
   1   7   1   35.93    0.80
   1  -7  -1   35.46    0.82
  -1  -7   1   34.68    0.77
   1  -7  -1   36.06    1.11
  -1  -7  -2    1.01    0.28
   1  -7   2    0.49    0.21
  -1  -7  -2    0.95    0.21
   1  -7   2    0.61    0.22
   1  -7   2    0.61    0.10
  -1   7   2    0.71    0.17
  -1   7   2    0.93    0.31
   1   7  -2    0.42    0.18
   1  -7   2    0.50    0.11
   1   7  -2    0.68    0.12
  -1  -7   2    0.65    0.17
   1   7   2    0.71    0.14
  -1  -7   2    0.46    0.20
   1   7   2    0.80    0.23
   1   7   2    0.57    0.17
   1  -7  -2    1.02    0.16
  -1  -7   2    0.76    0.22
   1  -7  -2    0.64    0.13
   1   7   2    0.80    0.19
  -1   7  -2    0.52    0.19
   1  -7  -2    0.66    0.31
  -1   7   3   29.10    0.84
   1  -7   3   27.50    0.69
  -1   7   3   27.94    1.09
   1  -7   3   27.65    0.95
   1   7  -3   28.19    0.73
   1  -7   3   28.64    0.98
   1  -7   3   27.26    0.84
  -1  -7  -3   28.40    0.91
   1   7  -3   27.81    0.83
  -1  -7   3   28.56    0.78
   1   7   3   29.09    0.95
  -1  -7   3   27.80    0.95
   1  -7  -3   27.99    1.05
   1  -7  -3   29.06    0.81
   1   7   3   29.46    0.85
   1  -7  -3   27.64    0.67
  -1   7  -3   28.68    0.84
   1  -7  -3   27.60    0.62
  -1  -7   3   27.80    0.85
   1  -7   4    0.60    0.21
   1  -7   4    1.01    0.31
   1  -7   4    0.93    0.26
  -1  -7  -4    0.77    0.27
   1  -7   4    0.75    0.29
  -1   7   4    0.48    0.40
   1   7  -4    0.70    0.27
   1   7  -4    0.89    0.24
   1  -7  -4    0.64    0.23
   1   7   4    0.45    0.25
   1  -7  -4    0.77    0.42
  -1   7  -4    0.64    0.23
  -1  -7   4    0.61    0.24
  -1  -7   4    0.27    0.24
   1   7   4    0.84    0.32
  -1  -7   4    0.87    0.33
  -1  -7  -5   12.33    0.74
  -1   7   5   11.53    0.99
  -1   7   5   11.46    0.73
   1  -7   5   12.62    0.92
   1   7  -5   12.70    0.72
   1   7  -5   12.13    0.61
   1  -7   5   11.66    0.62
   1  -7   5   11.66    0.62
   1   7   5   12.58    0.73
   1  -7  -5   12.15    0.69
   1  -7  -5   11.20    0.83
  -1  -7   5   10.42    0.64
   1   7   5   13.24    0.86
  -1   7   6    0.09    0.40
   1   7  -6    0.38    0.33
   1   7  -6    0.03    0.43
  -1  -7  -6    0.16    0.40
   1  -7   6    0.42    0.34
   1   7   6   -0.09    0.42
   1   7   6   -0.36    0.54
  -1  -7   6   -0.28    0.38
  -1  -7   6   -0.08    0.37
   1  -7  -6    0.83    0.48
  -2   7   0    1.43    0.19
   2  -7   0    1.45    0.32
   2  -7   0    1.69    0.15
  -2  -7   0    1.36    0.23
   2   7   0    1.36    0.24
  -2  -7   0    1.28    0.21
  -2   7   0    1.31    0.28
   2   7   0    1.32    0.21
  -2  -7   0    1.74    0.25
   2  -7   0    1.44    0.22
  -2  -7  -1  153.35    3.08
   2  -7   1  160.72    2.88
   2   7  -1  159.26    3.01
   2  -7   1  160.97    3.25
  -2  -7  -1  164.66    3.03
   2   7  -1  158.52    3.08
   2  -7   1  151.32    3.17
  -2   7   1  145.43    3.50
  -2   7   1  162.44    2.98
  -2  -7   1  159.70    3.11
  -2  -7   1  162.65    3.03
   2  -7  -1  155.39    2.96
  -2   7  -1  151.60    3.26
  -2  -7   1  157.52    3.12
   2  -7  -1  160.09    3.34
   2   7   1  160.99    3.08
   2   7   1  160.93    3.01
  -2  -7   1  163.84    3.07
   2   7   1  157.13    3.08
   2  -7  -1  161.56    3.02
   2  -7  -1  158.66    3.03
   2  -7   2   14.70    0.68
  -2   7   2   16.26    0.66
  -2   7   2   14.21    0.81
   2  -7   2   14.53    0.58
   2   7  -2   14.38    0.49
  -2  -7  -2   15.59    0.50
   2  -7   2   14.59    0.47
   2  -7   2   15.08    0.42
  -2  -7  -2   14.87    0.57
   2  -7  -2   15.56    0.52
   2  -7  -2   15.42    0.51
   2  -7  -2   14.61    0.48
  -2  -7   2   14.82    0.57
  -2  -7   2   14.27    0.70
   2   7   2   14.96    0.56
   2   7   2   15.54    0.54
   2   7   2   15.09    0.47
   2   7   2   14.79    0.59
   2  -7  -2   17.34    0.87
  -2  -7   2   15.20    0.61
   2  -7   3  114.98    2.56
   2  -7   3  119.27    2.44
   2  -7   3  117.21    2.59
  -2  -7  -3  117.75    2.35
   2   7  -3  115.67    2.43
   2   7  -3  116.51    2.33
   2  -7   3  118.17    2.28
  -2  -7  -3  116.10    2.25
  -2   7   3  118.69    2.75
   2  -7   3  114.22    2.30
  -2   7   3  118.70    2.42
   2  -7  -3  114.44    2.30
   2  -7  -3  117.80    2.23
   2  -7  -3  117.43    2.39
  -2  -7   3  118.53    2.46
   2   7   3  118.94    2.43
   2   7   3  119.70    2.20
  -2  -7   3  116.56    2.53
  -2  -7   3  117.07    2.39
   2   7   3  114.68    2.46
   2   7   3  119.46    2.45
   2  -7  -3  114.69    2.70
   2  -7   4   -0.10    0.29
  -2   7   4    0.36    0.42
   2  -7   4    0.11    0.19
   2   7  -4    0.16    0.23
   2  -7   4   -0.56    0.25
   2   7  -4    0.68    0.24
  -2   7   4    0.09    0.26
   2  -7   4    0.44    0.25
  -2  -7  -4    0.70    0.24
   2  -7  -4    0.50    0.24
   2   7   4    0.86    0.31
   2   7   4    0.12    0.24
  -2  -7   4    0.32    0.25
   2   7   4   -0.40    0.29
  -2  -7   4   -0.08    0.25
  -2  -7   4    0.10    0.32
   2  -7  -4   -0.06    0.34
   2  -7   5   70.21    1.68
   2  -7   5   73.50    2.29
   2   7  -5   67.59    1.65
  -2  -7  -5   69.57    1.66
  -2   7   5   69.21    1.79
   2  -7   5   69.37    1.66
   2   7  -5   67.27    1.70
   2  -7   5   66.98    1.65
   2  -7   5   66.80    1.86
  -2  -7   5   67.16    1.71
   2   7   5   68.76    1.79
   2  -7  -5   70.68    2.01
   2   7   5   67.72    1.77
  -2  -7   5   64.58    1.66
   2  -7  -5   66.64    1.75
   2  -7   6    3.95    0.62
  -2   7   6    4.63    0.61
   2  -7   6    5.71    0.67
   2   7  -6    5.15    0.62
   2  -7   6    5.46    0.74
  -2  -7  -6    5.77    0.71
   2  -7   6    3.64    0.51
   2   7   6    4.70    0.62
   2  -7  -6    4.68    0.67
  -2  -7   6    5.10    0.59
   2   7   6    4.54    0.64
   3  -7   0   92.41    1.96
  -3  -7   0   94.73    1.97
   3   7   0   95.88    2.05
   3  -7   0   92.98    1.96
  -3  -7   0   93.74    1.90
   3  -7   0   93.99    2.19
  -3   7   0   90.42    1.91
  -3   7   0   89.11    2.17
   3   7   0   94.26    1.96
  -3  -7   0   91.11    2.34
   3  -7   0   93.43    1.82
  -3  -7   0   91.19    1.85
  -3  -7  -1    8.18    0.46
   3   7  -1    8.89    0.52
   3  -7   1    8.22    0.44
   3  -7   1    8.35    0.48
   3   7  -1    8.22    0.48
  -3  -7  -1    8.51    0.43
   3  -7   1    7.96    0.47
  -3   7   1    8.25    0.69
  -3   7   1    8.45    0.47
  -3  -7  -1    8.75    0.47
   3  -7   1    9.09    0.61
   3  -7  -1    8.18    0.44
   3  -7  -1    8.58    0.37
  -3  -7   1    8.62    0.50
   3  -7  -1    8.41    0.46
   3  -7  -1    7.58    0.69
   3   7   1    7.98    0.45
  -3  -7   1    8.94    0.43
  -3   7  -1    8.60    0.59
  -3   7  -1    8.81    0.38
   3   7   1    8.68    0.55
  -3  -7   1    8.16    0.44
  -3  -7   1    8.41    0.51
  -3   7   2   81.88    1.76
  -3  -7  -2   79.47    1.57
  -3   7   2   79.10    2.08
   3  -7   2   81.24    1.92
   3   7  -2   79.15    1.80
   3   7  -2   82.55    1.75
  -3  -7  -2   83.93    1.72
   3  -7   2   78.02    1.68
   3  -7   2   79.02    1.79
   3  -7  -2   78.84    1.74
   3  -7  -2   79.36    2.07
   3  -7  -2   81.75    1.71
   3   7   2   81.88    1.68
   3  -7  -2   82.64    1.70
   3   7   2   78.86    1.55
  -3  -7   2   80.97    1.81
   3   7   2   78.64    1.83
  -3  -7   2   79.04    1.83
  -3   7   3    4.58    0.48
  -3   7   3    3.95    0.54
   3   7  -3    4.49    0.59
   3   7  -3    4.61    0.44
   3  -7   3    4.85    0.47
  -3  -7  -3    4.58    0.31
   3  -7   3    4.48    0.39
   3  -7   3    4.23    0.55
  -3  -7  -3    4.23    0.41
   3  -7   3    5.05    0.49
   3  -7   3    4.79    0.53
   3  -7  -3    4.78    0.42
   3   7   3    4.94    0.54
  -3  -7   3    5.60    0.53
   3  -7  -3    4.55    0.66
  -3  -7   3    4.45    0.49
   3  -7  -3    4.47    0.45
   3   7   3    4.80    0.32
  -3  -7   3    4.64    0.49
   3   7   3    4.38    0.58
   3   7   3    4.57    0.47
   3  -7  -3    4.01    0.36
   3  -7   4   47.64    1.29
   3  -7   4   49.69    1.22
   3   7  -4   47.99    1.29
   3  -7   4   49.60    1.24
   3   7  -4   47.43    1.30
  -3  -7  -4   51.40    1.14
  -3   7   4   48.52    1.37
  -3   7   4   46.04    1.67
   3  -7   4   46.19    1.42
   3  -7   4   48.86    1.43
   3   7   4   50.22    1.45
   3  -7  -4   49.96    1.31
  -3  -7   4   47.33    1.31
   3  -7  -4   48.30    1.61
  -3  -7   4   50.36    1.35
   3   7   4   46.68    1.19
  -3  -7   4   47.79    1.44
   3  -7  -4   48.74    1.15
   3  -7  -4   47.41    1.06
   3   7   4   49.23    1.37
  -3   7   5    5.57    0.71
   3   7  -5    6.32    0.78
   3  -7   5    6.67    0.59
   3  -7   5    4.89    0.56
   3   7  -5    6.76    0.58
  -3  -7  -5    6.77    0.54
   3  -7   5    6.38    0.73
   3  -7   5    5.61    0.61
   3  -7   5    5.80    0.58
  -3  -7   5    5.69    0.65
   3   7   5    5.64    0.68
  -3  -7   5    5.20    0.63
   3  -7  -5    7.76    0.93
   3   7   5    4.35    0.61
  -4  -7   0   51.51    1.32
   4  -7   0   49.88    1.47
  -4  -7   0   51.91    1.30
  -4   7   0   49.47    1.28
  -4  -7   0   49.53    1.06
   4  -7   0   48.98    1.16
   4   7   0   46.84    1.37
   4   7   0   49.87    1.27
  -4  -7   0   50.48    1.11
   4  -7   0   48.74    1.27
  -4   7   0   50.73    1.51
   4  -7   1  173.26    3.44
  -4  -7  -1  173.49    3.46
   4   7  -1  171.60    3.50
   4   7  -1  170.34    3.44
  -4   7   1  169.00    3.72
   4  -7   1  172.88    3.45
   4  -7   1  174.47    3.60
  -4  -7  -1  177.03    3.41
  -4   7   1  171.25    3.42
   4  -7   1  168.42    3.30
   4  -7  -1  170.89    3.41
  -4   7  -1  174.43    3.63
  -4  -7   1  173.26    3.47
   4   7   1  169.85    3.53
   4  -7  -1  175.30    3.68
  -4  -7   1  171.93    3.45
   4   7   1  171.54    3.39
  -4  -7   1  166.82    3.29
   4  -7  -1  171.09    3.31
  -4   7  -1  168.38    3.35
  -4   7   2   21.73    0.80
   4   7  -2   21.05    0.79
  -4  -7  -2   20.37    0.75
   4  -7   2   22.27    0.81
   4   7  -2   21.57    0.83
   4  -7   2   21.16    0.80
   4  -7   2   20.14    0.87
  -4   7   2   20.63    1.06
   4  -7   2   20.88    0.71
  -4  -7   2   20.89    0.81
   4  -7  -2   20.88    0.77
  -4  -7   2   21.51    0.75
   4   7   2   21.15    0.70
  -4  -7   2   20.24    0.83
   4  -7  -2   21.70    0.70
   4  -7  -2   20.58    1.00
   4   7   2   20.91    0.90
   4  -7   3  125.38    2.80
   4   7  -3  125.75    2.69
   4   7  -3  125.78    2.71
   4  -7   3  126.28    2.57
  -4  -7  -3  127.03    2.60
   4  -7   3  124.45    2.70
  -4   7   3  126.44    3.05
   4  -7   3  119.88    2.82
   4  -7   3  127.73    2.70
  -4  -7   3  125.86    2.71
   4  -7  -3  130.24    2.99
   4  -7  -3  128.46    2.65
  -4  -7   3  125.58    2.74
   4  -7  -3  128.54    2.65
   4   7   3  121.86    2.77
  -4  -7   3  124.84    2.86
   4   7   3  129.31    2.52
  -4  -7  -4   26.26    0.85
   4   7  -4   26.40    0.95
   4  -7   4   26.69    1.03
  -4   7   4   24.35    1.01
   4  -7   4   24.74    0.87
   4  -7   4   24.33    0.93
   4  -7   4   25.53    1.04
   4  -7   4   25.48    0.95
   4  -7   4   25.81    0.91
   4   7  -4   25.94    1.02
  -4  -7   4   25.46    1.01
   4   7   4   24.41    1.01
   4   7   4   26.04    1.15
   4   7   4   27.03    0.72
  -4  -7   4   25.22    1.12
   4  -7  -4   25.77    0.91
   4  -7  -4   23.82    0.92
   4  -7  -4   25.97    1.23
  -4  -7   4   23.16    0.97
   4  -7   5   75.68    2.04
  -4   7   5   75.14    2.04
   4   7  -5   71.60    1.87
   4  -7   5   76.67    1.89
   4  -7   5   73.84    1.87
   4  -7   5   73.59    1.83
   4  -7  -5   75.52    1.62
  -4  -7   5   76.36    1.99
   4  -7  -5   71.95    2.26
   4   7   5   74.48    2.04
  -5  -7   0   18.83    0.81
  -5   7   0   18.99    0.99
   5   7   0   19.51    0.96
  -5  -7   0   19.97    0.84
   5  -7   0   17.91    0.67
   5  -7   0   19.84    0.78
  -5   7   0   17.78    0.81
   5   7   0   18.16    0.76
   5  -7   0   18.34    0.98
   5  -7   1    2.68    0.36
  -5  -7  -1    2.95    0.40
  -5   7   1    3.39    0.43
   5  -7   1    2.73    0.41
   5  -7   1    3.14    0.42
   5   7  -1    3.45    0.48
   5  -7   1    2.76    0.38
   5   7  -1    2.86    0.46
  -5   7   1    2.20    0.53
  -5   7  -1    2.74    0.46
  -5  -7   1    3.03    0.36
   5  -7  -1    2.90    0.39
   5  -7  -1    2.85    0.44
   5   7   1    2.42    0.39
   5   7   1    2.43    0.46
  -5   7  -1    3.73    0.50
   5  -7  -1    3.54    0.40
  -5  -7   1    2.94    0.40
  -5  -7   1    2.89    0.38
   5  -7   2   14.84    0.75
  -5   7   2   15.69    1.05
   5   7  -2   14.19    0.85
  -5   7   2   14.98    0.81
   5  -7   2   12.91    1.25
   5   7  -2   14.66    0.72
   5  -7   2   13.75    0.65
   5  -7   2   14.60    0.72
  -5  -7  -2   13.06    0.76
   5   7   2   14.77    0.66
  -5  -7   2   13.04    0.73
  -5  -7   2   13.68    0.86
   5  -7  -2   15.43    0.91
   5  -7  -2   14.04    0.66
  -5  -7   2   14.85    0.68
   5   7   2   14.16    0.88
   5   7  -3    2.23    0.38
   5  -7   3    1.92    0.39
  -5  -7  -3    2.72    0.46
   5  -7   3    2.47    0.39
   5  -7   3    2.20    0.38
   5  -7   3    2.74    0.40
  -5   7   3    1.75    0.54
   5   7  -3    2.82    0.48
  -5   7   3    2.95    0.45
   5  -7  -3    1.83    0.35
   5  -7  -3    2.63    0.52
  -5  -7   3    1.37    0.41
   5   7   3    2.21    0.33
  -5  -7   3    2.03    0.41
   5  -7  -3    2.68    0.52
  -5  -7   3    2.60    0.45
   5   7   3    2.26    0.50
  -5  -7  -4   12.07    0.84
   5   7  -4   11.58    0.76
  -5   7   4   12.13    0.87
   5   7  -4   10.13    0.96
   5  -7   4    8.35    0.79
   5  -7   4   11.48    0.78
   5  -7   4   10.64    0.81
   5  -7   4   10.24    0.69
   5  -7   4   11.88    0.76
   5  -7  -4   10.62    0.76
   5   7   4   12.25    0.57
   5  -7  -4   10.05    0.98
  -5  -7   4   11.64    0.87
   5   7   4   10.82    0.83
  -5  -7   4   10.96    1.02
  -6  -7   0   40.23    1.30
  -6   7   0   41.22    1.32
   6  -7   0   41.04    1.37
   6  -7   0   40.15    1.17
  -6  -7   0   42.76    1.34
  -6   7   0   39.53    1.47
   6  -7   0   40.72    1.27
   6   7   0   43.14    1.47
   6   7   0   41.21    1.26
  -6   7   1    4.02    0.64
   6   7  -1    2.44    0.41
  -6  -7  -1    3.52    0.50
   6  -7   1    3.24    0.50
   6  -7   1    3.70    0.54
  -6   7   1    3.73    0.52
   6   7  -1    4.26    0.61
   6  -7   1    3.60    0.46
  -6  -7  -1    4.15    0.60
   6  -7  -1    3.66    0.51
  -6  -7   1    3.47    0.46
   6   7   1    4.42    0.63
  -6   7  -1    4.02    0.55
  -6   7  -1    3.67    0.47
  -6  -7   1    3.44    0.47
   6   7   1    3.84    0.51
   6  -7  -1    4.22    0.58
  -6  -7   1    4.10    0.47
   6  -7   2   18.06    0.94
   6   7  -2   16.68    1.08
  -6   7   2   16.67    1.24
  -6  -7  -2   18.63    0.97
   6  -7   2   19.02    0.85
   6   7  -2   18.72    0.89
   6  -7   2   18.36    0.87
  -6   7   2   19.11    0.98
  -6  -7   2   20.24    0.97
  -6  -7   2   18.88    0.85
   6   7   2   19.70    1.16
  -6   7  -2   17.02    1.35
   6   7   2   18.21    0.80
   6  -7  -2   20.03    0.82
   6  -7  -2   19.62    1.03
   6  -7  -2   19.36    0.90
  -6  -7  -3    3.66    0.58
   6   7  -3    2.72    0.46
   6  -7   3    3.20    0.47
   6  -7   3    3.95    0.46
  -6   7   3    3.22    0.54
  -6  -7   3    3.12    0.51
  -6  -7   3    2.92    0.52
   6   7   3    3.03    0.41
   6  -7  -3    2.97    0.49
   6  -7  -3    3.81    0.58
   6  -7   4   23.81    1.11
  -6   7   4   23.70    1.22
   6  -7   4   22.49    1.04
   6   7  -4   24.17    1.14
   6  -7   4   24.15    1.15
   6  -7   4   23.47    1.09
   6  -7  -4   23.18    1.37
   6  -7  -4   24.29    1.12
   6   7   4   24.54    0.89
  -6  -7   4   24.73    1.29
   7  -7   0   41.17    1.38
  -7  -7   0   43.65    1.46
   7  -7   0   41.48    1.42
   7   7   0   43.87    1.39
  -7   7   0   44.41    1.47
   7  -7   0   43.04    1.29
  -7   7   0   39.86    1.66
   7   7  -1    1.98    0.47
  -7   7   1    2.97    0.53
   7  -7   1    1.88    0.43
   7  -7   1    1.92    0.47
   7  -7   1    2.54    0.43
  -7  -7  -1    2.43    0.48
  -7  -7   1    1.95    0.36
  -7   7  -1    2.64    0.51
  -7   7  -1    2.51    0.63
  -7  -7   1    2.81    0.44
  -7  -7   1    2.21    0.51
   7   7   1    2.85    0.47
   7  -7  -1    2.68    0.49
   7  -7  -1    2.02    0.44
   7  -7  -1    1.82    0.41
  -7   7   2   39.47    1.46
   7  -7   2   36.70    1.33
  -7  -7  -2   39.62    1.44
   7  -7   2   36.76    1.34
   7   7  -2   35.59    1.33
   7  -7   2   35.13    1.26
  -7  -7   2   36.78    1.26
  -7   7  -2   37.60    1.36
  -7  -7   2   37.64    1.41
   7   7   2   36.56    1.23
   7  -7  -2   36.21    1.41
   7  -7  -2   34.88    1.31
   7  -7   3    0.96    0.53
  -7   7   3    2.16    0.61
   7   7  -3    3.07    0.90
   7  -7  -3    0.77    0.50
  -7  -7   3    0.95    0.54
   7   7   3    0.45    0.40
   0  -8   0   42.20    1.18
   0   8   0   43.26    1.11
   0   8   0   42.18    1.00
   0  -8   0   41.55    0.98
   0  -8   1    0.21    0.20
   0  -8  -1    0.31    0.28
   0   8  -1    0.14    0.16
   0  -8  -1    0.19    0.14
   0   8   1    0.12    0.10
   0   8   1    0.05    0.14
   0   8   1    0.35    0.13
   0  -8   1   -0.03    0.18
   0  -8   2    6.56    0.27
   0   8   2    7.07    0.32
   0   8   2    7.66    0.60
   0   8  -2    7.00    0.42
   0   8   2    7.36    0.37
   0  -8   2    7.23    0.53
   0  -8  -2    7.23    0.33
   0  -8   2    6.56    0.43
   0  -8  -2    7.61    0.66
   0  -8   2    6.75    0.51
   0   8   3    0.48    0.21
   0   8  -3    0.12    0.21
   0  -8   3    0.01    0.16
   0  -8  -3    0.23    0.13
   0  -8   3   -0.03    0.23
   0  -8   3   -0.12    0.25
   0   8   3    0.26    0.32
   0  -8  -3    0.18    0.31
   0  -8   3   -0.25    0.21
   0   8   4   19.05    0.79
   0  -8   4   20.06    0.66
   0   8  -4   19.60    0.73
   0  -8  -4   19.42    0.90
   0  -8   4   20.93    0.92
   0   8   4   20.23    0.98
   0  -8   4   18.92    0.74
   0   8   5    0.00    0.45
   0  -8   5    0.11    0.27
   0   8  -5    0.05    0.26
   0   8   5    0.67    0.34
   0  -8  -5    0.79    0.37
   0  -8   5    0.31    0.30
   0  -8   6    3.32    0.47
   0   8   6    2.46    0.50
   0  -8  -6    3.22    0.56
  -1   8   0   66.10    1.45
  -1  -8   0   63.37    1.37
   1  -8   0   64.54    1.38
   1   8   0   62.33    1.30
  -1  -8   0   61.74    1.50
   1  -8   0   63.44    1.60
  -1   8   0   60.90    1.55
   1   8   0   63.40    1.38
  -1   8   1    0.23    0.28
  -1   8   1    0.66    0.14
   1  -8   1    0.59    0.25
   1   8  -1    0.41    0.10
   1   8  -1    0.18    0.16
  -1  -8  -1    0.21    0.15
   1  -8   1    0.15    0.21
  -1  -8  -1    0.55    0.28
   1   8   1    0.40    0.17
  -1   8  -1    0.16    0.16
   1   8   1    0.29    0.16
   1   8   1    0.25    0.12
   1   8   1    0.03    0.16
  -1  -8   1    0.19    0.11
  -1  -8   1    0.40    0.21
   1  -8  -1    0.09    0.14
   1   8  -2   83.50    1.82
  -1  -8  -2   87.49    1.70
  -1   8   2   86.92    1.74
   1  -8   2   81.64    1.95
   1  -8   2   84.90    1.83
  -1  -8  -2   86.08    1.94
  -1   8   2   83.36    2.05
   1   8  -2   81.46    1.62
   1   8   2   88.57    1.90
   1  -8  -2   84.28    1.68
  -1  -8   2   82.92    1.92
   1   8   2   86.33    1.68
   1   8   2   85.18    1.75
  -1  -8   2   84.80    1.90
   1  -8  -2   84.06    2.09
  -1  -8   2   82.17    1.68
  -1   8  -2   83.52    1.82
   1  -8  -2   86.77    1.72
   1   8   2   85.42    1.78
  -1  -8   2   83.62    1.83
   1   8  -3   -0.14    0.20
   1  -8   3    0.32    0.29
   1  -8   3   -0.09    0.23
  -1   8   3   -0.09    0.20
  -1  -8  -3    0.15    0.15
   1   8  -3   -0.12    0.15
   1  -8   3    0.18    0.14
  -1  -8  -3    0.03    0.27
   1  -8   3    0.16    0.15
  -1   8   3    0.63    0.34
   1  -8   3    0.20    0.29
   1  -8  -3    0.20    0.14
   1   8   3    0.12    0.12
   1   8   3   -0.09    0.28
  -1  -8   3    0.16    0.27
   1  -8  -3   -0.29    0.16
   1  -8  -3   -0.05    0.33
   1  -8  -3    0.00    0.16
  -1  -8   3   -0.29    0.23
   1   8   3   -0.04    0.20
  -1   8  -3    0.17    0.20
  -1  -8   3    0.15    0.20
  -1  -8  -4   34.05    1.05
  -1   8   4   32.70    1.02
   1  -8   4   32.27    0.98
   1   8  -4   26.27    1.20
  -1   8   4   33.64    1.28
   1  -8   4   32.69    1.17
   1   8  -4   32.28    0.97
   1  -8   4   32.80    1.15
   1  -8   4   32.60    0.86
   1   8   4   32.18    1.00
  -1  -8   4   32.37    1.00
  -1  -8   4   32.47    1.16
  -1   8  -4   31.41    0.97
   1  -8  -4   32.42    0.97
   1   8   4   32.99    1.13
  -1  -8   4   33.13    0.93
   1  -8  -4   32.83    1.21
   1  -8   5    0.73    0.27
   1   8  -5    0.17    0.35
  -1   8   5   -0.02    0.31
   1  -8   5    0.54    0.30
   1  -8   5    0.31    0.37
  -1  -8  -5   -0.27    0.31
   1   8  -5    0.16    0.27
   1   8   5   -0.05    0.43
   1  -8  -5    0.11    0.39
  -1  -8   5   -0.27    0.34
   1   8   5    0.06    0.33
   1  -8   6   21.81    0.95
   1  -8   6   23.12    0.95
   1  -8   6   23.56    1.25
  -1  -8  -6   24.55    1.10
   1   8  -6   23.79    0.95
  -1   8   6   23.67    1.14
  -1  -8   6   24.37    1.03
   1  -8  -6   26.38    1.29
   1   8   6   22.61    1.17
   2  -8   0   13.31    0.33
  -2  -8   0   13.82    0.59
   2   8   0   13.36    0.56
  -2  -8   0   13.37    0.46
   2  -8   0   14.26    0.77
   2   8   0   13.20    0.53
   2  -8   0   12.25    0.61
  -2   8   0   12.33    0.41
  -2   8   0   14.18    0.71
  -2  -8   0   13.78    0.56
   2  -8   1   58.07    1.53
   2  -8   1   58.32    1.35
  -2  -8  -1   54.95    1.39
  -2  -8  -1   60.44    1.31
   2   8  -1   57.92    1.25
   2   8  -1   56.82    1.34
  -2   8   1   58.12    1.23
  -2   8   1   56.57    1.59
   2   8   1   58.41    1.29
   2  -8  -1   59.32    1.29
  -2  -8   1   58.64    1.26
  -2  -8   1   58.03    1.36
  -2  -8   1   58.20    1.34
   2   8   1   58.79    1.27
  -2  -8   1   57.91    1.39
   2   8   1   60.27    1.36
   2  -8  -1   56.14    1.20
  -2   8  -1   57.51    1.51
   2  -8  -1   57.58    1.62
   2   8  -2    6.65    0.46
  -2   8   2    6.27    0.70
   2  -8   2    7.42    0.48
  -2   8   2    6.71    0.44
   2   8  -2    6.65    0.35
   2  -8   2    7.05    0.25
  -2  -8  -2    6.75    0.40
  -2  -8  -2    6.97    0.51
   2  -8   2    6.45    0.57
   2  -8   2    6.59    0.32
   2  -8  -2    7.04    0.37
  -2  -8   2    6.85    0.45
   2   8   2    6.32    0.42
   2  -8  -2    6.73    0.35
   2   8   2    6.25    0.49
   2   8   2    6.99    0.36
  -2  -8   2    6.47    0.48
   2  -8  -2    6.76    0.40
  -2  -8   2    7.43    0.51
  -2  -8   2    7.42    0.51
   2   8   2    6.81    0.41
   2  -8  -2    7.86    0.75
   2  -8   3   48.06    1.04
   2  -8   3   47.31    1.07
   2   8  -3   45.82    1.10
   2  -8   3   44.95    1.38
   2  -8   3   45.66    1.45
  -2   8   3   48.21    1.53
  -2  -8  -3   48.34    1.19
   2  -8   3   48.10    1.25
  -2   8   3   49.00    1.21
  -2  -8  -3   48.66    1.07
   2   8   3   47.74    1.27
   2  -8  -3   48.09    1.04
  -2  -8   3   47.08    1.26
   2  -8  -3   46.46    2.07
   2  -8  -3   48.23    1.17
   2   8   3   47.97    1.01
  -2  -8   3   45.79    1.31
  -2  -8   3   47.63    1.18
   2  -8  -3   48.10    1.12
   2   8   3   48.20    1.23
   2   8   3   48.13    1.21
  -2   8   4    6.58    0.90
   2  -8   4    8.62    0.71
   2   8  -4    7.26    0.51
   2   8  -4    7.65    0.53
   2  -8   4    7.90    0.66
   2  -8   4    7.28    0.56
   2  -8   4    7.70    0.46
  -2   8   4    6.55    0.66
   2  -8   4    7.93    0.45
  -2  -8  -4    7.79    0.54
   2   8   4    7.16    0.57
   2   8   4    6.99    0.75
  -2  -8   4    7.82    0.75
   2  -8  -4    7.65    0.78
   2   8   4    6.76    0.69
  -2  -8   4    6.07    0.56
  -2  -8   4    7.78    0.55
   2  -8  -4    7.70    0.53
   2   8  -5   22.57    0.94
   2  -8   5   21.88    0.83
   2  -8   5   23.17    0.88
   2   8  -5   22.28    0.87
  -2  -8  -5   23.13    0.88
   2  -8   5   22.35    0.81
  -2   8   5   23.11    1.00
   2  -8   5   24.29    1.09
   2  -8  -5   24.49    1.18
  -2  -8   5   23.33    0.93
   2   8   5   21.69    0.95
  -2  -8   5   21.17    0.89
   2   8   5   21.28    1.00
  -3  -8   0   13.72    0.61
   3  -8   0   13.03    0.57
  -3  -8   0   14.06    0.58
   3  -8   0   13.37    0.80
  -3  -8   0   13.61    0.48
   3   8   0   13.76    0.59
  -3  -8   0   13.69    0.57
   3  -8   0   14.28    0.59
   3   8   0   13.68    0.68
  -3   8   0   13.08    0.78
  -3   8   0   12.77    0.54
   3  -8   1  101.40    2.20
   3   8  -1  105.93    2.19
  -3   8   1  103.02    2.12
  -3  -8  -1  100.96    2.11
   3   8  -1  102.56    2.20
  -3   8   1  100.07    2.48
   3  -8   1  104.07    1.99
   3  -8   1  104.66    2.41
   3  -8  -1  100.79    2.16
   3   8   1  104.47    2.27
  -3   8  -1  101.08    2.00
  -3   8  -1  104.23    2.41
  -3  -8   1  105.72    2.19
   3   8   1  103.95    2.14
  -3  -8   1  106.26    2.18
  -3  -8   1  105.77    2.14
   3  -8  -1  106.07    2.50
   3  -8  -1  105.04    2.15
  -3  -8   1  105.56    2.22
   3  -8  -1  104.34    2.04
   3   8  -2    0.67    0.24
   3  -8   2    1.35    0.33
  -3   8   2    0.96    0.27
   3   8  -2    0.45    0.32
  -3  -8  -2    1.06    0.20
   3  -8   2    0.69    0.16
  -3  -8  -2    0.74    0.23
  -3   8   2    0.45    0.40
   3  -8   2    1.22    0.21
   3  -8   2    1.10    0.29
   3   8   2    1.00    0.31
   3  -8  -2    0.94    0.20
  -3  -8   2    0.76    0.43
   3  -8  -2    0.82    0.24
   3  -8  -2    0.59    0.22
  -3  -8   2    0.77    0.30
   3   8   2    0.63    0.15
   3  -8  -2    1.43    0.58
   3   8   2    0.65    0.21
  -3  -8   2    0.91    0.26
  -3   8   3   75.15    2.11
   3  -8   3   73.21    1.61
   3  -8   3   74.02    1.76
   3   8  -3   71.48    1.66
   3  -8   3   75.97    1.91
   3   8  -3   73.94    1.76
   3  -8   3   78.60    1.60
  -3  -8  -3   74.50    1.62
  -3  -8  -3   75.33    1.54
  -3   8   3   74.64    1.74
   3  -8  -3   77.13    1.70
   3   8   3   75.13    1.57
  -3  -8   3   73.81    1.75
   3  -8  -3   75.51    1.58
   3  -8  -3   72.37    1.66
   3   8   3   76.42    1.85
   3  -8  -3   74.70    2.05
   3   8   3   78.73    1.56
  -3  -8   3   73.38    1.81
  -3  -8   3   73.74    1.78
   3  -8   4    5.85    0.72
   3   8  -4    5.86    0.60
   3  -8   4    7.80    0.47
   3  -8   4    7.02    0.61
   3  -8   4    5.92    0.57
  -3   8   4    6.72    0.99
   3  -8   4    8.46    0.69
   3   8  -4    7.04    0.55
  -3  -8  -4    7.92    0.46
  -3   8   4    7.36    0.66
   3   8   4    7.17    0.60
  -3  -8   4    6.99    0.77
   3   8   4    7.33    0.50
  -3  -8   4    7.27    0.61
   3  -8  -4    7.17    0.51
   3  -8  -4    6.21    0.84
   3  -8  -4    7.31    0.53
   3   8   4    6.12    0.77
  -3  -8   4    5.73    0.60
   3  -8  -4    6.22    0.40
   3  -8   5   42.18    1.36
   3   8  -5   41.41    1.39
   3  -8   5   44.99    1.34
  -3   8   5   42.86    1.43
  -3  -8  -5   45.72    1.19
   3  -8   5   44.08    1.27
   3   8  -5   43.66    1.31
   3  -8   5   43.86    1.50
   3   8   5   43.72    1.26
  -3  -8   5   46.23    1.38
   3   8   5   46.21    1.46
   3  -8  -5   47.45    1.71
  -4   8   0    4.93    0.49
   4  -8   0    4.00    0.46
   4   8   0    4.35    0.46
  -4  -8   0    3.93    0.45
   4  -8   0    4.86    0.68
  -4  -8   0    3.96    0.50
  -4  -8   0    3.98    0.31
  -4  -8   0    4.10    0.38
  -4   8   0    3.71    0.51
   4  -8   0    3.91    0.34
   4  -8   0    3.83    0.48
   4   8   0    5.19    0.64
  -4  -8  -1  125.93    2.64
  -4  -8  -1  131.09    2.63
   4  -8   1  121.61    2.47
   4  -8   1  126.01    2.67
   4   8  -1  121.48    2.68
  -4   8   1  125.00    2.96
   4  -8   1  126.21    2.66
   4  -8   1  126.16    2.85
  -4   8   1  127.46    2.63
   4   8  -1  124.82    2.69
   4   8   1  126.17    2.77
  -4  -8   1  125.62    2.51
   4  -8  -1  128.65    2.62
  -4  -8   1  128.06    2.66
  -4  -8   1  127.74    2.67
  -4   8  -1  124.14    2.52
   4  -8  -1  129.49    2.51
  -4   8  -1  120.93    2.85
   4   8   1  123.99    2.59
   4  -8  -1  127.25    2.63
   4  -8  -1  122.81    3.24
  -4  -8   1  128.61    2.56
   4  -8   2   -0.05    0.21
  -4   8   2    0.07    0.41
   4  -8   2   -0.14    0.23
   4  -8   2    0.17    0.27
   4  -8   2    0.48    0.32
  -4   8   2    0.03    0.27
  -4  -8  -2    0.04    0.26
   4   8  -2    0.36    0.29
   4   8  -2    0.15    0.26
   4  -8  -2    0.21    0.19
   4  -8  -2    0.33    0.26
  -4  -8   2    0.21    0.27
  -4  -8   2    0.26    0.25
   4  -8  -2   -0.05    0.25
  -4  -8   2    0.08    0.29
   4  -8  -2    0.80    0.38
   4   8   2    0.43    0.35
   4   8   2    0.42    0.22
   4  -8   3   91.05    1.91
  -4   8   3   89.29    2.12
   4   8  -3   90.89    2.11
   4  -8   3   93.64    2.11
   4  -8   3   90.33    2.11
   4  -8   3   91.25    2.23
  -4   8   3   85.22    2.44
   4  -8   3   88.71    1.97
   4   8  -3   87.61    2.06
   4  -8  -3   91.40    2.39
  -4  -8   3   89.43    2.11
   4   8   3   88.39    2.18
   4  -8  -3   89.80    2.03
   4  -8  -3   92.49    1.95
   4  -8  -3   90.39    2.01
  -4  -8   3   87.22    2.10
  -4  -8   3   89.93    2.13
   4   8   3   92.62    1.90
  -4   8   4    4.14    0.63
   4  -8   4    2.64    0.35
   4   8  -4    4.49    0.55
   4   8  -4    3.12    0.49
   4  -8   4    2.92    0.53
   4  -8   4    2.65    0.43
  -4  -8  -4    2.86    0.41
   4  -8   4    2.11    0.44
   4  -8   4    3.19    0.39
   4  -8   4    2.46    0.45
   4  -8  -4    2.76    0.42
  -4  -8   4    2.90    0.51
   4   8   4    1.72    0.40
   4  -8  -4    3.03    0.37
   4  -8  -4    2.64    0.39
   4  -8  -4    2.69    0.53
   4   8   4    2.97    0.34
  -4  -8   4    2.41    0.43
   4  -8   5   55.45    1.77
   4   8  -5   57.47    1.62
   4  -8   5   56.08    1.55
   4  -8   5   56.17    1.60
  -4   8   5   57.13    1.74
   4  -8   5   55.71    1.48
  -4  -8   5   56.41    1.68
   4   8   5   55.78    1.75
   4  -8  -5   54.24    1.99
  -5   8   0   15.62    0.77
   5   8   0   14.77    0.93
   5  -8   0   14.35    0.61
   5  -8   0   14.06    0.71
   5  -8   0   15.01    0.91
  -5  -8   0   14.76    0.83
  -5  -8   0   15.62    0.76
  -5   8   0   14.34    0.97
   5  -8   0   14.47    0.73
   5   8   0   15.09    0.71
   5   8  -1   17.34    0.77
  -5  -8  -1   16.80    0.78
   5   8  -1   17.76    0.94
  -5   8   1   17.07    1.07
  -5  -8  -1   15.38    0.78
   5  -8   1   16.53    0.77
   5  -8   1   16.97    0.91
  -5   8   1   16.83    0.82
   5  -8   1   17.07    0.80
  -5   8  -1   16.29    0.75
  -5  -8   1   16.96    0.65
   5   8   1   17.22    0.75
   5  -8  -1   18.37    0.99
   5   8   1   17.35    0.99
   5  -8  -1   16.99    0.65
  -5  -8   1   17.22    0.80
  -5  -8   1   16.81    0.83
  -5  -8   1   16.51    0.63
   5  -8  -1   16.20    0.75
  -5   8  -1   16.94    0.96
   5  -8   2   13.39    0.76
  -5   8   2   12.36    1.08
  -5   8   2   12.14    0.91
   5  -8   2   14.22    0.65
   5  -8   2   14.92    0.76
   5   8  -2   14.18    0.74
   5   8  -2   14.35    0.87
   5  -8   2   15.43    0.87
  -5  -8  -2   12.54    0.78
   5   8   2   15.01    0.96
  -5  -8   2   12.77    0.78
   5  -8  -2   14.11    0.73
   5  -8  -2   14.40    0.95
   5  -8  -2   13.03    0.63
  -5  -8   2   12.75    0.71
  -5  -8   2   12.48    0.77
   5   8  -3   14.59    0.81
  -5  -8  -3   15.29    0.90
   5  -8   3   15.97    0.83
   5  -8   3   14.87    0.74
   5  -8   3   14.65    0.88
   5   8  -3   15.16    0.94
  -5   8   3   15.03    0.85
   5  -8  -3   14.71    0.72
   5   8   3   15.66    1.06
   5  -8  -3   16.46    1.02
  -5  -8   3   14.75    0.86
   5  -8  -3   13.89    0.79
  -5  -8   3   13.34    0.85
   5   8   3   15.04    0.67
   5  -8   4    8.37    0.71
  -5   8   4    9.13    0.86
   5  -8   4    8.69    0.85
   5   8  -4    8.99    1.15
  -5  -8  -4   10.61    0.84
   5  -8   4    8.68    0.76
   5   8  -4   10.43    0.75
  -5  -8   4    8.03    0.83
   5  -8  -4    8.44    0.75
   5   8   4    8.89    0.55
   5  -8  -4    7.22    1.05
   5   8   4    7.84    0.81
   6  -8   0   80.45    1.84
  -6   8   0   78.25    2.24
   6   8   0   77.49    2.13
  -6  -8   0   78.15    1.99
  -6  -8   0   75.08    1.97
   6  -8   0   78.50    2.10
   6  -8   0   77.56    1.96
  -6   8   0   81.35    2.04
   6   8   0   77.81    1.94
  -6   8   1   67.17    2.16
   6  -8   1   71.88    1.95
   6   8  -1   71.11    1.83
  -6  -8  -1   67.27    1.84
  -6   8   1   72.42    1.89
  -6  -8  -1   73.78    1.89
   6  -8   1   68.80    1.68
   6   8  -1   68.83    2.00
   6  -8   1   70.12    1.83
  -6  -8   1   68.76    1.56
   6  -8  -1   69.65    1.68
  -6   8  -1   69.29    2.03
  -6   8  -1   70.57    1.82
   6  -8  -1   70.59    1.82
  -6  -8   1   70.54    1.87
   6  -8  -1   70.79    2.00
   6   8   1   66.34    2.04
   6   8   1   69.37    1.76
  -6  -8   1   71.33    1.62
   6  -8   2   86.84    2.17
   6  -8   2   88.27    2.27
  -6  -8  -2   87.12    2.19
   6   8  -2   84.18    2.32
   6  -8   2   89.49    2.06
  -6   8   2   89.55    2.23
   6   8  -2   87.37    2.18
   6  -8  -2   89.40    2.06
   6   8   2   90.80    2.08
  -6  -8   2   90.30    2.25
   6  -8  -2   90.24    2.38
  -6  -8   2   86.90    2.04
   6  -8  -2   90.44    2.17
   6  -8   3   53.31    1.69
  -6   8   3   54.79    1.68
   6  -8   3   52.35    1.60
  -6  -8  -3   54.46    1.66
   6   8  -3   52.35    1.61
   6  -8   3   54.03    1.49
   6   8   3   53.82    1.42
   6  -8  -3   54.60    1.60
  -6  -8   3   54.55    1.70
  -6  -8   3   50.78    1.60
   6  -8  -3   54.58    1.84
  -7  -8   0   57.50    1.73
   7  -8   0   58.44    1.58
   7  -8   0   59.75    1.80
   7   8   0   59.53    1.70
   7  -8   0   57.30    1.70
  -7   8   0   59.19    1.75
  -7   8   1   39.42    1.46
  -7  -8  -1   38.09    1.40
   7  -8   1   35.33    1.21
   7  -8   1   38.56    1.41
   7   8  -1   37.08    1.35
   7  -8   1   38.13    1.35
  -7   8  -1   38.06    1.38
   7   8   1   38.70    1.29
  -7  -8   1   40.48    1.44
   7  -8  -1   34.87    1.19
   7  -8  -1   39.02    1.45
   7  -8  -1   39.34    1.36
  -7   8  -1   41.92    2.02
   7  -8   2   32.45    1.33
   7  -8   2   32.08    1.34
  -7   8   2   33.35    1.40
   7  -8   2   32.51    1.17
   7   8  -2   32.76    1.31
   7   8   2   32.02    1.16
   7  -8  -2   32.86    1.29
  -7  -8   2   33.82    1.38
   7  -8  -2   33.43    1.40
   0  -9   0    0.13    0.21
   0  -9   0   -0.15    0.26
   0   9   0    0.42    0.30
   0   9   0    0.04    0.16
   0  -9   1    0.23    0.26
   0  -9  -1    0.86    0.35
   0   9   1    0.09    0.11
   0  -9   1   -0.10    0.19
   0  -9  -1   -0.09    0.16
   0   9   1    0.30    0.15
   0   9   1    0.12    0.19
   0   9  -1    0.05    0.18
   0   9   1    0.37    0.30
   0  -9  -2    0.60    0.37
   0   9   2    0.02    0.17
   0  -9   2   -0.14    0.22
   0   9   2    0.24    0.30
   0  -9   2    0.37    0.27
   0  -9  -2   -0.11    0.16
   0   9  -2   -0.05    0.20
   0   9   2   -0.05    0.15
   0  -9   3    0.07    0.16
   0   9   3    0.14    0.21
   0   9   3   -0.12    0.32
   0  -9  -3    0.54    0.27
   0  -9  -3    0.18    0.31
   0  -9   3    0.27    0.27
   0  -9   3    0.35    0.29
   0  -9   3   -0.13    0.23
   0   9  -3    0.26    0.22
   0   9   4    0.44    0.43
   0  -9   4    0.31    0.35
   0  -9   4   -0.18    0.20
   0  -9   4    0.14    0.30
   0  -9   4   -0.04    0.27
   0   9   4   -0.40    0.24
   0  -9  -4    0.40    0.33
   0   9  -4   -0.03    0.22
   0  -9   5    0.59    0.42
   0  -9   5    1.18    0.35
   0   9   5    0.42    0.34
   0  -9  -5    0.41    0.39
   0   9  -5    0.76    0.31
   0  -9   5    0.36    0.29
  -1   9   0   68.18    1.48
   1  -9   0   63.39    1.57
   1  -9   0   66.08    1.73
   1   9   0   68.45    1.47
  -1   9   0   66.43    1.66
   1   9   0   65.53    1.35
  -1  -9   0   65.00    1.63
   1   9   0   66.54    1.28
  -1   9   1  168.01    3.53
  -1  -9  -1  163.78    3.46
   1  -9   1  168.60    3.30
  -1  -9  -1  169.38    3.23
   1   9  -1  169.43    3.30
  -1   9   1  167.68    3.11
   1   9  -1  163.59    3.04
   1  -9   1  169.11    3.51
  -1  -9   1  169.93    3.44
   1   9   1  170.14    3.22
   1   9   1  173.07    3.35
   1  -9  -1  170.24    3.60
   1   9   1  165.86    3.14
  -1  -9   1  171.06    3.31
   1   9   1  172.78    3.24
  -1   9  -1  173.63    3.32
  -1  -9   1  165.70    3.05
   1  -9  -1  168.93    3.22
   1  -9   2   17.97    0.69
  -1  -9  -2   17.53    0.85
   1  -9   2   17.72    0.81
   1   9  -2   16.85    0.67
  -1  -9  -2   17.85    0.57
   1   9  -2   17.62    0.45
  -1   9   2   19.29    0.92
  -1   9   2   18.33    0.58
   1   9   2   17.94    0.55
   1  -9  -2   18.24    0.96
  -1  -9   2   17.66    0.75
  -1  -9   2   17.02    0.52
   1   9   2   17.29    0.63
  -1   9  -2   18.01    0.68
   1   9   2   17.46    0.73
  -1  -9   2   17.40    0.69
  -1  -9   2   17.28    0.76
   1   9   2   18.24    0.60
   1  -9  -2   17.44    0.55
   1  -9   3  123.21    2.61
   1  -9   3  123.12    2.33
   1  -9   3  120.93    2.34
  -1  -9  -3  126.72    2.37
  -1  -9  -3  128.67    2.68
  -1   9   3  125.48    2.53
   1   9  -3  122.10    2.59
   1  -9   3  122.08    2.77
  -1   9   3  129.06    2.91
   1   9  -3  123.23    2.38
   1  -9   3  124.55    2.77
  -1  -9   3  121.14    2.71
  -1   9  -3  124.63    2.60
   1  -9  -3  123.32    2.39
   1   9   3  124.84    2.57
   1   9   3  127.03    2.35
  -1  -9   3  120.39    2.73
  -1  -9   3  123.20    2.43
  -1  -9   3  119.10    2.59
   1   9   3  125.99    2.55
   1  -9  -3  121.60    2.34
   1   9   3  129.80    2.71
   1  -9  -3  121.05    2.89
   1  -9   4   31.28    1.19
   1  -9   4   30.80    1.16
   1   9  -4   31.00    0.87
   1  -9   4   31.85    1.01
   1  -9   4   30.92    0.83
   1  -9   4   29.87    0.81
  -1  -9  -4   31.38    1.08
  -1   9   4   32.15    1.02
   1   9  -4   30.21    0.99
  -1   9   4   32.20    1.28
   1   9   4   32.19    1.16
  -1  -9   4   28.33    1.15
   1  -9  -4   32.08    1.24
  -1   9  -4   30.33    0.98
   1   9   4   30.93    1.08
   1   9   4   31.78    1.01
  -1  -9   4   31.70    1.02
  -1  -9   4   30.95    0.91
   1   9  -5   70.09    1.78
   1  -9   5   71.55    2.03
   1   9  -5   72.02    1.74
   1  -9   5   73.99    1.67
   1  -9   5   76.40    2.09
  -1  -9  -5   73.73    1.87
  -1   9   5   71.10    1.85
   1  -9   5   73.76    1.76
   1   9   5   71.89    1.97
   1  -9  -5   70.79    2.05
   1   9   5   73.32    1.88
  -1  -9   5   74.91    1.76
   2   9   0   15.08    0.61
   2   9   0   15.41    0.60
  -2  -9   0   15.90    0.63
   2  -9   0   16.35    0.87
  -2   9   0   16.19    0.82
  -2  -9   0   16.38    0.71
   2  -9   0   15.95    0.60
  -2  -9  -1   41.03    1.19
   2   9  -1   41.35    1.10
  -2   9   1   41.99    0.96
   2   9  -1   41.78    0.97
  -2  -9  -1   43.21    1.07
  -2   9   1   42.50    1.37
   2  -9   1   42.39    1.11
   2   9   1   42.19    1.03
   2   9   1   42.11    1.11
  -2  -9   1   41.31    1.16
  -2  -9   1   42.44    1.13
  -2  -9   1   42.09    0.97
  -2   9  -1   41.84    1.27
  -2  -9   1   42.54    1.12
   2   9   1   40.59    1.01
   2  -9  -1   43.49    1.41
   2  -9  -1   41.60    0.95
  -2  -9  -2   10.82    0.65
  -2   9   2   10.20    0.51
  -2   9   2   11.72    0.85
   2   9  -2    9.43    0.63
   2   9  -2   10.09    0.40
  -2  -9  -2   10.52    0.49
   2  -9   2   10.49    0.58
   2  -9   2   10.55    0.72
  -2  -9   2   11.20    0.61
  -2  -9   2   10.69    0.60
  -2  -9   2    9.98    0.50
   2   9   2   10.12    0.50
   2   9   2   10.07    0.71
   2   9   2   10.57    0.49
   2  -9  -2    9.89    0.42
   2  -9  -2    9.78    0.48
   2  -9  -2    9.57    0.45
  -2  -9   2   10.17    0.60
   2  -9  -2   10.79    0.86
   2   9   2   10.20    0.44
  -2  -9  -3   30.36    0.82
   2  -9   3   33.79    1.00
   2  -9   3   31.59    1.13
   2   9  -3   31.62    0.98
  -2   9   3   31.76    1.29
  -2  -9  -3   33.40    0.97
   2  -9   3   32.13    1.00
  -2   9   3   31.73    0.95
   2  -9   3   32.48    1.15
   2  -9   3   30.94    0.73
   2   9  -3   31.67    0.83
   2   9   3   30.69    1.04
   2  -9  -3   31.09    0.79
   2   9   3   32.65    0.97
   2  -9  -3   31.95    0.87
   2  -9  -3   32.29    1.26
  -2  -9   3   31.99    0.91
  -2  -9   3   32.20    1.02
   2   9   3   33.07    0.77
   2  -9  -3   33.44    0.91
  -2  -9   3   31.34    1.08
   2   9   3   33.42    0.97
  -2   9   4    7.64    0.93
   2  -9   4    9.82    0.64
   2   9  -4    8.00    0.55
   2  -9   4    8.41    0.45
  -2  -9  -4    7.96    0.58
   2  -9   4    8.99    0.48
  -2   9   4    8.37    0.63
   2  -9   4    9.42    0.76
   2  -9   4    8.87    0.79
   2   9  -4    8.10    0.57
  -2  -9   4    9.54    0.59
  -2  -9   4    7.52    0.80
  -2  -9   4    7.49    0.64
   2   9   4    8.71    0.63
   2   9   4    9.70    0.65
   2  -9  -4    8.07    0.55
   2  -9  -4    9.35    0.88
   2   9   4    8.75    0.76
   2  -9   5   15.51    0.72
  -2   9   5   15.56    0.90
   2   9  -5   14.39    0.84
   2  -9   5   15.74    0.99
   2   9  -5   15.78    0.80
  -2  -9  -5   12.42    1.23
   2  -9   5   15.49    0.68
   2   9   5   14.29    0.93
   2  -9  -5   15.45    1.09
   2   9   5   15.99    0.87
  -2  -9   5   15.44    0.93
  -3  -9   0   12.64    0.50
   3  -9   0   12.45    0.59
  -3  -9   0   13.58    0.64
   3  -9   0   12.83    0.86
  -3   9   0   12.84    0.83
   3  -9   0   12.50    0.39
  -3  -9   0   13.21    0.64
  -3  -9   0   13.69    0.56
   3   9   0   14.23    0.68
   3   9   0   13.02    0.60
   3  -9   0   13.83    0.61
  -3   9   0   12.08    0.50
  -3  -9  -1   77.74    1.70
   3  -9   1   73.34    1.74
   3  -9   1   70.44    1.94
  -3   9   1   74.69    1.63
  -3  -9  -1   74.10    1.68
   3  -9   1   74.77    1.45
   3   9  -1   76.61    1.75
   3   9  -1   74.02    1.68
  -3   9   1   73.23    2.04
  -3  -9   1   76.34    1.67
  -3  -9   1   74.95    1.75
  -3  -9   1   75.86    1.74
   3  -9  -1   75.71    1.54
  -3  -9   1   74.18    1.67
   3   9   1   74.99    1.66
   3  -9  -1   74.24    2.63
   3  -9  -1   76.23    1.68
   3   9   1   75.59    1.80
  -3   9  -1   74.85    1.95
   3  -9  -1   84.18    1.72
  -3   9   2    5.59    0.48
   3  -9   2    4.63    0.25
   3   9  -2    4.42    0.42
   3  -9   2    4.77    0.49
   3  -9   2    5.11    0.31
  -3  -9  -2    3.88    0.38
  -3   9   2    4.87    0.76
   3  -9   2    4.94    0.61
   3   9  -2    4.90    0.49
   3  -9  -2    4.71    0.73
  -3  -9   2    5.68    0.52
   3  -9  -2    4.25    0.35
   3  -9  -2    4.41    0.41
  -3  -9   2    4.32    0.49
   3   9   2    4.46    0.29
   3  -9  -2    4.54    0.43
   3   9   2    4.76    0.37
  -3  -9   2    4.45    0.47
   3   9   2    4.57    0.56
  -3  -9   2    4.70    0.48
  -3  -9  -3   58.72    1.29
   3  -9   3   59.09    1.25
   3   9  -3   58.41    1.50
   3  -9   3   58.99    1.31
  -3   9   3   57.43    1.86
  -3   9   3   59.68    1.48
   3  -9   3   56.96    1.50
   3  -9   3   58.69    1.66
   3   9  -3   54.44    1.37
  -3  -9  -3   58.16    1.37
  -3  -9   3   59.07    1.47
   3   9   3   57.78    1.58
   3  -9  -3   58.71    1.41
  -3  -9   3   57.84    1.52
   3   9   3   61.20    1.53
   3  -9  -3   57.97    1.80
   3  -9  -3   58.18    1.33
   3   9   3   56.89    1.29
  -3  -9   3   56.94    1.55
   3  -9  -3   58.39    1.40
   3   9   3   59.95    1.29
   3  -9   4    7.98    0.72
   3   9  -4    6.69    0.59
  -3   9   4    7.17    0.68
  -3  -9  -4    7.81    0.51
   3   9  -4    6.37    0.66
  -3  -9  -4    7.66    0.50
   3  -9   4    5.65    0.60
   3  -9   4    7.66    0.46
   3  -9   4    7.20    1.01
   3  -9   4    7.27    0.74
   3  -9  -4    6.20    0.77
  -3  -9   4    8.53    0.78
  -3  -9   4    7.55    0.65
  -3  -9   4    8.39    0.79
   3  -9  -4    8.56    0.93
   3  -9  -4    6.97    0.56
   3  -9  -4    7.42    0.45
   3   9   4    9.12    0.92
   3   9   4    7.79    0.53
  -3   9   5   34.23    1.29
   3   9  -5   32.18    1.16
   3  -9   5   34.33    1.06
   3   9  -5   32.48    1.20
   3  -9   5   36.56    1.41
  -3  -9  -5   34.54    1.04
  -3  -9   5   32.30    1.19
   3  -9  -5   35.72    1.57
   3   9   5   33.14    1.28
   4   9   0   23.53    0.97
  -4  -9   0   25.98    0.68
  -4  -9   0   24.59    0.89
   4  -9   0   25.00    0.87
   4  -9   0   23.62    0.84
  -4  -9   0   23.86    0.82
  -4   9   0   22.04    1.08
  -4  -9   0   23.62    0.77
   4  -9   0   24.02    0.67
  -4   9   0   24.43    0.81
   4   9   0   24.00    0.86
   4  -9   0   23.09    1.07
   4  -9   1    3.42    0.45
   4  -9   1    4.46    0.31
   4   9  -1    3.36    0.47
  -4   9   1    3.55    0.40
   4   9  -1    3.62    0.44
  -4  -9  -1    3.88    0.43
   4  -9   1    4.91    0.51
  -4   9   1    3.58    0.58
  -4  -9  -1    3.66    0.36
   4  -9   1    4.05    0.52
  -4   9  -1    3.54    0.51
   4  -9  -1    3.83    0.48
   4  -9  -1    3.24    0.43
   4  -9  -1    5.20    0.72
   4  -9  -1    4.10    0.33
  -4   9  -1    4.15    0.40
   4   9   1    4.70    0.70
  -4  -9   1    3.69    0.48
   4   9   1    3.59    0.43
  -4  -9   1    3.99    0.45
  -4  -9   1    4.93    0.55
  -4  -9   1    4.22    0.42
  -4   9   2   22.71    1.21
   4  -9   2   22.42    1.01
  -4   9   2   22.87    0.86
   4  -9   2   22.11    0.88
   4  -9   2   23.51    0.69
  -4  -9  -2   21.59    0.84
   4   9  -2   23.51    0.89
   4  -9   2   24.55    0.89
   4   9  -2   24.14    0.89
   4  -9  -2   23.46    0.85
   4  -9  -2   23.02    0.75
   4  -9  -2   23.18    0.82
   4   9   2   23.50    0.77
  -4  -9   2   23.71    0.85
   4   9   2   22.46    1.03
  -4  -9   2   22.38    0.90
  -4  -9   2   23.39    0.88
  -4  -9   2   22.59    0.84
   4  -9  -2   22.75    1.14
  -4  -9  -3    2.49    0.42
   4  -9   3    2.98    0.42
  -4   9   3    2.42    0.40
   4  -9   3    1.92    0.42
  -4   9   3    2.40    0.98
   4  -9   3    2.34    0.31
   4   9  -3    1.89    0.41
   4   9  -3    1.78    0.34
   4  -9   3    2.73    0.38
   4  -9   3    2.28    0.38
  -4  -9   3    1.34    0.40
  -4  -9   3    2.13    0.39
  -4  -9   3    2.01    0.42
   4   9   3    2.01    0.50
   4  -9  -3    2.14    0.38
   4  -9  -3    2.20    0.32
   4  -9  -3    2.01    0.51
   4  -9  -3    2.85    0.37
   4   9   3    2.27    0.30
   4   9   3    2.75    0.39
  -4   9   4   14.28    0.88
   4  -9   4   14.84    0.83
  -4  -9  -4   15.04    0.76
   4  -9   4   14.14    0.64
   4  -9   4   14.83    0.74
   4   9  -4   11.93    0.89
   4   9  -4   13.78    0.78
   4  -9   4   13.64    0.93
   4   9   4   15.45    0.54
   4  -9  -4   14.39    0.68
   4  -9  -4   12.16    0.73
   4  -9  -4   13.55    0.77
   4   9   4   13.22    0.86
  -4  -9   4   13.70    0.85
   4  -9  -4   16.24    1.13
  -5  -9   0   58.51    1.26
  -5   9   0   56.22    1.49
   5   9   0   58.66    1.68
   5  -9   0   58.09    1.75
  -5   9   0   58.02    1.83
  -5  -9   0   59.30    1.55
   5  -9   0   58.65    1.53
   5   9   0   57.96    1.51
  -5  -9   0   51.76    1.79
  -5  -9   0   55.51    1.29
   5  -9   0   56.52    1.51
   5  -9   1   13.35    0.77
   5   9  -1   14.82    0.75
  -5   9   1   15.91    0.81
  -5  -9  -1   15.62    0.75
   5  -9   1   15.00    0.93
   5  -9   1   13.84    0.59
   5  -9   1   16.04    0.77
  -5   9   1   14.96    1.12
  -5  -9  -1   13.70    0.81
   5   9  -1   14.44    0.94
   5  -9  -1   14.64    0.74
  -5  -9   1   13.09    0.80
   5  -9  -1   14.86    0.61
   5   9   1   15.64    0.71
  -5  -9   1   15.02    0.61
  -5   9  -1   14.20    0.70
  -5  -9   1   15.37    0.66
   5  -9  -1   14.04    0.78
   5  -9  -1   15.32    0.98
   5   9   1   15.58    1.02
  -5   9  -1   15.03    1.01
   5  -9   2   93.40    2.37
  -5   9   2  101.53    3.02
   5   9  -2   90.60    2.25
   5  -9   2   90.62    2.19
  -5  -9  -2   88.92    2.15
   5   9  -2   90.99    2.20
   5  -9  -2   91.30    2.15
   5   9   2   92.50    2.07
  -5  -9   2   91.72    2.09
   5  -9  -2   93.92    2.13
  -5  -9   2   92.86    2.21
   5  -9  -2   90.03    2.03
   5   9   2   92.52    2.38
   5  -9  -2   93.49    2.47
   5  -9   3   11.83    0.66
   5  -9   3   12.93    0.79
   5  -9   3   10.43    0.59
   5  -9   3    9.40    0.85
  -5  -9  -3    9.97    0.87
  -5   9   3   12.00    0.82
   5   9  -3   13.18    0.95
   5   9  -3   10.96    0.75
  -5  -9   3   11.30    0.89
   5  -9  -3    9.42    0.66
   5   9   3   10.42    0.75
   5  -9  -3   10.74    0.77
  -5  -9   3   11.19    0.81
   5  -9  -3   10.85    0.98
   5  -9  -3   11.28    0.79
   5   9  -4   35.34    1.30
   5  -9   4   32.21    1.43
   5  -9   4   33.97    1.42
   5  -9   4   36.99    1.31
  -5   9   4   34.72    1.34
   5   9   4   36.62    1.00
  -5  -9   4   33.86    1.36
   5   9   4   35.12    1.36
   5  -9  -4   38.70    1.64
   5  -9  -4   37.15    1.31
   6   9   0   11.07    1.07
   6   9   0   11.26    0.74
  -6   9   0   11.36    1.17
  -6  -9   0   10.96    0.76
   6  -9   0   11.88    0.76
   6  -9   0   11.30    0.62
   6  -9   0   12.87    0.94
  -6   9   0   10.54    0.83
  -6  -9  -1    2.93    0.44
   6  -9   1    2.88    0.44
   6   9  -1    2.95    0.46
  -6  -9  -1    2.26    0.53
   6  -9   1    2.97    0.52
   6  -9   1    3.52    0.44
   6   9  -1    2.34    0.66
  -6   9   1    2.25    0.49
  -6  -9   1    2.51    0.35
  -6  -9   1    2.69    0.36
   6   9   1    2.80    0.41
   6  -9  -1    3.01    0.46
  -6   9  -1    3.24    0.49
   6  -9  -1    2.87    0.35
   6   9   1    3.43    0.66
  -6  -9   1    3.02    0.46
   6  -9  -1    2.72    0.53
  -6   9  -1    3.09    0.64
  -6   9   2   10.20    0.90
   6  -9   2   10.35    0.92
   6   9  -2    9.93    0.79
   6  -9   2   10.95    0.80
   6  -9   2   11.29    0.68
   6   9  -2   11.98    1.12
  -6  -9  -2   11.96    1.03
  -6  -9   2   11.29    0.84
   6  -9  -2   12.02    1.00
   6  -9  -2   13.20    1.22
   6   9   2   11.12    0.69
  -6  -9   2   10.41    0.71
   6  -9  -2   10.40    0.67
  -6  -9   2   12.85    0.87
   6  -9  -2   10.69    0.79
   6   9  -3    3.75    0.58
  -6   9   3    3.55    0.63
   6  -9   3    3.12    0.58
   6  -9   3    2.56    0.53
  -6  -9  -3    2.34    0.61
  -6  -9   3    2.99    0.58
   6  -9  -3    3.82    0.72
  -6  -9   3    2.86    0.56
   6   9   3    2.56    0.39
   6  -9  -3    2.73    0.53
   6  -9  -3    2.18    0.58
   7  -9   0   26.44    1.17
  -7  -9   0   28.32    1.21
   7  -9   0   26.31    1.02
   7   9   0   29.25    1.17
   7  -9   0   26.75    1.29
  -7   9   0   27.62    1.24
  -7   9   1    0.74    0.54
   7   9  -1    1.33    0.49
   7  -9   1    0.59    0.48
  -7  -9  -1    1.27    0.48
   7  -9   1    1.36    0.40
   7  -9   1    1.19    0.48
   7  -9  -1    0.63    0.43
  -7   9  -1    1.76    0.50
   7   9   1    1.92    0.45
   7  -9  -1    2.42    0.58
   7  -9  -1    0.50    0.38
  -7  -9   1    0.88    0.46
   0 -10   0    5.71    0.43
   0 -10   0    5.81    0.63
   0  10   0    5.22    0.51
   0  10   0    5.19    0.40
   0 -10  -1    0.47    0.35
   0  10   1    0.57    0.18
   0  10   1    0.16    0.13
   0  10   1    0.01    0.18
   0 -10   1   -0.10    0.21
   0  10   1   -0.21    0.25
   0 -10   1    0.12    0.28
   0  10  -1    0.00    0.19
   0 -10  -1   -0.01    0.24
   0  10  -2    1.34    0.32
   0 -10  -2    1.09    0.21
   0  10   2    1.30    0.22
   0  10   2    0.91    0.21
   0  10   2    1.28    0.23
   0 -10   2    1.15    0.28
   0 -10  -2    0.73    0.38
   0 -10   2    0.83    0.33
   0 -10  -3    0.18    0.17
   0 -10   3    0.15    0.32
   0 -10   3   -0.11    0.26
   0 -10  -3    0.09    0.36
   0 -10   3    0.18    0.15
   0  10  -3   -0.21    0.20
   0 -10   3   -0.22    0.24
   0  10   3    0.40    0.37
   0  10   3    0.07    0.22
   0 -10   4    1.56    0.41
   0 -10   4    1.94    0.28
   0  10   4    1.68    0.46
   0  10   4    2.18    0.36
   0  10  -4    2.04    0.32
   0 -10   4    1.07    0.64
   0 -10   4    0.89    0.31
   0 -10  -4    1.66    0.44
   0 -10   5   -0.43    0.43
   0  10  -5   -0.22    0.31
   0  10   5    0.48    0.37
   0 -10   5    0.03    0.30
   0  10   5   -1.16    0.60
   0 -10  -5    0.21    0.44
   1  10   0  308.63    5.71
   1 -10   0  314.18    6.04
   1 -10   0  301.13    5.70
  -1 -10   0  311.04    5.71
  -1  10   0  310.07    5.96
   1  10   0  296.17    5.52
  -1 -10   0  301.77    5.90
  -1  10   0  310.23    5.72
   1  10   0  300.75    5.47
  -1 -10  -1    9.33    0.78
  -1  10   1    9.26    0.36
  -1  10   1    8.62    0.69
   1 -10   1    9.62    0.70
   1 -10   1    9.14    0.54
  -1 -10  -1    9.38    0.74
   1  10  -1    9.04    0.51
   1 -10  -1    9.05    0.80
  -1  10  -1    8.73    0.51
  -1 -10   1    9.12    0.63
   1  10   1    9.02    0.47
   1  10   1    8.73    0.36
   1 -10  -1    9.43    0.48
   1  10   1    9.24    0.45
  -1 -10   1    9.00    0.54
  -1 -10  -2  301.67    5.63
   1  10  -2  305.07    5.80
  -1  10   2  311.92    5.63
   1 -10   2  310.48    6.05
   1 -10   2  309.67    5.80
  -1  10   2  315.39    6.07
  -1 -10  -2  317.18    5.96
   1  10  -2  304.14    5.47
  -1  10  -2  303.69    5.80
  -1 -10   2  296.44    5.49
  -1 -10   2  306.07    5.80
   1 -10  -2  307.49    6.11
   1 -10  -2  298.03    5.62
   1  10   2  308.82    5.63
  -1 -10   2  299.88    5.93
   1  10   2  309.40    5.65
  -1 -10   2  297.34    5.88
   1  10   2  305.34    5.70
   1  10   2  312.26    5.86
  -1 -10  -3    8.20    0.43
   1  10  -3    7.91    0.36
   1  10  -3    7.88    0.54
  -1  10   3    8.88    0.81
   1 -10   3    9.60    0.69
   1 -10   3    8.56    0.58
  -1 -10  -3    9.02    0.70
   1 -10   3    8.96    0.72
  -1  10   3    8.21    0.52
   1  10   3    9.27    0.63
   1 -10  -3    8.39    0.44
  -1 -10   3    8.38    0.58
  -1  10  -3    8.70    0.56
   1 -10  -3    8.80    0.81
   1  10   3    8.83    0.52
   1  10   3    8.77    0.66
  -1 -10   3    7.98    0.42
   1  10   3    9.34    0.57
  -1 -10   3    7.14    0.63
  -1 -10   3    9.51    0.70
   1 -10  -3    8.80    0.40
   1  10  -4  173.50    3.41
  -1  10   4  178.39    3.97
  -1  10   4  180.10    3.60
   1 -10   4  183.41    3.91
   1 -10   4  183.37    3.38
   1 -10   4  174.68    3.36
   1  10  -4  176.25    3.64
   1 -10   4  169.55    3.63
   1  10   4  176.00    3.66
   1  10   4  182.46    3.62
   1 -10  -4  181.29    3.93
  -1 -10   4  180.46    3.47
  -1 -10   4  177.74    3.86
   1  10   4  184.99    3.79
  -1  10  -4  178.85    3.65
  -1 -10   4  169.28    3.64
  -1  10   5    2.78    0.47
   1 -10   5    3.90    0.49
  -1 -10  -5    4.94    0.74
   1  10  -5    2.55    0.43
   1 -10   5    2.64    0.51
  -1 -10   5    2.56    0.54
  -1 -10   5    3.62    0.44
   1 -10  -5    2.03    0.55
   1  10   5    2.62    0.59
   1  10   5    2.55    0.47
  -2 -10   0   34.74    1.00
  -2 -10   0   33.80    1.09
   2  10   0   35.34    0.97
   2 -10   0   34.35    0.97
   2 -10   0   35.48    1.28
  -2  10   0   33.13    1.20
   2  10   0   34.38    0.93
   2 -10   1   24.35    0.82
  -2 -10  -1   24.02    0.95
   2  10  -1   24.78    0.84
  -2 -10  -1   25.19    0.79
   2  10  -1   23.94    0.72
  -2  10   1   22.87    1.06
  -2  10   1   23.51    0.66
   2 -10  -1   24.78    0.76
  -2 -10   1   25.09    0.84
   2  10   1   24.98    0.83
   2  10   1   24.07    0.74
  -2  10  -1   25.76    1.01
  -2 -10   1   24.47    0.89
   2 -10  -1   22.28    1.27
   2  10   1   23.60    0.69
  -2 -10   1   23.93    0.85
  -2 -10   1   25.12    0.65
   2  10   1   24.73    0.75
  -2 -10  -2   21.51    0.85
  -2 -10  -2   20.83    0.70
   2 -10   2   22.18    1.02
   2  10  -2   21.66    0.78
   2 -10   2   21.71    0.81
  -2  10   2   21.24    0.69
  -2  10   2   21.14    1.05
   2  10  -2   21.19    0.58
   2 -10  -2   21.33    0.62
   2  10   2   21.06    0.70
  -2 -10   2   22.16    0.81
   2 -10  -2   20.25    0.69
   2 -10  -2   22.87    1.12
  -2 -10   2   21.30    0.84
  -2 -10   2   21.03    0.64
  -2 -10   2   20.34    0.86
   2  10   2   19.33    0.81
   2  10   2   22.25    0.66
   2  10   2   22.73    0.73
  -2 -10  -3   19.68    0.67
   2  10  -3   20.05    0.80
   2 -10   3   22.61    1.00
   2 -10   3   21.00    1.02
  -2  10   3   20.83    0.78
   2 -10   3   20.89    0.82
  -2 -10  -3   21.22    0.82
   2  10  -3   20.30    0.63
  -2  10   3   21.17    1.14
   2 -10  -3   20.31    0.70
   2 -10  -3   20.65    1.09
   2  10   3   20.33    0.78
  -2 -10   3   20.59    0.85
  -2 -10   3   20.23    0.94
   2  10   3   21.17    0.61
   2 -10  -3   20.63    0.70
   2 -10  -3   19.55    0.63
  -2 -10   3   20.45    0.91
   2  10   3   21.21    0.90
  -2 -10   3   20.55    0.73
   2 -10   4   19.08    0.59
  -2 -10  -4   20.09    0.82
   2 -10   4   19.97    0.63
   2  10  -4   18.27    0.74
   2  10  -4   18.37    0.82
   2 -10   4   18.84    1.01
  -2  10   4   19.84    0.86
  -2 -10   4   19.47    0.78
   2 -10  -4   19.86    1.13
   2  10   4   18.48    1.01
   2  10   4   17.90    0.84
   2 -10  -4   18.75    0.65
   2 -10  -4   19.59    0.76
   2  10   4   20.71    0.89
   2 -10   5   11.33    1.00
  -2  10   5    9.20    0.85
  -2 -10  -5   11.09    1.12
   2 -10   5   11.38    0.59
   2  10  -5   11.36    0.77
   2  10  -5   11.18    0.78
   2  10   5   11.98    0.85
   2  10   5   10.81    0.92
   2 -10  -5   11.18    1.11
  -2 -10   5   11.38    0.77
   3 -10   0  155.32    3.16
   3  10   0  156.74    3.18
  -3 -10   0  158.89    3.05
  -3 -10   0  156.62    3.16
  -3 -10   0  155.65    3.05
  -3 -10   0  156.75    3.19
   3 -10   0  159.84    3.49
   3  10   0  155.44    3.16
  -3  10   0  148.36    2.92
   3 -10   0  153.56    2.85
  -3  10   0  156.78    3.48
   3  10  -1    2.91    0.36
   3 -10   1    2.83    0.50
  -3 -10  -1    2.80    0.38
  -3  10   1    2.05    0.49
   3  10  -1    2.49    0.32
   3 -10   1    2.88    0.36
  -3 -10  -1    2.89    0.37
  -3  10   1    3.05    0.41
   3 -10  -1    3.00    0.25
  -3 -10   1    2.78    0.32
   3 -10  -1    3.45    0.45
   3 -10  -1    3.05    0.40
  -3 -10   1    2.81    0.37
  -3 -10   1    2.49    0.35
  -3 -10   1    2.63    0.32
   3  10   1    2.82    0.37
  -3  10  -1    2.85    0.45
   3 -10  -1    3.02    0.52
   3  10  -2  102.14    2.16
  -3 -10  -2  105.74    2.23
  -3  10   2  103.47    2.69
   3 -10   2  107.33    2.35
  -3  10   2  104.28    2.22
   3 -10   2  105.54    2.55
  -3 -10  -2  107.20    2.20
   3  10  -2  106.22    2.34
   3 -10  -2  107.92    2.68
   3  10   2  106.15    2.18
   3 -10  -2  107.30    2.21
  -3 -10   2  103.62    2.37
   3 -10  -2  106.42    2.17
   3 -10  -2  103.31    2.24
  -3 -10   2  104.03    2.34
   3  10   2  106.24    2.38
  -3 -10   2  104.45    2.36
  -3 -10   2  106.33    2.22
   3  10   2  106.95    2.26
   3 -10   3    2.45    0.31
  -3  10   3    2.29    0.38
   3 -10   3    1.91    0.37
   3  10  -3    1.77    0.32
   3  10  -3    1.54    0.34
  -3 -10  -3    1.41    0.34
  -3 -10  -3    1.69    0.28
  -3  10   3    1.26    0.54
   3 -10   3    1.44    0.41
   3 -10   3    1.60    0.19
   3 -10  -3    0.63    0.46
  -3 -10   3    1.90    0.35
   3  10   3    1.18    0.32
  -3 -10   3    2.11    0.44
  -3 -10   3    1.60    0.36
   3 -10  -3    1.25    0.27
  -3 -10   3    1.67    0.37
   3  10   3    1.13    0.44
   3  10   3    1.95    0.26
   3 -10  -3    1.81    0.30
   3 -10  -3    1.73    0.34
   3  10  -4   93.74    2.22
   3 -10   4   94.21    1.92
   3 -10   4   94.42    1.98
  -3 -10  -4   96.98    1.94
  -3  10   4   92.76    2.20
  -3 -10  -4   92.61    1.99
   3 -10   4   95.12    2.45
   3  10  -4   89.04    2.09
  -3 -10   4   94.19    2.17
   3  10   4   91.37    2.40
   3  10   4   92.16    2.02
   3  10   4   94.69    2.24
   3 -10  -4   91.72    1.90
   3 -10  -4   95.56    2.03
   3 -10  -4   96.48    2.59
   3 -10  -4   92.05    2.13
   3 -10   5    0.63    0.57
   3  10  -5    1.12    0.42
  -3  10   5    0.51    0.51
  -3 -10   5    1.25    0.43
   3 -10  -5    0.94    0.70
   3  10   5    1.37    0.48
  -4  10   0    1.05    0.45
  -4 -10   0    1.55    0.37
   4  10   0    1.63    0.41
  -4 -10   0    1.19    0.24
  -4  10   0    1.30    0.29
   4 -10   0    1.32    0.18
   4 -10   0    0.72    0.42
   4 -10   0    1.33    0.31
   4 -10   0    0.98    0.31
   4  10   0    0.86    0.28
  -4 -10   0    1.25    0.32
  -4 -10   0    1.11    0.27
  -4  10   1   78.36    2.27
  -4  10   1   80.76    1.84
  -4 -10  -1   78.47    1.61
   4 -10   1   81.81    1.60
  -4 -10  -1   81.37    1.72
   4 -10   1   79.46    2.15
   4 -10   1   80.09    1.91
   4 -10   1   79.86    1.91
  -4 -10  -1   80.34    1.90
   4  10  -1   82.00    1.92
   4  10  -1   79.21    1.90
   4 -10  -1   80.51    1.68
  -4 -10   1   77.16    1.81
  -4  10  -1   78.96    2.17
  -4 -10   1   79.46    1.94
  -4 -10   1   80.99    1.86
   4 -10  -1   77.92    1.86
  -4 -10   1   83.32    1.86
   4  10   1   79.73    1.84
   4 -10  -1   79.78    1.86
   4 -10  -1   82.68    2.23
   4  10   1   80.11    2.03
   4  10  -2    0.98    0.34
   4 -10   2    1.13    0.18
  -4  10   2    1.01    0.35
  -4  10   2    0.91    0.53
   4 -10   2    0.64    0.31
   4  10  -2    1.18    0.38
  -4 -10  -2    1.17    0.38
   4 -10   2    0.81    0.19
   4 -10   2    1.03    0.35
   4 -10   2    1.46    0.41
   4 -10  -2    0.74    0.45
  -4 -10   2    1.00    0.37
   4  10   2    1.75    0.51
   4 -10  -2    1.10    0.24
   4 -10  -2    0.99    0.39
   4 -10  -2    0.88    0.33
  -4 -10   2    0.87    0.31
   4  10   2    0.85    0.27
  -4 -10   2    0.56    0.31
  -4 -10   2    0.82    0.35
   4 -10   3   59.14    1.29
   4 -10   3   58.95    1.33
   4 -10   3   59.60    1.63
   4  10  -3   57.67    1.60
  -4  10   3   58.52    1.57
  -4 -10  -3   56.84    1.53
   4 -10   3   59.54    1.79
   4  10  -3   56.72    1.53
   4 -10  -3   58.53    1.52
   4 -10  -3   58.76    1.46
   4  10   3   55.89    1.77
   4 -10  -3   58.23    1.46
  -4 -10   3   59.70    1.59
   4 -10  -3   60.88    1.94
   4  10   3   58.13    1.58
  -4 -10   3   55.95    1.64
   4  10   3   62.72    1.40
   4 -10   4    0.41    0.26
   4 -10   4    0.54    0.41
   4 -10   4   -0.52    0.46
  -4  10   4    1.21    0.46
   4  10  -4    0.70    0.39
   4  10  -4    0.43    0.45
  -4 -10   4    1.78    0.44
   4 -10  -4    0.76    0.43
   4 -10  -4    1.05    0.46
   4 -10  -4    0.29    0.41
   4 -10  -4    0.43    0.53
   4  10   4    0.89    0.43
   4  10   4    0.62    0.25
   5 -10   0   36.13    1.20
  -5 -10   0   37.13    0.90
   5  10   0   37.27    1.16
   5 -10   0   35.88    0.96
  -5 -10   0   36.37    1.01
  -5 -10   0   35.39    1.22
   5 -10   0   35.02    1.17
  -5  10   0   37.47    1.15
  -5 -10   0   37.45    1.15
  -5  10   0   36.22    1.51
   5 -10   0   37.93    1.45
   5  10   0   37.04    1.38
  -5  10   1   19.02    1.88
  -5 -10  -1   16.13    0.90
   5 -10   1   15.89    0.82
   5 -10   1   15.69    0.58
   5  10  -1   16.19    0.83
   5  10  -1   16.27    1.02
   5 -10   1   16.37    1.03
  -5  10   1   17.38    0.85
  -5 -10   1   16.21    0.80
   5 -10  -1   15.72    0.62
   5  10   1   15.91    0.75
  -5  10  -1   15.43    1.10
  -5  10  -1   15.73    0.71
   5 -10  -1   16.14    1.06
   5  10   1   16.87    1.11
  -5 -10   1   16.34    0.75
   5 -10  -1   14.96    0.84
   5 -10  -1   15.43    0.78
   5 -10   2   29.48    1.11
  -5 -10  -2   30.59    1.17
   5 -10   2   32.82    1.34
   5  10  -2   29.67    1.24
  -5  10   2   27.36    1.68
   5  10  -2   31.88    1.13
   5 -10   2   31.39    0.87
   5 -10  -2   31.10    0.95
   5  10   2   32.74    1.43
  -5 -10   2   31.18    1.10
  -5 -10   2   29.88    1.20
   5  10   2   30.18    0.98
   5 -10  -2   30.44    1.37
  -5 -10   2   31.28    1.10
   5 -10  -2   30.43    1.08
   5 -10  -2   30.51    1.11
   5  10  -3   12.43    0.99
  -5  10   3   10.07    0.85
   5 -10   3   11.38    0.96
   5  10  -3   10.06    0.78
  -5 -10  -3   10.41    0.90
   5 -10   3   11.37    0.77
   5 -10   3   12.01    0.84
   5 -10   3   11.60    0.58
  -5 -10   3   11.67    0.94
   5 -10  -3   11.62    0.84
   5 -10  -3   10.67    1.08
  -5 -10   3   11.14    0.84
   5 -10  -3   11.76    0.81
   5  10   3   11.42    0.66
   5 -10  -3   11.01    0.69
  -6 -10   0    6.00    0.66
   6 -10   0    6.43    0.88
  -6  10   0    6.36    0.78
   6 -10   0    5.46    0.51
   6  10   0    3.66    0.75
   6 -10   0    4.81    0.68
   6  10   0    5.58    0.66
   6 -10   1   44.65    1.59
  -6  10   1   43.87    1.44
   6  10  -1   41.45    1.39
  -6 -10  -1   45.95    1.41
   6 -10   1   42.63    1.15
   6  10  -1   43.47    1.66
   6 -10   1   43.37    1.40
   6 -10  -1   43.89    1.61
  -6 -10   1   43.85    1.39
  -6  10  -1   41.82    1.31
   6 -10  -1   41.57    1.38
  -6 -10   1   43.72    1.15
   6 -10  -1   40.79    1.17
   6  10   1   42.11    1.33
  -6 -10   1   38.67    1.29
   6 -10   2   11.02    0.86
   6  10  -2   11.17    0.87
   6 -10   2   10.77    1.02
   6  10  -2   11.46    1.35
  -6  10   2   11.49    0.97
   6  10   2   11.56    0.76
   6 -10  -2   11.32    1.09
  -6 -10   2   13.06    0.89
   6 -10  -2   11.08    0.85
  -6 -10   2   10.47    0.83
   6 -10  -2   10.97    0.71
  -6 -10   2    9.51    1.33
   0  11   0   -0.05    0.20
   0 -11   0    0.34    0.34
   0 -11   0   -0.19    0.22
   0  11   0    0.05    0.26
   0  11   1  133.57    2.49
   0  11   1  136.71    2.91
   0  11  -1  129.32    3.03
   0  11   1  131.02    2.54
   0 -11   1  134.01    3.03
   0 -11  -1  136.23    2.67
   0 -11   1  131.31    2.75
   0  11   1  136.73    2.68
   0 -11  -1  132.08    3.02
   0 -11   2    0.63    0.31
   0 -11   2   -0.29    0.25
   0  11   2    0.02    0.22
   0  11   2    0.11    0.19
   0 -11  -2   -0.56    0.34
   0  11   2   -0.09    0.32
   0  11  -2    0.19    0.21
   0 -11  -2   -0.03    0.24
   0 -11  -3  109.71    2.58
   0 -11   3  102.08    2.35
   0  11   3  107.67    2.55
   0 -11   3  106.53    2.55
   0  11  -3  105.82    2.35
   0 -11  -3  105.13    2.09
   0  11   3  105.90    2.22
   0 -11   3  101.20    2.51
   0 -11  -4   -0.31    0.39
   0 -11   4    0.09    0.21
   0 -11   4   -0.06    0.17
   0  11   4    0.29    0.31
   0  11   4    0.26    0.48
   0  11  -4   -0.46    0.27
   0 -11   4   -0.12    0.37
   0  11  -5   57.81    1.64
   0 -11  -5   62.97    1.86
   0  11   5   57.65    1.66
   0 -11   5   58.62    1.95
  -1  11   0    1.88    0.39
   1  11   0    1.93    0.27
  -1  11   0    1.50    0.27
   1 -11   0    1.40    0.29
   1 -11   0    0.88    0.48
  -1 -11   0    1.46    0.29
  -1 -11   0    1.83    0.38
  -1  11   1    4.62    0.29
  -1  11   1    5.38    0.30
   1 -11   1    5.99    0.49
  -1 -11  -1    5.14    0.45
   1  11  -1    5.46    0.45
   1 -11   1    5.40    0.67
  -1 -11  -1    5.96    0.70
  -1  11   1    5.49    0.67
  -1 -11   1    4.73    0.60
   1  11   1    4.97    0.48
  -1  11  -1    4.93    0.45
   1 -11  -1    4.92    0.72
   1  11   1    5.47    0.40
   1 -11  -1    4.89    0.43
   1  11   1    5.69    0.44
  -1 -11   1    6.05    0.50
   1  11   1    5.57    0.31
   1 -11   2    3.53    0.39
  -1  11   2    3.76    0.52
  -1 -11  -2    3.52    0.49
   1 -11   2    3.44    0.49
   1  11  -2    4.35    0.44
  -1  11   2    3.86    0.38
   1  11   2    4.18    0.49
  -1 -11   2    5.37    0.60
   1  11   2    4.01    0.38
  -1 -11   2    5.06    0.52
  -1  11  -2    4.80    0.46
   1  11   2    3.59    0.35
  -1 -11   2    4.19    0.58
   1 -11  -2    4.29    0.41
   1  11   2    3.90    0.52
   1 -11  -2    3.95    0.55
   1  11  -3    4.57    0.51
   1 -11   3    5.50    0.73
  -1  11   3    3.73    0.62
   1 -11   3    5.62    0.59
  -1  11   3    4.56    0.49
  -1 -11  -3    5.01    0.70
   1 -11   3    5.44    0.68
  -1 -11  -3    5.52    0.45
  -1 -11   3    5.14    0.35
  -1  11  -3    4.44    0.51
  -1 -11   3    5.60    0.69
   1  11   3    4.88    0.65
   1 -11  -3    5.22    0.80
   1 -11  -3    5.06    0.40
  -1 -11   3    3.43    0.45
   1  11   3    4.87    0.48
   1 -11  -3    5.40    0.44
  -1 -11   3    4.34    0.57
   1  11   3    5.36    0.65
  -1  11   4    0.15    0.51
   1 -11   4    1.00    0.41
  -1  11   4    0.80    0.34
  -1 -11  -4    1.39    0.45
   1 -11   4    1.01    0.20
   1  11  -4    0.89    0.33
   1 -11   4    1.01    0.20
  -1 -11   4    0.90    0.28
   1 -11  -4    0.93    0.49
   1  11   4    0.89    0.49
  -1 -11   4    0.66    0.42
  -1  11  -4    1.49    0.34
   1  11   4    0.75    0.34
   1  11   4    1.33    0.46
  -1  11   5    1.20    0.48
   1  11  -5    1.58    0.42
   1 -11   5    1.97    0.64
  -1 -11  -5    2.28    0.54
   1 -11  -5    2.50    0.61
  -1 -11   5    1.93    0.55
   1  11   5    2.80    0.50
  -1 -11   5    2.63    0.43
   2  11   0   23.60    0.73
  -2 -11   0   24.13    0.84
  -2  11   0   25.63    1.08
   2 -11   0   23.68    0.82
  -2 -11   0   23.90    0.96
   2  11   0   22.14    0.83
   2 -11   0   22.79    1.08
   2  11  -1   20.85    0.77
  -2 -11  -1   18.90    0.89
  -2  11   1   20.94    1.02
  -2 -11  -1   19.76    0.76
  -2  11   1   19.63    0.58
   2 -11   1   20.25    1.00
   2 -11   1   20.53    0.79
   2  11  -1   18.85    0.66
  -2 -11   1   20.25    0.80
   2 -11  -1   20.77    1.08
  -2 -11   1   20.04    0.81
   2 -11  -1   21.01    0.74
   2  11   1   20.43    0.69
  -2  11  -1   21.44    0.98
  -2 -11   1   19.99    0.54
   2  11   1   19.94    0.77
  -2 -11   1   19.90    0.86
   2  11   1   20.30    0.62
   2  11  -2    3.13    0.29
  -2  11   2    3.37    0.44
   2 -11   2    4.10    0.53
   2  11  -2    4.14    0.47
   2 -11   2    2.68    0.45
  -2 -11  -2    2.80    0.44
  -2 -11  -2    3.37    0.37
  -2  11   2    2.99    0.52
  -2 -11   2    3.59    0.55
   2 -11  -2    3.14    0.43
   2  11   2    3.51    0.43
   2  11   2    3.18    0.36
   2 -11  -2    4.06    0.62
  -2 -11   2    3.82    0.33
   2  11   2    3.90    0.41
  -2 -11   2    2.83    0.38
   2 -11  -2    3.28    0.41
   2  11   2    3.20    0.45
  -2 -11   2    3.75    0.58
   2 -11   3   14.48    0.76
   2  11  -3   14.72    0.55
  -2 -11  -3   15.73    0.77
  -2  11   3   16.14    0.72
   2  11  -3   14.60    0.74
  -2  11   3   14.32    1.07
   2 -11   3   14.49    0.94
   2 -11   3   13.25    0.95
  -2 -11  -3   15.55    0.67
   2 -11  -3   14.47    0.70
   2 -11  -3   14.90    0.64
   2  11   3   15.03    0.90
  -2 -11   3   15.00    0.62
   2 -11  -3   14.89    0.61
   2  11   3   15.31    0.70
  -2 -11   3   14.62    0.80
   2  11   3   16.53    0.55
  -2 -11   3   14.44    0.91
   2 -11  -3   15.19    1.05
  -2 -11   3   14.70    0.84
   2  11  -4   13.53    0.69
   2 -11   4   14.31    0.52
   2 -11   4   12.85    0.94
   2 -11   4   12.53    0.46
  -2 -11  -4   13.08    0.78
   2  11  -4   11.58    0.74
  -2  11   4   12.31    0.79
   2  11   4   12.43    0.82
   2  11   4   15.14    1.09
   2 -11  -4   13.59    0.52
   2  11   4   14.12    0.77
  -2 -11   4   13.70    0.92
   2 -11  -4   13.12    0.63
   2 -11  -4   12.30    1.09
  -2 -11   4   12.92    0.67
  -3 -11   0  133.38    2.87
   3 -11   0  130.88    2.80
   3  11   0  132.38    2.78
   3  11   0  135.66    2.82
   3 -11   0  138.50    3.18
  -3 -11   0  133.63    2.82
  -3  11   0  135.84    3.16
  -3 -11  -1   15.74    0.80
   3  11  -1   16.38    0.65
  -3  11   1   16.55    0.63
   3 -11   1   16.38    0.97
   3 -11   1   17.00    0.76
  -3 -11  -1   15.09    0.75
  -3  11   1   16.83    1.06
   3  11  -1   16.02    0.72
   3 -11  -1   14.78    0.69
  -3  11  -1   17.06    0.99
   3 -11  -1   16.25    0.71
  -3 -11   1   16.35    0.67
   3  11   1   14.75    0.89
   3 -11  -1   16.41    0.49
  -3 -11   1   16.24    0.72
   3 -11  -1   15.56    1.04
   3  11   1   14.80    0.75
  -3 -11   1   14.49    0.77
  -3 -11   1   16.66    0.77
  -3 -11  -2  121.90    2.57
  -3  11   2  122.62    2.53
   3  11  -2  124.12    2.69
   3  11  -2  119.29    2.45
  -3 -11  -2  124.34    2.56
  -3  11   2  120.77    3.06
   3 -11   2  124.55    2.94
   3 -11   2  117.41    2.67
  -3 -11   2  119.35    2.69
  -3 -11   2  123.55    2.74
  -3 -11   2  124.83    2.51
   3 -11  -2  123.72    2.48
  -3 -11   2  123.14    2.69
   3 -11  -2  121.06    2.54
   3  11   2  124.79    2.57
   3 -11  -2  126.71    3.06
   3  11   2  125.71    2.52
   3  11   2  122.21    2.72
   3 -11  -2  121.23    2.57
   3  11  -3    9.44    0.67
  -3  11   3   11.56    0.72
   3  11  -3   10.08    0.69
   3 -11   3   11.65    0.93
  -3 -11  -3    9.56    0.70
  -3 -11  -3   10.92    0.62
   3 -11  -3   10.64    0.67
  -3 -11   3   11.21    0.77
   3 -11  -3   10.70    0.63
   3  11   3    9.63    0.91
   3 -11  -3   10.42    0.58
  -3 -11   3   10.62    0.91
   3  11   3   11.18    0.67
   3  11   3   10.85    0.52
   3 -11  -3    8.86    0.99
   3  11   3   10.90    0.53
  -3 -11   3   10.51    0.64
   3  11  -4   77.07    1.85
   3 -11   4   80.41    1.87
   3 -11   4   80.43    2.27
  -3 -11  -4   80.03    1.79
  -3  11   4   77.31    1.97
   3  11  -4   79.97    2.02
  -3 -11   4   78.53    2.03
   3 -11  -4   77.97    1.89
   3 -11  -4   82.07    1.83
   3  11   4   80.56    2.01
   3 -11  -4   79.47    2.41
  -3 -11   4   76.96    2.14
   4 -11   0   12.24    0.67
   4  11   0   11.21    0.84
  -4 -11   0   10.52    0.77
  -4  11   0   11.00    0.99
  -4 -11   0   10.65    0.71
   4 -11   0   11.57    0.72
   4 -11   0   11.30    0.96
  -4 -11   0   12.30    0.62
  -4 -11   0   11.05    0.57
   4  11   0   11.44    0.64
   4 -11   0   12.08    0.40
  -4  11   0   11.15    0.54
  -4  11   1    8.82    1.03
  -4  11   1   12.19    0.69
   4 -11   1   10.56    0.34
  -4 -11  -1   10.36    0.48
   4 -11   1   10.77    0.68
   4  11  -1   10.55    0.68
  -4 -11  -1   11.07    0.64
   4  11  -1   10.55    0.77
   4 -11   1   10.05    0.69
   4 -11   1   10.28    0.92
  -4 -11  -1    9.81    0.76
  -4 -11   1   10.05    0.70
  -4 -11   1   11.00    0.59
   4  11   1   10.41    0.60
  -4 -11   1   10.27    0.73
  -4 -11   1   10.64    0.64
   4  11   1    8.86    0.94
  -4  11  -1    9.58    0.95
   4 -11  -1   10.24    0.95
   4 -11  -1   10.86    0.70
   4 -11  -1   10.99    0.44
   4 -11  -1   10.50    0.64
   4 -11   2   20.48    1.10
   4 -11   2   20.72    0.89
   4  11  -2   18.25    0.87
   4  11  -2   19.64    0.86
  -4  11   2   20.33    0.85
  -4 -11  -2   19.66    0.93
   4 -11  -2   19.43    1.19
   4 -11  -2   19.25    0.81
   4  11   2   18.59    1.11
  -4 -11   2   18.72    0.90
   4  11   2   18.31    0.73
  -4 -11   2   19.13    0.89
   4 -11  -2   18.63    0.67
  -4 -11   2   19.39    0.79
   4 -11  -2   18.22    0.84
   4  11  -3    6.51    0.77
  -4  11   3    7.53    0.75
   4  11  -3    7.83    0.70
   4 -11   3    7.35    0.37
   4 -11   3    8.44    0.75
   4 -11   3    7.21    0.88
  -4 -11  -3    6.74    0.83
   4  11   3    8.36    0.55
  -4 -11   3    7.05    0.73
   4 -11  -3    7.28    1.01
   4 -11  -3    7.03    0.70
   4 -11  -3    7.52    0.56
   4  11   3    8.13    1.10
  -4 -11   3    8.20    0.69
  -4 -11   3    7.08    0.86
   4 -11  -3    7.00    0.68
   4  11   3    7.46    0.69
   4 -11   4    8.04    0.88
  -4  11   4    6.12    0.89
   4 -11   4    4.75    0.70
   4  11  -4    6.20    0.83
   4 -11  -4    6.76    0.99
   4  11   4    6.92    0.82
  -4 -11   4    6.88    0.86
   4 -11  -4    6.69    0.80
  -4 -11   4    8.43    0.79
  -5 -11   0   52.53    1.37
   5  11   0   55.92    1.52
  -5 -11   0   54.73    1.25
   5 -11   0   52.80    1.81
   5 -11   0   54.18    1.22
  -5 -11   0   52.65    1.70
  -5  11   0   54.66    1.41
   5 -11   0   52.97    1.52
   5  11   0   54.88    1.71
  -5  11   1   33.90    1.17
   5  11  -1   33.13    1.33
   5 -11   1   32.52    0.84
   5  11  -1   34.88    1.19
  -5 -11  -1   31.22    1.25
   5 -11   1   32.97    1.16
   5 -11   1   32.86    1.42
  -5 -11   1   34.08    1.11
   5  11   1   34.57    1.11
  -5 -11   1   33.52    1.04
   5 -11  -1   34.77    1.46
   5 -11  -1   34.15    1.24
  -5 -11   1   32.62    1.11
   5 -11  -1   34.66    0.93
   5  11   1   33.83    1.49
   5 -11  -1   33.41    1.15
   5  11  -2   38.71    1.39
   5 -11   2   38.29    1.33
   5  11  -2   38.63    1.30
  -5 -11  -2   41.46    1.39
   5 -11   2   38.70    1.55
   5 -11  -2   40.02    1.11
  -5 -11   2   38.85    1.28
  -5 -11   2   40.49    1.29
   5  11   2   38.89    1.63
   5  11   2   38.44    1.17
  -5 -11   2   40.98    1.28
   5 -11  -2   42.70    1.66
   5 -11  -2   38.62    1.29
   5 -11  -2   37.40    1.27
   5  11  -3   24.78    1.19
   5  11  -3   23.85    1.14
   5 -11   3   26.41    1.19
  -5  11   3   27.69    1.19
   5 -11   3   26.32    1.34
  -5 -11  -3   25.84    1.17
   5 -11  -3   27.37    1.12
   5 -11  -3   25.22    1.06
  -5 -11   3   27.18    1.22
  -5 -11   3   27.09    1.10
   5 -11  -3   26.08    1.47
  -5 -11   3   25.76    1.16
   5  11   3   27.27    0.93
   5  11   3   25.95    1.13
   5 -11  -3   26.06    0.97
   6 -11   0    4.63    0.58
  -6  11   0    4.00    0.55
   6  11   0    3.98    0.52
  -6 -11   0    4.14    0.51
   6 -11   0    3.03    0.63
   6  11   0    2.98    0.73
   6  11  -1   38.21    1.60
   6 -11   1   37.53    1.38
   6  11  -1   41.35    1.42
   6 -11   1   38.94    1.61
  -6  11   1   41.35    1.42
  -6 -11   1   41.03    1.34
   6  11   1   40.66    1.31
  -6 -11   1   37.86    1.21
  -6  11  -1   39.93    1.31
   6 -11  -1   40.86    1.66
   6 -11  -1   40.22    1.39
   6 -11  -1   41.42    1.41
   6 -11   2    7.04    1.10
  -6  11   2   10.15    1.01
   6 -11  -2    9.80    0.87
  -6 -11   2    8.66    0.82
   6  11   2    9.88    0.78
   6 -11  -2    9.72    1.40
  -6 -11   2    8.57    0.86
   0 -12   0   69.70    1.64
   0 -12   0   68.66    1.98
   0  12   0   73.66    1.82
   0  12   0   69.81    1.68
   0 -12  -1   -0.12    0.25
   0  12   1    0.35    0.32
   0 -12  -1   -0.41    0.62
   0  12   1    0.26    0.21
   0  12  -1    0.06    0.24
   0 -12   1   -0.05    0.32
   0  12   1    0.15    0.14
   0 -12   1    0.06    0.27
   0  12   1   -0.05    0.20
   0  12   2   77.88    1.71
   0 -12   2   76.75    1.87
   0  12   2   79.38    2.02
   0  12  -2   81.35    1.88
   0 -12  -2   78.14    2.13
   0 -12  -2   75.35    1.71
   0  12   2   79.50    1.65
   0 -12   2   80.29    2.09
   0  12   3   -0.10    0.39
   0 -12   3    0.36    0.39
   0  12   3    0.23    0.37
   0 -12  -3    0.01    0.41
   0  12  -3   -0.15    0.27
   0 -12  -3    0.48    0.27
   0  12   3    0.21    0.26
   0  12   4   39.74    1.39
   0  12  -4   42.44    1.33
   0  12   4   42.29    1.54
   0  12   4   40.75    1.23
   0 -12  -4   44.22    1.54
   0 -12   4   41.84    1.54
   1 -12   0   16.16    0.98
  -1 -12   0   15.79    0.91
  -1 -12   0   14.58    0.69
  -1  12   0   15.17    0.85
   1 -12   0   15.99    0.71
   1  12   0   15.30    0.65
  -1  12   1    6.81    0.74
   1 -12   1    6.84    0.55
   1  12  -1    6.53    0.51
   1 -12   1    6.09    0.72
  -1 -12  -1    9.18    0.81
  -1 -12  -1    6.39    0.54
  -1 -12   1    7.27    0.69
   1  12   1    6.50    0.33
   1  12   1    5.62    0.44
   1 -12  -1    8.00    0.84
   1 -12  -1    5.82    0.51
  -1 -12   1    7.27    0.57
   1  12   1    6.52    0.50
  -1  12  -1    6.29    0.51
   1  12   1    6.91    0.57
  -1 -12  -2    5.24    0.76
   1 -12   2    4.62    0.71
   1  12  -2    5.41    0.51
  -1  12   2    3.79    0.42
  -1  12   2    3.67    0.53
   1 -12   2    4.15    0.44
  -1 -12  -2    4.64    0.50
   1  12   2    5.50    0.59
  -1 -12   2    4.88    0.64
   1  12   2    3.92    0.40
  -1  12  -2    3.78    0.49
   1 -12  -2    4.54    0.63
   1  12   2    4.76    0.41
   1  12   2    4.70    0.55
  -1 -12   2    4.71    0.58
  -1 -12   2    5.20    0.69
   1 -12  -2    4.54    0.48
   1  12  -3    5.08    0.55
   1 -12   3    4.11    0.56
  -1 -12  -3    4.17    0.55
  -1 -12  -3    3.99    0.51
  -1  12   3    3.91    0.51
  -1  12   3    3.74    0.61
   1 -12  -3    4.67    0.57
  -1  12  -3    4.58    0.56
   1  12   3    4.33    0.50
  -1 -12   3    4.59    0.69
   1  12   3    5.73    0.76
  -1 -12   3    3.98    0.53
   1 -12  -3    4.52    0.69
   1  12   3    3.78    0.51
   1 -12  -3    4.48    0.46
  -1  12   4    8.60    0.71
   1 -12   4    7.79    0.91
  -1 -12  -4    9.35    0.87
   1  12  -4    9.03    0.72
  -1 -12   4    7.88    0.89
  -1 -12   4    9.43    0.51
   1  12   4    8.92    0.72
   1  12   4   11.28    0.99
   1  12   4    7.93    0.93
   1 -12  -4    8.35    1.05
   2  12   0    7.26    0.52
  -2  12   0    7.75    0.79
   2  12   0    7.75    0.35
   2 -12   0    7.85    0.83
   2 -12   0    6.47    0.58
   2  12   0    7.71    0.46
  -2 -12   0    7.62    0.73
  -2 -12   0    7.79    0.62
   2 -12   1   14.64    0.93
  -2 -12  -1   13.27    0.86
   2  12  -1   13.28    0.42
   2 -12   1   14.49    0.71
  -2 -12  -1   14.60    0.73
   2  12  -1   13.50    0.67
  -2  12   1   13.90    0.97
   2  12   1   13.39    0.53
   2 -12  -1   13.12    0.67
  -2 -12   1   13.50    0.74
   2  12   1   12.41    0.72
  -2 -12   1   12.86    0.76
   2 -12  -1   13.16    1.01
  -2 -12  -2    4.74    0.59
  -2  12   2    4.42    0.64
   2  12  -2    6.29    0.31
   2 -12   2    6.11    0.62
   2  12  -2    5.92    0.56
  -2  12   2    5.87    0.50
   2 -12   2    7.12    0.78
  -2 -12  -2    5.37    0.73
  -2 -12   2    4.73    0.63
   2  12   2    5.55    0.47
   2  12   2    6.28    0.70
  -2 -12   2    4.32    0.67
   2 -12  -2    6.36    0.91
   2 -12  -2    5.00    0.49
   2  12   2    6.06    0.44
   2  12   2    5.72    0.52
  -2 -12   2    5.48    0.31
   2 -12  -2    4.99    0.54
  -2 -12   2    4.67    0.50
   2  12  -3    9.42    0.65
  -2 -12  -3    9.07    0.78
   2 -12   3    9.26    0.88
  -2  12   3    8.65    0.66
  -2 -12  -3    8.22    0.74
   2  12  -3    8.72    0.62
   2 -12  -3    9.66    0.98
   2 -12  -3    9.26    0.58
  -2 -12   3    9.26    0.48
   2 -12  -3    8.82    0.59
   2  12   3    9.93    0.49
   2  12   3    9.52    0.91
  -2 -12   3    8.54    0.79
  -2 -12   3   10.14    1.10
   2  12   3    9.19    0.64
   2  12   3    9.74    0.93
   2 -12   4    4.07    0.64
  -2  12   4    4.77    0.54
  -2 -12  -4    4.96    0.55
   2  12  -4    5.84    0.70
   2  12   4    4.06    0.65
  -2 -12   4    5.48    0.57
   2 -12  -4    4.43    0.72
   2 -12  -4    5.61    0.66
  -2 -12   4    5.91    0.87
   2  12   4    3.83    0.52
   2  12   4    5.92    0.70
  -3 -12   0   -0.43    0.35
  -3 -12   0    0.22    0.28
   3 -12   0    0.03    0.44
  -3 -12   0   -0.17    0.34
   3  12   0    0.19    0.25
  -3  12   0    0.30    0.41
   3 -12   0   -0.13    0.31
   3  12   0    0.40    0.33
   3 -12   1    9.72    0.68
   3 -12   1    8.90    0.92
   3  12  -1    8.99    0.63
  -3  12   1    9.02    0.98
  -3 -12  -1    8.58    0.75
  -3  12   1    9.64    0.52
  -3 -12  -1    7.54    0.69
   3  12  -1    8.61    0.55
  -3 -12   1    8.03    0.68
   3 -12  -1    8.88    0.66
  -3  12  -1    9.02    0.91
  -3 -12   1    8.78    0.68
   3 -12  -1    7.73    0.55
   3  12   1    9.17    0.57
  -3 -12   1    8.02    0.72
  -3 -12   1   10.09    0.47
   3 -12  -1    9.21    0.34
   3  12   1    7.56    0.81
   3 -12  -1    8.16    0.98
  -3 -12  -2    4.14    0.48
   3  12  -2    3.38    0.46
   3 -12   2    4.56    0.62
  -3 -12  -2    4.46    0.52
  -3  12   2    4.50    0.56
   3  12  -2    4.60    0.56
  -3 -12   2    5.08    0.74
  -3 -12   2    4.40    0.65
   3 -12  -2    5.07    0.53
   3 -12  -2    3.98    0.45
  -3 -12   2    4.91    0.44
   3 -12  -2    4.32    0.38
   3  12   2    3.95    0.60
   3  12   2    4.34    0.53
   3 -12  -2    4.10    0.64
   3  12   2    5.02    0.61
   3  12  -3    7.60    0.67
  -3 -12  -3    6.42    0.63
   3  12  -3    5.33    0.68
   3 -12   3    7.00    0.90
  -3 -12  -3    7.20    0.75
  -3  12   3    5.55    0.78
   3 -12  -3    6.26    0.75
   3  12   3    6.78    0.64
  -3 -12   3    7.61    0.57
   3  12   3    6.97    0.60
  -3 -12   3    7.18    0.78
   3  12   3    7.28    0.49
   3 -12  -3    7.60    0.68
   3 -12  -3    7.69    0.54
   3 -12  -3    6.79    0.66
   3  12   3    8.04    1.04
   3 -12   4   -1.03    0.54
  -3  12   4   -0.17    0.45
  -3 -12  -4    0.28    0.46
   3  12  -4    0.26    0.43
   3  12   4   -0.47    0.40
  -3 -12   4    0.63    0.40
   3 -12  -4   -0.64    0.62
  -3 -12   4   -0.69    0.46
   3 -12  -4   -0.07    0.35
   4 -12   0   36.93    1.15
  -4 -12   0   33.64    1.03
  -4 -12   0   31.20    1.19
   4  12   0   34.84    1.11
  -4 -12   0   34.00    1.18
   4  12   0   33.92    1.25
   4 -12   0   35.35    1.47
   4 -12   0   33.22    1.20
   4  12  -1   39.01    1.24
  -4  12   1   38.25    1.13
   4  12  -1   37.74    1.23
  -4 -12  -1   38.12    1.02
  -4 -12  -1   38.50    1.17
   4 -12   1   40.85    1.28
  -4 -12  -1   39.92    1.33
   4 -12   1   39.26    1.52
  -4 -12   1   39.18    1.28
   4 -12  -1   36.82    1.22
   4  12   1   39.21    1.16
   4 -12  -1   39.94    1.58
  -4 -12   1   39.90    1.10
   4 -12  -1   35.90    1.23
   4  12   1   42.37    1.50
   4 -12  -1   39.64    0.93
  -4 -12   1   40.98    1.21
  -4  12   2   24.63    0.97
   4  12  -2   22.78    0.94
   4  12  -2   24.32    1.00
   4 -12   2   22.19    1.25
  -4 -12  -2   23.04    0.75
  -4 -12  -2   23.12    0.71
  -4 -12  -2   22.96    1.05
   4 -12   2   24.50    1.03
  -4 -12   2   23.22    1.03
   4 -12  -2   24.51    1.35
   4  12   2   23.42    0.93
  -4 -12   2   23.89    1.05
   4  12   2   22.76    1.28
  -4 -12   2   24.03    0.87
   4 -12  -2   23.80    1.00
   4  12   2   21.82    0.84
   4 -12  -2   23.03    0.75
   4 -12  -2   23.60    0.92
   4  12  -3   35.64    1.30
   4 -12   3   33.95    1.28
   4 -12   3   32.86    1.50
  -4 -12  -3   33.40    1.21
  -4  12   3   32.56    1.21
   4  12  -3   31.53    1.24
   4 -12  -3   33.09    1.59
   4  12   3   32.65    1.19
  -4 -12   3   32.82    1.32
   4  12   3   38.81    2.26
   4 -12  -3   33.90    1.18
   4  12   3   32.80    1.13
  -4 -12   3   33.27    1.11
   4 -12  -3   32.98    1.10
   4 -12  -3   32.30    1.02
   5  12   0    4.82    0.70
  -5 -12   0    5.01    0.52
  -5 -12   0    3.62    0.47
  -5  12   0    4.03    0.44
   5 -12   0    3.40    0.48
   5  12   0    5.57    0.64
   5 -12   0    2.66    0.62
  -5 -12   0    4.27    0.46
  -5  12   1    1.47    0.48
   5  12  -1    0.92    0.54
   5 -12   1    0.90    0.51
   5 -12   1    1.27    0.41
   5  12  -1    1.76    0.41
  -5 -12   1    0.78    0.40
   5 -12  -1    1.06    0.33
   5  12   1    1.54    0.66
   5 -12  -1    0.15    0.38
   5  12   1    0.63    0.34
  -5 -12   1    0.75    0.42
   5 -12  -1    0.41    0.52
  -5 -12   1    0.41    0.34
   5  12  -2    2.68    0.56
  -5 -12  -2    2.51    0.59
   5  12  -2    2.65    0.53
   5 -12   2    2.68    0.53
   5 -12   2    2.17    0.62
  -5 -12   2    3.22    0.51
   5 -12  -2    1.65    0.65
   5 -12  -2    3.71    0.54
   5  12   2    3.07    0.43
  -5 -12   2    2.92    0.52
   6  12   0    0.85    0.47
   6 -12   0    0.47    0.49
   0 -13   0    0.11    0.31
   0  13   0   -0.26    0.23
   0 -13   0    0.33    0.42
   0  13   1  170.34    3.40
   0  13   1  167.55    3.63
   0 -13  -1  169.78    3.39
   0 -13  -1  170.09    3.81
   0 -13   1  169.91    3.77
   0 -13   1  167.24    3.48
   0  13  -1  171.95    3.48
   0  13   2   -0.20    0.24
   0 -13   2   -0.30    0.37
   0  13   2   -0.38    0.37
   0  13  -2    0.05    0.25
   0 -13  -2   -0.38    0.31
   0  13   2    0.15    0.31
   0 -13  -2    0.54    0.47
   0  13   3  142.96    2.84
   0 -13   3  139.88    3.29
   0 -13  -3  138.68    2.76
   0  13   3  132.65    2.89
   0  13   3  136.58    3.19
   0  13  -3  140.79    3.04
   0 -13  -3  136.35    3.25
   0  13   4   -0.46    0.38
   0  13  -4    0.16    0.39
   0 -13   4    0.26    0.54
   0 -13  -4    0.95    0.54
   0  13   4   -0.40    0.52
  -1 -13   0   19.05    0.82
  -1  13   0   19.70    1.00
  -1 -13   0   18.77    1.06
   1 -13   0   18.88    0.81
   1  13   0   18.90    0.75
   1 -13   0   18.93    1.11
  -1 -13  -1   -0.12    0.30
   1  13  -1    0.09    0.25
   1 -13   1   -0.12    0.32
  -1  13   1    0.50    0.40
   1 -13   1   -0.02    0.39
  -1 -13  -1    0.19    0.43
   1  13   1    0.15    0.16
   1  13   1    0.17    0.24
   1  13   1    0.27    0.32
   1  13   1    0.69    0.31
  -1 -13   1    0.30    0.33
  -1  13  -1    0.14    0.26
  -1 -13   1    0.33    0.36
   1 -13  -1    0.42    0.44
   1 -13  -1    0.18    0.29
  -1  13   2   31.63    0.93
  -1 -13  -2   33.22    1.34
   1 -13   2   32.55    1.35
  -1  13   2   33.43    1.35
  -1 -13  -2   35.12    1.06
  -1  13   2   34.88    0.91
   1  13  -2   34.04    1.11
   1  13   2   33.79    0.92
   1  13   2   34.83    0.97
   1 -13  -2   31.44    1.02
   1  13   2   34.15    1.15
  -1 -13   2   33.03    1.27
  -1 -13   2   34.69    1.32
   1 -13  -2   33.81    1.44
  -1  13  -2   34.82    1.13
   1  13   2   34.08    1.08
  -1 -13  -3   -0.71    0.42
   1  13  -3   -0.12    0.31
   1 -13   3    0.80    0.46
  -1 -13  -3   -0.27    0.34
  -1  13   3   -0.02    0.31
   1 -13  -3    0.18    0.34
   1  13   3    0.56    0.33
  -1 -13   3   -0.05    0.37
   1  13   3    0.19    0.39
   1  13   3   -0.01    0.50
   1 -13  -3    0.38    0.30
  -1  13  -3    0.19    0.32
   1 -13  -3    0.19    0.51
  -1 -13  -4   13.47    1.04
   1 -13   4   11.53    1.13
   1  13  -4   11.63    0.83
  -1  13   4   10.86    0.83
   1  13   4   10.28    1.08
   1 -13  -4   11.62    1.18
   1  13   4   11.93    0.82
   1  13   4   11.39    1.01
  -1 -13   4   10.35    1.08
   2 -13   0    1.05    0.48
  -2 -13   0    0.75    0.39
  -2  13   0    2.20    0.48
   2  13   0    1.82    0.31
   2 -13   0    1.81    0.39
   2  13   0    1.60    0.19
  -2 -13  -1  224.11    4.64
  -2  13   1  209.96    4.72
   2 -13   1  211.49    4.40
   2  13  -1  228.08    4.43
  -2 -13  -1  219.11    4.34
   2 -13   1  225.33    4.79
  -2 -13   1  216.77    4.42
   2 -13  -1  223.86    4.34
   2 -13  -1  232.64    4.87
  -2 -13   1  225.44    4.61
   2  13   1  213.40    4.28
   2  13   1  226.56    4.33
   2  13   1  218.27    4.31
  -2 -13   1  220.35    4.46
  -2  13   2   -0.13    0.27
   2 -13   2   -0.31    0.41
  -2 -13  -2   -0.01    0.38
  -2 -13  -2    0.00    0.43
   2  13  -2    0.16    0.31
   2 -13  -2    0.53    0.36
   2  13   2   -0.08    0.45
   2  13   2    0.06    0.29
   2  13   2    0.11    0.26
  -2 -13   2    0.35    0.44
   2 -13  -2   -0.74    0.45
  -2 -13   2    0.54    0.41
   2 -13  -2    0.28    0.29
  -2  13   3  175.33    3.48
   2  13  -3  168.43    3.66
  -2 -13  -3  171.98    3.44
   2 -13   3  177.68    4.01
  -2 -13  -3  175.31    3.90
   2  13   3  170.78    3.48
   2  13   3  175.55    3.56
   2  13   3  169.96    3.65
   2 -13  -3  168.66    3.39
  -2 -13   3  166.74    3.83
   2 -13  -3  171.54    3.45
   2 -13  -3  177.16    4.07
   2  13   3  179.09    3.38
   3 -13   0   24.25    1.27
  -3 -13   0   23.26    0.93
  -3 -13   0   21.23    1.02
   3  13   0   23.81    0.90
   3  13   0   23.12    0.90
   3 -13   0   24.28    0.99
  -3 -13   0   23.61    1.10
   3  13  -1    2.75    0.33
  -3 -13  -1    3.86    0.55
   3 -13   1    4.14    0.63
   3  13  -1    3.62    0.46
  -3 -13  -1    3.40    0.52
   3  13   1    4.00    0.59
   3 -13  -1    2.95    0.47
   3 -13  -1    3.37    0.42
  -3 -13   1    3.47    0.52
  -3 -13   1    3.69    0.49
   3  13   1    4.51    0.49
   3  13   1    3.63    0.47
   3 -13  -1    2.11    0.58
   3  13  -2   28.20    1.07
  -3 -13  -2   28.14    1.10
   3  13  -2   26.96    0.80
  -3  13   2   27.24    0.94
   3 -13   2   29.94    1.38
  -3 -13  -2   27.77    1.10
   3 -13  -2   26.67    1.05
   3  13   2   25.77    1.32
   3 -13  -2   26.16    0.97
   3 -13  -2   29.48    1.47
  -3 -13   2   26.22    1.22
   3  13   2   28.25    1.08
  -3 -13   2   28.47    1.17
   3  13   2   28.85    0.93
  -3 -13   2   28.93    0.79
  -3 -13  -3    2.65    0.60
   3  13  -3    2.21    0.46
   3 -13   3    1.99    0.57
  -3 -13  -3    1.97    0.43
   3  13   3    1.78    0.34
   3 -13  -3    2.70    0.44
   3 -13  -3    3.21    0.71
   3 -13  -3    3.20    0.56
   3  13   3    2.49    0.66
  -3 -13   3    1.59    0.50
   3  13   3    1.71    0.41
   4  13   0    2.12    0.39
   4  13   0    2.01    0.54
  -4 -13   0    2.61    0.43
   4 -13   0    0.96    0.55
  -4 -13   0    2.18    0.49
   4 -13   0    1.65    0.39
  -4  13   1   26.83    0.89
   4 -13   1   28.70    1.42
   4  13  -1   27.91    1.08
   4  13  -1   27.62    1.08
  -4 -13  -1   28.02    1.09
   4 -13   1   28.81    1.11
  -4 -13  -1   27.30    1.08
  -4 -13  -1   27.75    1.24
  -4 -13   1   28.07    1.09
   4  13   1   27.89    1.00
   4 -13  -1   29.23    1.45
  -4 -13   1   26.07    1.15
  -4 -13   1   28.89    0.89
   4 -13  -1   27.45    1.05
   4  13   1   28.05    1.35
  -4  13   2    3.41    0.52
   4 -13   2    3.64    0.51
  -4 -13  -2    3.34    0.58
  -4 -13  -2    3.47    0.43
   4  13  -2    3.39    0.50
   4 -13   2    3.66    0.70
   4 -13  -2    3.56    0.50
   4 -13  -2    2.94    0.71
  -4 -13   2    4.38    0.53
   4  13   2    3.66    0.47
  -4 -13   2    3.10    0.56
   4 -13  -2    3.54    0.53
  -4 -13   2    2.45    0.51
   4  13   2    5.20    0.73
   4  13   2    3.13    0.40
   5  13   0   92.81    2.25
   5 -13   0   89.41    2.26
   5  13   0   90.03    2.34
  -5 -13   0   88.50    2.27
   5 -13   0   91.59    2.68
   5 -13   1    3.20    0.75
   5 -13   1    1.66    0.52
   5  13  -1    2.45    0.50
   5  13   1    2.91    0.45
   5 -13  -1    1.54    0.66
   5  13   1    0.98    0.70
  -5 -13   1    2.50    0.40
   5 -13  -1    2.50    0.47
   0  14   0   24.19    0.89
   0 -14   0   25.92    1.28
   0 -14   0   23.18    0.97
   0  14   1    0.16    0.26
   0 -14  -1    0.35    0.36
   0 -14   1   -0.11    0.43
   0  14   1   -0.26    0.37
   0 -14  -1    0.43    0.46
   0  14  -1    0.52    0.30
   0  14   2   44.70    1.49
   0 -14  -2   45.60    1.29
   0 -14   2   47.96    1.66
   0  14   2   44.88    1.23
   0  14  -2   47.98    1.40
   0  14   2   46.96    1.11
   0 -14  -2   45.56    1.68
   0  14  -3    0.50    0.36
   0 -14   3   -0.31    0.50
   0 -14  -3    0.23    0.51
   0  14   3   -0.47    0.34
   0 -14  -3   -0.51    0.51
   0  14   3   -0.55    0.51
   1 -14   0   56.57    1.57
  -1 -14   0   55.91    1.58
   1 -14   0   58.37    1.91
   1  14   0   60.44    1.53
  -1 -14   0   58.40    1.85
  -1  14   0   65.77    2.55
  -1 -14  -1    4.66    0.64
   1 -14   1    6.07    0.89
   1  14  -1    5.57    0.57
  -1  14   1    4.59    0.94
  -1 -14  -1    4.25    0.50
  -1 -14   1    5.07    0.63
   1 -14  -1    6.37    0.96
   1  14   1    5.39    0.51
   1  14   1    6.76    0.66
   1 -14  -1    5.14    0.67
  -1 -14  -2   49.55    1.70
   1 -14   2   50.18    1.75
  -1  14   2   48.88    1.15
  -1  14   2   46.25    1.18
  -1 -14  -2   50.29    1.37
   1  14  -2   48.21    1.43
   1  14   2   48.38    1.28
   1  14   2   48.47    1.38
   1  14   2   47.46    1.46
   1 -14  -2   46.75    1.33
   1  14   2   50.12    1.19
  -1  14  -2   48.63    1.44
  -1 -14   2   51.99    1.70
   1 -14  -2   47.53    1.79
  -1 -14  -3    3.61    0.63
  -1  14   3    2.70    0.43
   1 -14   3    3.76    0.64
   1  14  -3    3.34    0.51
   1 -14  -3    4.33    0.74
   1 -14  -3    4.11    0.45
  -1 -14   3    3.84    0.64
   1  14   3    4.68    0.62
   1 -14  -3    3.37    0.68
   1  14   3    2.82    0.53
  -2 -14   0   11.88    0.98
   2  14   0   12.53    0.69
   2 -14   0   12.54    1.12
   2 -14   0   10.71    1.10
  -2 -14   0   11.74    0.88
   2  14  -1   28.04    1.02
   2 -14   1   28.27    1.40
  -2 -14  -1   26.71    1.27
  -2 -14  -1   25.76    1.10
   2 -14  -1   25.63    1.08
   2  14   1   28.20    0.95
   2  14   1   27.25    0.76
   2 -14  -1   27.62    1.43
   2  14   1   27.86    0.98
  -2 -14   1   26.35    1.21
  -2 -14   1   27.83    1.19
  -2 -14  -2    5.29    0.77
   2 -14   2    7.28    0.99
  -2  14   2    6.82    0.56
   2  14  -2    7.80    0.69
  -2 -14  -2    7.03    0.93
   2  14   2    7.93    0.56
   2  14   2    6.09    0.65
   2  14   2    8.96    0.95
   2  14   2    6.68    0.55
  -2 -14   2    6.98    0.89
   2 -14  -2    7.00    0.61
   2 -14  -2    7.15    0.71
   2 -14  -2    7.82    1.09
  -2  14   3   21.92    0.96
   2  14  -3   21.50    1.07
  -2 -14  -3   22.96    1.16
   2 -14   3   21.00    1.35
   2  14   3   22.13    0.91
  -2 -14   3   20.60    1.22
   2 -14  -3   20.29    1.38
   2  14   3   21.01    1.49
   2  14   3   23.64    1.50
   2 -14  -3   21.61    0.93
   2  14   3   21.82    0.79
   3  14   0   15.24    0.60
   3 -14   0   14.19    1.16
  -3 -14   0   13.96    0.88
  -3 -14   0   16.50    1.06
   3  14   0   14.35    0.76
   3  14   0   15.59    0.80
  -3 -14  -1   -0.03    0.51
  -3 -14  -1    1.26    0.54
   3  14  -1    0.16    0.36
   3 -14   1    0.33    0.56
   3  14   1    0.27    0.29
   3 -14  -1   -0.18    0.32
   3 -14  -1    0.91    0.56
  -3 -14   1    0.58    0.43
   3  14   1    1.07    0.52
  -3 -14   1    0.42    0.45
   3  14   1    0.42    0.31
  -3 -14  -2   12.95    0.98
  -3 -14  -2   16.03    1.02
   3 -14   2   12.76    1.18
   3  14  -2   15.18    0.90
  -3  14   2   18.65    1.24
   3  14   2   16.07    1.15
   3 -14  -2   17.31    0.94
   3  14   2   12.45    1.16
  -3 -14   2   13.80    1.06
   3 -14  -2   16.51    1.31
   3 -14  -2   14.39    0.82
   3  14   2   15.59    0.74
  -4 -14   0   63.22    2.13
  -4 -14   0   67.73    2.17
   4 -14   0   64.35    1.78
   4 -14   0   62.98    2.22
   4  14   0   66.14    1.77
   4 -14   1   55.97    1.68
   4 -14   1   54.37    2.07
  -4 -14  -1   51.27    1.97
   4  14  -1   56.98    1.66
   4  14   1   56.00    1.51
  -4 -14   1   53.94    1.56
   4 -14  -1   53.89    1.58
  -4 -14   1   55.31    1.73
   4  14   1   56.89    1.54
   4 -14  -1   54.49    2.08
   0  15   0    0.17    0.31
   0 -15   0    0.02    0.52
   0  15  -1   16.15    0.84
   0 -15   1   18.11    1.19
   0  15   1   18.09    0.78
   0 -15  -1   14.08    1.20
   0 -15  -1   14.81    0.90
   0 -15  -2   -1.23    0.56
   0 -15  -2    0.52    0.43
   0 -15   2   -0.05    0.52
   0  15  -2    0.37    0.37
   1  15   0   -0.25    0.29
  -1 -15   0    0.45    0.53
   1 -15   0   -0.23    0.53
  -1 -15  -1   -0.44    0.54
   1 -15   1    0.99    0.59
  -1 -15  -1    0.49    0.43
   1  15  -1    0.82    0.36
   1 -15  -1    1.02    0.45
   1  15   1    0.54    0.32
   1 -15  -1    0.49    0.58
  -1 -15   1    0.56    0.54
  -1 -15  -2    1.71    0.48
  -1 -15  -2    0.75    0.61
   1  15  -2    0.84    0.37
   1 -15   2    0.81    0.55
   1  15   2    1.15    0.34
   1  15   2    0.61    0.34
   1  15   2    1.36    0.48
   1 -15  -2    1.73    0.45
   1 -15  -2    0.92    0.64
  -1 -15   2    1.00    0.51
  -2 -15   0    4.02    0.65
   2 -15   0    3.58    0.70
   2  15   0    4.99    0.60
  -2 -15  -1    0.83    0.57
   2 -15   1    0.54    0.58
   2  15  -1    0.22    0.37
  -2 -15   1    0.76    0.51
   2  15   1    1.41    0.37
   2 -15  -1    0.16    0.58
   2  15  -2    0.38    0.41
  -2 -15  -2   -0.45    0.51
  -2 -15  -2    0.01    0.57
   2 -15   2    1.10    0.66
   2  15   2    0.26    0.36
  -2 -15   2    1.02    0.53
   2 -15  -2    0.53    0.39
   2 -15  -2    0.65    0.45
   2 -15  -2   -0.84    0.62
   2  15   2    0.67    0.33
   3  15   0   38.41    1.26
   3 -15   0   32.59    1.73
  -3 -15   0   37.97    1.53
  -3 -15   0   39.11    1.33
   3  15  -1    2.46    0.49
  -3 -15  -1    1.39    0.60
   3 -15   1    1.01    0.70
   3 -15  -1    2.26    0.75
  -3 -15   1    1.23    0.58
   3 -15  -1    1.04    0.43
  -3 -15   1    1.32    0.54
   0  16   0    0.30    0.37
   0 -16   0   -0.12    0.62
   0 -16  -1    0.22    0.62
   0  16  -1   -0.44    0.38
   0 -16   1   -0.12    0.60
   1  16   0  106.70    2.43
  -1 -16   0   99.65    2.79
   1 -16   0  103.10    2.94
   1  16  -1    6.45    0.77
  -1 -16  -1    6.67    0.86
   1 -16   1    5.86    0.89
   1  16   1    8.00    0.69
  -1 -16   1    5.41    0.81
   1 -16  -1    7.17    0.90
   0   0   0    0.00    0.00
;
_shelx_hkl_checksum              84364
loop_
_space_group_symop_operation_xyz
'x, y, z'
'-x, -y, z'
'x+1/2, -y+1/2, -z+1/2'
'-x+1/2, y+1/2, -z+1/2'
'-x, -y, -z'
'x, y, -z'
'-x-1/2, y-1/2, z-1/2'
'x-1/2, -y-1/2, z-1/2'
loop_
_atom_site_label
_atom_site_type_symbol
_atom_site_fract_x
_atom_site_fract_y
_atom_site_fract_z
_atom_site_U_iso_or_equiv
_atom_site_adp_type
_atom_site_occupancy
_atom_site_site_symmetry_order
_atom_site_calc_flag
_atom_site_refinement_flags_posn
_atom_site_refinement_flags_adp
_atom_site_refinement_flags_occupancy
_atom_site_disorder_assembly
_atom_site_disorder_group
Ba1 Ba 0.29880(2) 0.26914(2) 0.0000 0.01010(7) Uani 1 2 d S T P . .
Zn1 Zn 0.0000 0.0000 0.0000 0.01109(10) Uani 1 4 d S T P . .
Se1 Se 0.25412(4) 0.07300(2) 0.5000 0.00817(7) Uani 1 2 d S T P . .
O1 O 0.10226(18) 0.10890(10) 0.2607(2) 0.0117(3) Uani 1 1 d . . . . .
O2 O 0.4137(3) 0.17405(15) 0.5000 0.0176(4) Uani 1 2 d S T P . .
Cl1 Cl -0.32436(10) 0.10318(6) 0.0000 0.01584(13) Uani 1 2 d S T P . .
loop_
_atom_site_aniso_label
_atom_site_aniso_U_11
_atom_site_aniso_U_22
_atom_site_aniso_U_33
_atom_site_aniso_U_23
_atom_site_aniso_U_13
_atom_site_aniso_U_12
Ba1 0.00822(9) 0.01138(10) 0.01072(9) 0.000 0.000 -0.00146(5)
Zn1 0.0155(2) 0.0108(2) 0.00692(19) 0.000 0.000 -0.00392(15)
Se1 0.00929(13) 0.00813(13) 0.00709(13) 0.000 0.000 0.00165(9)
O1 0.0138(6) 0.0121(6) 0.0092(6) -0.0007(5) -0.0039(5) 0.0005(5)
O2 0.0080(8) 0.0214(10) 0.0233(10) 0.000 0.000 -0.0050(7)
Cl1 0.0148(3) 0.0173(3) 0.0154(3) 0.000 0.000 0.0018(2)
loop_
_atom_type_symbol
_atom_type_description
_atom_type_scat_dispersion_real
_atom_type_scat_dispersion_imag
_atom_type_scat_source
Ba Ba -0.3244 2.2819 'International Tables Vol C Tables 4.2.6.8 and 6.1.1.4'
Cl Cl 0.1484 0.1585 'International Tables Vol C Tables 4.2.6.8 and 6.1.1.4'
O O 0.0106 0.0060 'International Tables Vol C Tables 4.2.6.8 and 6.1.1.4'
Se Se -0.0929 2.2259 'International Tables Vol C Tables 4.2.6.8 and 6.1.1.4'
Zn Zn 0.2839 1.4301 'International Tables Vol C Tables 4.2.6.8 and 6.1.1.4'
loop_
_geom_angle_atom_site_label_1
_geom_angle_atom_site_label_2
_geom_angle_atom_site_label_3
_geom_angle
_geom_angle_site_symmetry_1
_geom_angle_site_symmetry_3
O2 Ba1 O1 74.57(4) 3_455 6
O2 Ba1 O1 74.57(4) 3_455 .
O1 Ba1 O1 60.26(5) 6 .
O2 Ba1 O1 123.15(4) 3_455 3
O1 Ba1 O1 162.26(4) 6 3
O1 Ba1 O1 120.11(2) . 3
O2 Ba1 O1 123.15(4) 3_455 8_665
O1 Ba1 O1 120.11(2) 6 8_665
O1 Ba1 O1 162.26(4) . 8_665
O1 Ba1 O1 53.36(5) 3 8_665
O2 Ba1 O2 110.49(4) 3_455 1_554
O1 Ba1 O2 52.64(4) 6 1_554
O1 Ba1 O2 106.25(4) . 1_554
O1 Ba1 O2 115.19(4) 3 1_554
O1 Ba1 O2 68.43(4) 8_665 1_554
O2 Ba1 O2 110.49(4) 3_455 .
O1 Ba1 O2 106.25(4) 6 .
O1 Ba1 O2 52.64(4) . .
O1 Ba1 O2 68.43(4) 3 .
O1 Ba1 O2 115.19(4) 8_665 .
O2 Ba1 O2 124.08(7) 1_554 .
O2 Ba1 Cl1 67.73(2) 3_455 3
O1 Ba1 Cl1 130.78(3) 6 3
O1 Ba1 Cl1 79.66(3) . 3
O1 Ba1 Cl1 62.92(3) 3 3
O1 Ba1 Cl1 106.84(3) 8_665 3
O2 Ba1 Cl1 173.35(4) 1_554 3
O2 Ba1 Cl1 61.84(3) . 3
O2 Ba1 Cl1 67.73(2) 3_455 3_554
O1 Ba1 Cl1 79.66(3) 6 3_554
O1 Ba1 Cl1 130.78(3) . 3_554
O1 Ba1 Cl1 106.84(3) 3 3_554
O1 Ba1 Cl1 62.92(3) 8_665 3_554
O2 Ba1 Cl1 61.84(3) 1_554 3_554
O2 Ba1 Cl1 173.35(4) . 3_554
Cl1 Ba1 Cl1 112.08(2) 3 3_554
O2 Ba1 Cl1 155.98(4) 3_455 1_655
O1 Ba1 Cl1 84.72(3) 6 1_655
O1 Ba1 Cl1 84.72(3) . 1_655
O1 Ba1 Cl1 77.78(3) 3 1_655
O1 Ba1 Cl1 77.78(3) 8_665 1_655
O2 Ba1 Cl1 63.47(3) 1_554 1_655
O2 Ba1 Cl1 63.47(3) . 1_655
Cl1 Ba1 Cl1 120.879(14) 3 1_655
Cl1 Ba1 Cl1 120.879(14) 3_554 1_655
O2 Ba1 Se1 131.70(4) 3_455 3
O1 Ba1 Se1 142.32(2) 6 3
O1 Ba1 Se1 142.32(2) . 3
O1 Ba1 Se1 26.95(2) 3 3
O1 Ba1 Se1 26.95(2) 8_665 3
O2 Ba1 Se1 90.00(3) 1_554 3
O2 Ba1 Se1 90.00(3) . 3
Cl1 Ba1 Se1 86.887(12) 3 3
Cl1 Ba1 Se1 86.887(12) 3_554 3
Cl1 Ba1 Se1 72.328(13) 1_655 3
O2 Ba1 Se1 95.72(3) 3_455 .
O1 Ba1 Se1 80.89(3) 6 .
O1 Ba1 Se1 26.51(2) . .
O1 Ba1 Se1 95.22(2) 3 .
O1 Ba1 Se1 138.58(2) 8_665 .
O2 Ba1 Se1 113.81(3) 1_554 .
O2 Ba1 Se1 26.80(3) . .
Cl1 Ba1 Se1 72.838(11) 3 .
Cl1 Ba1 Se1 157.246(13) 3_554 .
Cl1 Ba1 Se1 68.613(9) 1_655 .
Se1 Ba1 Se1 115.817(6) 3 .
O1 Zn1 O1 95.22(7) 5 6
O1 Zn1 O1 84.78(7) 5 2
O1 Zn1 O1 180.00(8) 6 2
O1 Zn1 O1 180.0 5 .
O1 Zn1 O1 84.78(7) 6 .
O1 Zn1 O1 95.22(7) 2 .
O1 Zn1 Cl1 87.05(4) 5 5
O1 Zn1 Cl1 92.95(4) 6 5
O1 Zn1 Cl1 87.05(4) 2 5
O1 Zn1 Cl1 92.95(4) . 5
O1 Zn1 Cl1 92.95(4) 5 .
O1 Zn1 Cl1 87.05(4) 6 .
O1 Zn1 Cl1 92.95(4) 2 .
O1 Zn1 Cl1 87.05(4) . .
Cl1 Zn1 Cl1 180.0 5 .
O1 Zn1 Ba1 137.46(3) 5 .
O1 Zn1 Ba1 42.54(3) 6 .
O1 Zn1 Ba1 137.46(3) 2 .
O1 Zn1 Ba1 42.54(3) . .
Cl1 Zn1 Ba1 89.957(16) 5 .
Cl1 Zn1 Ba1 90.044(16) . .
O1 Zn1 Ba1 42.54(3) 5 5
O1 Zn1 Ba1 137.46(3) 6 5
O1 Zn1 Ba1 42.54(3) 2 5
O1 Zn1 Ba1 137.46(3) . 5
Cl1 Zn1 Ba1 90.043(16) 5 5
Cl1 Zn1 Ba1 89.957(16) . 5
Ba1 Zn1 Ba1 180.0 . 5
O2 Se1 O1 100.70(6) . .
O2 Se1 O1 100.70(6) . 6_556
O1 Se1 O1 97.91(8) . 6_556
O2 Se1 Ba1 97.33(7) . 3_455
O1 Se1 Ba1 49.58(4) . 3_455
O1 Se1 Ba1 49.58(4) 6_556 3_455
O2 Se1 Ba1 55.39(3) . .
O1 Se1 Ba1 46.94(4) . .
O1 Se1 Ba1 115.09(4) 6_556 .
Ba1 Se1 Ba1 72.705(4) 3_455 .
O2 Se1 Ba1 55.39(3) . 1_556
O1 Se1 Ba1 115.09(4) . 1_556
O1 Se1 Ba1 46.94(4) 6_556 1_556
Ba1 Se1 Ba1 72.704(4) 3_455 1_556
Ba1 Se1 Ba1 94.406(7) . 1_556
Se1 O1 Zn1 122.20(7) . .
Se1 O1 Ba1 106.55(5) . .
Zn1 O1 Ba1 107.23(5) . .
Se1 O1 Ba1 103.47(5) . 3_455
Zn1 O1 Ba1 114.79(5) . 3_455
Ba1 O1 Ba1 100.21(4) . 3_455
Se1 O2 Ba1 145.63(10) . 3
Se1 O2 Ba1 97.81(5) . .
Ba1 O2 Ba1 98.11(4) 3 .
Se1 O2 Ba1 97.81(5) . 1_556
Ba1 O2 Ba1 98.11(4) 3 1_556
Ba1 O2 Ba1 124.08(7) . 1_556
Zn1 Cl1 Ba1 91.882(15) . 3_455
Zn1 Cl1 Ba1 91.882(15) . 3_454
Ba1 Cl1 Ba1 112.08(2) 3_455 3_454
Zn1 Cl1 Ba1 171.28(3) . 1_455
Ba1 Cl1 Ba1 83.281(14) 3_455 1_455
Ba1 Cl1 Ba1 83.281(14) 3_454 1_455
loop_
_geom_bond_atom_site_label_1
_geom_bond_atom_site_label_2
_geom_bond_distance
_geom_bond_site_symmetry_2
Ba1 O2 2.7033(18) 3_455
Ba1 O1 2.8004(12) 6
Ba1 O1 2.8004(12) .
Ba1 O1 2.8733(12) 3
Ba1 O1 2.8733(12) 8_665
Ba1 O2 3.0520(9) 1_554
Ba1 O2 3.0520(9) .
Ba1 Cl1 3.2501(4) 3
Ba1 Cl1 3.2501(4) 3_554
Ba1 Cl1 3.3014(7) 1_655
Ba1 Se1 3.6705(3) 3
Ba1 Se1 3.6739(2) .
Zn1 O1 2.0850(12) 5
Zn1 O1 2.0850(12) 6
Zn1 O1 2.0850(12) 2
Zn1 O1 2.0850(12) .
Zn1 Cl1 2.5530(7) 5
Zn1 Cl1 2.5530(7) .
Zn1 Ba1 3.95575(17) 5
Se1 O2 1.6720(18) .
Se1 O1 1.7107(12) .
Se1 O1 1.7108(12) 6_556
Se1 Ba1 3.6704(3) 3_455
Se1 Ba1 3.6739(2) 1_556
O1 Ba1 2.8733(12) 3_455
O2 Ba1 2.7033(18) 3
O2 Ba1 3.0520(9) 1_556
Cl1 Ba1 3.2501(4) 3_455
Cl1 Ba1 3.2501(4) 3_454
Cl1 Ba1 3.3014(7) 1_455
loop_
_geom_torsion_atom_site_label_1
_geom_torsion_atom_site_label_2
_geom_torsion_atom_site_label_3
_geom_torsion_atom_site_label_4
_geom_torsion
_geom_torsion_site_symmetry_1
_geom_torsion_site_symmetry_2
_geom_torsion_site_symmetry_3
_geom_torsion_site_symmetry_4
O2 Se1 O1 Zn1 138.13(8) . . . .
O1 Se1 O1 Zn1 -119.34(6) 6_556 . . .
Ba1 Se1 O1 Zn1 -131.32(9) 3_455 . . .
Ba1 Se1 O1 Zn1 123.52(9) . . . .
Ba1 Se1 O1 Zn1 -165.22(5) 1_556 . . .
O2 Se1 O1 Ba1 14.61(7) . . . .
O1 Se1 O1 Ba1 117.14(5) 6_556 . . .
Ba1 Se1 O1 Ba1 105.15(6) 3_455 . . .
Ba1 Se1 O1 Ba1 71.25(5) 1_556 . . .
O2 Se1 O1 Ba1 -90.55(6) . . . 3_455
O1 Se1 O1 Ba1 11.99(8) 6_556 . . 3_455
Ba1 Se1 O1 Ba1 -105.15(6) . . . 3_455
Ba1 Se1 O1 Ba1 -33.90(5) 1_556 . . 3_455
O1 Se1 O2 Ba1 -129.87(4) . . . 3
O1 Se1 O2 Ba1 129.87(4) 6_556 . . 3
Ba1 Se1 O2 Ba1 180.0 3_455 . . 3
Ba1 Se1 O2 Ba1 -116.93(4) . . . 3
Ba1 Se1 O2 Ba1 116.93(4) 1_556 . . 3
O1 Se1 O2 Ba1 -12.94(7) . . . .
O1 Se1 O2 Ba1 -113.20(5) 6_556 . . .
Ba1 Se1 O2 Ba1 -63.07(4) 3_455 . . .
Ba1 Se1 O2 Ba1 -126.14(8) 1_556 . . .
O1 Se1 O2 Ba1 113.20(5) . . . 1_556
O1 Se1 O2 Ba1 12.94(7) 6_556 . . 1_556
Ba1 Se1 O2 Ba1 63.07(4) 3_455 . . 1_556
Ba1 Se1 O2 Ba1 126.14(8) . . . 1_556
