#------------------------------------------------------------------------------
#$Date: 2021-03-26 12:30:36 +0200 (Fri, 26 Mar 2021) $
#$Revision: 263368 $
#$URL: file:///home/coder/svn-repositories/cod/cif/1/56/13/1561304.cif $
#------------------------------------------------------------------------------
#
# This file is available in the Crystallography Open Database (COD),
# http://www.crystallography.net/
#
# All data on this site have been placed in the public domain by the
# contributors.
#
data_1561304
loop_
_publ_author_name
'Tsymbarenko, Dmitry'
'Martynova, Irina'
'Grebenyuk, Dimitry'
'Shegolev, Vsevolod'
'Kuzmina, Natalia'
_publ_section_title
;
 One-dimensional coordination polymers of whole row rare earth
 tris-pivalates
;
_journal_name_full               'Journal of Solid State Chemistry'
_journal_page_first              876
_journal_page_last               884
_journal_paper_doi               10.1016/j.jssc.2017.12.024
_journal_volume                  258
_journal_year                    2018
_chemical_formula_moiety         'C15 H27 O6 Y1'
_chemical_formula_sum            'C15 H27 O6 Y'
_chemical_formula_weight         392.3
_chemical_name_common            'yttium pivalate'
_chemical_name_systematic
' catena-tris(mu2-2,2-dimethylpropionato-O,O')yttrium(iii)'
_space_group_IT_number           176
_space_group_name_Hall           '-P 6c'
_space_group_name_H-M_alt        'P 63/m'
_symmetry_cell_setting           hexagonal
_symmetry_Int_Tables_number      176
_symmetry_space_group_name_Hall  '-P 6c'
_symmetry_space_group_name_H-M   'P 63/m'
_cell_angle_alpha                90
_cell_angle_beta                 90
_cell_angle_gamma                120
_cell_formula_units_Z            2
_cell_length_a                   11.5115(2)
_cell_length_b                   11.5115(2)
_cell_length_c                   9.3896(3)
_cell_measurement_temperature    293
_cell_volume                     1077.56(4)
_diffrn_ambient_temperature      293
_diffrn_detector                 SC-70
_diffrn_detector_type            scintillator
_diffrn_measurement_device_type  'Rigaku SmartLab'
_diffrn_radiation_monochromator  graphite
_diffrn_radiation_probe          x-ray
_diffrn_radiation_type           'Cu K\a'
_diffrn_radiation_wavelength     1.541871
_diffrn_source                   '9 KW rotating anode'
_diffrn_source_target            Cu
_exptl_absorpt_coefficient_mu    3.989
_exptl_absorpt_correction_type   none
_exptl_crystal_density_diffrn    1.209
_exptl_crystal_F_000             354
_pd_char_colour                  white
_pd_char_particle_morphology     powder
_pd_instr_location               ' ?'
_pd_meas_2theta_range_inc        0.02
_pd_meas_2theta_range_max        80.000
_pd_meas_2theta_range_min        6.000
_pd_meas_number_of_points        3701
_pd_meas_scan_method             cont
_pd_prep_temperature             293
_pd_proc_2theta_range_inc        0.02
_pd_proc_2theta_range_max        80
_pd_proc_2theta_range_min        6
_pd_proc_ls_background_function  '12 Legendre polynoms'
_pd_proc_ls_pref_orient_corr     'March & Dollase'
_pd_proc_ls_profile_function     Pseudo-Voigt
_pd_proc_ls_prof_R_factor        0.0559
_pd_proc_ls_prof_wR_expected     0.0148
_pd_proc_ls_prof_wR_factor       0.0841
_pd_spec_mount_mode              reflection
_pd_spec_shape                   flat_sheet
_pd_spec_size_axial              20
_pd_spec_size_equat              20
_pd_spec_size_thick              0.5
_refine_diff_density_max         0.27
_refine_diff_density_min         -0.28
_refine_ls_goodness_of_fit_all   5.70
_refine_ls_hydrogen_treatment    noref
_refine_ls_number_constraints    7
_refine_ls_number_parameters     37
_refine_ls_number_restraints     14
_refine_ls_R_factor_all          0.0414
_refine_ls_R_factor_gt           0.0414
_refine_ls_shift/su_max          0.0335
_refine_ls_shift/su_mean         0.0068
_refine_ls_weighting_scheme      sigma
_refine_ls_wR_factor_all         0.0516
_refine_ls_wR_factor_gt          0.0516
_cod_data_source_file            JSSC-2018-258-876.cif
_cod_data_source_block           2
_cod_depositor_comments
;
The following automatic conversions were performed:

data item '_diffrn_radiation_probe' value 'X-ray' was changed to
'x-ray' in accordance with the built-in table derived from the CIF
Core dictionary named 'cif_core.dic' version 2.4.5 last updated on
2014-11-21.

Automatic conversion script
Id: cif_fix_values 8369 2020-08-20 11:38:08Z andrius 
;
_cod_original_cell_volume        1077.56(5)
_cod_original_formula_sum        'C15 H27 O6 Y1'
_cod_database_code               1561304
loop_
_space_group_symop_id
_space_group_symop_operation_xyz
1 x,y,z
2 -y,x-y,z
3 -x+y,-x,z
4 -x,-y,z+1/2
5 y,-x+y,z+1/2
6 x-y,x,z+1/2
7 -x,-y,-z
8 y,-x+y,-z
9 x-y,x,-z
10 x,y,-z+1/2
11 -y,x-y,-z+1/2
12 -x+y,-x,-z+1/2
loop_
_atom_site_label
_atom_site_type_symbol
_atom_site_fract_x
_atom_site_fract_y
_atom_site_fract_z
_atom_site_adp_type
_atom_site_U_iso_or_equiv
_atom_site_site_symmetry_multiplicity
_atom_site_occupancy
_atom_site_calc_flag
_atom_site_refinement_flags
_atom_site_disorder_assembly
_atom_site_disorder_group
Y1 Y 0 0 0.5 Uani 0.0457(15) 2 1 d . . .
O1 O 0.0000(10) -0.1590(6) 0.8665(4) Uiso 0.096(3) 12 1 d . . .
C1 C -0.0079(11) -0.2151(6) 0.75 Uiso 0.064(4) 6 1 d . . .
C3 C -0.1172(7) -0.4325(7) 0.8816(5) Uiso 0.064(4) 12 0.75 d . . .
C4 C 0.0968(9) -0.3594(11) 0.75 Uiso 0.064(4) 6 0.75 d . . .
C2 C -0.0355(6) -0.3590(5) 0.75 Uiso 0.064(4) 6 1 d . . .
C4a C -0.1869(8) -0.4564(10) 0.75 Uiso 0.064(4) 6 0.25 d . . .
C3a C 0.0281(8) -0.3833(8) 0.8823(5) Uiso 0.064(4) 12 0.25 d . . .
loop_
_atom_site_aniso_label
_atom_site_aniso_type_symbol
_atom_site_aniso_U_11
_atom_site_aniso_U_22
_atom_site_aniso_U_33
_atom_site_aniso_U_12
_atom_site_aniso_U_13
_atom_site_aniso_U_23
Y1 Y 0.0625(16) 0.0625(16) 0.012(3) 0.0312(8) 0 0
loop_
_atom_type_symbol
_atom_type_scat_dispersion_real
_atom_type_scat_dispersion_imag
_atom_type_scat_source
C 0.0181 0.0091 'International Tables Vol C tables 4.2.6.8 and 6.1.1.1'
H 0.0000 0.0000 'International Tables Vol C tables 4.2.6.8 and 6.1.1.1'
O 0.0492 0.0322 'International Tables Vol C tables 4.2.6.8 and 6.1.1.1'
Y -0.2670 2.0244 'International Tables Vol C tables 4.2.6.8 and 6.1.1.1'
loop_
_geom_angle_atom_site_label_1
_geom_angle_atom_site_label_2
_geom_angle_atom_site_label_3
_geom_angle_site_symmetry_1
_geom_angle_site_symmetry_2
_geom_angle_site_symmetry_3
_geom_angle
O1 Y1 O1 4_554 . 5_554 91.2(3)
O1 Y1 O1 4_554 . 6_554 91.2(4)
O1 Y1 O1 4_554 . 10_556 180.0(5)
O1 Y1 O1 4_554 . 11_556 88.8(3)
O1 Y1 O1 4_554 . 12_556 88.8(4)
O1 Y1 O1 5_554 . 6_554 91.2(3)
O1 Y1 O1 5_554 . 10_556 88.8(3)
O1 Y1 O1 5_554 . 11_556 180.0(5)
O1 Y1 O1 5_554 . 12_556 88.8(3)
O1 Y1 O1 6_554 . 10_556 88.8(4)
O1 Y1 O1 6_554 . 11_556 88.8(3)
O1 Y1 O1 6_554 . 12_556 180.0(5)
O1 Y1 O1 10_556 . 11_556 91.2(3)
O1 Y1 O1 10_556 . 12_556 91.2(4)
O1 Y1 O1 11_556 . 12_556 91.2(3)
Y1 O1 C1 4_555 . . 152.9(7)
O1 C1 O1 . . 10_556 122.1(9)
O1 C1 C2 . . . 118.9(5)
O1 C1 C2 10_556 . . 118.9(5)
C2 C3 C4a . . . 62.4(4)
C2 C3 C3a . . . 61.6(4)
C4a C3 C3a . . . 120.0(5)
C2 C4 C3a . . . 62.7(6)
C2 C4 C3a . . 10_556 62.7(6)
C3a C4 C3a . . 10_556 121.5(8)
C1 C2 C3 . . . 109.8(5)
C1 C2 C3 . . 10_556 109.8(5)
C1 C2 C4 . . . 109.8(7)
C1 C2 C4a . . . 109.8(8)
C1 C2 C3a . . . 109.8(4)
C1 C2 C3a . . 10_556 109.8(4)
C3 C2 C3 . . 10_556 108.0(4)
C3 C2 C4 . . . 109.7(5)
C3 C2 C4a . . . 55.5(3)
C3 C2 C3a . . . 57.5(4)
C3 C2 C3a . . 10_556 140.4(6)
C3 C2 C4 10_556 . . 109.7(5)
C3 C2 C4a 10_556 . . 55.5(3)
C3 C2 C3a 10_556 . . 140.4(6)
C3 C2 C3a 10_556 . 10_556 57.5(4)
C4 C2 C4a . . . 140.4(8)
C4 C2 C3a . . . 55.4(4)
C4 C2 C3a . . 10_556 55.4(4)
C4a C2 C3a . . . 109.8(4)
C4a C2 C3a . . 10_556 109.8(4)
C3a C2 C3a . . 10_556 107.9(7)
C3 C4a C3 . . 10_556 120.5(7)
C3 C4a C2 . . . 62.2(4)
C3 C4a C2 10_556 . . 62.2(4)
C3 C3a C4 . . . 119.0(6)
C3 C3a C2 . . . 60.9(4)
C4 C3a C2 . . . 61.9(5)
loop_
_geom_bond_atom_site_label_1
_geom_bond_atom_site_label_2
_geom_bond_site_symmetry_1
_geom_bond_site_symmetry_2
_geom_bond_distance
Y1 O1 . 4_554 2.218(8)
Y1 O1 . 5_554 2.218(7)
Y1 O1 . 6_554 2.218(12)
Y1 O1 . 10_556 2.218(8)
Y1 O1 . 11_556 2.218(7)
Y1 O1 . 12_556 2.218(12)
O1 C1 . . 1.251(7)
C1 C2 . . 1.523(10)
C3 C2 . . 1.527(6)
C3 C4a . . 1.423(7)
C3 C3a . . 1.474(12)
C4 C2 . . 1.525(14)
C4 C3a . . 1.424(8)
C4 C3a . 10_556 1.424(8)
C2 C4a . . 1.530(9)
C2 C3a . . 1.537(9)
C2 C3a . 10_556 1.537(9)
loop_
_pd_proc_point_id
_pd_proc_2theta_corrected
_pd_proc_intensity_net
_pd_calc_intensity_net
_pd_proc_ls_weight
1 6.0100 1971.00 1767.51 44.00
2 6.0300 2013.00 1794.58 45.00
3 6.0500 2048.00 1820.82 45.00
4 6.0700 2042.00 1846.27 45.00
5 6.0900 2032.00 1870.95 45.00
6 6.1100 1970.00 1894.89 44.00
7 6.1300 2004.00 1918.07 45.00
8 6.1500 2004.00 1940.51 45.00
9 6.1700 2032.00 1962.24 45.00
10 6.1900 2087.00 1983.31 46.00
11 6.2100 2028.00 2003.64 45.00
12 6.2300 1961.00 2023.31 44.00
13 6.2500 1996.00 2042.32 45.00
14 6.2700 1989.00 2060.69 45.00
15 6.2900 1994.00 2078.45 45.00
16 6.3100 2061.00 2095.56 45.00
17 6.3300 2122.00 2112.05 46.00
18 6.3500 1981.00 2127.96 45.00
19 6.3700 2018.00 2143.30 45.00
20 6.3900 2036.00 2158.05 45.00
21 6.4100 2009.00 2172.23 45.00
22 6.4300 2046.00 2185.87 45.00
23 6.4500 2084.00 2199.00 46.00
24 6.4700 2090.00 2211.57 46.00
25 6.4900 2119.00 2223.61 46.00
26 6.5100 2143.00 2235.16 46.00
27 6.5300 2152.00 2246.24 46.00
28 6.5500 2102.00 2256.81 46.00
29 6.5700 2051.00 2266.90 45.00
30 6.5900 1990.00 2276.53 45.00
31 6.6100 2109.00 2285.70 46.00
32 6.6300 2158.00 2294.45 46.00
33 6.6500 2131.00 2302.74 46.00
34 6.6700 2183.00 2310.60 47.00
35 6.6900 2226.00 2318.04 47.00
36 6.7100 2166.00 2325.10 47.00
37 6.7300 2163.00 2331.74 47.00
38 6.7500 2166.00 2337.99 47.00
39 6.7700 2166.00 2343.85 47.00
40 6.7900 2187.00 2349.34 47.00
41 6.8100 2251.00 2354.49 47.00
42 6.8300 2193.00 2359.25 47.00
43 6.8500 2372.00 2363.66 49.00
44 6.8700 2259.00 2367.73 48.00
45 6.8900 2295.00 2479.02 48.00
46 6.9100 2318.00 2537.97 48.00
47 6.9300 2222.00 2544.75 47.00
48 6.9500 2237.00 2551.33 47.00
49 6.9700 2321.00 2557.77 48.00
50 6.9900 2209.00 2564.02 47.00
51 7.0100 2235.00 2570.14 47.00
52 7.0300 2285.00 2576.11 48.00
53 7.0500 2239.00 2582.01 47.00
54 7.0700 2202.00 2587.76 47.00
55 7.0900 2350.00 2593.44 48.00
56 7.1100 2337.00 2599.04 48.00
57 7.1300 2274.00 2604.62 48.00
58 7.1500 2447.00 2610.13 49.00
59 7.1700 2359.00 2615.62 49.00
60 7.1900 2358.00 2621.11 49.00
61 7.2100 2393.00 2626.63 49.00
62 7.2300 2466.00 2632.18 50.00
63 7.2500 2446.00 2637.77 49.00
64 7.2700 2487.00 2643.44 50.00
65 7.2900 2436.00 2649.22 49.00
66 7.3100 2538.00 2655.14 50.00
67 7.3300 2535.00 2661.19 50.00
68 7.3500 2558.00 2667.40 51.00
69 7.3700 2565.00 2673.83 51.00
70 7.3900 2575.00 2680.50 51.00
71 7.4100 2652.00 2687.42 51.00
72 7.4300 2704.00 2694.65 52.00
73 7.4500 2704.00 2702.21 52.00
74 7.4700 2703.00 2710.15 52.00
75 7.4900 2775.00 2718.53 53.00
76 7.5100 2891.00 2727.37 54.00
77 7.5300 2869.00 2736.71 54.00
78 7.5500 2842.00 2746.63 53.00
79 7.5700 2938.00 2757.21 54.00
80 7.5900 3056.00 2768.47 55.00
81 7.6100 3122.00 2780.50 56.00
82 7.6300 3111.00 2793.38 56.00
83 7.6500 3273.00 2807.24 57.00
84 7.6700 3317.00 2822.10 58.00
85 7.6900 3427.00 2838.12 59.00
86 7.7100 3477.00 2855.43 59.00
87 7.7300 3632.00 2874.16 60.00
88 7.7500 3736.00 2894.45 61.00
89 7.7700 3869.00 2916.51 62.00
90 7.7900 3936.00 2940.52 63.00
91 7.8100 4106.00 2966.74 64.00
92 7.8300 4205.00 2995.44 65.00
93 7.8500 4496.00 3026.93 67.00
94 7.8700 4611.00 3061.61 68.00
95 7.8900 4866.00 3099.91 70.00
96 7.9100 5097.00 3142.42 71.00
97 7.9300 5376.00 3189.77 73.00
98 7.9500 5788.00 3242.80 76.00
99 7.9700 6013.00 3302.57 78.00
100 7.9900 6475.00 3370.44 80.00
101 8.0100 6750.00 3448.19 82.00
102 8.0300 6965.00 3538.30 83.00
103 8.0500 7749.00 3644.28 88.00
104 8.0700 8345.00 3771.77 91.00
105 8.0900 8828.00 3932.05 94.00
106 8.1100 9543.00 4155.49 98.00
107 8.1300 10146.00 4521.57 101.00
108 8.1500 11012.00 5181.19 105.00
109 8.1700 11893.00 6293.83 109.00
110 8.1900 12920.00 7890.23 114.00
111 8.2100 14033.00 9864.91 118.00
112 8.2300 14969.00 12091.20 122.00
113 8.2500 16492.00 14496.10 128.00
114 8.2700 18054.00 17055.80 134.00
115 8.2900 19679.00 19768.90 140.00
116 8.3100 21270.00 22642.90 146.00
117 8.3300 23190.00 25688.60 152.00
118 8.3500 25673.00 28920.00 160.00
119 8.3700 27811.00 32353.50 167.00
120 8.3900 30704.00 36009.00 175.00
121 8.4100 33905.00 39908.80 184.00
122 8.4300 37337.00 44080.00 193.00
123 8.4500 41922.00 48553.70 205.00
124 8.4700 45814.00 53366.90 214.00
125 8.4900 50564.00 58562.90 225.00
126 8.5100 55426.00 64194.70 235.00
127 8.5300 60827.00 70325.00 247.00
128 8.5500 67652.00 77029.80 260.00
129 8.5700 75411.00 84404.00 275.00
130 8.5900 84047.00 92564.30 290.00
131 8.6100 93672.00 101660.00 306.00
132 8.6300 104420.00 111881.00 323.00
133 8.6500 116843.00 123481.00 342.00
134 8.6700 131865.00 136796.00 363.00
135 8.6900 149558.00 152298.00 387.00
136 8.7100 171367.00 170661.00 414.00
137 8.7300 196686.00 192909.00 443.00
138 8.7500 228226.00 220729.00 478.00
139 8.7700 271137.00 257282.00 521.00
140 8.7900 326212.00 308832.00 571.00
141 8.8100 403650.00 384010.00 635.00
142 8.8300 506137.00 477768.00 711.00
143 8.8500 563560.00 538404.00 751.00
144 8.8700 484437.00 479821.00 696.00
145 8.8900 315841.00 317424.00 562.00
146 8.9100 165342.00 162744.00 407.00
147 8.9300 77961.00 75644.80 279.00
148 8.9500 41800.00 39931.70 204.00
149 8.9700 28025.00 26320.70 167.00
150 8.9900 20813.00 19850.90 144.00
151 9.0100 16749.00 15877.00 129.00
152 9.0300 13739.00 13133.70 117.00
153 9.0500 11601.00 11141.50 108.00
154 9.0700 9737.00 9644.84 99.00
155 9.0900 8394.00 8489.66 92.00
156 9.1100 7014.00 7577.68 84.00
157 9.1300 6127.00 6843.97 78.00
158 9.1500 5439.00 6243.98 74.00
159 9.1700 4926.00 5746.43 70.00
160 9.1900 4295.00 5328.70 66.00
161 9.2100 3976.00 4974.18 63.00
162 9.2300 3502.00 4670.40 59.00
163 9.2500 3423.00 4407.83 59.00
164 9.2700 3232.00 4179.13 57.00
165 9.2900 3097.00 3978.49 56.00
166 9.3100 2972.00 3801.36 55.00
167 9.3300 2946.00 3644.04 54.00
168 9.3500 2745.00 3503.58 52.00
169 9.3700 2663.00 3377.55 52.00
170 9.3900 2598.00 3263.92 51.00
171 9.4100 2519.00 3161.05 50.00
172 9.4300 2478.00 3067.53 50.00
173 9.4500 2366.00 2982.20 49.00
174 9.4700 2362.00 2904.07 49.00
175 9.4900 2383.00 2832.28 49.00
176 9.5100 2270.00 2766.14 48.00
177 9.5300 2252.00 2705.00 47.00
178 9.5500 2252.00 2648.36 47.00
179 9.5700 2130.00 2595.71 46.00
180 9.5900 2112.00 2546.67 46.00
181 9.6100 2106.00 2500.89 46.00
182 9.6300 2077.00 2458.05 46.00
183 9.6500 2075.00 2417.87 46.00
184 9.6700 1960.00 2380.12 44.00
185 9.6900 1974.00 2344.57 44.00
186 9.7100 2008.00 2311.06 45.00
187 9.7300 1899.00 2279.39 44.00
188 9.7500 1836.00 2249.42 43.00
189 9.7700 1860.00 2221.00 43.00
190 9.7900 1942.00 2194.04 44.00
191 9.8100 1834.00 2168.40 43.00
192 9.8300 1766.00 2143.99 42.00
193 9.8500 1795.00 2120.72 42.00
194 9.8700 1772.00 2098.52 42.00
195 9.8900 1755.00 2077.29 42.00
196 9.9100 1729.00 2056.98 42.00
197 9.9300 1795.00 2037.53 42.00
198 9.9500 1782.00 2018.89 42.00
199 9.9700 1698.00 2000.99 41.00
200 9.9900 1658.00 1983.79 41.00
201 10.0100 1688.00 1967.26 41.00
202 10.0300 1767.00 1951.34 42.00
203 10.0500 1674.00 1936.02 41.00
204 10.0700 1711.00 1921.24 41.00
205 10.0900 1726.00 1906.97 42.00
206 10.1100 1697.00 1893.20 41.00
207 10.1300 1730.00 1879.91 42.00
208 10.1500 1681.00 1867.05 41.00
209 10.1700 1642.00 1854.60 41.00
210 10.1900 1681.00 1842.55 41.00
211 10.2100 1688.00 1830.89 41.00
212 10.2300 1683.00 1819.58 41.00
213 10.2500 1726.00 1808.61 42.00
214 10.2700 1672.00 1797.97 41.00
215 10.2900 1671.00 1787.65 41.00
216 10.3100 1627.00 1777.62 40.00
217 10.3300 1611.00 1767.87 40.00
218 10.3500 1676.00 1758.39 41.00
219 10.3700 1628.00 1749.19 40.00
220 10.3900 1639.00 1740.23 40.00
221 10.4100 1681.00 1731.51 41.00
222 10.4300 1699.00 1723.01 41.00
223 10.4500 1656.00 1714.76 41.00
224 10.4700 1600.00 1706.71 40.00
225 10.4900 1640.00 1698.86 40.00
226 10.5100 1640.00 1691.21 40.00
227 10.5300 1625.00 1683.76 40.00
228 10.5500 1569.00 1676.50 40.00
229 10.5700 1622.00 1669.42 40.00
230 10.5900 1660.00 1662.50 41.00
231 10.6100 1615.00 1655.76 40.00
232 10.6300 1597.00 1649.18 40.00
233 10.6500 1583.00 1642.76 40.00
234 10.6700 1639.00 1636.49 40.00
235 10.6900 1584.00 1630.36 40.00
236 10.7100 1567.00 1624.39 40.00
237 10.7300 1633.00 1619.14 40.00
238 10.7500 1623.00 1613.73 40.00
239 10.7700 1571.00 1608.18 40.00
240 10.7900 1588.00 1602.77 40.00
241 10.8100 1565.00 1597.47 40.00
242 10.8300 1519.00 1592.29 39.00
243 10.8500 1594.00 1504.35 40.00
244 10.8700 1547.00 1459.82 39.00
245 10.8900 1589.00 1457.30 40.00
246 10.9100 1505.00 1454.83 39.00
247 10.9300 1546.00 1452.41 39.00
248 10.9500 1572.00 1450.03 40.00
249 10.9700 1583.00 1447.71 40.00
250 10.9900 1525.00 1445.42 39.00
251 11.0100 1502.00 1443.19 39.00
252 11.0300 1566.00 1441.00 40.00
253 11.0500 1476.00 1438.84 38.00
254 11.0700 1505.00 1436.76 39.00
255 11.0900 1522.00 1434.70 39.00
256 11.1100 1515.00 1432.69 39.00
257 11.1300 1521.00 1430.73 39.00
258 11.1500 1525.00 1428.81 39.00
259 11.1700 1467.00 1426.94 38.00
260 11.1900 1511.00 1425.12 39.00
261 11.2100 1472.00 1423.33 38.00
262 11.2300 1448.00 1421.59 38.00
263 11.2500 1502.00 1419.90 39.00
264 11.2700 1553.00 1418.25 39.00
265 11.2900 1548.00 1416.64 39.00
266 11.3100 1516.00 1415.08 39.00
267 11.3300 1502.00 1413.56 39.00
268 11.3500 1503.00 1412.09 39.00
269 11.3700 1484.00 1410.66 39.00
270 11.3900 1421.00 1409.27 38.00
271 11.4100 1485.00 1407.93 39.00
272 11.4300 1496.00 1406.62 39.00
273 11.4500 1474.00 1405.36 38.00
274 11.4700 1495.00 1404.15 39.00
275 11.4900 1508.00 1402.98 39.00
276 11.5100 1513.00 1401.84 39.00
277 11.5300 1430.00 1400.76 38.00
278 11.5500 1539.00 1399.71 39.00
279 11.5700 1448.00 1398.70 38.00
280 11.5900 1410.00 1397.75 38.00
281 11.6100 1505.00 1396.83 39.00
282 11.6300 1450.00 1395.95 38.00
283 11.6500 1488.00 1395.12 39.00
284 11.6700 1541.00 1394.33 39.00
285 11.6900 1504.00 1393.58 39.00
286 11.7100 1477.00 1392.87 38.00
287 11.7300 1445.00 1392.20 38.00
288 11.7500 1498.00 1391.59 39.00
289 11.7700 1471.00 1391.01 38.00
290 11.7900 1504.00 1390.47 39.00
291 11.8100 1526.00 1389.98 39.00
292 11.8300 1584.00 1389.53 40.00
293 11.8500 1430.00 1389.13 38.00
294 11.8700 1522.00 1388.77 39.00
295 11.8900 1590.00 1388.45 40.00
296 11.9100 1510.00 1388.19 39.00
297 11.9300 1465.00 1387.97 38.00
298 11.9500 1445.00 1387.80 38.00
299 11.9700 1537.00 1387.67 39.00
300 11.9900 1534.00 1387.61 39.00
301 12.0100 1575.00 1387.58 40.00
302 12.0300 1516.00 1387.62 39.00
303 12.0500 1657.00 1387.70 41.00
304 12.0700 1556.00 1387.84 39.00
305 12.0900 1489.00 1388.05 39.00
306 12.1100 1556.00 1388.32 39.00
307 12.1300 1506.00 1388.65 39.00
308 12.1500 1514.00 1389.06 39.00
309 12.1700 1570.00 1389.55 40.00
310 12.1900 1581.00 1390.12 40.00
311 12.2100 1600.00 1390.77 40.00
312 12.2300 1548.00 1391.53 39.00
313 12.2500 1508.00 1392.40 39.00
314 12.2700 1656.00 1393.41 41.00
315 12.2900 1562.00 1394.54 40.00
316 12.3100 1557.00 1395.86 39.00
317 12.3300 1580.00 1397.38 40.00
318 12.3500 1525.00 1399.15 39.00
319 12.3700 1565.00 1401.22 40.00
320 12.3900 1607.00 1403.72 40.00
321 12.4100 1683.00 1406.84 41.00
322 12.4300 1545.00 1411.06 39.00
323 12.4500 1639.00 1417.32 40.00
324 12.4700 1584.00 1427.11 40.00
325 12.4900 1709.00 1441.84 41.00
326 12.5100 1621.00 1461.87 40.00
327 12.5300 1677.00 1486.70 41.00
328 12.5500 1671.00 1515.50 41.00
329 12.5700 1696.00 1547.70 41.00
330 12.5900 1727.00 1583.16 42.00
331 12.6100 1739.00 1622.07 42.00
332 12.6300 1729.00 1664.81 42.00
333 12.6500 1787.00 1711.94 42.00
334 12.6700 1902.00 1764.16 44.00
335 12.6900 1917.00 1822.37 44.00
336 12.7100 1866.00 1887.76 43.00
337 12.7300 1912.00 1961.88 44.00
338 12.7500 2046.00 2046.81 45.00
339 12.7700 2085.00 2145.47 46.00
340 12.7900 2310.00 2261.96 48.00
341 12.8100 2424.00 2402.63 49.00
342 12.8300 2551.00 2578.01 51.00
343 12.8500 2819.00 2807.14 53.00
344 12.8700 3082.00 3120.45 56.00
345 12.8900 3404.00 3539.70 58.00
346 12.9100 3770.00 4003.73 61.00
347 12.9300 4194.00 4270.00 65.00
348 12.9500 3775.00 4014.10 61.00
349 12.9700 3174.00 3341.25 56.00
350 12.9900 2542.00 2605.70 50.00
351 13.0100 2038.00 2065.47 45.00
352 13.0300 1751.00 1774.96 42.00
353 13.0500 1709.00 1637.91 41.00
354 13.0700 1568.00 1572.77 40.00
355 13.0900 1648.00 1536.61 41.00
356 13.1100 1591.00 1513.26 40.00
357 13.1300 1615.00 1496.98 40.00
358 13.1500 1549.00 1485.20 39.00
359 13.1700 1572.00 1476.51 40.00
360 13.1900 1498.00 1470.00 39.00
361 13.2100 1550.00 1465.10 39.00
362 13.2300 1542.00 1461.39 39.00
363 13.2500 1529.00 1458.60 39.00
364 13.2700 1503.00 1456.52 39.00
365 13.2900 1508.00 1455.02 39.00
366 13.3100 1550.00 1453.97 39.00
367 13.3300 1527.00 1453.30 39.00
368 13.3500 1542.00 1452.94 39.00
369 13.3700 1549.00 1452.84 39.00
370 13.3900 1567.00 1452.96 40.00
371 13.4100 1534.00 1453.26 39.00
372 13.4300 1605.00 1453.74 40.00
373 13.4500 1511.00 1454.36 39.00
374 13.4700 1571.00 1455.10 40.00
375 13.4900 1630.00 1455.95 40.00
376 13.5100 1569.00 1456.90 40.00
377 13.5300 1504.00 1457.94 39.00
378 13.5500 1522.00 1459.06 39.00
379 13.5700 1553.00 1460.26 39.00
380 13.5900 1491.00 1461.52 39.00
381 13.6100 1474.00 1462.85 38.00
382 13.6300 1518.00 1464.24 39.00
383 13.6500 1552.00 1465.68 39.00
384 13.6700 1456.00 1467.17 38.00
385 13.6900 1557.00 1468.71 39.00
386 13.7100 1546.00 1470.31 39.00
387 13.7300 1486.00 1471.94 39.00
388 13.7500 1537.00 1473.62 39.00
389 13.7700 1530.00 1475.34 39.00
390 13.7900 1496.00 1477.11 39.00
391 13.8100 1499.00 1478.91 39.00
392 13.8300 1522.00 1480.76 39.00
393 13.8500 1535.00 1482.65 39.00
394 13.8700 1518.00 1484.57 39.00
395 13.8900 1438.00 1486.54 38.00
396 13.9100 1561.00 1488.54 40.00
397 13.9300 1515.00 1490.59 39.00
398 13.9500 1475.00 1492.68 38.00
399 13.9700 1517.00 1494.80 39.00
400 13.9900 1599.00 1496.97 40.00
401 14.0100 1527.00 1499.18 39.00
402 14.0300 1539.00 1501.44 39.00
403 14.0500 1509.00 1503.75 39.00
404 14.0700 1456.00 1506.10 38.00
405 14.0900 1417.00 1508.49 38.00
406 14.1100 1538.00 1510.94 39.00
407 14.1300 1497.00 1513.45 39.00
408 14.1500 1605.00 1516.01 40.00
409 14.1700 1471.00 1518.63 38.00
410 14.1900 1499.00 1521.30 39.00
411 14.2100 1553.00 1524.05 39.00
412 14.2300 1492.00 1526.87 39.00
413 14.2500 1574.00 1529.76 40.00
414 14.2700 1522.00 1532.72 39.00
415 14.2900 1476.00 1535.78 38.00
416 14.3100 1638.00 1538.92 40.00
417 14.3300 1616.00 1542.15 40.00
418 14.3500 1540.00 1545.50 39.00
419 14.3700 1556.00 1548.96 39.00
420 14.3900 1538.00 1552.53 39.00
421 14.4100 1506.00 1556.24 39.00
422 14.4300 1623.00 1560.09 40.00
423 14.4500 1533.00 1564.11 39.00
424 14.4700 1528.00 1568.29 39.00
425 14.4900 1556.00 1572.66 39.00
426 14.5100 1524.00 1577.23 39.00
427 14.5300 1532.00 1582.05 39.00
428 14.5500 1618.00 1587.12 40.00
429 14.5700 1545.00 1592.47 39.00
430 14.5900 1568.00 1598.14 40.00
431 14.6100 1614.00 1604.17 40.00
432 14.6300 1698.00 1610.59 41.00
433 14.6500 1594.00 1617.49 40.00
434 14.6700 1563.00 1624.90 40.00
435 14.6900 1669.00 1632.90 41.00
436 14.7100 1649.00 1641.58 41.00
437 14.7300 1697.00 1651.07 41.00
438 14.7500 1583.00 1661.48 40.00
439 14.7700 1747.00 1672.99 42.00
440 14.7900 1728.00 1685.80 42.00
441 14.8100 1731.00 1700.17 42.00
442 14.8300 1745.00 1716.46 42.00
443 14.8500 1793.00 1735.12 42.00
444 14.8700 1800.00 1756.76 42.00
445 14.8900 1926.00 1782.30 44.00
446 14.9100 1900.00 1813.23 44.00
447 14.9300 2037.00 1852.35 45.00
448 14.9500 2037.00 1905.34 45.00
449 14.9700 2264.00 1982.81 48.00
450 14.9900 2174.00 2100.44 47.00
451 15.0100 2436.00 2273.03 49.00
452 15.0300 2583.00 2506.44 51.00
453 15.0500 2666.00 2798.97 52.00
454 15.0700 2915.00 3145.63 54.00
455 15.0900 3191.00 3542.54 56.00
456 15.1100 3515.00 3990.31 59.00
457 15.1300 3775.00 4493.91 61.00
458 15.1500 4217.00 5062.22 65.00
459 15.1700 4678.00 5707.91 68.00
460 15.1900 5201.00 6448.15 72.00
461 15.2100 5939.00 7308.10 77.00
462 15.2300 6914.00 8332.43 83.00
463 15.2500 8029.00 9555.69 90.00
464 15.2700 9355.00 11080.90 97.00
465 15.2900 10999.00 13048.70 105.00
466 15.3100 13234.00 15668.40 115.00
467 15.3300 16117.00 19017.30 127.00
468 15.3500 19659.00 22563.60 140.00
469 15.3700 20753.00 24593.60 144.00
470 15.3900 19290.00 22940.80 139.00
471 15.4100 15731.00 18377.70 125.00
472 15.4300 11505.00 13027.30 107.00
473 15.4500 7594.00 8479.11 87.00
474 15.4700 5157.00 5609.07 72.00
475 15.4900 3739.00 4101.28 61.00
476 15.5100 3190.00 3327.33 56.00
477 15.5300 2745.00 2914.77 52.00
478 15.5500 2494.00 2650.64 50.00
479 15.5700 2429.00 2467.39 49.00
480 15.5900 2194.00 2333.07 47.00
481 15.6100 2201.00 2231.45 47.00
482 15.6300 2089.00 2152.79 46.00
483 15.6500 2090.00 2090.77 46.00
484 15.6700 2002.00 2041.10 45.00
485 15.6900 1906.00 2000.81 44.00
486 15.7100 1959.00 1967.79 44.00
487 15.7300 1923.00 1940.47 44.00
488 15.7500 1859.00 1917.70 43.00
489 15.7700 1874.00 1898.61 43.00
490 15.7900 1877.00 1882.53 43.00
491 15.8100 1803.00 1868.94 42.00
492 15.8300 1848.00 1857.43 43.00
493 15.8500 1712.00 1847.66 41.00
494 15.8700 1866.00 1839.37 43.00
495 15.8900 1744.00 1832.36 42.00
496 15.9100 1804.00 1826.44 42.00
497 15.9300 1738.00 1821.47 42.00
498 15.9500 1859.00 1817.32 43.00
499 15.9700 1790.00 1813.90 42.00
500 15.9900 1766.00 1811.14 42.00
501 16.0100 1737.00 1808.94 42.00
502 16.0300 1753.00 1807.26 42.00
503 16.0500 1778.00 1806.04 42.00
504 16.0700 1777.00 1805.23 42.00
505 16.0900 1815.00 1804.81 43.00
506 16.1100 1776.00 1804.74 42.00
507 16.1300 1801.00 1804.99 42.00
508 16.1500 1834.00 1805.54 43.00
509 16.1700 1799.00 1806.37 42.00
510 16.1900 1848.00 1807.46 43.00
511 16.2100 1870.00 1808.80 43.00
512 16.2300 1822.00 1810.36 43.00
513 16.2500 1866.00 1812.28 43.00
514 16.2700 1864.00 1814.30 43.00
515 16.2900 1811.00 1816.53 43.00
516 16.3100 1873.00 1819.01 43.00
517 16.3300 1890.00 1821.64 43.00
518 16.3500 1808.00 1824.48 43.00
519 16.3700 1817.00 1827.51 43.00
520 16.3900 1781.00 1830.72 42.00
521 16.4100 1847.00 1834.14 43.00
522 16.4300 1778.00 1837.76 42.00
523 16.4500 1748.00 1841.59 42.00
524 16.4700 1855.00 1845.61 43.00
525 16.4900 1876.00 1849.85 43.00
526 16.5100 1813.00 1854.30 43.00
527 16.5300 1816.00 1858.97 43.00
528 16.5500 1958.00 1863.89 44.00
529 16.5700 1891.00 1869.04 43.00
530 16.5900 1864.00 1874.43 43.00
531 16.6100 1864.00 1880.10 43.00
532 16.6300 1901.00 1886.04 44.00
533 16.6500 1952.00 1892.28 44.00
534 16.6700 1926.00 1898.82 44.00
535 16.6900 1974.00 1905.69 44.00
536 16.7100 1960.00 1912.91 44.00
537 16.7300 1934.00 1920.50 44.00
538 16.7500 1831.00 1928.49 43.00
539 16.7700 1934.00 1936.90 44.00
540 16.7900 1879.00 1945.76 43.00
541 16.8100 1922.00 1955.11 44.00
542 16.8300 1976.00 1965.00 44.00
543 16.8500 2017.00 1975.45 45.00
544 16.8700 1997.00 1986.52 45.00
545 16.8900 2061.00 1998.25 45.00
546 16.9100 2035.00 2010.72 45.00
547 16.9300 1997.00 2023.99 45.00
548 16.9500 1936.00 2038.13 44.00
549 16.9700 2061.00 2053.22 45.00
550 16.9900 2119.00 2069.37 46.00
551 17.0100 2040.00 2086.67 45.00
552 17.0300 2074.00 2105.28 46.00
553 17.0500 2154.00 2125.31 46.00
554 17.0700 2203.00 2146.93 47.00
555 17.0900 2122.00 2170.35 46.00
556 17.1100 2086.00 2195.78 46.00
557 17.1300 2256.00 2223.49 47.00
558 17.1500 2206.00 2253.78 47.00
559 17.1700 2247.00 2287.04 47.00
560 17.1900 2301.00 2323.69 48.00
561 17.2100 2448.00 2364.29 49.00
562 17.2300 2424.00 2409.48 49.00
563 17.2500 2421.00 2460.12 49.00
564 17.2700 2578.00 2517.22 51.00
565 17.2900 2710.00 2582.14 52.00
566 17.3100 2775.00 2656.65 53.00
567 17.3300 2989.00 2743.20 55.00
568 17.3500 3202.00 2845.39 57.00
569 17.3700 3342.00 2969.12 58.00
570 17.3900 3563.00 3125.20 60.00
571 17.4100 3778.00 3333.51 61.00
572 17.4300 4177.00 3627.10 65.00
573 17.4500 4732.00 4047.27 69.00
574 17.4700 5176.00 4628.92 72.00
575 17.4900 5860.00 5386.16 77.00
576 17.5100 6654.00 6322.84 82.00
577 17.5300 7600.00 7438.48 87.00
578 17.5500 8622.00 8737.61 93.00
579 17.5700 10193.00 10238.20 101.00
580 17.5900 11783.00 11975.50 109.00
581 17.6100 14101.00 14004.70 119.00
582 17.6300 16763.00 16409.10 129.00
583 17.6500 19967.00 19319.00 141.00
584 17.6700 24230.00 22949.60 156.00
585 17.6900 29317.00 27634.50 171.00
586 17.7100 35688.00 33744.30 189.00
587 17.7300 44046.00 41265.70 210.00
588 17.7500 52716.00 48947.20 230.00
589 17.7700 56507.00 53462.40 238.00
590 17.7900 54191.00 51515.20 233.00
591 17.8100 47916.00 45399.80 219.00
592 17.8300 40872.00 38391.40 202.00
593 17.8500 34178.00 32547.30 185.00
594 17.8700 30960.00 29808.00 176.00
595 17.8900 30577.00 30165.40 175.00
596 17.9100 32995.00 32861.80 182.00
597 17.9300 37565.00 37368.60 194.00
598 17.9500 44888.00 43628.20 212.00
599 17.9700 53934.00 52030.20 232.00
600 17.9900 65344.00 63154.20 256.00
601 18.0100 80418.00 76934.30 284.00
602 18.0300 96458.00 91042.10 311.00
603 18.0500 105210.00 99093.60 324.00
604 18.0700 97890.00 93478.10 313.00
605 18.0900 82053.00 77225.80 286.00
606 18.1100 60894.00 57704.90 247.00
607 18.1300 41088.00 38795.70 203.00
608 18.1500 25992.00 24846.40 161.00
609 18.1700 16178.00 16406.60 127.00
610 18.1900 11420.00 11724.20 107.00
611 18.2100 8922.00 9112.84 94.00
612 18.2300 7506.00 7525.37 87.00
613 18.2500 6179.00 6452.29 79.00
614 18.2700 5564.00 5671.59 75.00
615 18.2900 4921.00 5079.19 70.00
616 18.3100 4663.00 4617.34 68.00
617 18.3300 4317.00 4249.61 66.00
618 18.3500 3957.00 3951.72 63.00
619 18.3700 3784.00 3706.80 62.00
620 18.3900 3613.00 3502.86 60.00
621 18.4100 3428.00 3331.13 59.00
622 18.4300 3332.00 3185.13 58.00
623 18.4500 3215.00 3059.99 57.00
624 18.4700 3063.00 2951.96 55.00
625 18.4900 3115.00 2858.13 56.00
626 18.5100 2885.00 2776.32 54.00
627 18.5300 2757.00 2704.87 53.00
628 18.5500 2676.00 2642.66 52.00
629 18.5700 2602.00 2588.98 51.00
630 18.5900 2629.00 2543.38 51.00
631 18.6100 2496.00 2505.33 50.00
632 18.6300 2565.00 2474.29 51.00
633 18.6500 2495.00 2449.74 50.00
634 18.6700 2389.00 2431.28 49.00
635 18.6900 2461.00 2418.70 50.00
636 18.7100 2417.00 2412.12 49.00
637 18.7300 2413.00 2412.00 49.00
638 18.7500 2316.00 2419.34 48.00
639 18.7700 2479.00 2435.94 50.00
640 18.7900 2385.00 2464.79 49.00
641 18.8100 2537.00 2509.56 50.00
642 18.8300 2619.00 2571.22 51.00
643 18.8500 2711.00 2640.17 52.00
644 18.8700 2673.00 2685.72 52.00
645 18.8900 2708.00 2661.20 52.00
646 18.9100 2511.00 2566.86 50.00
647 18.9300 2351.00 2448.10 48.00
648 18.9500 2371.00 2326.00 49.00
649 18.9700 2246.00 2224.98 47.00
650 18.9900 2092.00 2156.45 46.00
651 19.0100 2084.00 2113.36 46.00
652 19.0300 2061.00 2085.68 45.00
653 19.0500 2056.00 2066.26 45.00
654 19.0700 2010.00 2051.22 45.00
655 19.0900 2028.00 2038.74 45.00
656 19.1100 2090.00 2028.00 46.00
657 19.1300 2009.00 2018.54 45.00
658 19.1500 2043.00 2010.09 45.00
659 19.1700 2028.00 2002.46 45.00
660 19.1900 2044.00 1995.50 45.00
661 19.2100 2009.00 1989.13 45.00
662 19.2300 1970.00 1983.27 44.00
663 19.2500 1922.00 1977.85 44.00
664 19.2700 2064.00 1972.84 45.00
665 19.2900 2017.00 1968.20 45.00
666 19.3100 1974.00 1963.90 44.00
667 19.3300 1955.00 1959.91 44.00
668 19.3500 1987.00 1956.21 45.00
669 19.3700 1979.00 1952.80 44.00
670 19.3900 1882.00 1949.65 43.00
671 19.4100 1939.00 1946.76 44.00
672 19.4300 1903.00 1944.11 44.00
673 19.4500 1920.00 1941.71 44.00
674 19.4700 1853.00 1939.56 43.00
675 19.4900 1945.00 1937.64 44.00
676 19.5100 1871.00 1935.97 43.00
677 19.5300 1889.00 1934.55 43.00
678 19.5500 1841.00 1933.39 43.00
679 19.5700 1902.00 1932.51 44.00
680 19.5900 1868.00 1931.91 43.00
681 19.6100 1916.00 1931.63 44.00
682 19.6300 1980.00 1931.68 44.00
683 19.6500 1864.00 1932.12 43.00
684 19.6700 1834.00 1932.99 43.00
685 19.6900 1921.00 1934.36 44.00
686 19.7100 1962.00 1936.32 44.00
687 19.7300 1917.00 1938.98 44.00
688 19.7500 1946.00 1942.54 44.00
689 19.7700 1874.00 1947.24 43.00
690 19.7900 1913.00 1953.56 44.00
691 19.8100 1920.00 1962.29 44.00
692 19.8300 1962.00 1974.85 44.00
693 19.8500 1909.00 1993.33 44.00
694 19.8700 1951.00 2020.25 44.00
695 19.8900 2001.00 2057.51 45.00
696 19.9100 2006.00 2106.09 45.00
697 19.9300 2021.00 2166.76 45.00
698 19.9500 2059.00 2240.25 45.00
699 19.9700 2120.00 2327.75 46.00
700 19.9900 2197.00 2431.67 47.00
701 20.0100 2281.00 2556.15 48.00
702 20.0300 2459.00 2708.15 50.00
703 20.0500 2510.00 2898.49 50.00
704 20.0700 2693.00 3140.49 52.00
705 20.0900 2993.00 3440.26 55.00
706 20.1100 3251.00 3772.72 57.00
707 20.1300 3455.00 4046.44 59.00
708 20.1500 3393.00 4095.87 58.00
709 20.1700 3287.00 3858.13 57.00
710 20.1900 3014.00 3492.75 55.00
711 20.2100 2698.00 3091.28 52.00
712 20.2300 2391.00 2716.12 49.00
713 20.2500 2274.00 2445.39 48.00
714 20.2700 2018.00 2281.33 45.00
715 20.2900 2023.00 2190.67 45.00
716 20.3100 1988.00 2142.61 45.00
717 20.3300 1974.00 2117.52 44.00
718 20.3500 1939.00 2096.84 44.00
719 20.3700 1939.00 2093.34 44.00
720 20.3900 1956.00 2096.34 44.00
721 20.4100 1941.00 2100.77 44.00
722 20.4300 1932.00 2114.81 44.00
723 20.4500 2016.00 2134.40 45.00
724 20.4700 2046.00 2160.10 45.00
725 20.4900 2160.00 2193.00 46.00
726 20.5100 2163.00 2234.82 47.00
727 20.5300 2229.00 2288.44 47.00
728 20.5500 2432.00 2358.93 49.00
729 20.5700 2520.00 2455.28 50.00
730 20.5900 2745.00 2592.56 52.00
731 20.6100 2822.00 2796.31 53.00
732 20.6300 3131.00 3083.92 56.00
733 20.6500 3571.00 3458.18 60.00
734 20.6700 3962.00 3968.37 63.00
735 20.6900 4571.00 4600.42 68.00
736 20.7100 5224.00 5358.63 72.00
737 20.7300 6188.00 6278.05 79.00
738 20.7500 7148.00 7381.75 85.00
739 20.7700 8717.00 8725.19 93.00
740 20.7900 10607.00 10397.10 103.00
741 20.8100 12475.00 12513.00 112.00
742 20.8300 15438.00 15148.20 124.00
743 20.8500 18080.00 18158.00 134.00
744 20.8700 20152.00 20888.60 142.00
745 20.8900 20899.00 21969.50 145.00
746 20.9100 19631.00 20384.50 140.00
747 20.9300 16896.00 17259.00 130.00
748 20.9500 13131.00 13712.30 115.00
749 20.9700 9985.00 10113.90 100.00
750 20.9900 7143.00 7225.46 85.00
751 21.0100 5062.00 5327.51 71.00
752 21.0300 3939.00 4194.16 63.00
753 21.0500 3298.00 3531.94 57.00
754 21.0700 2884.00 3127.31 54.00
755 21.0900 2708.00 2858.54 52.00
756 21.1100 2429.00 2666.06 49.00
757 21.1300 2456.00 2521.29 50.00
758 21.1500 2349.00 2409.02 48.00
759 21.1700 2245.00 2320.00 47.00
760 21.1900 2141.00 2248.17 46.00
761 21.2100 2141.00 2189.31 46.00
762 21.2300 2112.00 2140.45 46.00
763 21.2500 2194.00 2099.41 47.00
764 21.2700 2093.00 2064.57 46.00
765 21.2900 2026.00 2034.73 45.00
766 21.3100 2094.00 2008.96 46.00
767 21.3300 2053.00 1986.53 45.00
768 21.3500 1954.00 1966.88 44.00
769 21.3700 1959.00 1949.55 44.00
770 21.3900 1947.00 1934.19 44.00
771 21.4100 2000.00 1927.13 45.00
772 21.4300 1962.00 1914.95 44.00
773 21.4500 1948.00 1904.01 44.00
774 21.4700 1907.00 1897.41 44.00
775 21.4900 1959.00 1888.51 44.00
776 21.5100 1914.00 1880.41 44.00
777 21.5300 1824.00 1872.93 43.00
778 21.5500 1906.00 1866.18 44.00
779 21.5700 1870.00 1860.00 43.00
780 21.5900 1957.00 1854.27 44.00
781 21.6100 1857.00 1849.03 43.00
782 21.6300 1871.00 1844.19 43.00
783 21.6500 1901.00 1839.72 44.00
784 21.6700 1784.00 1835.57 42.00
785 21.6900 1811.00 1831.71 43.00
786 21.7100 1875.00 1828.13 43.00
787 21.7300 1908.00 1824.80 44.00
788 21.7500 1829.00 1821.68 43.00
789 21.7700 1896.00 1818.78 44.00
790 21.7900 1769.00 1816.06 42.00
791 21.8100 1832.00 1813.52 43.00
792 21.8300 1860.00 1811.15 43.00
793 21.8500 1789.00 1808.93 42.00
794 21.8700 1828.00 1806.85 43.00
795 21.8900 1879.00 1804.90 43.00
796 21.9100 1842.00 1803.08 43.00
797 21.9300 1867.00 1801.38 43.00
798 21.9500 1829.00 1799.79 43.00
799 21.9700 1839.00 1798.31 43.00
800 21.9900 1791.00 1796.93 42.00
801 22.0100 1859.00 1795.64 43.00
802 22.0300 1800.00 1794.45 42.00
803 22.0500 1866.00 1793.35 43.00
804 22.0700 1900.00 1792.34 44.00
805 22.0900 1870.00 1791.41 43.00
806 22.1100 1802.00 1790.57 42.00
807 22.1300 1831.00 1789.81 43.00
808 22.1500 1792.00 1789.14 42.00
809 22.1700 1846.00 1788.54 43.00
810 22.1900 1834.00 1788.02 43.00
811 22.2100 1850.00 1787.58 43.00
812 22.2300 1856.00 1787.22 43.00
813 22.2500 1837.00 1786.94 43.00
814 22.2700 1799.00 1786.74 42.00
815 22.2900 1863.00 1786.63 43.00
816 22.3100 1897.00 1786.60 44.00
817 22.3300 1868.00 1787.27 43.00
818 22.3500 1832.00 1787.42 43.00
819 22.3700 1847.00 1787.67 43.00
820 22.3900 1895.00 1789.31 44.00
821 22.4100 1854.00 1789.77 43.00
822 22.4300 1818.00 1790.32 43.00
823 22.4500 1869.00 1790.99 43.00
824 22.4700 1835.00 1791.77 43.00
825 22.4900 1913.00 1792.67 44.00
826 22.5100 1914.00 1793.69 44.00
827 22.5300 1811.00 1794.84 43.00
828 22.5500 1922.00 1796.14 44.00
829 22.5700 1818.00 1797.58 43.00
830 22.5900 1875.00 1799.18 43.00
831 22.6100 1852.00 1800.96 43.00
832 22.6300 1960.00 1802.91 44.00
833 22.6500 1855.00 1805.06 43.00
834 22.6700 1935.00 1807.43 44.00
835 22.6900 1840.00 1810.02 43.00
836 22.7100 1887.00 1812.87 43.00
837 22.7300 1948.00 1815.98 44.00
838 22.7500 1891.00 1819.39 43.00
839 22.7700 1930.00 1823.12 44.00
840 22.7900 1941.00 1827.21 44.00
841 22.8100 1913.00 1831.68 44.00
842 22.8300 1943.00 1836.59 44.00
843 22.8500 1881.00 1841.97 43.00
844 22.8700 1924.00 1847.88 44.00
845 22.8900 2105.00 1857.66 46.00
846 22.9100 1979.00 1864.88 44.00
847 22.9300 1916.00 1872.85 44.00
848 22.9500 1924.00 1883.28 44.00
849 22.9700 1938.00 1893.07 44.00
850 22.9900 2017.00 1903.96 45.00
851 23.0100 1969.00 1916.10 44.00
852 23.0300 1954.00 1929.69 44.00
853 23.0500 2114.00 1944.96 46.00
854 23.0700 2055.00 1962.20 45.00
855 23.0900 2016.00 1981.75 45.00
856 23.1100 2162.00 2004.06 46.00
857 23.1300 2227.00 2029.68 47.00
858 23.1500 2202.00 2059.30 47.00
859 23.1700 2323.00 2093.84 48.00
860 23.1900 2315.00 2134.50 48.00
861 23.2100 2416.00 2182.91 49.00
862 23.2300 2556.00 2241.40 51.00
863 23.2500 2726.00 2313.46 52.00
864 23.2700 2816.00 2404.72 53.00
865 23.2900 3038.00 2524.63 55.00
866 23.3100 3308.00 2688.71 58.00
867 23.3300 3630.00 2920.45 60.00
868 23.3500 4010.00 3249.81 63.00
869 23.3700 4567.00 3705.05 68.00
870 23.3900 5351.00 4306.58 73.00
871 23.4100 6156.00 5074.03 78.00
872 23.4300 7270.00 6033.00 85.00
873 23.4500 8558.00 7219.68 93.00
874 23.4700 10300.00 8690.70 101.00
875 23.4900 12507.00 10528.60 112.00
876 23.5100 15505.00 12814.40 125.00
877 23.5300 18898.00 15538.40 137.00
878 23.5500 22923.00 18426.30 151.00
879 23.5700 25099.00 20698.30 158.00
880 23.5900 25740.00 21091.30 160.00
881 23.6100 23434.00 19260.70 153.00
882 23.6300 20354.00 16500.50 143.00
883 23.6500 16731.00 13493.00 129.00
884 23.6700 12871.00 10342.80 113.00
885 23.6900 9686.00 7651.48 98.00
886 23.7100 7002.00 5773.08 84.00
887 23.7300 5598.00 4586.57 75.00
888 23.7500 4569.00 3861.84 68.00
889 23.7700 3731.00 3414.98 61.00
890 23.7900 3363.00 3123.62 58.00
891 23.8100 3121.00 2921.85 56.00
892 23.8300 2923.00 2776.10 54.00
893 23.8500 2816.00 2668.73 53.00
894 23.8700 2609.00 2589.50 51.00
895 23.8900 2523.00 2531.89 50.00
896 23.9100 2590.00 2491.60 51.00
897 23.9300 2520.00 2465.79 50.00
898 23.9500 2508.00 2452.62 50.00
899 23.9700 2515.00 2451.03 50.00
900 23.9900 2519.00 2460.60 50.00
901 24.0100 2430.00 2481.48 49.00
902 24.0300 2516.00 2514.40 50.00
903 24.0500 2596.00 2560.76 51.00
904 24.0700 2681.00 2622.78 52.00
905 24.0900 2651.00 2703.93 51.00
906 24.1100 2873.00 2809.59 54.00
907 24.1300 3134.00 2948.57 56.00
908 24.1500 3213.00 3135.59 57.00
909 24.1700 3616.00 3395.05 60.00
910 24.1900 4015.00 3764.57 63.00
911 24.2100 4464.00 4294.84 67.00
912 24.2300 5000.00 5038.61 71.00
913 24.2500 6017.00 6037.40 78.00
914 24.2700 6852.00 7328.34 83.00
915 24.2900 8172.00 8960.50 90.00
916 24.3100 9978.00 11002.80 100.00
917 24.3300 12129.00 13555.80 110.00
918 24.3500 15311.00 16749.60 124.00
919 24.3700 18429.00 20681.80 136.00
920 24.3900 22682.00 25247.40 151.00
921 24.4100 26801.00 29845.60 164.00
922 24.4300 29996.00 33009.00 173.00
923 24.4500 29992.00 32817.20 173.00
924 24.4700 26887.00 29431.50 164.00
925 24.4900 22979.00 25011.90 152.00
926 24.5100 18389.00 20240.40 136.00
927 24.5300 14234.00 15259.90 119.00
928 24.5500 10078.00 11048.40 100.00
929 24.5700 7030.00 8094.20 84.00
930 24.5900 5111.00 6202.15 71.00
931 24.6100 4150.00 5025.96 64.00
932 24.6300 3596.00 4280.70 60.00
933 24.6500 3260.00 3781.56 57.00
934 24.6700 2943.00 3425.25 54.00
935 24.6900 2740.00 3158.05 52.00
936 24.7100 2679.00 2951.08 52.00
937 24.7300 2658.00 2787.23 52.00
938 24.7500 2553.00 2655.36 51.00
939 24.7700 2347.00 2547.82 48.00
940 24.7900 2420.00 2459.17 49.00
941 24.8100 2271.00 2385.47 48.00
942 24.8300 2319.00 2323.77 48.00
943 24.8500 2201.00 2271.87 47.00
944 24.8700 2221.00 2228.11 47.00
945 24.8900 2226.00 2191.20 47.00
946 24.9100 2191.00 2160.16 47.00
947 24.9300 2154.00 2134.25 46.00
948 24.9500 2113.00 2112.89 46.00
949 24.9700 2200.00 2095.69 47.00
950 24.9900 2146.00 2082.36 46.00
951 25.0100 2089.00 2072.77 46.00
952 25.0300 2060.00 2066.88 45.00
953 25.0500 2133.00 2064.82 46.00
954 25.0700 2087.00 2066.87 46.00
955 25.0900 2177.00 2073.52 47.00
956 25.1100 2089.00 2085.68 46.00
957 25.1300 2159.00 2104.50 46.00
958 25.1500 2097.00 2132.31 46.00
959 25.1700 2249.00 2172.92 47.00
960 25.1900 2255.00 2232.24 47.00
961 25.2100 2331.00 2319.23 48.00
962 25.2300 2415.00 2445.03 49.00
963 25.2500 2688.00 2620.28 52.00
964 25.2700 2647.00 2853.67 51.00
965 25.2900 3065.00 3154.92 55.00
966 25.3100 3244.00 3537.76 57.00
967 25.3300 3611.00 4021.10 60.00
968 25.3500 4008.00 4627.97 63.00
969 25.3700 4559.00 5375.67 68.00
970 25.3900 5290.00 6247.66 73.00
971 25.4100 5937.00 7143.13 77.00
972 25.4300 6488.00 7809.43 81.00
973 25.4500 6523.00 7885.33 81.00
974 25.4700 6083.00 7330.26 78.00
975 25.4900 5666.00 6539.59 75.00
976 25.5100 4877.00 5694.10 70.00
977 25.5300 4234.00 4781.19 65.00
978 25.5500 3607.00 3952.73 60.00
979 25.5700 3064.00 3345.34 55.00
980 25.5900 2758.00 2952.30 53.00
981 25.6100 2541.00 2714.94 50.00
982 25.6300 2404.00 2578.02 49.00
983 25.6500 2387.00 2503.13 49.00
984 25.6700 2399.00 2468.06 49.00
985 25.6900 2379.00 2461.96 49.00
986 25.7100 2472.00 2480.62 50.00
987 25.7300 2484.00 2524.01 50.00
988 25.7500 2713.00 2595.80 52.00
989 25.7700 2836.00 2704.25 53.00
990 25.7900 3100.00 2864.18 56.00
991 25.8100 3350.00 3098.86 58.00
992 25.8300 3650.00 3440.05 60.00
993 25.8500 4173.00 3921.76 65.00
994 25.8700 4869.00 4573.02 70.00
995 25.8900 5509.00 5422.68 74.00
996 25.9100 6862.00 6511.11 83.00
997 25.9300 8064.00 7893.12 90.00
998 25.9500 9817.00 9633.41 99.00
999 25.9700 11821.00 11779.10 109.00
1000 25.9900 14619.00 14285.80 121.00
1001 26.0100 17246.00 16878.10 131.00
1002 26.0300 19455.00 18862.50 139.00
1003 26.0500 20048.00 19210.70 142.00
1004 26.0700 18835.00 17712.10 137.00
1005 26.0900 15871.00 15463.90 126.00
1006 26.1100 13711.00 13067.60 117.00
1007 26.1300 10984.00 10450.30 105.00
1008 26.1500 8498.00 7968.87 92.00
1009 26.1700 6081.00 6067.21 78.00
1010 26.1900 4529.00 4781.92 67.00
1011 26.2100 3750.00 3958.35 61.00
1012 26.2300 3081.00 3434.68 56.00
1013 26.2500 2892.00 3091.31 54.00
1014 26.2700 2654.00 2854.25 52.00
1015 26.2900 2611.00 2682.40 51.00
1016 26.3100 2327.00 2553.70 48.00
1017 26.3300 2484.00 2455.70 50.00
1018 26.3500 2286.00 2380.85 48.00
1019 26.3700 2262.00 2324.20 48.00
1020 26.3900 2227.00 2282.51 47.00
1021 26.4100 2183.00 2253.73 47.00
1022 26.4300 2215.00 2236.58 47.00
1023 26.4500 2274.00 2230.68 48.00
1024 26.4700 2211.00 2236.42 47.00
1025 26.4900 2229.00 2255.21 47.00
1026 26.5100 2288.00 2289.85 48.00
1027 26.5300 2440.00 2345.52 49.00
1028 26.5500 2507.00 2430.89 50.00
1029 26.5700 2589.00 2559.34 51.00
1030 26.5900 2699.00 2745.42 52.00
1031 26.6100 2933.00 3016.91 54.00
1032 26.6300 3305.00 3387.96 57.00
1033 26.6500 3596.00 3874.71 60.00
1034 26.6700 4211.00 4505.80 65.00
1035 26.6900 4583.00 5311.77 68.00
1036 26.7100 5390.00 6326.00 73.00
1037 26.7300 6444.00 7561.31 80.00
1038 26.7500 7576.00 8962.78 87.00
1039 26.7700 8560.00 10325.70 93.00
1040 26.7900 9467.00 11206.10 97.00
1041 26.8100 9187.00 11099.10 96.00
1042 26.8300 8460.00 10130.70 92.00
1043 26.8500 7668.00 8914.04 88.00
1044 26.8700 6617.00 7627.26 81.00
1045 26.8900 5669.00 6220.61 75.00
1046 26.9100 4483.00 4924.56 67.00
1047 26.9300 3599.00 3946.53 60.00
1048 26.9500 3035.00 3289.88 55.00
1049 26.9700 2639.00 2860.68 51.00
1050 26.9900 2409.00 2582.35 49.00
1051 27.0100 2276.00 2395.40 48.00
1052 27.0300 2102.00 2262.85 46.00
1053 27.0500 2121.00 2163.92 46.00
1054 27.0700 1959.00 2087.24 44.00
1055 27.0900 1860.00 2026.22 43.00
1056 27.1100 1975.00 1976.73 44.00
1057 27.1300 1829.00 1935.96 43.00
1058 27.1500 1829.00 1901.94 43.00
1059 27.1700 1768.00 1873.21 42.00
1060 27.1900 1782.00 1848.70 42.00
1061 27.2100 1773.00 1827.62 42.00
1062 27.2300 1833.00 1809.32 43.00
1063 27.2500 1853.00 1793.33 43.00
1064 27.2700 1672.00 1779.26 41.00
1065 27.2900 1712.00 1766.82 41.00
1066 27.3100 1714.00 1755.75 41.00
1067 27.3300 1715.00 1745.85 41.00
1068 27.3500 1734.00 1736.97 42.00
1069 27.3700 1640.00 1728.96 40.00
1070 27.3900 1779.00 1721.72 42.00
1071 27.4100 1694.00 1715.15 41.00
1072 27.4300 1618.00 1709.16 40.00
1073 27.4500 1743.00 1703.70 42.00
1074 27.4700 1735.00 1698.74 42.00
1075 27.4900 1715.00 1694.16 41.00
1076 27.5100 1620.00 1683.75 40.00
1077 27.5300 1685.00 1679.96 41.00
1078 27.5500 1683.00 1676.49 41.00
1079 27.5700 1681.00 1673.28 41.00
1080 27.5900 1658.00 1667.28 41.00
1081 27.6100 1656.00 1664.59 41.00
1082 27.6300 1595.00 1662.12 40.00
1083 27.6500 1616.00 1659.83 40.00
1084 27.6700 1667.00 1657.73 41.00
1085 27.6900 1577.00 1655.80 40.00
1086 27.7100 1628.00 1654.02 40.00
1087 27.7300 1581.00 1652.40 40.00
1088 27.7500 1666.00 1650.91 41.00
1089 27.7700 1624.00 1649.56 40.00
1090 27.7900 1665.00 1648.33 41.00
1091 27.8100 1607.00 1647.23 40.00
1092 27.8300 1638.00 1646.24 40.00
1093 27.8500 1568.00 1645.37 40.00
1094 27.8700 1631.00 1644.62 40.00
1095 27.8900 1545.00 1643.98 39.00
1096 27.9100 1644.00 1643.46 41.00
1097 27.9300 1678.00 1643.05 41.00
1098 27.9500 1684.00 1642.77 41.00
1099 27.9700 1606.00 1642.61 40.00
1100 27.9900 1590.00 1642.59 40.00
1101 28.0100 1557.00 1642.72 39.00
1102 28.0300 1633.00 1643.01 40.00
1103 28.0500 1529.00 1643.49 39.00
1104 28.0700 1637.00 1644.17 40.00
1105 28.0900 1668.00 1645.11 41.00
1106 28.1100 1585.00 1646.34 40.00
1107 28.1300 1683.00 1647.93 41.00
1108 28.1500 1612.00 1649.98 40.00
1109 28.1700 1602.00 1652.64 40.00
1110 28.1900 1598.00 1656.13 40.00
1111 28.2100 1643.00 1660.84 41.00
1112 28.2300 1667.00 1667.31 41.00
1113 28.2500 1599.00 1676.40 40.00
1114 28.2700 1657.00 1689.22 41.00
1115 28.2900 1604.00 1706.95 40.00
1116 28.3100 1724.00 1730.75 42.00
1117 28.3300 1635.00 1761.86 40.00
1118 28.3500 1603.00 1801.85 40.00
1119 28.3700 1669.00 1852.36 41.00
1120 28.3900 1811.00 1913.88 43.00
1121 28.4100 1826.00 1983.86 43.00
1122 28.4300 1867.00 2053.10 43.00
1123 28.4500 1902.00 2101.68 44.00
1124 28.4700 1900.00 2105.16 44.00
1125 28.4900 1828.00 2064.81 43.00
1126 28.5100 1902.00 2009.51 44.00
1127 28.5300 1881.00 1952.19 43.00
1128 28.5500 1721.00 1888.35 41.00
1129 28.5700 1863.00 1823.70 43.00
1130 28.5900 1681.00 1769.53 41.00
1131 28.6100 1757.00 1731.95 42.00
1132 28.6300 1685.00 1707.04 41.00
1133 28.6500 1711.00 1690.95 41.00
1134 28.6700 1684.00 1680.25 41.00
1135 28.6900 1765.00 1673.28 42.00
1136 28.7100 1566.00 1668.46 40.00
1137 28.7300 1636.00 1665.05 40.00
1138 28.7500 1634.00 1662.92 40.00
1139 28.7700 1654.00 1661.22 41.00
1140 28.7900 1715.00 1660.07 41.00
1141 28.8100 1666.00 1660.76 41.00
1142 28.8300 1603.00 1660.42 40.00
1143 28.8500 1688.00 1660.37 41.00
1144 28.8700 1698.00 1660.56 41.00
1145 28.8900 1652.00 1661.70 41.00
1146 28.9100 1583.00 1662.33 40.00
1147 28.9300 1656.00 1663.11 41.00
1148 28.9500 1683.00 1664.04 41.00
1149 28.9700 1620.00 1665.12 40.00
1150 28.9900 1634.00 1666.33 40.00
1151 29.0100 1680.00 1667.68 41.00
1152 29.0300 1717.00 1669.15 41.00
1153 29.0500 1654.00 1670.75 41.00
1154 29.0700 1657.00 1672.47 41.00
1155 29.0900 1690.00 1674.31 41.00
1156 29.1100 1683.00 1676.28 41.00
1157 29.1300 1674.00 1678.38 41.00
1158 29.1500 1613.00 1680.62 40.00
1159 29.1700 1672.00 1682.99 41.00
1160 29.1900 1648.00 1685.50 41.00
1161 29.2100 1743.00 1688.16 42.00
1162 29.2300 1724.00 1690.98 42.00
1163 29.2500 1754.00 1691.63 42.00
1164 29.2700 1703.00 1694.84 41.00
1165 29.2900 1665.00 1698.25 41.00
1166 29.3100 1746.00 1700.13 42.00
1167 29.3300 1741.00 1704.52 42.00
1168 29.3500 1704.00 1708.59 41.00
1169 29.3700 1739.00 1712.91 42.00
1170 29.3900 1685.00 1717.49 41.00
1171 29.4100 1761.00 1722.37 42.00
1172 29.4300 1743.00 1727.57 42.00
1173 29.4500 1736.00 1733.11 42.00
1174 29.4700 1773.00 1739.03 42.00
1175 29.4900 1747.00 1745.38 42.00
1176 29.5100 1813.00 1752.20 43.00
1177 29.5300 1709.00 1759.54 41.00
1178 29.5500 1707.00 1767.47 41.00
1179 29.5700 1800.00 1776.08 42.00
1180 29.5900 1750.00 1785.47 42.00
1181 29.6100 1794.00 1795.76 42.00
1182 29.6300 1813.00 1807.17 43.00
1183 29.6500 1828.00 1819.94 43.00
1184 29.6700 1866.00 1834.47 43.00
1185 29.6900 1869.00 1851.28 43.00
1186 29.7100 1895.00 1871.07 44.00
1187 29.7300 1895.00 1894.59 44.00
1188 29.7500 1906.00 1922.61 44.00
1189 29.7700 2009.00 1955.98 45.00
1190 29.7900 1984.00 1995.61 45.00
1191 29.8100 2110.00 2042.21 46.00
1192 29.8300 2032.00 2095.55 45.00
1193 29.8500 2161.00 2153.25 46.00
1194 29.8700 2274.00 2209.00 48.00
1195 29.8900 2229.00 2252.54 47.00
1196 29.9100 2300.00 2278.75 48.00
1197 29.9300 2387.00 2297.61 49.00
1198 29.9500 2332.00 2321.14 48.00
1199 29.9700 2297.00 2349.82 48.00
1200 29.9900 2389.00 2384.01 49.00
1201 30.0100 2368.00 2430.16 49.00
1202 30.0300 2445.00 2496.37 49.00
1203 30.0500 2481.00 2582.64 50.00
1204 30.0700 2755.00 2697.25 52.00
1205 30.0900 2881.00 2843.66 54.00
1206 30.1100 3011.00 3031.07 55.00
1207 30.1300 3388.00 3273.76 58.00
1208 30.1500 3757.00 3598.29 61.00
1209 30.1700 4175.00 4041.92 65.00
1210 30.1900 5022.00 4660.48 71.00
1211 30.2100 5894.00 5526.58 77.00
1212 30.2300 7053.00 6720.66 84.00
1213 30.2500 8658.00 8321.78 93.00
1214 30.2700 10361.00 10411.60 102.00
1215 30.2900 12912.00 13072.80 114.00
1216 30.3100 16002.00 16338.70 126.00
1217 30.3300 19585.00 20094.80 140.00
1218 30.3500 23392.00 23914.90 153.00
1219 30.3700 26660.00 26854.80 163.00
1220 30.3900 28111.00 27628.40 168.00
1221 30.4100 26411.00 25948.70 163.00
1222 30.4300 23605.00 23176.70 154.00
1223 30.4500 20941.00 20325.40 145.00
1224 30.4700 18190.00 17226.20 135.00
1225 30.4900 14392.00 13784.00 120.00
1226 30.5100 10994.00 10600.70 105.00
1227 30.5300 8218.00 8139.66 91.00
1228 30.5500 6207.00 6408.73 79.00
1229 30.5700 5026.00 5237.65 71.00
1230 30.5900 4120.00 4449.08 64.00
1231 30.6100 3645.00 3906.51 60.00
1232 30.6300 3299.00 3518.08 57.00
1233 30.6500 2992.00 3228.11 55.00
1234 30.6700 2808.00 3003.90 53.00
1235 30.6900 2734.00 2826.06 52.00
1236 30.7100 2574.00 2682.45 51.00
1237 30.7300 2559.00 2564.83 51.00
1238 30.7500 2407.00 2467.40 49.00
1239 30.7700 2421.00 2386.00 49.00
1240 30.7900 2377.00 2317.53 49.00
1241 30.8100 2324.00 2259.73 48.00
1242 30.8300 2326.00 2210.96 48.00
1243 30.8500 2350.00 2170.09 48.00
1244 30.8700 2198.00 2136.42 47.00
1245 30.8900 2181.00 2109.51 47.00
1246 30.9100 2197.00 2089.11 47.00
1247 30.9300 2159.00 2075.09 46.00
1248 30.9500 2213.00 2067.39 47.00
1249 30.9700 2177.00 2065.70 47.00
1250 30.9900 2157.00 2068.80 46.00
1251 31.0100 2160.00 2073.62 46.00
1252 31.0300 2096.00 2074.16 46.00
1253 31.0500 2200.00 2063.24 47.00
1254 31.0700 2060.00 2040.51 45.00
1255 31.0900 2155.00 2013.92 46.00
1256 31.1100 2009.00 1988.23 45.00
1257 31.1300 2122.00 1961.93 46.00
1258 31.1500 2060.00 1934.55 45.00
1259 31.1700 2000.00 1909.42 45.00
1260 31.1900 2050.00 1889.00 45.00
1261 31.2100 1954.00 1873.29 44.00
1262 31.2300 1985.00 1861.29 45.00
1263 31.2500 1993.00 1851.98 45.00
1264 31.2700 2015.00 1844.58 45.00
1265 31.2900 1967.00 1838.51 44.00
1266 31.3100 1892.00 1833.45 43.00
1267 31.3300 2048.00 1829.17 45.00
1268 31.3500 1983.00 1825.54 45.00
1269 31.3700 1942.00 1822.46 44.00
1270 31.3900 1965.00 1819.88 44.00
1271 31.4100 1835.00 1817.73 43.00
1272 31.4300 1994.00 1815.99 45.00
1273 31.4500 1941.00 1814.63 44.00
1274 31.4700 1933.00 1813.61 44.00
1275 31.4900 1896.00 1812.94 44.00
1276 31.5100 1975.00 1812.58 44.00
1277 31.5300 1925.00 1812.54 44.00
1278 31.5500 1926.00 1812.81 44.00
1279 31.5700 1881.00 1813.39 43.00
1280 31.5900 1950.00 1814.27 44.00
1281 31.6100 1994.00 1815.47 45.00
1282 31.6300 1850.00 1816.98 43.00
1283 31.6500 1888.00 1818.83 43.00
1284 31.6700 1920.00 1821.01 44.00
1285 31.6900 1965.00 1823.56 44.00
1286 31.7100 1899.00 1826.49 44.00
1287 31.7300 1850.00 1829.82 43.00
1288 31.7500 1935.00 1833.59 44.00
1289 31.7700 1925.00 1837.83 44.00
1290 31.7900 2003.00 1842.59 45.00
1291 31.8100 1900.00 1847.92 44.00
1292 31.8300 1969.00 1853.89 44.00
1293 31.8500 1965.00 1860.47 44.00
1294 31.8700 1949.00 1867.95 44.00
1295 31.8900 1957.00 1876.34 44.00
1296 31.9100 2012.00 1885.77 45.00
1297 31.9300 1983.00 1896.36 45.00
1298 31.9500 1937.00 1908.40 44.00
1299 31.9700 2032.00 1922.11 45.00
1300 31.9900 2014.00 1937.79 45.00
1301 32.0100 2081.00 1956.24 46.00
1302 32.0300 2061.00 1977.23 45.00
1303 32.0500 2079.00 2001.88 46.00
1304 32.0700 2079.00 2031.20 46.00
1305 32.0900 2051.00 2066.85 45.00
1306 32.1100 2233.00 2110.63 47.00
1307 32.1300 2293.00 2166.01 48.00
1308 32.1500 2265.00 2237.72 48.00
1309 32.1700 2371.00 2332.39 49.00
1310 32.1900 2433.00 2458.24 49.00
1311 32.2100 2431.00 2624.29 49.00
1312 32.2300 2737.00 2839.60 52.00
1313 32.2500 2986.00 3113.27 55.00
1314 32.2700 3114.00 3451.89 56.00
1315 32.2900 3513.00 3853.87 59.00
1316 32.3100 3858.00 4297.54 62.00
1317 32.3300 4235.00 4729.25 65.00
1318 32.3500 4467.00 5080.80 67.00
1319 32.3700 4847.00 5363.19 70.00
1320 32.3900 5322.00 5698.87 73.00
1321 32.4100 5864.00 6182.42 77.00
1322 32.4300 6619.00 6809.06 81.00
1323 32.4500 7297.00 7531.78 85.00
1324 32.4700 8305.00 8282.92 91.00
1325 32.4900 8799.00 8879.84 94.00
1326 32.5100 9021.00 9021.99 95.00
1327 32.5300 8556.00 8599.80 92.00
1328 32.5500 8099.00 7892.89 90.00
1329 32.5700 7632.00 7181.46 87.00
1330 32.5900 6632.00 6455.65 81.00
1331 32.6100 5889.00 5631.05 77.00
1332 32.6300 5101.00 4794.39 71.00
1333 32.6500 4512.00 4092.89 67.00
1334 32.6700 3765.00 3578.34 61.00
1335 32.6900 3528.00 3228.53 59.00
1336 32.7100 3361.00 3003.39 58.00
1337 32.7300 3221.00 2868.31 57.00
1338 32.7500 3155.00 2799.65 56.00
1339 32.7700 3157.00 2785.31 56.00
1340 32.7900 3305.00 2823.36 57.00
1341 32.8100 3415.00 2920.61 58.00
1342 32.8300 3605.00 3090.78 60.00
1343 32.8500 4047.00 3351.26 64.00
1344 32.8700 4373.00 3718.81 66.00
1345 32.8900 5154.00 4207.14 72.00
1346 32.9100 5925.00 4820.93 77.00
1347 32.9300 6855.00 5541.29 83.00
1348 32.9500 7974.00 6296.79 89.00
1349 32.9700 8806.00 6925.95 94.00
1350 32.9900 9580.00 7190.00 98.00
1351 33.0100 9162.00 6975.32 96.00
1352 33.0300 8468.00 6483.23 92.00
1353 33.0500 7746.00 5960.09 88.00
1354 33.0700 7045.00 5430.06 84.00
1355 33.0900 6301.00 4817.58 79.00
1356 33.1100 5426.00 4164.20 74.00
1357 33.1300 4566.00 3591.21 68.00
1358 33.1500 3633.00 3155.01 60.00
1359 33.1700 3238.00 2845.32 57.00
1360 33.1900 2860.00 2631.48 53.00
1361 33.2100 2761.00 2484.20 53.00
1362 33.2300 2538.00 2381.15 50.00
1363 33.2500 2401.00 2307.16 49.00
1364 33.2700 2439.00 2252.76 49.00
1365 33.2900 2351.00 2212.13 48.00
1366 33.3100 2319.00 2181.76 48.00
1367 33.3300 2264.00 2159.58 48.00
1368 33.3500 2330.00 2144.20 48.00
1369 33.3700 2195.00 2134.79 47.00
1370 33.3900 2232.00 2130.89 47.00
1371 33.4100 2265.00 2132.33 48.00
1372 33.4300 2284.00 2139.38 48.00
1373 33.4500 2285.00 2152.55 48.00
1374 33.4700 2245.00 2172.85 47.00
1375 33.4900 2400.00 2201.92 49.00
1376 33.5100 2313.00 2242.49 48.00
1377 33.5300 2457.00 2298.82 50.00
1378 33.5500 2484.00 2377.52 50.00
1379 33.5700 2652.00 2489.40 51.00
1380 33.5900 2833.00 2646.85 53.00
1381 33.6100 3007.00 2868.19 55.00
1382 33.6300 3288.00 3171.51 57.00
1383 33.6500 3502.00 3574.68 59.00
1384 33.6700 4050.00 4080.81 64.00
1385 33.6900 4703.00 4686.95 69.00
1386 33.7100 5195.00 5353.95 72.00
1387 33.7300 5869.00 5979.45 77.00
1388 33.7500 6027.00 6378.40 78.00
1389 33.7700 6087.00 6378.82 78.00
1390 33.7900 5727.00 6039.71 76.00
1391 33.8100 5468.00 5597.82 74.00
1392 33.8300 5207.00 5165.96 72.00
1393 33.8500 4744.00 4691.82 69.00
1394 33.8700 4158.00 4142.85 64.00
1395 33.8900 3606.00 3602.57 60.00
1396 33.9100 3133.00 3158.71 56.00
1397 33.9300 2944.00 2825.02 54.00
1398 33.9500 2609.00 2593.01 51.00
1399 33.9700 2469.00 2431.47 50.00
1400 33.9900 2420.00 2317.98 49.00
1401 34.0100 2302.00 2236.22 48.00
1402 34.0300 2188.00 2172.67 47.00
1403 34.0500 2214.00 2125.74 47.00
1404 34.0700 2213.00 2088.60 47.00
1405 34.0900 2107.00 2058.63 46.00
1406 34.1100 2076.00 2034.11 46.00
1407 34.1300 2015.00 2013.76 45.00
1408 34.1500 2077.00 1996.72 46.00
1409 34.1700 2012.00 1982.34 45.00
1410 34.1900 2075.00 1970.12 46.00
1411 34.2100 1988.00 1959.66 45.00
1412 34.2300 1948.00 1950.67 44.00
1413 34.2500 1952.00 1942.90 44.00
1414 34.2700 1943.00 1936.16 44.00
1415 34.2900 1998.00 1930.31 45.00
1416 34.3100 2008.00 1925.20 45.00
1417 34.3300 1842.00 1920.75 43.00
1418 34.3500 1957.00 1916.86 44.00
1419 34.3700 1964.00 1913.46 44.00
1420 34.3900 1950.00 1910.49 44.00
1421 34.4100 1971.00 1907.91 44.00
1422 34.4300 1972.00 1905.66 44.00
1423 34.4500 1939.00 1903.71 44.00
1424 34.4700 1953.00 1902.03 44.00
1425 34.4900 1860.00 1900.60 43.00
1426 34.5100 2006.00 1899.38 45.00
1427 34.5300 1845.00 1898.37 43.00
1428 34.5500 1920.00 1897.53 44.00
1429 34.5700 1876.00 1896.86 43.00
1430 34.5900 1902.00 1896.34 44.00
1431 34.6100 1919.00 1895.96 44.00
1432 34.6300 1961.00 1895.72 44.00
1433 34.6500 1916.00 1895.56 44.00
1434 34.6700 1955.00 1895.55 44.00
1435 34.6900 1862.00 1895.64 43.00
1436 34.7100 1935.00 1895.83 44.00
1437 34.7300 1919.00 1896.10 44.00
1438 34.7500 1962.00 1896.47 44.00
1439 34.7700 1893.00 1896.93 44.00
1440 34.7900 1959.00 1897.47 44.00
1441 34.8100 1919.00 1898.09 44.00
1442 34.8300 1881.00 1898.79 43.00
1443 34.8500 1839.00 1899.56 43.00
1444 34.8700 1926.00 1900.40 44.00
1445 34.8900 2008.00 1901.31 45.00
1446 34.9100 1851.00 1902.29 43.00
1447 34.9300 1980.00 1903.34 44.00
1448 34.9500 1896.00 1904.45 44.00
1449 34.9700 1928.00 1905.64 44.00
1450 34.9900 2076.00 1906.89 46.00
1451 35.0100 1890.00 1908.22 43.00
1452 35.0300 1845.00 1909.61 43.00
1453 35.0500 1819.00 1911.32 43.00
1454 35.0700 1900.00 1912.86 44.00
1455 35.0900 1863.00 1914.48 43.00
1456 35.1100 1888.00 1916.17 43.00
1457 35.1300 1913.00 1917.95 44.00
1458 35.1500 1922.00 1920.61 44.00
1459 35.1700 1935.00 1922.57 44.00
1460 35.1900 1923.00 1924.78 44.00
1461 35.2100 1909.00 1926.93 44.00
1462 35.2300 1905.00 1929.19 44.00
1463 35.2500 1896.00 1931.57 44.00
1464 35.2700 1949.00 1934.06 44.00
1465 35.2900 1912.00 1936.68 44.00
1466 35.3100 1971.00 1939.44 44.00
1467 35.3300 1982.00 1942.35 45.00
1468 35.3500 1999.00 1945.43 45.00
1469 35.3700 1884.00 1948.69 43.00
1470 35.3900 1902.00 1952.15 44.00
1471 35.4100 1918.00 1955.83 44.00
1472 35.4300 1996.00 1959.76 45.00
1473 35.4500 1997.00 1963.96 45.00
1474 35.4700 2002.00 1968.46 45.00
1475 35.4900 1935.00 1973.31 44.00
1476 35.5100 2007.00 1978.56 45.00
1477 35.5300 1981.00 1984.26 45.00
1478 35.5500 2108.00 1990.48 46.00
1479 35.5700 1967.00 1997.31 44.00
1480 35.5900 2062.00 2004.85 45.00
1481 35.6100 2049.00 2013.23 45.00
1482 35.6300 2062.00 2022.62 45.00
1483 35.6500 1976.00 2033.23 44.00
1484 35.6700 2062.00 2045.35 45.00
1485 35.6900 2073.00 2059.33 46.00
1486 35.7100 2116.00 2075.69 46.00
1487 35.7300 2074.00 2095.16 46.00
1488 35.7500 2185.00 2118.81 47.00
1489 35.7700 2174.00 2148.25 47.00
1490 35.7900 2192.00 2185.91 47.00
1491 35.8100 2351.00 2235.47 48.00
1492 35.8300 2295.00 2302.16 48.00
1493 35.8500 2435.00 2392.90 49.00
1494 35.8700 2570.00 2515.32 51.00
1495 35.8900 2687.00 2675.88 52.00
1496 35.9100 2777.00 2877.49 53.00
1497 35.9300 3043.00 3116.78 55.00
1498 35.9500 3284.00 3378.08 57.00
1499 35.9700 3558.00 3623.05 60.00
1500 35.9900 3797.00 3785.20 62.00
1501 36.0100 3715.00 3804.66 61.00
1502 36.0300 3656.00 3701.40 60.00
1503 36.0500 3482.00 3559.38 59.00
1504 36.0700 3397.00 3425.05 58.00
1505 36.0900 3214.00 3284.34 57.00
1506 36.1100 3040.00 3114.41 55.00
1507 36.1300 2923.00 2933.39 54.00
1508 36.1500 2756.00 2778.30 52.00
1509 36.1700 2759.00 2665.97 53.00
1510 36.1900 2574.00 2595.14 51.00
1511 36.2100 2560.00 2558.42 51.00
1512 36.2300 2591.00 2547.23 51.00
1513 36.2500 2584.00 2559.51 51.00
1514 36.2700 2630.00 2590.17 51.00
1515 36.2900 2695.00 2639.11 52.00
1516 36.3100 2647.00 2707.93 51.00
1517 36.3300 2763.00 2799.91 53.00
1518 36.3500 2927.00 2923.45 54.00
1519 36.3700 3109.00 3089.21 56.00
1520 36.3900 3396.00 3314.85 58.00
1521 36.4100 3707.00 3626.52 61.00
1522 36.4300 4140.00 4060.73 64.00
1523 36.4500 4636.00 4662.03 68.00
1524 36.4700 5271.00 5473.76 73.00
1525 36.4900 6218.00 6523.98 79.00
1526 36.5100 7410.00 7809.80 86.00
1527 36.5300 8630.00 9271.33 93.00
1528 36.5500 10106.00 10743.90 101.00
1529 36.5700 11339.00 11900.50 106.00
1530 36.5900 11578.00 12328.00 108.00
1531 36.6100 11186.00 11911.80 106.00
1532 36.6300 10275.00 11048.10 101.00
1533 36.6500 9528.00 10160.40 98.00
1534 36.6700 8898.00 9299.34 94.00
1535 36.6900 8132.00 8297.91 90.00
1536 36.7100 7163.00 7128.72 85.00
1537 36.7300 5977.00 5985.33 77.00
1538 36.7500 4893.00 5038.62 70.00
1539 36.7700 4119.00 4324.09 64.00
1540 36.7900 3693.00 3808.99 61.00
1541 36.8100 3305.00 3442.48 57.00
1542 36.8300 3132.00 3180.82 56.00
1543 36.8500 2850.00 2990.11 53.00
1544 36.8700 2711.00 2848.44 52.00
1545 36.8900 2569.00 2740.11 51.00
1546 36.9100 2655.00 2655.54 52.00
1547 36.9300 2509.00 2588.63 50.00
1548 36.9500 2573.00 2535.27 51.00
1549 36.9700 2498.00 2493.83 50.00
1550 36.9900 2403.00 2460.12 49.00
1551 37.0100 2403.00 2433.89 49.00
1552 37.0300 2361.00 2414.18 49.00
1553 37.0500 2479.00 2400.43 50.00
1554 37.0700 2352.00 2394.23 48.00
1555 37.0900 2404.00 2392.18 49.00
1556 37.1100 2370.00 2396.88 49.00
1557 37.1300 2504.00 2409.13 50.00
1558 37.1500 2387.00 2430.87 49.00
1559 37.1700 2503.00 2464.22 50.00
1560 37.1900 2440.00 2511.13 49.00
1561 37.2100 2523.00 2572.58 50.00
1562 37.2300 2543.00 2647.71 50.00
1563 37.2500 2540.00 2732.13 50.00
1564 37.2700 2597.00 2815.64 51.00
1565 37.2900 2687.00 2881.56 52.00
1566 37.3100 2800.00 2915.13 53.00
1567 37.3300 2831.00 2918.90 53.00
1568 37.3500 2845.00 2912.41 53.00
1569 37.3700 2808.00 2912.08 53.00
1570 37.3900 2877.00 2919.79 54.00
1571 37.4100 3000.00 2931.71 55.00
1572 37.4300 3044.00 2951.56 55.00
1573 37.4500 3024.00 2991.93 55.00
1574 37.4700 3130.00 3066.13 56.00
1575 37.4900 3324.00 3185.27 58.00
1576 37.5100 3629.00 3362.12 60.00
1577 37.5300 3935.00 3615.91 63.00
1578 37.5500 4262.00 3975.61 65.00
1579 37.5700 4905.00 4481.58 70.00
1580 37.5900 5555.00 5180.04 75.00
1581 37.6100 6465.00 6114.81 80.00
1582 37.6300 7692.00 7304.26 88.00
1583 37.6500 8956.00 8723.39 95.00
1584 37.6700 10744.00 10272.30 104.00
1585 37.6900 12359.00 11717.70 111.00
1586 37.7100 13437.00 12671.00 116.00
1587 37.7300 13570.00 12777.20 116.00
1588 37.7500 12728.00 12129.40 113.00
1589 37.7700 11598.00 11213.70 108.00
1590 37.7900 10812.00 10344.70 104.00
1591 37.8100 10210.00 9468.21 101.00
1592 37.8300 9409.00 8411.09 97.00
1593 37.8500 7883.00 7201.32 89.00
1594 37.8700 6466.00 6050.85 80.00
1595 37.8900 5381.00 5109.74 73.00
1596 37.9100 4524.00 4399.73 67.00
1597 37.9300 3949.00 3883.63 63.00
1598 37.9500 3516.00 3511.63 59.00
1599 37.9700 3325.00 3242.10 58.00
1600 37.9900 2904.00 3043.23 54.00
1601 38.0100 2810.00 2892.66 53.00
1602 38.0300 2647.00 2776.07 51.00
1603 38.0500 2679.00 2683.28 52.00
1604 38.0700 2611.00 2608.58 51.00
1605 38.0900 2539.00 2547.94 50.00
1606 38.1100 2559.00 2498.98 51.00
1607 38.1300 2541.00 2459.56 50.00
1608 38.1500 2449.00 2428.84 49.00
1609 38.1700 2400.00 2406.38 49.00
1610 38.1900 2356.00 2391.99 49.00
1611 38.2100 2384.00 2385.38 49.00
1612 38.2300 2375.00 2385.79 49.00
1613 38.2500 2313.00 2391.55 48.00
1614 38.2700 2357.00 2399.23 49.00
1615 38.2900 2311.00 2402.96 48.00
1616 38.3100 2397.00 2396.08 49.00
1617 38.3300 2314.00 2377.29 48.00
1618 38.3500 2341.00 2353.08 48.00
1619 38.3700 2290.00 2329.91 48.00
1620 38.3900 2363.00 2308.47 49.00
1621 38.4100 2302.00 2285.85 48.00
1622 38.4300 2189.00 2260.85 47.00
1623 38.4500 2215.00 2236.09 47.00
1624 38.4700 2172.00 2214.58 47.00
1625 38.4900 2109.00 2197.36 46.00
1626 38.5100 2176.00 2184.04 47.00
1627 38.5300 2138.00 2173.84 46.00
1628 38.5500 2224.00 2166.01 47.00
1629 38.5700 2056.00 2159.97 45.00
1630 38.5900 2050.00 2155.26 45.00
1631 38.6100 2172.00 2151.60 47.00
1632 38.6300 2046.00 2148.79 45.00
1633 38.6500 1971.00 2146.70 44.00
1634 38.6700 2130.00 2145.25 46.00
1635 38.6900 2126.00 2144.40 46.00
1636 38.7100 2020.00 2144.10 45.00
1637 38.7300 2090.00 2144.34 46.00
1638 38.7500 2057.00 2145.12 45.00
1639 38.7700 1978.00 2146.44 44.00
1640 38.7900 2083.00 2148.33 46.00
1641 38.8100 2018.00 2150.81 45.00
1642 38.8300 2210.00 2153.93 47.00
1643 38.8500 2132.00 2157.74 46.00
1644 38.8700 2096.00 2162.31 46.00
1645 38.8900 2119.00 2167.75 46.00
1646 38.9100 2126.00 2174.16 46.00
1647 38.9300 2136.00 2181.71 46.00
1648 38.9500 2097.00 2190.54 46.00
1649 38.9700 2134.00 2200.91 46.00
1650 38.9900 2159.00 2213.11 46.00
1651 39.0100 2115.00 2227.52 46.00
1652 39.0300 2163.00 2244.65 47.00
1653 39.0500 2179.00 2265.12 47.00
1654 39.0700 2232.00 2289.84 47.00
1655 39.0900 2210.00 2320.04 47.00
1656 39.1100 2278.00 2357.48 48.00
1657 39.1300 2362.00 2404.81 49.00
1658 39.1500 2422.00 2465.90 49.00
1659 39.1700 2528.00 2546.52 50.00
1660 39.1900 2686.00 2655.07 52.00
1661 39.2100 2813.00 2802.95 53.00
1662 39.2300 2998.00 3004.22 55.00
1663 39.2500 3291.00 3272.91 57.00
1664 39.2700 3575.00 3619.19 60.00
1665 39.2900 3946.00 4040.22 63.00
1666 39.3100 4454.00 4514.37 67.00
1667 39.3300 4756.00 4985.21 69.00
1668 39.3500 4867.00 5358.55 70.00
1669 39.3700 5097.00 5542.95 71.00
1670 39.3900 5004.00 5517.13 71.00
1671 39.4100 4784.00 5338.68 69.00
1672 39.4300 4686.00 5085.33 68.00
1673 39.4500 4471.00 4806.28 67.00
1674 39.4700 4196.00 4501.26 65.00
1675 39.4900 3867.00 4161.23 62.00
1676 39.5100 3622.00 3801.83 60.00
1677 39.5300 3248.00 3456.12 57.00
1678 39.5500 2955.00 3158.10 54.00
1679 39.5700 2895.00 2922.92 54.00
1680 39.5900 2565.00 2746.60 51.00
1681 39.6100 2618.00 2617.13 51.00
1682 39.6300 2399.00 2522.26 49.00
1683 39.6500 2387.00 2451.99 49.00
1684 39.6700 2297.00 2399.01 48.00
1685 39.6900 2288.00 2358.20 48.00
1686 39.7100 2199.00 2326.12 47.00
1687 39.7300 2195.00 2300.49 47.00
1688 39.7500 2125.00 2279.76 46.00
1689 39.7700 2204.00 2262.85 47.00
1690 39.7900 2236.00 2249.01 47.00
1691 39.8100 2124.00 2237.67 46.00
1692 39.8300 2215.00 2228.40 47.00
1693 39.8500 2139.00 2220.87 46.00
1694 39.8700 2134.00 2214.83 46.00
1695 39.8900 2066.00 2210.10 45.00
1696 39.9100 2148.00 2206.51 46.00
1697 39.9300 2126.00 2203.97 46.00
1698 39.9500 2090.00 2202.38 46.00
1699 39.9700 2168.00 2201.68 47.00
1700 39.9900 2173.00 2201.84 47.00
1701 40.0100 2127.00 2202.84 46.00
1702 40.0300 2113.00 2204.31 46.00
1703 40.0500 2160.00 2207.00 46.00
1704 40.0700 2150.00 2210.58 46.00
1705 40.0900 2180.00 2215.12 47.00
1706 40.1100 2138.00 2220.68 46.00
1707 40.1300 2189.00 2227.21 47.00
1708 40.1500 2162.00 2235.21 46.00
1709 40.1700 2161.00 2244.70 46.00
1710 40.1900 2141.00 2255.91 46.00
1711 40.2100 2126.00 2269.18 46.00
1712 40.2300 2213.00 2284.92 47.00
1713 40.2500 2291.00 2303.72 48.00
1714 40.2700 2264.00 2326.32 48.00
1715 40.2900 2334.00 2353.85 48.00
1716 40.3100 2371.00 2387.86 49.00
1717 40.3300 2364.00 2430.69 49.00
1718 40.3500 2541.00 2485.78 50.00
1719 40.3700 2581.00 2558.26 51.00
1720 40.3900 2617.00 2655.38 51.00
1721 40.4100 2826.00 2786.83 53.00
1722 40.4300 2942.00 2963.85 54.00
1723 40.4500 3183.00 3196.66 56.00
1724 40.4700 3471.00 3489.15 59.00
1725 40.4900 3785.00 3833.15 62.00
1726 40.5100 4255.00 4200.05 65.00
1727 40.5300 4470.00 4530.85 67.00
1728 40.5500 4702.00 4737.83 69.00
1729 40.5700 4658.00 4756.96 68.00
1730 40.5900 4267.00 4621.93 65.00
1731 40.6100 4405.00 4439.12 66.00
1732 40.6300 4227.00 4274.78 65.00
1733 40.6500 4034.00 4119.64 64.00
1734 40.6700 3812.00 3931.17 62.00
1735 40.6900 3691.00 3702.88 61.00
1736 40.7100 3407.00 3474.70 58.00
1737 40.7300 3250.00 3288.83 57.00
1738 40.7500 3135.00 3164.66 56.00
1739 40.7700 3096.00 3103.03 56.00
1740 40.7900 3105.00 3104.23 56.00
1741 40.8100 3120.00 3167.83 56.00
1742 40.8300 3201.00 3297.84 57.00
1743 40.8500 3439.00 3499.05 59.00
1744 40.8700 3671.00 3771.79 61.00
1745 40.8900 3826.00 4104.76 62.00
1746 40.9100 4230.00 4466.65 65.00
1747 40.9300 4501.00 4794.93 67.00
1748 40.9500 4827.00 4998.90 69.00
1749 40.9700 4861.00 5011.54 70.00
1750 40.9900 4643.00 4867.59 68.00
1751 41.0100 4377.00 4675.17 66.00
1752 41.0300 4330.00 4503.25 66.00
1753 41.0500 4124.00 4343.87 64.00
1754 41.0700 4013.00 4153.70 63.00
1755 41.0900 3759.00 3919.60 61.00
1756 41.1100 3634.00 3680.65 60.00
1757 41.1300 3202.00 3480.43 57.00
1758 41.1500 3188.00 3339.00 56.00
1759 41.1700 3080.00 3256.18 55.00
1760 41.1900 3080.00 3225.85 55.00
1761 41.2100 3033.00 3242.74 55.00
1762 41.2300 3163.00 3305.18 56.00
1763 41.2500 3247.00 3416.50 57.00
1764 41.2700 3276.00 3586.20 57.00
1765 41.2900 3667.00 3831.50 61.00
1766 41.3100 3903.00 4178.41 62.00
1767 41.3300 4260.00 4661.16 65.00
1768 41.3500 4890.00 5318.00 70.00
1769 41.3700 5659.00 6178.58 75.00
1770 41.3900 6433.00 7245.89 80.00
1771 41.4100 7667.00 8470.74 88.00
1772 41.4300 8575.00 9720.70 93.00
1773 41.4500 9118.00 10755.50 95.00
1774 41.4700 9238.00 11292.00 96.00
1775 41.4900 9176.00 11220.10 96.00
1776 41.5100 8819.00 10725.00 94.00
1777 41.5300 8405.00 10085.90 92.00
1778 41.5500 8163.00 9447.22 90.00
1779 41.5700 7602.00 8776.23 87.00
1780 41.5900 7056.00 7979.01 84.00
1781 41.6100 6263.00 7062.75 79.00
1782 41.6300 5453.00 6136.99 74.00
1783 41.6500 4819.00 5309.58 69.00
1784 41.6700 4315.00 4633.37 66.00
1785 41.6900 3967.00 4111.39 63.00
1786 41.7100 3570.00 3719.64 60.00
1787 41.7300 3255.00 3427.99 57.00
1788 41.7500 2976.00 3209.74 55.00
1789 41.7700 2856.00 3044.01 53.00
1790 41.7900 2755.00 2915.67 52.00
1791 41.8100 2672.00 2814.20 52.00
1792 41.8300 2538.00 2732.48 50.00
1793 41.8500 2504.00 2665.63 50.00
1794 41.8700 2437.00 2610.31 49.00
1795 41.8900 2392.00 2564.11 49.00
1796 41.9100 2441.00 2523.02 49.00
1797 41.9300 2361.00 2490.29 49.00
1798 41.9500 2394.00 2462.63 49.00
1799 41.9700 2290.00 2439.27 48.00
1800 41.9900 2248.00 2419.62 47.00
1801 42.0100 2275.00 2402.09 48.00
1802 42.0300 2280.00 2388.60 48.00
1803 42.0500 2242.00 2377.75 47.00
1804 42.0700 2305.00 2369.35 48.00
1805 42.0900 2226.00 2363.30 47.00
1806 42.1100 2277.00 2359.55 48.00
1807 42.1300 2266.00 2358.13 48.00
1808 42.1500 2314.00 2359.11 48.00
1809 42.1700 2230.00 2362.69 47.00
1810 42.1900 2276.00 2369.11 48.00
1811 42.2100 2332.00 2378.80 48.00
1812 42.2300 2345.00 2392.30 48.00
1813 42.2500 2257.00 2410.44 48.00
1814 42.2700 2312.00 2434.42 48.00
1815 42.2900 2370.00 2465.87 49.00
1816 42.3100 2501.00 2507.33 50.00
1817 42.3300 2521.00 2562.48 50.00
1818 42.3500 2568.00 2636.63 51.00
1819 42.3700 2687.00 2737.04 52.00
1820 42.3900 2848.00 2873.69 53.00
1821 42.4100 3059.00 3055.63 55.00
1822 42.4300 3323.00 3291.11 58.00
1823 42.4500 3536.00 3582.08 59.00
1824 42.4700 3801.00 3917.09 62.00
1825 42.4900 4147.00 4264.54 64.00
1826 42.5100 4306.00 4567.51 66.00
1827 42.5300 4355.00 4763.39 66.00
1828 42.5500 4521.00 4838.12 67.00
1829 42.5700 4624.00 4847.30 68.00
1830 42.5900 4781.00 4845.82 69.00
1831 42.6100 4553.00 4824.40 67.00
1832 42.6300 4616.00 4726.52 68.00
1833 42.6500 4262.00 4516.99 65.00
1834 42.6700 4161.00 4230.96 65.00
1835 42.6900 4054.00 3939.46 64.00
1836 42.7100 3686.00 3684.11 61.00
1837 42.7300 3404.00 3462.47 58.00
1838 42.7500 3152.00 3256.85 56.00
1839 42.7700 3099.00 3062.05 56.00
1840 42.7900 2876.00 2887.55 54.00
1841 42.8100 2617.00 2742.68 51.00
1842 42.8300 2532.00 2628.50 50.00
1843 42.8500 2488.00 2540.73 50.00
1844 42.8700 2392.00 2473.62 49.00
1845 42.8900 2267.00 2422.07 48.00
1846 42.9100 2278.00 2382.00 48.00
1847 42.9300 2250.00 2350.37 47.00
1848 42.9500 2330.00 2324.99 48.00
1849 42.9700 2204.00 2304.31 47.00
1850 42.9900 2200.00 2287.27 47.00
1851 43.0100 2208.00 2273.09 47.00
1852 43.0300 2201.00 2261.23 47.00
1853 43.0500 2207.00 2251.28 47.00
1854 43.0700 2217.00 2242.93 47.00
1855 43.0900 2199.00 2235.94 47.00
1856 43.1100 2119.00 2230.34 46.00
1857 43.1300 2122.00 2225.57 46.00
1858 43.1500 2121.00 2221.72 46.00
1859 43.1700 2227.00 2218.70 47.00
1860 43.1900 2193.00 2216.46 47.00
1861 43.2100 2245.00 2215.35 47.00
1862 43.2300 2197.00 2214.51 47.00
1863 43.2500 2197.00 2214.35 47.00
1864 43.2700 2133.00 2214.86 46.00
1865 43.2900 2199.00 2216.04 47.00
1866 43.3100 2107.00 2217.91 46.00
1867 43.3300 2203.00 2220.56 47.00
1868 43.3500 2240.00 2223.96 47.00
1869 43.3700 2228.00 2228.23 47.00
1870 43.3900 2152.00 2233.50 46.00
1871 43.4100 2286.00 2239.91 48.00
1872 43.4300 2311.00 2247.70 48.00
1873 43.4500 2212.00 2257.17 47.00
1874 43.4700 2369.00 2268.76 49.00
1875 43.4900 2242.00 2283.00 47.00
1876 43.5100 2227.00 2300.54 47.00
1877 43.5300 2269.00 2322.02 48.00
1878 43.5500 2363.00 2347.89 49.00
1879 43.5700 2403.00 2378.03 49.00
1880 43.5900 2451.00 2411.40 50.00
1881 43.6100 2460.00 2445.67 50.00
1882 43.6300 2573.00 2477.54 51.00
1883 43.6500 2597.00 2505.05 51.00
1884 43.6700 2549.00 2530.59 50.00
1885 43.6900 2688.00 2559.41 52.00
1886 43.7100 2715.00 2597.31 52.00
1887 43.7300 2666.00 2645.86 52.00
1888 43.7500 2829.00 2707.17 53.00
1889 43.7700 2863.00 2784.33 54.00
1890 43.7900 2919.00 2885.17 54.00
1891 43.8100 3056.00 3021.46 55.00
1892 43.8300 3335.00 3208.99 58.00
1893 43.8500 3617.00 3465.85 60.00
1894 43.8700 4020.00 3813.53 63.00
1895 43.8900 4407.00 4271.11 66.00
1896 43.9100 4942.00 4846.60 70.00
1897 43.9300 5627.00 5521.31 75.00
1898 43.9500 6605.00 6233.03 81.00
1899 43.9700 7156.00 6859.15 85.00
1900 43.9900 7711.00 7233.03 88.00
1901 44.0100 7561.00 7245.25 87.00
1902 44.0300 7130.00 6965.94 84.00
1903 44.0500 6792.00 6588.89 82.00
1904 44.0700 6350.00 6248.70 80.00
1905 44.0900 6071.00 5946.30 78.00
1906 44.1100 5916.00 5601.95 77.00
1907 44.1300 5584.00 5156.85 75.00
1908 44.1500 4842.00 4644.37 70.00
1909 44.1700 4186.00 4148.89 65.00
1910 44.1900 3883.00 3728.37 62.00
1911 44.2100 3389.00 3396.34 58.00
1912 44.2300 3174.00 3143.11 56.00
1913 44.2500 2935.00 2952.42 54.00
1914 44.2700 2784.00 2808.90 53.00
1915 44.2900 2778.00 2699.84 53.00
1916 44.3100 2622.00 2615.68 51.00
1917 44.3300 2651.00 2549.70 51.00
1918 44.3500 2376.00 2496.75 49.00
1919 44.3700 2482.00 2453.66 50.00
1920 44.3900 2352.00 2418.15 48.00
1921 44.4100 2368.00 2388.58 49.00
1922 44.4300 2251.00 2363.78 47.00
1923 44.4500 2217.00 2342.94 47.00
1924 44.4700 2306.00 2325.23 48.00
1925 44.4900 2312.00 2310.21 48.00
1926 44.5100 2243.00 2297.46 47.00
1927 44.5300 2351.00 2286.66 48.00
1928 44.5500 2191.00 2277.56 47.00
1929 44.5700 2246.00 2269.93 47.00
1930 44.5900 2269.00 2263.62 48.00
1931 44.6100 2228.00 2258.50 47.00
1932 44.6300 2252.00 2254.46 47.00
1933 44.6500 2214.00 2251.41 47.00
1934 44.6700 2159.00 2249.29 46.00
1935 44.6900 2208.00 2248.05 47.00
1936 44.7100 2143.00 2247.66 46.00
1937 44.7300 2154.00 2248.11 46.00
1938 44.7500 2102.00 2249.80 46.00
1939 44.7700 2133.00 2251.90 46.00
1940 44.7900 2140.00 2254.86 46.00
1941 44.8100 2117.00 2258.71 46.00
1942 44.8300 2194.00 2263.48 47.00
1943 44.8500 2175.00 2269.23 47.00
1944 44.8700 2194.00 2276.25 47.00
1945 44.8900 2137.00 2284.23 46.00
1946 44.9100 2194.00 2293.47 47.00
1947 44.9300 2237.00 2304.14 47.00
1948 44.9500 2220.00 2316.38 47.00
1949 44.9700 2301.00 2330.42 48.00
1950 44.9900 2386.00 2346.52 49.00
1951 45.0100 2275.00 2364.44 48.00
1952 45.0300 2384.00 2385.64 49.00
1953 45.0500 2410.00 2410.08 49.00
1954 45.0700 2401.00 2438.32 49.00
1955 45.0900 2456.00 2471.11 50.00
1956 45.1100 2486.00 2509.40 50.00
1957 45.1300 2529.00 2554.15 50.00
1958 45.1500 2553.00 2607.48 51.00
1959 45.1700 2681.00 2671.25 52.00
1960 45.1900 2847.00 2748.44 53.00
1961 45.2100 2910.00 2843.14 54.00
1962 45.2300 3047.00 2961.30 55.00
1963 45.2500 3153.00 3111.37 56.00
1964 45.2700 3365.00 3305.40 58.00
1965 45.2900 3824.00 3560.04 62.00
1966 45.3100 4107.00 3897.11 64.00
1967 45.3300 4716.00 4342.53 69.00
1968 45.3500 5376.00 4922.48 73.00
1969 45.3700 5905.00 5653.13 77.00
1970 45.3900 7010.00 6524.77 84.00
1971 45.4100 7982.00 7478.53 89.00
1972 45.4300 8478.00 8389.54 92.00
1973 45.4500 9315.00 9081.95 97.00
1974 45.4700 9358.00 9403.29 97.00
1975 45.4900 9570.00 9316.08 98.00
1976 45.5100 9248.00 8937.96 96.00
1977 45.5300 8914.00 8461.97 94.00
1978 45.5500 8597.00 8009.46 93.00
1979 45.5700 8099.00 7571.69 90.00
1980 45.5900 7493.00 7076.88 87.00
1981 45.6100 6944.00 6483.30 83.00
1982 45.6300 6230.00 5826.50 79.00
1983 45.6500 5490.00 5190.11 74.00
1984 45.6700 5084.00 4647.71 71.00
1985 45.6900 4568.00 4223.43 68.00
1986 45.7100 4193.00 3913.25 65.00
1987 45.7300 3884.00 3701.85 62.00
1988 45.7500 3766.00 3574.99 61.00
1989 45.7700 3626.00 3523.25 60.00
1990 45.7900 3651.00 3542.89 60.00
1991 45.8100 3797.00 3634.77 62.00
1992 45.8300 3970.00 3801.12 63.00
1993 45.8500 4089.00 4039.41 64.00
1994 45.8700 4452.00 4333.63 67.00
1995 45.8900 4815.00 4643.90 69.00
1996 45.9100 5155.00 4901.27 72.00
1997 45.9300 5196.00 5022.95 72.00
1998 45.9500 5104.00 4969.93 71.00
1999 45.9700 5029.00 4791.74 71.00
2000 45.9900 4658.00 4582.92 68.00
2001 46.0100 4604.00 4399.83 68.00
2002 46.0300 4356.00 4241.57 66.00
2003 46.0500 4186.00 4065.73 65.00
2004 46.0700 3956.00 3841.11 63.00
2005 46.0900 3672.00 3578.62 61.00
2006 46.1100 3472.00 3317.12 59.00
2007 46.1300 3130.00 3089.34 56.00
2008 46.1500 2923.00 2904.46 54.00
2009 46.1700 2888.00 2760.01 54.00
2010 46.1900 2702.00 2648.63 52.00
2011 46.2100 2587.00 2562.81 51.00
2012 46.2300 2585.00 2496.24 51.00
2013 46.2500 2541.00 2443.93 50.00
2014 46.2700 2395.00 2402.22 49.00
2015 46.2900 2345.00 2368.47 48.00
2016 46.3100 2330.00 2340.87 48.00
2017 46.3300 2357.00 2318.20 49.00
2018 46.3500 2237.00 2299.65 47.00
2019 46.3700 2268.00 2284.70 48.00
2020 46.3900 2292.00 2273.09 48.00
2021 46.4100 2221.00 2264.67 47.00
2022 46.4300 2228.00 2259.38 47.00
2023 46.4500 2195.00 2257.03 47.00
2024 46.4700 2266.00 2257.11 48.00
2025 46.4900 2268.00 2258.53 48.00
2026 46.5100 2319.00 2259.43 48.00
2027 46.5300 2353.00 2257.66 49.00
2028 46.5500 2149.00 2252.07 46.00
2029 46.5700 2183.00 2243.72 47.00
2030 46.5900 2303.00 2234.93 48.00
2031 46.6100 2195.00 2227.31 47.00
2032 46.6300 2308.00 2220.89 48.00
2033 46.6500 2142.00 2214.68 46.00
2034 46.6700 2211.00 2207.78 47.00
2035 46.6900 2246.00 2200.47 47.00
2036 46.7100 2154.00 2193.31 46.00
2037 46.7300 2205.00 2187.39 47.00
2038 46.7500 2211.00 2183.07 47.00
2039 46.7700 2235.00 2180.38 47.00
2040 46.7900 2168.00 2179.18 47.00
2041 46.8100 2216.00 2179.31 47.00
2042 46.8300 2187.00 2181.25 47.00
2043 46.8500 2203.00 2183.78 47.00
2044 46.8700 2271.00 2187.45 48.00
2045 46.8900 2224.00 2192.30 47.00
2046 46.9100 2319.00 2198.42 48.00
2047 46.9300 2125.00 2205.93 46.00
2048 46.9500 2192.00 2215.00 47.00
2049 46.9700 2191.00 2225.89 47.00
2050 46.9900 2224.00 2238.89 47.00
2051 47.0100 2324.00 2254.40 48.00
2052 47.0300 2318.00 2272.94 48.00
2053 47.0500 2339.00 2295.20 48.00
2054 47.0700 2485.00 2322.08 50.00
2055 47.0900 2457.00 2354.85 50.00
2056 47.1100 2470.00 2395.24 50.00
2057 47.1300 2584.00 2445.75 51.00
2058 47.1500 2720.00 2509.91 52.00
2059 47.1700 2806.00 2592.26 53.00
2060 47.1900 3015.00 2700.53 55.00
2061 47.2100 3181.00 2843.25 56.00
2062 47.2300 3558.00 3031.23 60.00
2063 47.2500 3877.00 3275.92 62.00
2064 47.2700 4335.00 3585.28 66.00
2065 47.2900 4818.00 3957.44 69.00
2066 47.3100 5212.00 4370.39 72.00
2067 47.3300 5767.00 4770.86 76.00
2068 47.3500 6078.00 5076.87 78.00
2069 47.3700 6240.00 5206.73 79.00
2070 47.3900 6319.00 5140.48 79.00
2071 47.4100 6191.00 4949.68 79.00
2072 47.4300 5987.00 4736.45 77.00
2073 47.4500 5593.00 4554.68 75.00
2074 47.4700 5330.00 4393.88 73.00
2075 47.4900 4956.00 4209.34 70.00
2076 47.5100 4585.00 3968.04 68.00
2077 47.5300 4213.00 3681.81 65.00
2078 47.5500 4025.00 3393.40 63.00
2079 47.5700 3595.00 3138.57 60.00
2080 47.5900 3266.00 2930.59 57.00
2081 47.6100 2908.00 2767.77 54.00
2082 47.6300 2774.00 2642.60 53.00
2083 47.6500 2716.00 2546.95 52.00
2084 47.6700 2489.00 2473.71 50.00
2085 47.6900 2492.00 2417.21 50.00
2086 47.7100 2468.00 2373.18 50.00
2087 47.7300 2365.00 2338.50 49.00
2088 47.7500 2316.00 2310.99 48.00
2089 47.7700 2292.00 2289.10 48.00
2090 47.7900 2384.00 2271.78 49.00
2091 47.8100 2342.00 2258.26 48.00
2092 47.8300 2253.00 2248.05 47.00
2093 47.8500 2208.00 2240.78 47.00
2094 47.8700 2301.00 2236.62 48.00
2095 47.8900 2315.00 2234.74 48.00
2096 47.9100 2335.00 2235.51 48.00
2097 47.9300 2340.00 2239.07 48.00
2098 47.9500 2293.00 2245.65 48.00
2099 47.9700 2319.00 2255.70 48.00
2100 47.9900 2309.00 2270.02 48.00
2101 48.0100 2289.00 2289.21 48.00
2102 48.0300 2385.00 2314.84 49.00
2103 48.0500 2408.00 2348.90 49.00
2104 48.0700 2456.00 2394.22 50.00
2105 48.0900 2629.00 2454.58 51.00
2106 48.1100 2756.00 2534.89 52.00
2107 48.1300 2735.00 2640.90 52.00
2108 48.1500 2981.00 2778.37 55.00
2109 48.1700 3215.00 2950.61 57.00
2110 48.1900 3523.00 3154.46 59.00
2111 48.2100 3654.00 3374.36 60.00
2112 48.2300 3928.00 3578.37 63.00
2113 48.2500 3970.00 3722.92 63.00
2114 48.2700 4028.00 3777.44 63.00
2115 48.2900 3857.00 3754.04 62.00
2116 48.3100 3762.00 3699.99 61.00
2117 48.3300 3736.00 3654.26 61.00
2118 48.3500 3713.00 3620.16 61.00
2119 48.3700 3593.00 3570.93 60.00
2120 48.3900 3454.00 3475.71 59.00
2121 48.4100 3268.00 3329.46 57.00
2122 48.4300 3015.00 3158.50 55.00
2123 48.4500 2991.00 2995.10 55.00
2124 48.4700 2814.00 2855.49 53.00
2125 48.4900 2765.00 2738.77 53.00
2126 48.5100 2678.00 2636.93 52.00
2127 48.5300 2526.00 2544.45 50.00
2128 48.5500 2468.00 2461.65 50.00
2129 48.5700 2373.00 2390.91 49.00
2130 48.5900 2381.00 2333.00 49.00
2131 48.6100 2312.00 2286.67 48.00
2132 48.6300 2256.00 2249.91 47.00
2133 48.6500 2258.00 2220.72 48.00
2134 48.6700 2329.00 2197.39 48.00
2135 48.6900 2164.00 2178.61 47.00
2136 48.7100 2166.00 2163.39 47.00
2137 48.7300 2176.00 2150.90 47.00
2138 48.7500 2121.00 2140.63 46.00
2139 48.7700 2149.00 2131.03 46.00
2140 48.7900 2098.00 2124.07 46.00
2141 48.8100 2074.00 2118.39 46.00
2142 48.8300 2122.00 2113.86 46.00
2143 48.8500 2115.00 2110.32 46.00
2144 48.8700 2132.00 2107.72 46.00
2145 48.8900 2070.00 2105.45 45.00
2146 48.9100 2109.00 2104.60 46.00
2147 48.9300 2045.00 2104.64 45.00
2148 48.9500 2102.00 2105.58 46.00
2149 48.9700 2089.00 2107.69 46.00
2150 48.9900 2101.00 2110.71 46.00
2151 49.0100 2094.00 2115.00 46.00
2152 49.0300 2145.00 2120.79 46.00
2153 49.0500 2103.00 2128.43 46.00
2154 49.0700 2139.00 2138.43 46.00
2155 49.0900 2176.00 2151.48 47.00
2156 49.1100 2228.00 2168.79 47.00
2157 49.1300 2170.00 2191.22 47.00
2158 49.1500 2198.00 2220.63 47.00
2159 49.1700 2193.00 2258.93 47.00
2160 49.1900 2320.00 2307.91 48.00
2161 49.2100 2387.00 2368.52 49.00
2162 49.2300 2351.00 2439.26 48.00
2163 49.2500 2478.00 2514.35 50.00
2164 49.2700 2575.00 2582.34 51.00
2165 49.2900 2615.00 2628.35 51.00
2166 49.3100 2615.00 2642.17 51.00
2167 49.3300 2589.00 2628.08 51.00
2168 49.3500 2646.00 2601.65 51.00
2169 49.3700 2576.00 2578.51 51.00
2170 49.3900 2553.00 2564.41 51.00
2171 49.4100 2514.00 2555.95 50.00
2172 49.4300 2558.00 2546.32 51.00
2173 49.4500 2487.00 2532.60 50.00
2174 49.4700 2604.00 2519.96 51.00
2175 49.4900 2454.00 2517.63 50.00
2176 49.5100 2538.00 2533.84 50.00
2177 49.5300 2549.00 2572.64 50.00
2178 49.5500 2686.00 2633.72 52.00
2179 49.5700 2804.00 2711.23 53.00
2180 49.5900 2896.00 2792.03 54.00
2181 49.6100 2878.00 2855.80 54.00
2182 49.6300 2964.00 2882.38 54.00
2183 49.6500 2952.00 2866.21 54.00
2184 49.6700 2937.00 2822.94 54.00
2185 49.6900 2798.00 2776.05 53.00
2186 49.7100 2906.00 2739.39 54.00
2187 49.7300 2786.00 2712.48 53.00
2188 49.7500 2791.00 2685.52 53.00
2189 49.7700 2657.00 2648.79 52.00
2190 49.7900 2726.00 2601.57 52.00
2191 49.8100 2647.00 2552.60 51.00
2192 49.8300 2491.00 2512.14 50.00
2193 49.8500 2508.00 2486.41 50.00
2194 49.8700 2520.00 2477.95 50.00
2195 49.8900 2621.00 2487.88 51.00
2196 49.9100 2611.00 2517.63 51.00
2197 49.9300 2680.00 2569.71 52.00
2198 49.9500 2808.00 2647.97 53.00
2199 49.9700 2984.00 2757.42 55.00
2200 49.9900 3056.00 2903.16 55.00
2201 50.0100 3262.00 3087.90 57.00
2202 50.0300 3440.00 3307.02 59.00
2203 50.0500 3727.00 3541.98 61.00
2204 50.0700 4052.00 3755.14 64.00
2205 50.0900 4195.00 3895.55 65.00
2206 50.1100 4309.00 3925.77 66.00
2207 50.1300 4122.00 3855.24 64.00
2208 50.1500 4110.00 3736.52 64.00
2209 50.1700 3968.00 3621.96 63.00
2210 50.1900 3892.00 3532.07 62.00
2211 50.2100 3635.00 3455.20 60.00
2212 50.2300 3538.00 3363.97 59.00
2213 50.2500 3508.00 3238.58 59.00
2214 50.2700 3309.00 3085.67 58.00
2215 50.2900 3192.00 2928.50 56.00
2216 50.3100 2934.00 2787.60 54.00
2217 50.3300 2792.00 2671.89 53.00
2218 50.3500 2736.00 2581.68 52.00
2219 50.3700 2495.00 2513.09 50.00
2220 50.3900 2506.00 2463.21 50.00
2221 50.4100 2477.00 2426.73 50.00
2222 50.4300 2441.00 2402.67 49.00
2223 50.4500 2361.00 2387.71 49.00
2224 50.4700 2384.00 2380.20 49.00
2225 50.4900 2413.00 2378.77 49.00
2226 50.5100 2463.00 2383.33 50.00
2227 50.5300 2413.00 2392.76 49.00
2228 50.5500 2572.00 2408.04 51.00
2229 50.5700 2608.00 2428.86 51.00
2230 50.5900 2549.00 2455.67 50.00
2231 50.6100 2559.00 2489.17 51.00
2232 50.6300 2632.00 2530.38 51.00
2233 50.6500 2660.00 2580.72 52.00
2234 50.6700 2703.00 2642.11 52.00
2235 50.6900 2785.00 2717.25 53.00
2236 50.7100 2869.00 2809.84 54.00
2237 50.7300 3191.00 2925.12 56.00
2238 50.7500 3224.00 3070.29 57.00
2239 50.7700 3390.00 3255.29 58.00
2240 50.7900 3603.00 3493.33 60.00
2241 50.8100 4007.00 3801.36 63.00
2242 50.8300 4396.00 4199.42 66.00
2243 50.8500 4884.00 4708.67 70.00
2244 50.8700 5718.00 5344.55 76.00
2245 50.8900 6373.00 6104.21 80.00
2246 50.9100 7146.00 6948.64 85.00
2247 50.9300 7965.00 7781.98 89.00
2248 50.9500 8534.00 8457.93 92.00
2249 50.9700 8957.00 8831.51 95.00
2250 50.9900 9177.00 8842.72 96.00
2251 51.0100 9097.00 8564.10 95.00
2252 51.0300 8883.00 8157.23 94.00
2253 51.0500 8447.00 7765.26 92.00
2254 51.0700 8042.00 7433.26 90.00
2255 51.0900 7643.00 7115.84 87.00
2256 51.1100 7134.00 6737.26 84.00
2257 51.1300 6490.00 6257.44 81.00
2258 51.1500 6335.00 5701.60 80.00
2259 51.1700 5539.00 5139.04 74.00
2260 51.1900 5089.00 4634.26 71.00
2261 51.2100 4630.00 4220.20 68.00
2262 51.2300 4244.00 3901.97 65.00
2263 51.2500 3807.00 3671.84 62.00
2264 51.2700 3743.00 3518.92 61.00
2265 51.2900 3691.00 3433.27 61.00
2266 51.3100 3499.00 3405.84 59.00
2267 51.3300 3597.00 3425.71 60.00
2268 51.3500 3522.00 3475.89 59.00
2269 51.3700 3652.00 3529.86 60.00
2270 51.3900 3657.00 3554.53 60.00
2271 51.4100 3626.00 3524.71 60.00
2272 51.4300 3567.00 3442.10 60.00
2273 51.4500 3422.00 3334.35 58.00
2274 51.4700 3265.00 3231.79 57.00
2275 51.4900 3164.00 3148.04 56.00
2276 51.5100 3241.00 3078.00 57.00
2277 51.5300 3091.00 3005.82 56.00
2278 51.5500 2999.00 2917.49 55.00
2279 51.5700 2842.00 2812.32 53.00
2280 51.5900 2742.00 2701.88 52.00
2281 51.6100 2688.00 2599.10 52.00
2282 51.6300 2629.00 2510.95 51.00
2283 51.6500 2411.00 2438.75 49.00
2284 51.6700 2457.00 2381.24 50.00
2285 51.6900 2353.00 2335.80 49.00
2286 51.7100 2254.00 2299.85 47.00
2287 51.7300 2422.00 2271.64 49.00
2288 51.7500 2316.00 2249.60 48.00
2289 51.7700 2399.00 2232.55 49.00
2290 51.7900 2265.00 2219.63 48.00
2291 51.8100 2245.00 2210.27 47.00
2292 51.8300 2325.00 2204.09 48.00
2293 51.8500 2208.00 2200.86 47.00
2294 51.8700 2246.00 2200.48 47.00
2295 51.8900 2237.00 2202.90 47.00
2296 51.9100 2198.00 2208.12 47.00
2297 51.9300 2178.00 2216.23 47.00
2298 51.9500 2289.00 2227.51 48.00
2299 51.9700 2295.00 2242.56 48.00
2300 51.9900 2277.00 2262.39 48.00
2301 52.0100 2339.00 2288.34 48.00
2302 52.0300 2369.00 2322.17 49.00
2303 52.0500 2387.00 2366.16 49.00
2304 52.0700 2353.00 2423.42 49.00
2305 52.0900 2401.00 2498.09 49.00
2306 52.1100 2475.00 2595.58 50.00
2307 52.1300 2747.00 2722.52 52.00
2308 52.1500 2783.00 2885.96 53.00
2309 52.1700 2978.00 3091.71 55.00
2310 52.1900 3176.00 3340.14 56.00
2311 52.2100 3491.00 3619.56 59.00
2312 52.2300 3788.00 3898.02 62.00
2313 52.2500 3901.00 4122.21 62.00
2314 52.2700 4132.00 4234.88 64.00
2315 52.2900 4138.00 4213.51 64.00
2316 52.3100 3835.00 4093.86 62.00
2317 52.3300 3732.00 3942.88 61.00
2318 52.3500 3561.00 3810.77 60.00
2319 52.3700 3482.00 3709.07 59.00
2320 52.3900 3459.00 3617.26 59.00
2321 52.4100 3457.00 3502.51 59.00
2322 52.4300 3341.00 3345.66 58.00
2323 52.4500 3100.00 3156.21 56.00
2324 52.4700 2985.00 2960.53 55.00
2325 52.4900 2743.00 2782.97 52.00
2326 52.5100 2648.00 2633.14 51.00
2327 52.5300 2515.00 2511.78 50.00
2328 52.5500 2291.00 2415.33 48.00
2329 52.5700 2353.00 2339.18 49.00
2330 52.5900 2270.00 2279.01 48.00
2331 52.6100 2230.00 2230.90 47.00
2332 52.6300 2161.00 2192.44 46.00
2333 52.6500 2126.00 2161.16 46.00
2334 52.6700 2091.00 2135.39 46.00
2335 52.6900 2073.00 2113.90 46.00
2336 52.7100 2029.00 2095.78 45.00
2337 52.7300 2070.00 2080.39 45.00
2338 52.7500 2090.00 2067.25 46.00
2339 52.7700 1968.00 2055.92 44.00
2340 52.7900 2016.00 2046.14 45.00
2341 52.8100 1965.00 2037.68 44.00
2342 52.8300 2018.00 2030.36 45.00
2343 52.8500 1934.00 2024.05 44.00
2344 52.8700 1925.00 2018.62 44.00
2345 52.8900 1971.00 2013.98 44.00
2346 52.9100 1974.00 2010.08 44.00
2347 52.9300 2018.00 2006.84 45.00
2348 52.9500 1934.00 2004.23 44.00
2349 52.9700 1949.00 2002.23 44.00
2350 52.9900 1943.00 2000.80 44.00
2351 53.0100 1969.00 1999.96 44.00
2352 53.0300 1925.00 1999.70 44.00
2353 53.0500 1956.00 2000.04 44.00
2354 53.0700 1959.00 2001.01 44.00
2355 53.0900 1895.00 2002.64 44.00
2356 53.1100 2009.00 2004.99 45.00
2357 53.1300 1948.00 2008.14 44.00
2358 53.1500 1972.00 2012.18 44.00
2359 53.1700 1957.00 2017.23 44.00
2360 53.1900 1927.00 2023.46 44.00
2361 53.2100 1987.00 2031.02 45.00
2362 53.2300 1974.00 2040.20 44.00
2363 53.2500 1983.00 2051.29 45.00
2364 53.2700 2041.00 2064.73 45.00
2365 53.2900 2024.00 2081.09 45.00
2366 53.3100 2041.00 2101.27 45.00
2367 53.3300 2060.00 2126.05 45.00
2368 53.3500 2084.00 2157.00 46.00
2369 53.3700 2171.00 2196.06 47.00
2370 53.3900 2207.00 2245.86 47.00
2371 53.4100 2199.00 2309.71 47.00
2372 53.4300 2373.00 2391.72 49.00
2373 53.4500 2474.00 2496.67 50.00
2374 53.4700 2614.00 2628.80 51.00
2375 53.4900 2820.00 2790.51 53.00
2376 53.5100 3004.00 2978.43 55.00
2377 53.5300 3095.00 3177.52 56.00
2378 53.5500 3420.00 3357.89 58.00
2379 53.5700 3455.00 3479.19 59.00
2380 53.5900 3595.00 3511.03 60.00
2381 53.6100 3521.00 3458.54 59.00
2382 53.6300 3516.00 3359.99 59.00
2383 53.6500 3320.00 3258.80 58.00
2384 53.6700 3258.00 3178.03 57.00
2385 53.6900 3120.00 3115.57 56.00
2386 53.7100 3019.00 3052.35 55.00
2387 53.7300 2969.00 2967.03 54.00
2388 53.7500 2843.00 2852.34 53.00
2389 53.7700 2741.00 2719.55 52.00
2390 53.7900 2568.00 2587.36 51.00
2391 53.8100 2466.00 2469.22 50.00
2392 53.8300 2307.00 2370.34 48.00
2393 53.8500 2216.00 2290.37 47.00
2394 53.8700 2112.00 2226.76 46.00
2395 53.8900 2085.00 2176.44 46.00
2396 53.9100 2089.00 2136.63 46.00
2397 53.9300 2105.00 2104.96 46.00
2398 53.9500 1977.00 2079.55 44.00
2399 53.9700 2029.00 2058.98 45.00
2400 53.9900 1983.00 2042.18 45.00
2401 54.0100 1958.00 2028.34 44.00
2402 54.0300 1945.00 2016.88 44.00
2403 54.0500 1821.00 2007.37 43.00
2404 54.0700 1917.00 1999.48 44.00
2405 54.0900 1885.00 1992.99 43.00
2406 54.1100 1916.00 1987.70 44.00
2407 54.1300 1870.00 1983.48 43.00
2408 54.1500 1834.00 1980.25 43.00
2409 54.1700 1898.00 1977.94 44.00
2410 54.1900 1828.00 1976.50 43.00
2411 54.2100 1848.00 1975.94 43.00
2412 54.2300 1813.00 1976.28 43.00
2413 54.2500 1835.00 1977.55 43.00
2414 54.2700 1919.00 1979.87 44.00
2415 54.2900 1900.00 1983.38 44.00
2416 54.3100 1897.00 1988.27 44.00
2417 54.3300 1943.00 1994.83 44.00
2418 54.3500 1892.00 2003.52 43.00
2419 54.3700 1926.00 2014.58 44.00
2420 54.3900 1947.00 2028.65 44.00
2421 54.4100 1893.00 2046.24 44.00
2422 54.4300 1967.00 2067.72 44.00
2423 54.4500 1962.00 2092.95 44.00
2424 54.4700 1942.00 2120.78 44.00
2425 54.4900 1931.00 2149.06 44.00
2426 54.5100 2047.00 2173.77 45.00
2427 54.5300 2052.00 2192.51 45.00
2428 54.5500 2122.00 2205.59 46.00
2429 54.5700 2123.00 2216.55 46.00
2430 54.5900 2083.00 2230.28 46.00
2431 54.6100 2102.00 2250.91 46.00
2432 54.6300 2209.00 2281.06 47.00
2433 54.6500 2131.00 2321.70 46.00
2434 54.6700 2312.00 2373.66 48.00
2435 54.6900 2354.00 2439.08 49.00
2436 54.7100 2367.00 2521.09 49.00
2437 54.7300 2573.00 2623.06 51.00
2438 54.7500 2752.00 2744.42 52.00
2439 54.7700 2834.00 2876.81 53.00
2440 54.7900 2962.00 3000.83 54.00
2441 54.8100 3080.00 3089.02 55.00
2442 54.8300 3136.00 3119.13 56.00
2443 54.8500 3049.00 3091.47 55.00
2444 54.8700 2979.00 3029.22 55.00
2445 54.8900 2886.00 2963.40 54.00
2446 54.9100 2874.00 2912.70 54.00
2447 54.9300 2911.00 2879.32 54.00
2448 54.9500 2942.00 2852.50 54.00
2449 54.9700 2818.00 2817.32 53.00
2450 54.9900 2890.00 2766.22 54.00
2451 55.0100 2642.00 2704.42 51.00
2452 55.0300 2607.00 2645.76 51.00
2453 55.0500 2643.00 2603.42 51.00
2454 55.0700 2536.00 2585.59 50.00
2455 55.0900 2507.00 2596.45 50.00
2456 55.1100 2599.00 2638.04 51.00
2457 55.1300 2574.00 2711.31 51.00
2458 55.1500 2775.00 2814.33 53.00
2459 55.1700 2804.00 2939.54 53.00
2460 55.1900 2866.00 3069.69 54.00
2461 55.2100 2950.00 3176.99 54.00
2462 55.2300 3019.00 3231.38 55.00
2463 55.2500 2845.00 3218.66 53.00
2464 55.2700 2768.00 3152.91 53.00
2465 55.2900 2775.00 3066.28 53.00
2466 55.3100 2677.00 2986.96 52.00
2467 55.3300 2701.00 2926.17 52.00
2468 55.3500 2635.00 2878.28 51.00
2469 55.3700 2662.00 2827.52 52.00
2470 55.3900 2455.00 2758.90 50.00
2471 55.4100 2547.00 2668.87 50.00
2472 55.4300 2365.00 2567.05 49.00
2473 55.4500 2416.00 2466.78 49.00
2474 55.4700 2239.00 2377.68 47.00
2475 55.4900 2189.00 2302.97 47.00
2476 55.5100 2156.00 2243.24 46.00
2477 55.5300 2200.00 2196.31 47.00
2478 55.5500 2074.00 2160.00 46.00
2479 55.5700 2072.00 2132.34 46.00
2480 55.5900 1958.00 2111.73 44.00
2481 55.6100 1975.00 2096.74 44.00
2482 55.6300 1904.00 2086.27 44.00
2483 55.6500 1973.00 2080.05 44.00
2484 55.6700 2064.00 2077.42 45.00
2485 55.6900 2043.00 2078.15 45.00
2486 55.7100 1961.00 2082.16 44.00
2487 55.7300 2024.00 2089.71 45.00
2488 55.7500 2036.00 2100.72 45.00
2489 55.7700 2086.00 2115.78 46.00
2490 55.7900 2099.00 2135.54 46.00
2491 55.8100 2041.00 2160.93 45.00
2492 55.8300 2124.00 2193.28 46.00
2493 55.8500 2222.00 2234.38 47.00
2494 55.8700 2270.00 2286.68 48.00
2495 55.8900 2271.00 2353.49 48.00
2496 55.9100 2368.00 2438.74 49.00
2497 55.9300 2566.00 2547.54 51.00
2498 55.9500 2630.00 2685.60 51.00
2499 55.9700 2927.00 2858.48 54.00
2500 55.9900 3016.00 3069.55 55.00
2501 56.0100 3294.00 3316.14 57.00
2502 56.0300 3473.00 3583.39 59.00
2503 56.0500 3853.00 3839.34 62.00
2504 56.0700 3973.00 4037.18 63.00
2505 56.0900 4112.00 4133.23 64.00
2506 56.1100 4112.00 4114.53 64.00
2507 56.1300 3980.00 4011.54 63.00
2508 56.1500 3807.00 3877.54 62.00
2509 56.1700 3821.00 3754.70 62.00
2510 56.1900 3643.00 3657.38 60.00
2511 56.2100 3507.00 3574.43 59.00
2512 56.2300 3427.00 3481.23 59.00
2513 56.2500 3298.00 3356.17 57.00
2514 56.2700 3341.00 3195.59 58.00
2515 56.2900 3174.00 3015.20 56.00
2516 56.3100 2818.00 2836.79 53.00
2517 56.3300 2568.00 2675.65 51.00
2518 56.3500 2504.00 2537.74 50.00
2519 56.3700 2320.00 2423.26 48.00
2520 56.3900 2278.00 2329.82 48.00
2521 56.4100 2133.00 2254.35 46.00
2522 56.4300 2123.00 2192.74 46.00
2523 56.4500 2066.00 2143.43 45.00
2524 56.4700 1992.00 2102.40 45.00
2525 56.4900 1951.00 2069.48 44.00
2526 56.5100 1993.00 2042.20 45.00
2527 56.5300 1887.00 2019.39 43.00
2528 56.5500 1921.00 2000.15 44.00
2529 56.5700 1832.00 1983.60 43.00
2530 56.5900 1870.00 1969.64 43.00
2531 56.6100 1915.00 1957.23 44.00
2532 56.6300 1847.00 1946.98 43.00
2533 56.6500 1821.00 1938.21 43.00
2534 56.6700 1829.00 1930.76 43.00
2535 56.6900 1869.00 1924.52 43.00
2536 56.7100 1776.00 1919.40 42.00
2537 56.7300 1873.00 1915.38 43.00
2538 56.7500 1888.00 1912.47 43.00
2539 56.7700 1940.00 1910.73 44.00
2540 56.7900 1881.00 1910.28 43.00
2541 56.8100 1919.00 1911.30 44.00
2542 56.8300 1810.00 1914.00 43.00
2543 56.8500 1821.00 1918.67 43.00
2544 56.8700 1894.00 1925.59 44.00
2545 56.8900 1843.00 1934.94 43.00
2546 56.9100 1848.00 1946.60 43.00
2547 56.9300 1923.00 1959.54 44.00
2548 56.9500 1875.00 1972.51 43.00
2549 56.9700 1981.00 1982.57 45.00
2550 56.9900 1887.00 1987.16 43.00
2551 57.0100 1887.00 1985.44 43.00
2552 57.0300 1961.00 1979.12 44.00
2553 57.0500 1975.00 1971.25 44.00
2554 57.0700 1874.00 1964.25 43.00
2555 57.0900 1932.00 1959.38 44.00
2556 57.1100 1902.00 1956.03 44.00
2557 57.1300 1907.00 1952.77 44.00
2558 57.1500 1904.00 1948.22 44.00
2559 57.1700 1908.00 1941.93 44.00
2560 57.1900 1868.00 1934.68 43.00
2561 57.2100 1860.00 1927.80 43.00
2562 57.2300 1913.00 1922.32 44.00
2563 57.2500 1897.00 1918.79 44.00
2564 57.2700 1909.00 1917.35 44.00
2565 57.2900 1909.00 1917.98 44.00
2566 57.3100 1877.00 1920.66 43.00
2567 57.3300 1917.00 1925.32 44.00
2568 57.3500 1848.00 1932.06 43.00
2569 57.3700 1932.00 1940.98 44.00
2570 57.3900 1895.00 1952.34 44.00
2571 57.4100 1928.00 1966.64 44.00
2572 57.4300 1977.00 1984.25 44.00
2573 57.4500 1983.00 2006.05 45.00
2574 57.4700 2087.00 2033.11 46.00
2575 57.4900 2048.00 2066.87 45.00
2576 57.5100 2051.00 2109.25 45.00
2577 57.5300 2252.00 2162.64 47.00
2578 57.5500 2298.00 2230.19 48.00
2579 57.5700 2305.00 2314.95 48.00
2580 57.5900 2395.00 2420.67 49.00
2581 57.6100 2574.00 2550.10 51.00
2582 57.6300 2779.00 2702.86 53.00
2583 57.6500 2928.00 2872.77 54.00
2584 57.6700 3219.00 3044.04 57.00
2585 57.6900 3257.00 3190.65 57.00
2586 57.7100 3412.00 3283.22 58.00
2587 57.7300 3500.00 3303.72 59.00
2588 57.7500 3420.00 3258.08 58.00
2589 57.7700 3254.00 3174.20 57.00
2590 57.7900 3342.00 3084.48 58.00
2591 57.8100 3088.00 3009.16 56.00
2592 57.8300 3016.00 2950.96 55.00
2593 57.8500 2953.00 2898.77 54.00
2594 57.8700 2928.00 2836.18 54.00
2595 57.8900 2938.00 2751.17 54.00
2596 57.9100 2914.00 2645.18 54.00
2597 57.9300 2566.00 2528.75 51.00
2598 57.9500 2471.00 2415.24 50.00
2599 57.9700 2284.00 2313.65 48.00
2600 57.9900 2232.00 2227.51 47.00
2601 58.0100 2254.00 2156.59 47.00
2602 58.0300 2191.00 2098.78 47.00
2603 58.0500 1960.00 2052.31 44.00
2604 58.0700 1906.00 2014.79 44.00
2605 58.0900 1936.00 1984.37 44.00
2606 58.1100 1884.00 1959.53 43.00
2607 58.1300 1937.00 1939.08 44.00
2608 58.1500 1931.00 1922.11 44.00
2609 58.1700 1797.00 1907.91 42.00
2610 58.1900 1870.00 1895.96 43.00
2611 58.2100 1819.00 1885.85 43.00
2612 58.2300 1857.00 1877.30 43.00
2613 58.2500 1726.00 1870.05 42.00
2614 58.2700 1775.00 1863.96 42.00
2615 58.2900 1808.00 1858.89 43.00
2616 58.3100 1762.00 1854.75 42.00
2617 58.3300 1794.00 1851.50 42.00
2618 58.3500 1824.00 1849.09 43.00
2619 58.3700 1889.00 1847.54 43.00
2620 58.3900 1817.00 1846.91 43.00
2621 58.4100 1773.00 1847.24 42.00
2622 58.4300 1812.00 1848.66 43.00
2623 58.4500 1836.00 1851.35 43.00
2624 58.4700 1823.00 1855.51 43.00
2625 58.4900 1815.00 1861.39 43.00
2626 58.5100 1903.00 1869.24 44.00
2627 58.5300 1919.00 1879.23 44.00
2628 58.5500 1939.00 1891.52 44.00
2629 58.5700 1870.00 1905.29 43.00
2630 58.5900 1969.00 1919.48 44.00
2631 58.6100 1972.00 1932.56 44.00
2632 58.6300 1984.00 1942.77 45.00
2633 58.6500 2091.00 1949.00 46.00
2634 58.6700 2042.00 1951.67 45.00
2635 58.6900 1952.00 1952.82 44.00
2636 58.7100 2056.00 1955.10 45.00
2637 58.7300 2073.00 1960.59 46.00
2638 58.7500 2001.00 1970.31 45.00
2639 58.7700 2043.00 1984.40 45.00
2640 58.7900 2116.00 2002.38 46.00
2641 58.8100 2096.00 2023.86 46.00
2642 58.8300 2175.00 2048.42 47.00
2643 58.8500 2239.00 2075.02 47.00
2644 58.8700 2264.00 2100.89 48.00
2645 58.8900 2168.00 2121.10 47.00
2646 58.9100 2230.00 2130.39 47.00
2647 58.9300 2185.00 2126.69 47.00
2648 58.9500 2193.00 2112.72 47.00
2649 58.9700 2132.00 2094.26 46.00
2650 58.9900 2100.00 2076.52 46.00
2651 59.0100 2051.00 2062.31 45.00
2652 59.0300 2066.00 2051.57 45.00
2653 59.0500 2066.00 2042.02 45.00
2654 59.0700 2032.00 2030.53 45.00
2655 59.0900 2095.00 2015.23 46.00
2656 59.1100 1990.00 1996.65 45.00
2657 59.1300 2045.00 1976.98 45.00
2658 59.1500 1966.00 1958.51 44.00
2659 59.1700 2030.00 1942.80 45.00
2660 59.1900 1911.00 1930.61 44.00
2661 59.2100 1881.00 1922.15 43.00
2662 59.2300 1873.00 1917.37 43.00
2663 59.2500 1903.00 1916.07 44.00
2664 59.2700 2015.00 1918.09 45.00
2665 59.2900 1957.00 1923.34 44.00
2666 59.3100 1910.00 1931.79 44.00
2667 59.3300 1896.00 1943.15 44.00
2668 59.3500 1940.00 1958.19 44.00
2669 59.3700 1939.00 1976.45 44.00
2670 59.3900 1962.00 1997.63 44.00
2671 59.4100 1950.00 2021.26 44.00
2672 59.4300 2080.00 2046.99 46.00
2673 59.4500 2051.00 2075.27 45.00
2674 59.4700 2132.00 2107.66 46.00
2675 59.4900 2164.00 2146.68 47.00
2676 59.5100 2239.00 2195.97 47.00
2677 59.5300 2245.00 2258.80 47.00
2678 59.5500 2342.00 2338.50 48.00
2679 59.5700 2505.00 2438.47 50.00
2680 59.5900 2683.00 2561.85 52.00
2681 59.6100 2738.00 2710.87 52.00
2682 59.6300 2998.00 2884.86 55.00
2683 59.6500 3183.00 3076.90 56.00
2684 59.6700 3335.00 3270.53 58.00
2685 59.6900 3348.00 3440.12 58.00
2686 59.7100 3336.00 3559.63 58.00
2687 59.7300 3470.00 3614.57 59.00
2688 59.7500 3429.00 3607.28 59.00
2689 59.7700 3327.00 3552.28 58.00
2690 59.7900 3207.00 3469.88 57.00
2691 59.8100 3366.00 3380.66 58.00
2692 59.8300 3230.00 3297.54 57.00
2693 59.8500 3311.00 3220.84 58.00
2694 59.8700 3164.00 3141.49 56.00
2695 59.8900 3067.00 3049.86 55.00
2696 59.9100 2817.00 2942.02 53.00
2697 59.9300 2695.00 2820.09 52.00
2698 59.9500 2728.00 2690.27 52.00
2699 59.9700 2574.00 2561.25 51.00
2700 59.9900 2396.00 2441.41 49.00
2701 60.0100 2333.00 2336.11 48.00
2702 60.0300 2324.00 2247.16 48.00
2703 60.0500 2163.00 2173.70 47.00
2704 60.0700 2101.00 2113.76 46.00
2705 60.0900 2131.00 2065.06 46.00
2706 60.1100 2085.00 2025.53 46.00
2707 60.1300 2045.00 1993.32 45.00
2708 60.1500 2040.00 1966.99 45.00
2709 60.1700 2046.00 1945.37 45.00
2710 60.1900 1930.00 1927.56 44.00
2711 60.2100 1906.00 1912.85 44.00
2712 60.2300 1893.00 1900.71 44.00
2713 60.2500 1880.00 1890.75 43.00
2714 60.2700 1896.00 1882.64 44.00
2715 60.2900 1905.00 1876.17 44.00
2716 60.3100 1938.00 1871.14 44.00
2717 60.3300 1941.00 1867.45 44.00
2718 60.3500 1839.00 1865.02 43.00
2719 60.3700 1887.00 1863.72 43.00
2720 60.3900 1853.00 1863.59 43.00
2721 60.4100 1875.00 1864.61 43.00
2722 60.4300 1979.00 1866.82 44.00
2723 60.4500 1839.00 1870.26 43.00
2724 60.4700 1983.00 1875.02 45.00
2725 60.4900 1920.00 1881.23 44.00
2726 60.5100 1886.00 1889.10 43.00
2727 60.5300 1915.00 1898.72 44.00
2728 60.5500 1933.00 1910.50 44.00
2729 60.5700 1933.00 1924.76 44.00
2730 60.5900 2020.00 1942.05 45.00
2731 60.6100 1899.00 1963.02 44.00
2732 60.6300 1972.00 1988.55 44.00
2733 60.6500 2066.00 2019.79 45.00
2734 60.6700 2026.00 2058.24 45.00
2735 60.6900 2071.00 2105.69 46.00
2736 60.7100 2185.00 2164.15 47.00
2737 60.7300 2235.00 2236.78 47.00
2738 60.7500 2329.00 2326.16 48.00
2739 60.7700 2420.00 2434.80 49.00
2740 60.7900 2541.00 2563.71 50.00
2741 60.8100 2614.00 2710.32 51.00
2742 60.8300 2847.00 2865.43 53.00
2743 60.8500 2812.00 3010.96 53.00
2744 60.8700 2936.00 3123.08 54.00
2745 60.8900 3060.00 3182.04 55.00
2746 60.9100 2959.00 3183.28 54.00
2747 60.9300 2989.00 3141.78 55.00
2748 60.9500 2946.00 3082.93 54.00
2749 60.9700 2934.00 3029.70 54.00
2750 60.9900 2811.00 2994.46 53.00
2751 61.0100 2800.00 2977.37 53.00
2752 61.0300 2876.00 2969.43 54.00
2753 61.0500 2798.00 2958.73 53.00
2754 61.0700 2827.00 2938.36 53.00
2755 61.0900 2870.00 2911.19 54.00
2756 61.1100 2847.00 2888.29 53.00
2757 61.1300 2841.00 2883.21 53.00
2758 61.1500 2901.00 2907.12 54.00
2759 61.1700 2929.00 2966.56 54.00
2760 61.1900 3164.00 3064.18 56.00
2761 61.2100 3149.00 3195.91 56.00
2762 61.2300 3313.00 3349.94 58.00
2763 61.2500 3327.00 3504.79 58.00
2764 61.2700 3566.00 3633.13 60.00
2765 61.2900 3474.00 3711.27 59.00
2766 61.3100 3521.00 3728.96 59.00
2767 61.3300 3513.00 3690.78 59.00
2768 61.3500 3309.00 3612.36 58.00
2769 61.3700 3322.00 3514.43 58.00
2770 61.3900 3427.00 3416.46 59.00
2771 61.4100 3255.00 3328.66 57.00
2772 61.4300 3229.00 3248.86 57.00
2773 61.4500 3270.00 3167.01 57.00
2774 61.4700 3037.00 3073.38 55.00
2775 61.4900 2935.00 2964.11 54.00
2776 61.5100 2736.00 2840.50 52.00
2777 61.5300 2734.00 2709.18 52.00
2778 61.5500 2627.00 2578.68 51.00
2779 61.5700 2549.00 2457.41 50.00
2780 61.5900 2406.00 2350.72 49.00
2781 61.6100 2344.00 2260.26 48.00
2782 61.6300 2209.00 2185.34 47.00
2783 61.6500 2201.00 2124.15 47.00
2784 61.6700 2122.00 2074.53 46.00
2785 61.6900 2076.00 2034.49 46.00
2786 61.7100 2018.00 2002.35 45.00
2787 61.7300 2137.00 1976.67 46.00
2788 61.7500 2025.00 1956.32 45.00
2789 61.7700 2035.00 1940.40 45.00
2790 61.7900 1891.00 1928.28 43.00
2791 61.8100 2042.00 1919.57 45.00
2792 61.8300 1930.00 1914.09 44.00
2793 61.8500 1929.00 1911.94 44.00
2794 61.8700 2066.00 1913.37 45.00
2795 61.8900 1953.00 1918.77 44.00
2796 61.9100 1971.00 1928.68 44.00
2797 61.9300 2007.00 1943.75 45.00
2798 61.9500 2034.00 1964.83 45.00
2799 61.9700 2099.00 1992.85 46.00
2800 61.9900 2118.00 2028.77 46.00
2801 62.0100 2178.00 2073.14 47.00
2802 62.0300 2240.00 2125.43 47.00
2803 62.0500 2217.00 2182.79 47.00
2804 62.0700 2335.00 2239.04 48.00
2805 62.0900 2259.00 2284.82 48.00
2806 62.1100 2320.00 2310.60 48.00
2807 62.1300 2321.00 2313.48 48.00
2808 62.1500 2403.00 2297.84 49.00
2809 62.1700 2325.00 2274.18 48.00
2810 62.1900 2409.00 2252.88 49.00
2811 62.2100 2372.00 2240.21 49.00
2812 62.2300 2352.00 2237.66 48.00
2813 62.2500 2233.00 2242.73 47.00
2814 62.2700 2285.00 2250.92 48.00
2815 62.2900 2259.00 2258.32 48.00
2816 62.3100 2295.00 2265.14 48.00
2817 62.3300 2290.00 2275.21 48.00
2818 62.3500 2225.00 2294.05 47.00
2819 62.3700 2299.00 2325.55 48.00
2820 62.3900 2346.00 2369.66 48.00
2821 62.4100 2410.00 2421.09 49.00
2822 62.4300 2383.00 2468.97 49.00
2823 62.4500 2379.00 2499.37 49.00
2824 62.4700 2439.00 2501.21 49.00
2825 62.4900 2336.00 2473.73 48.00
2826 62.5100 2495.00 2426.85 50.00
2827 62.5300 2274.00 2374.77 48.00
2828 62.5500 2207.00 2328.63 47.00
2829 62.5700 2187.00 2293.19 47.00
2830 62.5900 2127.00 2266.91 46.00
2831 62.6100 2203.00 2243.63 47.00
2832 62.6300 2179.00 2215.49 47.00
2833 62.6500 2102.00 2177.23 46.00
2834 62.6700 2094.00 2129.01 46.00
2835 62.6900 2155.00 2075.61 46.00
2836 62.7100 2014.00 2022.87 45.00
2837 62.7300 1977.00 1975.01 44.00
2838 62.7500 1940.00 1933.86 44.00
2839 62.7700 1853.00 1899.73 43.00
2840 62.7900 1861.00 1872.06 43.00
2841 62.8100 1850.00 1850.06 43.00
2842 62.8300 1918.00 1832.90 44.00
2843 62.8500 1791.00 1819.87 42.00
2844 62.8700 1847.00 1810.43 43.00
2845 62.8900 1803.00 1804.14 42.00
2846 62.9100 1799.00 1800.75 42.00
2847 62.9300 1746.00 1800.15 42.00
2848 62.9500 1851.00 1802.37 43.00
2849 62.9700 1834.00 1807.61 43.00
2850 62.9900 1861.00 1816.20 43.00
2851 63.0100 1873.00 1828.67 43.00
2852 63.0300 1922.00 1845.74 44.00
2853 63.0500 1821.00 1868.33 43.00
2854 63.0700 1995.00 1897.51 45.00
2855 63.0900 1940.00 1934.47 44.00
2856 63.1100 2074.00 1980.32 46.00
2857 63.1300 2012.00 2035.65 45.00
2858 63.1500 2018.00 2099.61 45.00
2859 63.1700 2207.00 2168.64 47.00
2860 63.1900 2316.00 2235.11 48.00
2861 63.2100 2368.00 2287.87 49.00
2862 63.2300 2518.00 2315.82 50.00
2863 63.2500 2499.00 2314.26 50.00
2864 63.2700 2474.00 2288.41 50.00
2865 63.2900 2391.00 2250.18 49.00
2866 63.3100 2194.00 2211.55 47.00
2867 63.3300 2227.00 2179.85 47.00
2868 63.3500 2168.00 2156.70 47.00
2869 63.3700 2231.00 2138.83 47.00
2870 63.3900 2213.00 2120.11 47.00
2871 63.4100 2217.00 2093.95 47.00
2872 63.4300 2189.00 2057.84 47.00
2873 63.4500 2103.00 2013.84 46.00
2874 63.4700 2135.00 1966.95 46.00
2875 63.4900 1923.00 1921.90 44.00
2876 63.5100 1850.00 1881.59 43.00
2877 63.5300 1800.00 1847.06 42.00
2878 63.5500 1820.00 1818.25 43.00
2879 63.5700 1816.00 1794.61 43.00
2880 63.5900 1880.00 1775.39 43.00
2881 63.6100 1809.00 1759.88 43.00
2882 63.6300 1767.00 1747.43 42.00
2883 63.6500 1776.00 1737.51 42.00
2884 63.6700 1695.00 1729.70 41.00
2885 63.6900 1763.00 1723.70 42.00
2886 63.7100 1763.00 1719.22 42.00
2887 63.7300 1817.00 1716.01 43.00
2888 63.7500 1752.00 1714.00 42.00
2889 63.7700 1653.00 1713.11 41.00
2890 63.7900 1712.00 1713.31 41.00
2891 63.8100 1709.00 1714.60 41.00
2892 63.8300 1691.00 1717.02 41.00
2893 63.8500 1758.00 1720.66 42.00
2894 63.8700 1722.00 1725.65 41.00
2895 63.8900 1787.00 1732.15 42.00
2896 63.9100 1773.00 1740.31 42.00
2897 63.9300 1820.00 1750.31 43.00
2898 63.9500 1809.00 1762.91 43.00
2899 63.9700 1774.00 1778.18 42.00
2900 63.9900 1798.00 1796.40 42.00
2901 64.0100 1872.00 1817.69 43.00
2902 64.0300 1847.00 1841.79 43.00
2903 64.0500 1857.00 1867.92 43.00
2904 64.0700 1795.00 1894.72 42.00
2905 64.0900 1982.00 1920.91 45.00
2906 64.1100 1962.00 1945.80 44.00
2907 64.1300 2022.00 1970.80 45.00
2908 64.1500 2048.00 1998.62 45.00
2909 64.1700 2157.00 2032.89 46.00
2910 64.1900 2033.00 2077.06 45.00
2911 64.2100 2147.00 2133.92 46.00
2912 64.2300 2199.00 2205.52 47.00
2913 64.2500 2411.00 2292.88 49.00
2914 64.2700 2483.00 2395.90 50.00
2915 64.2900 2577.00 2512.35 51.00
2916 64.3100 2662.00 2637.05 52.00
2917 64.3300 2884.00 2760.29 54.00
2918 64.3500 2847.00 2868.83 53.00
2919 64.3700 2877.00 2948.91 54.00
2920 64.3900 2970.00 2990.13 54.00
2921 64.4100 2915.00 2988.86 54.00
2922 64.4300 2837.00 2950.48 53.00
2923 64.4500 2800.00 2888.85 53.00
2924 64.4700 2904.00 2821.00 54.00
2925 64.4900 2812.00 2759.47 53.00
2926 64.5100 2673.00 2708.55 52.00
2927 64.5300 2743.00 2664.89 52.00
2928 64.5500 2540.00 2621.43 50.00
2929 64.5700 2542.00 2571.27 50.00
2930 64.5900 2500.00 2510.29 50.00
2931 64.6100 2351.00 2438.83 48.00
2932 64.6300 2434.00 2361.71 49.00
2933 64.6500 2311.00 2285.83 48.00
2934 64.6700 2317.00 2216.50 48.00
2935 64.6900 2149.00 2155.68 46.00
2936 64.7100 2107.00 2102.23 46.00
2937 64.7300 2198.00 2053.79 47.00
2938 64.7500 2138.00 2008.74 46.00
2939 64.7700 2144.00 1967.03 46.00
2940 64.7900 1967.00 1929.74 44.00
2941 64.8100 2114.00 1897.87 46.00
2942 64.8300 1975.00 1871.73 44.00
2943 64.8500 2001.00 1850.71 45.00
2944 64.8700 1991.00 1833.52 45.00
2945 64.8900 1886.00 1818.47 43.00
2946 64.9100 2058.00 1803.98 45.00
2947 64.9300 1915.00 1789.27 44.00
2948 64.9500 1921.00 1774.48 44.00
2949 64.9700 1846.00 1760.37 43.00
2950 64.9900 1756.00 1747.78 42.00
2951 65.0100 1881.00 1737.20 43.00
2952 65.0300 1838.00 1728.84 43.00
2953 65.0500 1672.00 1722.66 41.00
2954 65.0700 1679.00 1718.60 41.00
2955 65.0900 1736.00 1716.57 42.00
2956 65.1100 1662.00 1716.56 41.00
2957 65.1300 1684.00 1718.49 41.00
2958 65.1500 1708.00 1722.47 41.00
2959 65.1700 1800.00 1728.68 42.00
2960 65.1900 1706.00 1737.34 41.00
2961 65.2100 1720.00 1748.85 41.00
2962 65.2300 1713.00 1763.72 41.00
2963 65.2500 1685.00 1782.55 41.00
2964 65.2700 1811.00 1806.33 43.00
2965 65.2900 1814.00 1836.08 43.00
2966 65.3100 1835.00 1873.18 43.00
2967 65.3300 1958.00 1918.93 44.00
2968 65.3500 1929.00 1974.93 44.00
2969 65.3700 1972.00 2042.56 44.00
2970 65.3900 2102.00 2122.17 46.00
2971 65.4100 2140.00 2212.27 46.00
2972 65.4300 2247.00 2307.72 47.00
2973 65.4500 2351.00 2399.08 48.00
2974 65.4700 2380.00 2472.99 49.00
2975 65.4900 2474.00 2516.93 50.00
2976 65.5100 2563.00 2525.14 51.00
2977 65.5300 2468.00 2502.13 50.00
2978 65.5500 2363.00 2460.22 49.00
2979 65.5700 2354.00 2413.39 49.00
2980 65.5900 2332.00 2371.80 48.00
2981 65.6100 2294.00 2339.74 48.00
2982 65.6300 2316.00 2315.68 48.00
2983 65.6500 2246.00 2293.91 47.00
2984 65.6700 2274.00 2267.30 48.00
2985 65.6900 2177.00 2231.05 47.00
2986 65.7100 2159.00 2185.10 46.00
2987 65.7300 2156.00 2133.74 46.00
2988 65.7500 2114.00 2082.97 46.00
2989 65.7700 2037.00 2037.96 45.00
2990 65.7900 2017.00 2001.92 45.00
2991 65.8100 1954.00 1976.14 44.00
2992 65.8300 2001.00 1960.45 45.00
2993 65.8500 1916.00 1953.20 44.00
2994 65.8700 1918.00 1951.24 44.00
2995 65.8900 1930.00 1950.00 44.00
2996 65.9100 1909.00 1944.50 44.00
2997 65.9300 1894.00 1931.48 44.00
2998 65.9500 1860.00 1911.00 43.00
2999 65.9700 1900.00 1886.18 44.00
3000 65.9900 1893.00 1861.19 44.00
3001 66.0100 1866.00 1839.22 43.00
3002 66.0300 1835.00 1821.70 43.00
3003 66.0500 1807.00 1808.24 43.00
3004 66.0700 1837.00 1797.07 43.00
3005 66.0900 1767.00 1785.73 42.00
3006 66.1100 1783.00 1772.14 42.00
3007 66.1300 1768.00 1755.65 42.00
3008 66.1500 1799.00 1737.02 42.00
3009 66.1700 1768.00 1718.69 42.00
3010 66.1900 1650.00 1702.02 41.00
3011 66.2100 1747.00 1687.83 42.00
3012 66.2300 1725.00 1676.86 42.00
3013 66.2500 1657.00 1668.73 41.00
3014 66.2700 1751.00 1662.81 42.00
3015 66.2900 1604.00 1658.14 40.00
3016 66.3100 1716.00 1653.46 41.00
3017 66.3300 1598.00 1647.64 40.00
3018 66.3500 1637.00 1640.58 40.00
3019 66.3700 1607.00 1632.54 40.00
3020 66.3900 1591.00 1624.25 40.00
3021 66.4100 1645.00 1616.68 41.00
3022 66.4300 1651.00 1610.19 41.00
3023 66.4500 1630.00 1604.82 40.00
3024 66.4700 1625.00 1600.27 40.00
3025 66.4900 1622.00 1596.15 40.00
3026 66.5100 1628.00 1591.64 40.00
3027 66.5300 1557.00 1586.61 39.00
3028 66.5500 1552.00 1580.95 39.00
3029 66.5700 1619.00 1575.06 40.00
3030 66.5900 1575.00 1569.31 40.00
3031 66.6100 1647.00 1563.98 41.00
3032 66.6300 1545.00 1559.21 39.00
3033 66.6500 1568.00 1555.02 40.00
3034 66.6700 1534.00 1551.37 39.00
3035 66.6900 1583.00 1548.19 40.00
3036 66.7100 1526.00 1545.43 39.00
3037 66.7300 1503.00 1543.02 39.00
3038 66.7500 1578.00 1540.92 40.00
3039 66.7700 1577.00 1539.06 40.00
3040 66.7900 1557.00 1537.42 39.00
3041 66.8100 1575.00 1535.98 40.00
3042 66.8300 1537.00 1534.69 39.00
3043 66.8500 1538.00 1533.56 39.00
3044 66.8700 1592.00 1532.57 40.00
3045 66.8900 1566.00 1531.69 40.00
3046 66.9100 1569.00 1530.91 40.00
3047 66.9300 1579.00 1530.24 40.00
3048 66.9500 1586.00 1529.67 40.00
3049 66.9700 1542.00 1529.19 39.00
3050 66.9900 1538.00 1528.81 39.00
3051 67.0100 1557.00 1528.53 39.00
3052 67.0300 1537.00 1528.33 39.00
3053 67.0500 1556.00 1528.23 39.00
3054 67.0700 1586.00 1528.23 40.00
3055 67.0900 1575.00 1528.32 40.00
3056 67.1100 1582.00 1528.53 40.00
3057 67.1300 1563.00 1528.84 40.00
3058 67.1500 1545.00 1529.27 39.00
3059 67.1700 1612.00 1529.82 40.00
3060 67.1900 1513.00 1530.52 39.00
3061 67.2100 1561.00 1531.37 40.00
3062 67.2300 1674.00 1532.38 41.00
3063 67.2500 1571.00 1533.57 40.00
3064 67.2700 1626.00 1534.96 40.00
3065 67.2900 1617.00 1536.58 40.00
3066 67.3100 1573.00 1538.46 40.00
3067 67.3300 1556.00 1540.64 39.00
3068 67.3500 1581.00 1543.17 40.00
3069 67.3700 1578.00 1546.10 40.00
3070 67.3900 1634.00 1549.53 40.00
3071 67.4100 1669.00 1553.51 41.00
3072 67.4300 1596.00 1558.18 40.00
3073 67.4500 1594.00 1563.46 40.00
3074 67.4700 1654.00 1569.97 41.00
3075 67.4900 1692.00 1577.62 41.00
3076 67.5100 1640.00 1586.88 40.00
3077 67.5300 1628.00 1597.95 40.00
3078 67.5500 1654.00 1611.22 41.00
3079 67.5700 1669.00 1627.05 41.00
3080 67.5900 1746.00 1645.82 42.00
3081 67.6100 1778.00 1667.70 42.00
3082 67.6300 1766.00 1692.37 42.00
3083 67.6500 1852.00 1719.12 43.00
3084 67.6700 1789.00 1745.76 42.00
3085 67.6900 1848.00 1769.23 43.00
3086 67.7100 1864.00 1786.08 43.00
3087 67.7300 1783.00 1794.27 42.00
3088 67.7500 1763.00 1794.41 42.00
3089 67.7700 1839.00 1789.59 43.00
3090 67.7900 1804.00 1783.77 42.00
3091 67.8100 1782.00 1780.22 42.00
3092 67.8300 1860.00 1780.75 43.00
3093 67.8500 1819.00 1785.77 43.00
3094 67.8700 1855.00 1794.51 43.00
3095 67.8900 1903.00 1805.26 44.00
3096 67.9100 1843.00 1817.25 43.00
3097 67.9300 1874.00 1829.93 43.00
3098 67.9500 1993.00 1844.55 45.00
3099 67.9700 1837.00 1863.10 43.00
3100 67.9900 1963.00 1888.19 44.00
3101 68.0100 1946.00 1921.00 44.00
3102 68.0300 2005.00 1961.53 45.00
3103 68.0500 2006.00 2007.97 45.00
3104 68.0700 2049.00 2056.43 45.00
3105 68.0900 2087.00 2101.26 46.00
3106 68.1100 2142.00 2136.43 46.00
3107 68.1300 2088.00 2156.48 46.00
3108 68.1500 2070.00 2158.61 45.00
3109 68.1700 2092.00 2144.44 46.00
3110 68.1900 2043.00 2119.35 45.00
3111 68.2100 2141.00 2090.56 46.00
3112 68.2300 2081.00 2064.10 46.00
3113 68.2500 2109.00 2042.99 46.00
3114 68.2700 2156.00 2027.06 46.00
3115 68.2900 2048.00 2013.95 45.00
3116 68.3100 1951.00 2000.31 44.00
3117 68.3300 1986.00 1983.19 45.00
3118 68.3500 1918.00 1961.14 44.00
3119 68.3700 1949.00 1934.87 44.00
3120 68.3900 1923.00 1907.02 44.00
3121 68.4100 1962.00 1880.80 44.00
3122 68.4300 1870.00 1858.89 43.00
3123 68.4500 1869.00 1842.88 43.00
3124 68.4700 1853.00 1833.35 43.00
3125 68.4900 1809.00 1830.15 43.00
3126 68.5100 1838.00 1832.65 43.00
3127 68.5300 1813.00 1839.92 43.00
3128 68.5500 1895.00 1851.08 44.00
3129 68.5700 1764.00 1865.66 42.00
3130 68.5900 1797.00 1884.08 42.00
3131 68.6100 1937.00 1907.63 44.00
3132 68.6300 1849.00 1938.31 43.00
3133 68.6500 1912.00 1978.29 44.00
3134 68.6700 1946.00 2029.73 44.00
3135 68.6900 2016.00 2094.43 45.00
3136 68.7100 2110.00 2173.76 46.00
3137 68.7300 2183.00 2268.00 47.00
3138 68.7500 2363.00 2375.57 49.00
3139 68.7700 2348.00 2492.01 48.00
3140 68.7900 2434.00 2608.79 49.00
3141 68.8100 2525.00 2713.57 50.00
3142 68.8300 2601.00 2792.68 51.00
3143 68.8500 2601.00 2836.32 51.00
3144 68.8700 2652.00 2841.40 51.00
3145 68.8900 2578.00 2812.61 51.00
3146 68.9100 2513.00 2760.76 50.00
3147 68.9300 2586.00 2699.21 51.00
3148 68.9500 2468.00 2640.03 50.00
3149 68.9700 2517.00 2590.18 50.00
3150 68.9900 2457.00 2550.19 50.00
3151 69.0100 2398.00 2515.33 49.00
3152 69.0300 2311.00 2478.56 48.00
3153 69.0500 2330.00 2434.05 48.00
3154 69.0700 2265.00 2379.26 48.00
3155 69.0900 2225.00 2315.26 47.00
3156 69.1100 2224.00 2246.06 47.00
3157 69.1300 2144.00 2176.82 46.00
3158 69.1500 2105.00 2112.01 46.00
3159 69.1700 1991.00 2053.82 45.00
3160 69.1900 1985.00 2002.19 45.00
3161 69.2100 2007.00 1955.55 45.00
3162 69.2300 1938.00 1912.09 44.00
3163 69.2500 2024.00 1871.52 45.00
3164 69.2700 1811.00 1834.14 43.00
3165 69.2900 1835.00 1800.90 43.00
3166 69.3100 1775.00 1772.40 42.00
3167 69.3300 1762.00 1748.78 42.00
3168 69.3500 1710.00 1729.50 41.00
3169 69.3700 1746.00 1713.55 42.00
3170 69.3900 1729.00 1699.60 42.00
3171 69.4100 1747.00 1686.29 42.00
3172 69.4300 1652.00 1672.96 41.00
3173 69.4500 1769.00 1659.42 42.00
3174 69.4700 1704.00 1646.16 41.00
3175 69.4900 1667.00 1633.85 41.00
3176 69.5100 1706.00 1623.03 41.00
3177 69.5300 1727.00 1614.00 42.00
3178 69.5500 1625.00 1606.87 40.00
3179 69.5700 1574.00 1601.62 40.00
3180 69.5900 1641.00 1598.24 41.00
3181 69.6100 1598.00 1596.69 40.00
3182 69.6300 1637.00 1596.98 40.00
3183 69.6500 1641.00 1599.20 41.00
3184 69.6700 1591.00 1603.49 40.00
3185 69.6900 1680.00 1610.08 41.00
3186 69.7100 1700.00 1619.28 41.00
3187 69.7300 1663.00 1631.52 41.00
3188 69.7500 1613.00 1647.28 40.00
3189 69.7700 1629.00 1667.18 40.00
3190 69.7900 1642.00 1691.85 41.00
3191 69.8100 1696.00 1721.96 41.00
3192 69.8300 1758.00 1757.85 42.00
3193 69.8500 1724.00 1799.22 42.00
3194 69.8700 1763.00 1844.74 42.00
3195 69.8900 1830.00 1891.15 43.00
3196 69.9100 1837.00 1933.09 43.00
3197 69.9300 1977.00 1963.93 44.00
3198 69.9500 1942.00 1978.27 44.00
3199 69.9700 1975.00 1974.74 44.00
3200 69.9900 1878.00 1957.02 43.00
3201 70.0100 1932.00 1931.79 44.00
3202 70.0300 1888.00 1905.63 43.00
3203 70.0500 1673.00 1882.94 41.00
3204 70.0700 1830.00 1865.47 43.00
3205 70.0900 1861.00 1852.39 43.00
3206 70.1100 1816.00 1841.49 43.00
3207 70.1300 1748.00 1828.87 42.00
3208 70.1500 1791.00 1811.37 42.00
3209 70.1700 1858.00 1787.69 43.00
3210 70.1900 1769.00 1758.96 42.00
3211 70.2100 1763.00 1727.85 42.00
3212 70.2300 1763.00 1697.03 42.00
3213 70.2500 1666.00 1668.41 41.00
3214 70.2700 1658.00 1642.90 41.00
3215 70.2900 1658.00 1620.71 41.00
3216 70.3100 1589.00 1601.84 40.00
3217 70.3300 1684.00 1585.97 41.00
3218 70.3500 1570.00 1572.75 40.00
3219 70.3700 1684.00 1561.81 41.00
3220 70.3900 1554.00 1552.85 39.00
3221 70.4100 1585.00 1545.56 40.00
3222 70.4300 1556.00 1539.71 39.00
3223 70.4500 1508.00 1535.10 39.00
3224 70.4700 1508.00 1531.58 39.00
3225 70.4900 1489.00 1529.02 39.00
3226 70.5100 1605.00 1527.35 40.00
3227 70.5300 1565.00 1526.53 40.00
3228 70.5500 1552.00 1526.49 39.00
3229 70.5700 1600.00 1527.24 40.00
3230 70.5900 1574.00 1528.80 40.00
3231 70.6100 1601.00 1531.21 40.00
3232 70.6300 1564.00 1534.53 40.00
3233 70.6500 1502.00 1538.84 39.00
3234 70.6700 1532.00 1544.27 39.00
3235 70.6900 1628.00 1550.97 40.00
3236 70.7100 1661.00 1559.01 41.00
3237 70.7300 1625.00 1568.62 40.00
3238 70.7500 1535.00 1580.03 39.00
3239 70.7700 1677.00 1593.40 41.00
3240 70.7900 1668.00 1609.15 41.00
3241 70.8100 1688.00 1627.82 41.00
3242 70.8300 1706.00 1650.10 41.00
3243 70.8500 1685.00 1676.81 41.00
3244 70.8700 1691.00 1708.82 41.00
3245 70.8900 1786.00 1746.82 42.00
3246 70.9100 1828.00 1791.27 43.00
3247 70.9300 1810.00 1841.77 43.00
3248 70.9500 1958.00 1896.73 44.00
3249 70.9700 1946.00 1952.65 44.00
3250 70.9900 2030.00 2004.38 45.00
3251 71.0100 1951.00 2045.87 44.00
3252 71.0300 1961.00 2072.34 44.00
3253 71.0500 2023.00 2082.15 45.00
3254 71.0700 1990.00 2077.12 45.00
3255 71.0900 1969.00 2061.93 44.00
3256 71.1100 1936.00 2042.53 44.00
3257 71.1300 1917.00 2024.49 44.00
3258 71.1500 1932.00 2011.66 44.00
3259 71.1700 1982.00 2005.44 45.00
3260 71.1900 2007.00 2004.85 45.00
3261 71.2100 2014.00 2007.45 45.00
3262 71.2300 2026.00 2010.66 45.00
3263 71.2500 1953.00 2012.91 44.00
3264 71.2700 1981.00 2014.05 45.00
3265 71.2900 1959.00 2014.93 44.00
3266 71.3100 1880.00 2016.31 43.00
3267 71.3300 1976.00 2017.80 44.00
3268 71.3500 2016.00 2017.08 45.00
3269 71.3700 2043.00 2010.89 45.00
3270 71.3900 1931.00 1995.99 44.00
3271 71.4100 1963.00 1971.26 44.00
3272 71.4300 1987.00 1939.33 45.00
3273 71.4500 1854.00 1904.19 43.00
3274 71.4700 1835.00 1870.31 43.00
3275 71.4900 1835.00 1840.80 43.00
3276 71.5100 1811.00 1816.95 43.00
3277 71.5300 1806.00 1798.21 42.00
3278 71.5500 1769.00 1782.52 42.00
3279 71.5700 1737.00 1767.24 42.00
3280 71.5900 1682.00 1749.65 41.00
3281 71.6100 1661.00 1728.20 41.00
3282 71.6300 1713.00 1703.20 41.00
3283 71.6500 1703.00 1676.12 41.00
3284 71.6700 1635.00 1648.88 40.00
3285 71.6900 1683.00 1623.15 41.00
3286 71.7100 1519.00 1599.91 39.00
3287 71.7300 1613.00 1579.53 40.00
3288 71.7500 1503.00 1562.01 39.00
3289 71.7700 1549.00 1547.09 39.00
3290 71.7900 1596.00 1534.54 40.00
3291 71.8100 1578.00 1524.01 40.00
3292 71.8300 1501.00 1515.24 39.00
3293 71.8500 1542.00 1507.99 39.00
3294 71.8700 1432.00 1502.07 38.00
3295 71.8900 1510.00 1497.33 39.00
3296 71.9100 1512.00 1493.67 39.00
3297 71.9300 1522.00 1491.02 39.00
3298 71.9500 1505.00 1489.37 39.00
3299 71.9700 1471.00 1488.69 38.00
3300 71.9900 1510.00 1489.05 39.00
3301 72.0100 1481.00 1490.51 38.00
3302 72.0300 1444.00 1493.15 38.00
3303 72.0500 1483.00 1497.06 39.00
3304 72.0700 1447.00 1502.31 38.00
3305 72.0900 1481.00 1508.88 38.00
3306 72.1100 1433.00 1516.59 38.00
3307 72.1300 1469.00 1525.04 38.00
3308 72.1500 1531.00 1533.49 39.00
3309 72.1700 1544.00 1541.02 39.00
3310 72.1900 1519.00 1546.72 39.00
3311 72.2100 1549.00 1550.02 39.00
3312 72.2300 1455.00 1550.76 38.00
3313 72.2500 1474.00 1549.14 38.00
3314 72.2700 1487.00 1545.59 39.00
3315 72.2900 1508.00 1540.74 39.00
3316 72.3100 1525.00 1535.38 39.00
3317 72.3300 1511.00 1530.14 39.00
3318 72.3500 1479.00 1525.39 38.00
3319 72.3700 1518.00 1521.11 39.00
3320 72.3900 1453.00 1516.98 38.00
3321 72.4100 1429.00 1512.64 38.00
3322 72.4300 1480.00 1507.82 38.00
3323 72.4500 1530.00 1502.41 39.00
3324 72.4700 1442.00 1496.52 38.00
3325 72.4900 1439.00 1490.17 38.00
3326 72.5100 1507.00 1483.74 39.00
3327 72.5300 1462.00 1477.48 38.00
3328 72.5500 1456.00 1471.73 38.00
3329 72.5700 1448.00 1466.71 38.00
3330 72.5900 1455.00 1462.52 38.00
3331 72.6100 1370.00 1459.05 37.00
3332 72.6300 1509.00 1456.44 39.00
3333 72.6500 1420.00 1454.67 38.00
3334 72.6700 1500.00 1453.62 39.00
3335 72.6900 1416.00 1453.27 38.00
3336 72.7100 1446.00 1453.59 38.00
3337 72.7300 1428.00 1454.59 38.00
3338 72.7500 1404.00 1456.30 37.00
3339 72.7700 1477.00 1458.73 38.00
3340 72.7900 1402.00 1461.92 37.00
3341 72.8100 1411.00 1465.83 38.00
3342 72.8300 1488.00 1470.56 39.00
3343 72.8500 1443.00 1475.90 38.00
3344 72.8700 1468.00 1481.79 38.00
3345 72.8900 1459.00 1487.93 38.00
3346 72.9100 1412.00 1494.10 38.00
3347 72.9300 1525.00 1500.26 39.00
3348 72.9500 1454.00 1506.66 38.00
3349 72.9700 1533.00 1513.75 39.00
3350 72.9900 1488.00 1522.18 39.00
3351 73.0100 1546.00 1532.59 39.00
3352 73.0300 1578.00 1545.58 40.00
3353 73.0500 1586.00 1561.67 40.00
3354 73.0700 1536.00 1581.26 39.00
3355 73.0900 1595.00 1604.51 40.00
3356 73.1100 1724.00 1631.47 42.00
3357 73.1300 1593.00 1661.60 40.00
3358 73.1500 1652.00 1693.58 41.00
3359 73.1700 1743.00 1725.04 42.00
3360 73.1900 1688.00 1752.40 41.00
3361 73.2100 1724.00 1771.52 42.00
3362 73.2300 1679.00 1779.19 41.00
3363 73.2500 1813.00 1774.79 43.00
3364 73.2700 1704.00 1760.79 41.00
3365 73.2900 1762.00 1741.54 42.00
3366 73.3100 1747.00 1721.41 42.00
3367 73.3300 1759.00 1703.70 42.00
3368 73.3500 1646.00 1689.86 41.00
3369 73.3700 1679.00 1679.86 41.00
3370 73.3900 1669.00 1672.33 41.00
3371 73.4100 1690.00 1664.98 41.00
3372 73.4300 1674.00 1655.43 41.00
3373 73.4500 1619.00 1641.83 40.00
3374 73.4700 1631.00 1624.07 40.00
3375 73.4900 1575.00 1603.34 40.00
3376 73.5100 1553.00 1581.50 39.00
3377 73.5300 1545.00 1560.24 39.00
3378 73.5500 1572.00 1540.70 40.00
3379 73.5700 1501.00 1523.42 39.00
3380 73.5900 1497.00 1508.51 39.00
3381 73.6100 1499.00 1495.87 39.00
3382 73.6300 1524.00 1485.27 39.00
3383 73.6500 1496.00 1476.45 39.00
3384 73.6700 1403.00 1469.16 37.00
3385 73.6900 1444.00 1463.20 38.00
3386 73.7100 1460.00 1458.37 38.00
3387 73.7300 1415.00 1454.52 38.00
3388 73.7500 1450.00 1451.53 38.00
3389 73.7700 1396.00 1449.30 37.00
3390 73.7900 1457.00 1447.77 38.00
3391 73.8100 1499.00 1446.89 39.00
3392 73.8300 1481.00 1446.62 38.00
3393 73.8500 1456.00 1446.96 38.00
3394 73.8700 1432.00 1447.92 38.00
3395 73.8900 1465.00 1449.52 38.00
3396 73.9100 1497.00 1451.80 39.00
3397 73.9300 1413.00 1454.84 38.00
3398 73.9500 1392.00 1458.72 37.00
3399 73.9700 1493.00 1463.56 39.00
3400 73.9900 1465.00 1469.52 38.00
3401 74.0100 1466.00 1476.76 38.00
3402 74.0300 1499.00 1485.52 39.00
3403 74.0500 1547.00 1496.04 39.00
3404 74.0700 1554.00 1508.60 39.00
3405 74.0900 1553.00 1523.52 39.00
3406 74.1100 1517.00 1541.04 39.00
3407 74.1300 1568.00 1561.34 40.00
3408 74.1500 1568.00 1584.29 40.00
3409 74.1700 1535.00 1609.37 39.00
3410 74.1900 1619.00 1635.32 40.00
3411 74.2100 1604.00 1660.15 40.00
3412 74.2300 1630.00 1681.38 40.00
3413 74.2500 1615.00 1696.76 40.00
3414 74.2700 1675.00 1705.29 41.00
3415 74.2900 1732.00 1707.81 42.00
3416 74.3100 1719.00 1706.74 41.00
3417 74.3300 1712.00 1705.18 41.00
3418 74.3500 1675.00 1705.92 41.00
3419 74.3700 1725.00 1710.92 42.00
3420 74.3900 1646.00 1721.16 41.00
3421 74.4100 1668.00 1736.79 41.00
3422 74.4300 1714.00 1757.25 41.00
3423 74.4500 1775.00 1781.65 42.00
3424 74.4700 1746.00 1809.11 42.00
3425 74.4900 1794.00 1839.22 42.00
3426 74.5100 1888.00 1871.84 43.00
3427 74.5300 1855.00 1906.50 43.00
3428 74.5500 1901.00 1941.81 44.00
3429 74.5700 1951.00 1974.64 44.00
3430 74.5900 1999.00 2000.75 45.00
3431 74.6100 1989.00 2015.91 45.00
3432 74.6300 1891.00 2017.59 43.00
3433 74.6500 1968.00 2005.80 44.00
3434 74.6700 1929.00 1983.13 44.00
3435 74.6900 1941.00 1954.07 44.00
3436 74.7100 1852.00 1923.51 43.00
3437 74.7300 1854.00 1895.45 43.00
3438 74.7500 1834.00 1872.12 43.00
3439 74.7700 1783.00 1853.63 42.00
3440 74.7900 1788.00 1838.39 42.00
3441 74.8100 1848.00 1823.80 43.00
3442 74.8300 1787.00 1807.27 42.00
3443 74.8500 1791.00 1787.02 42.00
3444 74.8700 1798.00 1762.60 42.00
3445 74.8900 1688.00 1734.90 41.00
3446 74.9100 1705.00 1705.69 41.00
3447 74.9300 1686.00 1677.01 41.00
3448 74.9500 1675.00 1650.51 41.00
3449 74.9700 1638.00 1627.09 40.00
3450 74.9900 1692.00 1606.82 41.00
3451 75.0100 1580.00 1589.09 40.00
3452 75.0300 1560.00 1572.98 39.00
3453 75.0500 1596.00 1557.62 40.00
3454 75.0700 1546.00 1542.57 39.00
3455 75.0900 1531.00 1527.86 39.00
3456 75.1100 1525.00 1513.92 39.00
3457 75.1300 1494.00 1501.17 39.00
3458 75.1500 1448.00 1490.13 38.00
3459 75.1700 1522.00 1480.74 39.00
3460 75.1900 1475.00 1472.94 38.00
3461 75.2100 1493.00 1466.44 39.00
3462 75.2300 1458.00 1460.72 38.00
3463 75.2500 1437.00 1455.32 38.00
3464 75.2700 1474.00 1449.85 38.00
3465 75.2900 1465.00 1444.13 38.00
3466 75.3100 1459.00 1438.27 38.00
3467 75.3300 1408.00 1432.55 38.00
3468 75.3500 1467.00 1427.25 38.00
3469 75.3700 1381.00 1422.69 37.00
3470 75.3900 1406.00 1418.99 37.00
3471 75.4100 1477.00 1416.27 38.00
3472 75.4300 1415.00 1414.57 38.00
3473 75.4500 1406.00 1413.94 37.00
3474 75.4700 1404.00 1414.41 37.00
3475 75.4900 1454.00 1416.04 38.00
3476 75.5100 1407.00 1418.84 38.00
3477 75.5300 1435.00 1422.82 38.00
3478 75.5500 1458.00 1427.84 38.00
3479 75.5700 1516.00 1433.73 39.00
3480 75.5900 1389.00 1439.93 37.00
3481 75.6100 1465.00 1445.57 38.00
3482 75.6300 1451.00 1449.84 38.00
3483 75.6500 1479.00 1451.75 38.00
3484 75.6700 1441.00 1450.84 38.00
3485 75.6900 1438.00 1447.38 38.00
3486 75.7100 1440.00 1442.19 38.00
3487 75.7300 1415.00 1436.31 38.00
3488 75.7500 1420.00 1430.67 38.00
3489 75.7700 1481.00 1425.79 38.00
3490 75.7900 1474.00 1421.94 38.00
3491 75.8100 1392.00 1418.98 37.00
3492 75.8300 1427.00 1416.49 38.00
3493 75.8500 1455.00 1414.01 38.00
3494 75.8700 1416.00 1410.95 38.00
3495 75.8900 1371.00 1406.97 37.00
3496 75.9100 1396.00 1402.05 37.00
3497 75.9300 1421.00 1396.51 38.00
3498 75.9500 1424.00 1390.80 38.00
3499 75.9700 1390.00 1385.25 37.00
3500 75.9900 1434.00 1380.20 38.00
3501 76.0100 1391.00 1375.74 37.00
3502 76.0300 1340.00 1371.93 37.00
3503 76.0500 1428.00 1368.80 38.00
3504 76.0700 1333.00 1366.28 37.00
3505 76.0900 1333.00 1364.39 37.00
3506 76.1100 1412.00 1363.08 38.00
3507 76.1300 1343.00 1362.33 37.00
3508 76.1500 1434.00 1362.15 38.00
3509 76.1700 1386.00 1362.55 37.00
3510 76.1900 1385.00 1363.54 37.00
3511 76.2100 1383.00 1365.15 37.00
3512 76.2300 1345.00 1367.38 37.00
3513 76.2500 1382.00 1370.18 37.00
3514 76.2700 1373.00 1373.46 37.00
3515 76.2900 1380.00 1376.98 37.00
3516 76.3100 1344.00 1380.36 37.00
3517 76.3300 1358.00 1383.10 37.00
3518 76.3500 1367.00 1384.69 37.00
3519 76.3700 1372.00 1384.82 37.00
3520 76.3900 1398.00 1383.34 37.00
3521 76.4100 1492.00 1380.99 39.00
3522 76.4300 1333.00 1378.11 37.00
3523 76.4500 1354.00 1375.08 37.00
3524 76.4700 1301.00 1372.51 36.00
3525 76.4900 1346.00 1370.45 37.00
3526 76.5100 1392.00 1368.88 37.00
3527 76.5300 1307.00 1367.63 36.00
3528 76.5500 1397.00 1366.45 37.00
3529 76.5700 1355.00 1365.06 37.00
3530 76.5900 1352.00 1363.21 37.00
3531 76.6100 1352.00 1360.77 37.00
3532 76.6300 1306.00 1358.01 36.00
3533 76.6500 1393.00 1355.06 37.00
3534 76.6700 1384.00 1352.08 37.00
3535 76.6900 1325.00 1349.37 36.00
3536 76.7100 1316.00 1346.96 36.00
3537 76.7300 1359.00 1344.89 37.00
3538 76.7500 1332.00 1343.17 36.00
3539 76.7700 1426.00 1341.77 38.00
3540 76.7900 1341.00 1340.72 37.00
3541 76.8100 1338.00 1339.97 37.00
3542 76.8300 1417.00 1339.45 38.00
3543 76.8500 1363.00 1339.19 37.00
3544 76.8700 1355.00 1339.25 37.00
3545 76.8900 1340.00 1339.50 37.00
3546 76.9100 1375.00 1340.01 37.00
3547 76.9300 1444.00 1340.77 38.00
3548 76.9500 1365.00 1341.82 37.00
3549 76.9700 1406.00 1343.15 37.00
3550 76.9900 1362.00 1344.79 37.00
3551 77.0100 1383.00 1346.79 37.00
3552 77.0300 1407.00 1349.16 38.00
3553 77.0500 1380.00 1351.95 37.00
3554 77.0700 1366.00 1355.22 37.00
3555 77.0900 1437.00 1359.03 38.00
3556 77.1100 1324.00 1363.36 36.00
3557 77.1300 1350.00 1368.33 37.00
3558 77.1500 1483.00 1373.88 39.00
3559 77.1700 1330.00 1380.13 36.00
3560 77.1900 1461.00 1387.19 38.00
3561 77.2100 1396.00 1395.25 37.00
3562 77.2300 1399.00 1404.58 37.00
3563 77.2500 1456.00 1415.46 38.00
3564 77.2700 1374.00 1428.22 37.00
3565 77.2900 1462.00 1443.09 38.00
3566 77.3100 1475.00 1460.19 38.00
3567 77.3300 1494.00 1479.39 39.00
3568 77.3500 1481.00 1500.16 38.00
3569 77.3700 1558.00 1521.53 39.00
3570 77.3900 1570.00 1541.93 40.00
3571 77.4100 1595.00 1559.53 40.00
3572 77.4300 1599.00 1572.57 40.00
3573 77.4500 1543.00 1579.94 39.00
3574 77.4700 1521.00 1581.50 39.00
3575 77.4900 1591.00 1578.18 40.00
3576 77.5100 1539.00 1571.72 39.00
3577 77.5300 1571.00 1564.22 40.00
3578 77.5500 1564.00 1557.56 40.00
3579 77.5700 1527.00 1553.02 39.00
3580 77.5900 1512.00 1551.13 39.00
3581 77.6100 1506.00 1551.73 39.00
3582 77.6300 1526.00 1554.11 39.00
3583 77.6500 1536.00 1557.22 39.00
3584 77.6700 1540.00 1560.31 39.00
3585 77.6900 1476.00 1562.54 38.00
3586 77.7100 1539.00 1563.46 39.00
3587 77.7300 1560.00 1562.73 39.00
3588 77.7500 1566.00 1560.00 40.00
3589 77.7700 1630.00 1554.81 40.00
3590 77.7900 1559.00 1546.81 39.00
3591 77.8100 1606.00 1536.08 40.00
3592 77.8300 1456.00 1523.35 38.00
3593 77.8500 1531.00 1509.80 39.00
3594 77.8700 1583.00 1496.65 40.00
3595 77.8900 1607.00 1485.01 40.00
3596 77.9100 1604.00 1475.42 40.00
3597 77.9300 1493.00 1468.04 39.00
3598 77.9500 1547.00 1462.64 39.00
3599 77.9700 1484.00 1458.57 39.00
3600 77.9900 1501.00 1455.13 39.00
3601 78.0100 1461.00 1451.57 38.00
3602 78.0300 1490.00 1447.34 39.00
3603 78.0500 1415.00 1442.32 38.00
3604 78.0700 1497.00 1436.82 39.00
3605 78.0900 1486.00 1431.36 39.00
3606 78.1100 1444.00 1426.53 38.00
3607 78.1300 1526.00 1422.75 39.00
3608 78.1500 1560.00 1420.32 39.00
3609 78.1700 1458.00 1419.42 38.00
3610 78.1900 1457.00 1420.17 38.00
3611 78.2100 1457.00 1422.66 38.00
3612 78.2300 1485.00 1426.99 39.00
3613 78.2500 1478.00 1433.27 38.00
3614 78.2700 1489.00 1441.69 39.00
3615 78.2900 1498.00 1452.42 39.00
3616 78.3100 1605.00 1465.66 40.00
3617 78.3300 1458.00 1481.58 38.00
3618 78.3500 1505.00 1500.27 39.00
3619 78.3700 1523.00 1521.60 39.00
3620 78.3900 1513.00 1545.07 39.00
3621 78.4100 1607.00 1569.63 40.00
3622 78.4300 1651.00 1593.55 41.00
3623 78.4500 1581.00 1614.60 40.00
3624 78.4700 1758.00 1630.49 42.00
3625 78.4900 1617.00 1639.70 40.00
3626 78.5100 1644.00 1642.17 41.00
3627 78.5300 1622.00 1639.36 40.00
3628 78.5500 1657.00 1633.74 41.00
3629 78.5700 1586.00 1627.91 40.00
3630 78.5900 1567.00 1623.97 40.00
3631 78.6100 1573.00 1623.26 40.00
3632 78.6300 1654.00 1626.28 41.00
3633 78.6500 1620.00 1632.86 40.00
3634 78.6700 1724.00 1642.24 42.00
3635 78.6900 1678.00 1653.27 41.00
3636 78.7100 1689.00 1664.73 41.00
3637 78.7300 1650.00 1675.63 41.00
3638 78.7500 1742.00 1685.30 42.00
3639 78.7700 1776.00 1693.28 42.00
3640 78.7900 1711.00 1698.94 41.00
3641 78.8100 1666.00 1701.40 41.00
3642 78.8300 1637.00 1699.65 40.00
3643 78.8500 1765.00 1693.00 42.00
3644 78.8700 1669.00 1681.74 41.00
3645 78.8900 1688.00 1666.79 41.00
3646 78.9100 1637.00 1649.75 40.00
3647 78.9300 1716.00 1632.63 41.00
3648 78.9500 1642.00 1616.99 41.00
3649 78.9700 1572.00 1603.87 40.00
3650 78.9900 1631.00 1593.58 40.00
3651 79.0100 1593.00 1585.75 40.00
3652 79.0300 1573.00 1579.51 40.00
3653 79.0500 1573.00 1573.76 40.00
3654 79.0700 1607.00 1567.47 40.00
3655 79.0900 1580.00 1559.96 40.00
3656 79.1100 1540.00 1551.16 39.00
3657 79.1300 1500.00 1541.41 39.00
3658 79.1500 1499.00 1531.36 39.00
3659 79.1700 1588.00 1521.88 40.00
3660 79.1900 1541.00 1513.62 39.00
3661 79.2100 1512.00 1507.01 39.00
3662 79.2300 1509.00 1502.29 39.00
3663 79.2500 1553.00 1499.50 39.00
3664 79.2700 1480.00 1498.77 38.00
3665 79.2900 1518.00 1500.09 39.00
3666 79.3100 1534.00 1503.72 39.00
3667 79.3300 1479.00 1509.81 38.00
3668 79.3500 1488.00 1518.63 39.00
3669 79.3700 1468.00 1530.34 38.00
3670 79.3900 1594.00 1545.20 40.00
3671 79.4100 1483.00 1563.21 39.00
3672 79.4300 1590.00 1584.22 40.00
3673 79.4500 1561.00 1607.70 40.00
3674 79.4700 1609.00 1632.54 40.00
3675 79.4900 1581.00 1657.09 40.00
3676 79.5100 1669.00 1679.14 41.00
3677 79.5300 1677.00 1696.34 41.00
3678 79.5500 1688.00 1706.60 41.00
3679 79.5700 1643.00 1708.87 41.00
3680 79.5900 1669.00 1703.55 41.00
3681 79.6100 1593.00 1692.46 40.00
3682 79.6300 1673.00 1678.26 41.00
3683 79.6500 1672.00 1663.53 41.00
3684 79.6700 1634.00 1650.27 40.00
3685 79.6900 1637.00 1639.53 40.00
3686 79.7100 1546.00 1631.44 39.00
3687 79.7300 1568.00 1625.35 40.00
3688 79.7500 1560.00 1620.13 39.00
3689 79.7700 1624.00 1614.37 40.00
3690 79.7900 1583.00 1606.79 40.00
3691 79.8100 1526.00 1596.62 39.00
3692 79.8300 1582.00 1583.82 40.00
3693 79.8500 1586.00 1569.07 40.00
3694 79.8700 1528.00 1553.40 39.00
3695 79.8900 1479.00 1537.90 38.00
3696 79.9100 1464.00 1523.41 38.00
3697 79.9300 1526.00 1510.42 39.00
3698 79.9500 1466.00 1499.15 38.00
3699 79.9700 1464.00 1489.61 38.00
3700 79.9900 1417.00 1481.71 38.00
3701 80.0100 1418.00 1475.30 38.00
loop_
_refln_index_h
_refln_index_k
_refln_index_l
_refln_F_squared_calc
_refln_F_squared_meas
_refln_F_squared_sigma
_refln_observed_status
_refln_d_spacing
1 0 0 17509.70 17551.84 351.03 o 9.969250
1 0 1 131.89 125.59 3.00 o 6.835181
2 -1 0 2361.86 1955.23 39.44 o 5.755749
2 0 0 6251.83 6587.65 131.86 o 4.984625
2 -1 1 8025.68 8408.45 169.32 o 4.907163
0 0 2 373.43 372.25 12.23 o 4.694791
2 0 1 225.05 159.34 4.21 o 4.402698
1 0 2 3056.81 2982.86 60.15 o 4.247380
3 -1 0 4573.98 5740.22 115.71 o 3.768023
3 -2 0 673.79 845.59 16.86 o 3.768023
2 -1 2 6363.69 5734.77 115.33 o 3.638042
3 -2 1 506.93 407.47 8.77 o 3.496953
3 -1 1 536.66 431.37 9.28 o 3.496953
2 0 2 4020.32 4184.53 84.61 o 3.417590
3 0 0 3492.30 2875.75 59.31 o 3.323083
3 0 1 107.06 63.93 4.31 o 3.132680
1 0 3 80.63 79.16 2.61 o 2.986153
3 -1 2 4438.27 4492.63 90.36 o 2.938606
3 -2 2 3925.96 3974.05 79.89 o 2.938606
4 -2 0 57.07 69.92 3.29 o 2.877875
4 -1 0 978.22 911.64 19.03 o 2.764972
4 -3 0 263.12 245.21 5.08 o 2.764972
4 -2 1 2124.83 2072.10 43.34 o 2.751535
2 -1 3 65.39 64.38 1.34 o 2.749624
3 0 2 2055.24 2890.41 60.37 o 2.712369
4 -3 1 719.95 701.93 15.29 o 2.652364
4 -1 1 881.37 859.32 18.71 o 2.652364
2 0 3 6.60 6.43 0.14 o 2.650652
4 0 0 1427.26 1385.35 34.25 o 2.492312
4 -2 2 5269.11 4959.22 101.71 o 2.453581
4 0 1 110.44 102.46 2.99 o 2.408897
3 -1 3 103.77 97.72 2.80 o 2.407615
3 -2 3 65.03 61.24 1.74 o 2.407615
4 -1 2 2090.98 2251.19 45.81 o 2.382485
4 -3 2 3886.99 4184.81 85.40 o 2.382485
0 0 4 856.33 812.87 35.39 o 2.347395
5 -3 0 1221.36 1083.26 23.85 o 2.287103
5 -2 0 1152.84 1022.49 22.50 o 2.287103
1 0 4 1259.10 1116.17 24.46 o 2.284909
3 0 3 0.37 0.33 0.01 o 2.278394
5 -2 1 1129.57 1091.33 25.20 o 2.222132
5 -3 1 388.95 375.78 8.69 o 2.222132
4 0 2 1823.49 1677.49 37.31 o 2.201349
5 -4 0 6308.63 5180.18 106.84 o 2.175469
5 -1 0 3112.14 2555.46 52.56 o 2.175469
2 -1 4 1738.62 1429.59 29.22 o 2.173580
2 0 4 2137.68 1993.38 44.48 o 2.123690
5 -4 1 327.40 305.54 6.90 o 2.119329
5 -1 1 137.91 128.70 2.91 o 2.119329
4 -2 3 407.42 379.97 8.61 o 2.118456
4 -1 3 73.94 80.42 2.64 o 2.072187
4 -3 3 34.54 37.57 1.24 o 2.072187
5 -3 2 2471.66 2621.05 55.08 o 2.056100
5 -2 2 1960.30 2078.79 43.63 o 2.056100
5 0 0 4474.14 4774.14 98.65 o 1.993850
3 -2 4 4002.05 4279.24 88.13 o 1.992396
3 -1 4 1681.60 1798.07 36.87 o 1.992396
5 -4 2 1051.49 1128.12 24.40 o 1.973853
5 -1 2 1515.78 1626.25 35.26 o 1.973853
5 0 1 6.22 5.87 0.35 o 1.950363
4 0 3 69.12 65.42 4.01 o 1.949682
6 -3 0 400.73 552.17 11.82 o 1.918583
3 0 4 3979.39 5473.26 118.72 o 1.917287
6 -2 0 1845.16 1987.24 47.31 o 1.884011
6 -4 0 1312.72 1413.80 33.59 o 1.884011
6 -3 1 422.40 451.46 10.86 o 1.879744
6 -2 1 15.75 15.30 0.53 o 1.847194
6 -4 1 66.76 64.86 2.24 o 1.847194
5 -3 3 310.87 303.69 10.31 o 1.846615
5 -2 3 290.32 283.62 9.63 o 1.846615
1 0 5 11.46 11.31 0.37 o 1.845460
5 0 2 900.87 953.38 26.58 o 1.835204
4 -2 4 2869.73 3342.22 77.47 o 1.819021
6 -1 0 4528.54 4874.73 100.67 o 1.790530
6 -5 0 2251.90 2424.05 49.93 o 1.790530
4 -1 4 4095.42 4413.51 90.91 o 1.789477
4 -3 4 2599.41 2801.31 57.59 o 1.789477
5 -1 3 2.92 3.15 0.06 o 1.786342
5 -4 3 0.27 0.29 0.01 o 1.786342
2 -1 5 33.73 36.32 0.75 o 1.785296
6 -3 2 1508.35 1661.31 36.26 o 1.776006
6 -1 1 1.41 1.35 0.04 o 1.758837
6 -5 1 6.59 6.32 0.20 o 1.758837
2 0 5 0.07 0.07 0.00 o 1.757340
6 -4 2 1287.10 1192.08 27.30 o 1.748477
6 -2 2 1957.71 1813.18 41.62 o 1.748477
4 0 4 3013.58 3028.86 74.47 o 1.708795
5 0 3 215.67 174.29 6.45 o 1.681618
3 -1 5 95.65 82.32 2.68 o 1.680746
3 -2 5 0.98 0.84 0.03 o 1.680746
6 -5 2 1296.10 1233.35 31.55 o 1.672987
6 -1 2 588.43 559.94 14.25 o 1.672987
6 0 0 3800.66 3191.25 80.56 o 1.661542
7 -4 0 716.33 704.32 15.81 o 1.638935
7 -3 0 234.04 230.12 5.12 o 1.638935
5 -3 4 1779.49 1747.71 39.45 o 1.638127
5 -2 4 2456.51 2412.63 54.55 o 1.638127
6 0 1 46.16 45.25 1.03 o 1.636123
6 -3 3 62.84 61.54 1.41 o 1.635721
3 0 5 1.07 1.05 0.02 o 1.634918
7 -4 1 66.66 46.12 4.05 o 1.614524
7 -3 1 106.01 73.36 6.44 o 1.614524
6 -4 3 51.96 36.35 3.16 o 1.614138
6 -2 3 0.50 0.35 0.03 o 1.614138
7 -2 0 847.28 915.71 22.20 o 1.596358
7 -5 0 580.79 627.70 15.18 o 1.596358
5 -1 4 1452.52 1574.17 38.13 o 1.595611
5 -4 4 1196.29 1296.49 31.36 o 1.595611
7 -2 1 26.20 30.41 1.66 o 1.573775
7 -5 1 23.20 26.93 1.45 o 1.573775
4 -2 5 237.69 282.95 13.60 o 1.572702
6 0 2 581.79 674.61 27.22 o 1.566340
0 0 6 564.89 645.98 26.13 o 1.564930
6 -1 3 6.10 6.08 0.17 o 1.554179
6 -5 3 39.96 39.80 1.09 o 1.554179
4 -1 5 59.30 57.74 1.51 o 1.553490
4 -3 5 42.21 41.10 1.07 o 1.553490
7 -4 2 1282.23 1233.48 28.42 o 1.547358
7 -3 2 1288.58 1239.59 28.56 o 1.547358
1 0 6 2438.86 2351.17 54.06 o 1.545998
7 -6 0 1911.87 1770.93 41.80 o 1.520296
7 -1 0 2076.32 1923.26 45.42 o 1.520296
5 0 4 1096.14 1017.50 23.63 o 1.519651
7 -2 2 1365.04 1288.04 28.45 o 1.511375
7 -5 2 1331.34 1256.23 27.75 o 1.511375
2 -1 6 2766.79 2626.08 58.20 o 1.510109
7 -1 1 0.12 0.13 0.00 o 1.500752
7 -6 1 3.39 3.57 0.10 o 1.500752
4 0 5 12.79 13.50 0.39 o 1.499822
2 0 6 1890.86 1980.73 55.72 o 1.493076
6 -3 4 2120.92 2033.98 54.99 o 1.485526
6 -4 4 1451.43 1614.29 49.17 o 1.469303
6 -2 4 553.25 615.33 18.63 o 1.469303
6 0 3 9.09 10.17 0.31 o 1.467566
7 -3 3 53.70 54.42 1.49 o 1.451918
7 -4 3 40.97 41.53 1.14 o 1.451918
5 -2 5 136.42 136.75 3.68 o 1.451357
5 -3 5 171.58 171.98 4.63 o 1.451357
7 -6 2 1110.77 1110.10 26.45 o 1.446352
7 -1 2 415.90 415.65 9.84 o 1.446352
3 -1 6 1527.79 1533.52 36.30 o 1.445242
3 -2 6 1737.38 1743.90 41.31 o 1.445242
8 -4 0 705.75 713.04 17.86 o 1.438937
8 -3 0 341.63 325.04 8.63 o 1.424179
8 -5 0 750.22 713.79 19.07 o 1.424179
7 0 0 1666.65 1585.73 42.68 o 1.424179
6 -1 4 832.01 792.76 20.99 o 1.423648
6 -5 4 570.74 543.82 14.35 o 1.423648
8 -4 1 71.21 67.78 1.83 o 1.422332
7 -2 3 1.93 1.84 0.05 o 1.422068
7 -5 3 9.57 9.12 0.24 o 1.422068
5 -1 5 0.50 0.48 0.01 o 1.421540
5 -4 5 1.88 1.79 0.05 o 1.421540
3 0 6 1098.11 1072.69 31.64 o 1.415793
8 -3 1 47.26 48.94 2.78 o 1.408074
8 -5 1 44.40 45.97 2.62 o 1.408074
7 0 1 70.11 72.59 4.10 o 1.408074
8 -6 0 797.21 881.56 32.69 o 1.382486
8 -2 0 631.90 698.76 25.88 o 1.382486
8 -4 2 649.95 659.22 18.82 o 1.375768
4 -2 6 1896.91 1924.23 54.86 o 1.374812
8 -6 1 10.05 8.99 0.23 o 1.367741
8 -2 1 66.35 59.37 1.51 o 1.367741
7 -1 3 101.13 90.60 2.29 o 1.367506
7 -6 3 5.35 4.79 0.12 o 1.367506
5 0 5 69.15 61.60 1.55 o 1.367036
8 -3 2 711.65 626.99 14.99 o 1.362852
8 -5 2 898.70 791.79 18.96 o 1.362852
7 0 2 957.23 843.36 20.19 o 1.362852
4 -1 6 1146.64 1014.18 24.15 o 1.361923
4 -3 6 1583.95 1400.97 33.44 o 1.361923
6 0 4 504.72 453.57 11.35 o 1.356185
7 -3 4 1192.30 1100.22 38.35 o 1.343807
7 -4 4 801.51 739.61 25.72 o 1.343807
6 -3 5 54.22 50.09 1.78 o 1.342034
6 -2 5 0.02 0.02 0.00 o 1.330037
6 -4 5 32.52 30.13 1.05 o 1.330037
1 0 7 7.80 7.26 0.24 o 1.329389
8 -6 2 339.34 315.98 9.06 o 1.326182
8 -2 2 1055.08 982.47 28.39 o 1.326182
4 0 6 1163.37 1089.27 30.63 o 1.325326
8 -7 0 800.78 737.44 20.76 o 1.320459
8 -1 0 353.06 325.13 9.11 o 1.320459
7 -2 4 430.90 395.37 11.13 o 1.320037
7 -5 4 584.24 536.06 15.13 o 1.320037
8 -7 1 79.41 60.25 5.36 o 1.307593
8 -1 1 96.79 73.44 6.53 o 1.307593
8 -4 3 86.31 65.49 5.84 o 1.307387
2 -1 7 306.01 224.85 20.78 o 1.306363
8 -5 3 34.59 31.15 1.58 o 1.296288
7 0 3 71.16 64.07 3.24 o 1.296288
8 -3 3 0.04 0.04 0.00 o 1.296288
6 -1 5 1.37 1.25 0.06 o 1.295888
6 -5 5 16.86 15.39 0.76 o 1.295888
2 0 7 13.00 11.89 0.56 o 1.295289
5 -2 6 965.59 907.84 37.58 o 1.291530
5 -3 6 1063.74 1000.12 41.43 o 1.291530
9 -4 0 389.72 359.14 12.00 o 1.276432
9 -5 0 276.55 254.85 8.49 o 1.276432
7 -1 4 727.21 670.70 21.94 o 1.276050
7 -6 4 100.03 92.26 2.97 o 1.276050
8 -7 2 632.51 591.63 16.95 o 1.271138
8 -1 2 710.16 664.27 19.04 o 1.271138
5 -1 6 933.05 876.82 25.12 o 1.270384
5 -4 6 670.99 630.55 18.02 o 1.270384
9 -4 1 58.81 55.62 1.91 o 1.264798
9 -5 1 39.97 37.80 1.30 o 1.264798
8 -6 3 98.01 94.06 3.28 o 1.264613
8 -2 3 100.42 96.37 3.36 o 1.264613
3 -1 7 1.42 1.37 0.05 o 1.263685
3 -2 7 0.05 0.05 0.00 o 1.263685
9 -3 0 564.55 562.76 48.12 o 1.256007
9 -6 0 244.96 244.18 20.74 o 1.256007
8 0 0 442.41 362.12 56.93 o 1.246156
9 -3 1 0.92 0.73 0.12 o 1.244919
9 -6 1 0.80 0.64 0.11 o 1.244919
6 0 5 1.16 0.93 0.16 o 1.244388
3 0 7 7.50 6.24 1.04 o 1.243857
8 0 1 9.90 9.75 0.56 o 1.235324
7 -3 5 10.60 10.25 0.56 o 1.234805
7 -4 5 23.86 23.07 1.28 o 1.234805
9 -4 2 221.14 210.70 9.34 o 1.231719
9 -5 2 380.29 362.33 16.12 o 1.231719
5 0 6 818.43 791.55 34.21 o 1.231033
8 -4 4 721.17 725.99 30.18 o 1.226791
9 -7 0 304.11 312.42 10.91 o 1.217938
9 -2 0 302.83 311.10 10.86 o 1.217938
8 -5 4 336.20 344.75 11.97 o 1.217606
7 0 4 45.78 46.95 1.60 o 1.217606
8 -3 4 793.90 814.10 28.42 o 1.217606
8 -7 3 8.88 9.12 0.31 o 1.216617
8 -1 3 10.86 11.15 0.38 o 1.216617
7 -2 5 0.09 0.09 0.00 o 1.216286
7 -5 5 0.10 0.11 0.00 o 1.216286
4 -2 7 40.84 41.65 1.43 o 1.215791
9 -3 2 315.47 320.06 10.55 o 1.213336
9 -6 2 382.88 388.46 12.82 o 1.213336
6 -3 6 856.15 868.69 28.82 o 1.212681
9 -2 1 39.13 37.33 1.34 o 1.207819
9 -7 1 20.35 19.41 0.70 o 1.207819
4 -1 7 15.64 14.66 0.55 o 1.206850
4 -3 7 8.98 8.42 0.32 o 1.206850
8 0 2 408.28 367.19 14.48 o 1.204449
6 -2 6 918.57 816.68 32.77 o 1.203807
6 -4 6 810.17 720.30 28.87 o 1.203807
loop_
_restr_angle_atom_site_label_1
_restr_angle_site_symmetry_1
_restr_angle_atom_site_label_2
_restr_angle_site_symmetry_2
_restr_angle_atom_site_label_3
_restr_angle_site_symmetry_3
_restr_angle_target
_restr_angle_target_weight_param
C1 . C2 . C3 . 109.8 0.01
C1 . C2 . C4 . 109.8 0.01
C3 . C2 . C4 . 109.8 0.01
C1 . C2 . C3a . 109.8 0.01
C1 . C2 . C4a . 109.8 0.01
C3a . C2 . C4a . 109.8 0.01
O1 . C1 . C2 . 118.9 0.01
O1 . C1 . O1 10_556 122.08 0.01
loop_
_restr_distance_atom_site_label_1
_restr_distance_site_symmetry_1
_restr_distance_atom_site_label_2
_restr_distance_site_symmetry_2
_restr_distance_target
_restr_distance_target_weight_param
C1 . O1 . 1.27 0.001
C1 . C2 . 1.506 0.001
C2 . C3 . 1.536 0.001
C2 . C4 . 1.536 0.001
C2 . C3a . 1.536 0.001
C2 . C4a . 1.536 0.001
