#------------------------------------------------------------------------------
#$Date: 2021-03-17 11:35:53 +0200 (Wed, 17 Mar 2021) $
#$Revision: 263083 $
#$URL: file:///home/coder/svn-repositories/cod/cif/1/56/10/1561067.cif $
#------------------------------------------------------------------------------
#
# This file is available in the Crystallography Open Database (COD),
# http://www.crystallography.net/
#
# All data on this site have been placed in the public domain by the
# contributors.
#
data_1561067
loop_
_publ_author_name
'Dolyniuk, Juli-Anna'
'Lee, Shannon'
'Tran, Nhon'
'Wang, Jian'
'Wang, Lin-Lin'
'Kovnir, Kirill'
_publ_section_title
;
 Eu2P7X and Ba2As7X (X&#x202F;=&#x202F;Br, I): Chiral double-Zintl salts
 containing heptapnictotricyclane clusters
;
_journal_name_full               'Journal of Solid State Chemistry'
_journal_page_first              195
_journal_page_last               202
_journal_paper_doi               10.1016/j.jssc.2018.04.026
_journal_volume                  263
_journal_year                    2018
_chemical_formula_sum            'Ba0.72 Br Eu1.28 P7'
_chemical_formula_weight         590.06
_space_group_crystal_system      cubic
_space_group_IT_number           198
_space_group_name_Hall           'P 2ac 2ab 3'
_space_group_name_H-M_alt        'P 21 3'
_atom_sites_solution_hydrogens   .
_cell_angle_alpha                90
_cell_angle_beta                 90
_cell_angle_gamma                90
_cell_formula_units_Z            4
_cell_length_a                   9.8547(5)
_cell_length_b                   9.8547(5)
_cell_length_c                   9.8547(5)
_cell_measurement_reflns_used    4496
_cell_measurement_temperature    90(2)
_cell_measurement_theta_max      26.49
_cell_measurement_theta_min      2.92
_cell_volume                     957.04(8)
_computing_structure_refinement  'SHELXL-2016/6 (Sheldrick, 2016)'
_diffrn_ambient_temperature      90(2)
_diffrn_measured_fraction_theta_full 0.980
_diffrn_measured_fraction_theta_max 0.919
_diffrn_measurement_device_type  'Bruker APEX II CCD area-detector'
_diffrn_measurement_method       'profile data from \w scans'
_diffrn_radiation_type           MoK\a
_diffrn_radiation_wavelength     0.71073
_diffrn_reflns_av_R_equivalents  0.0391
_diffrn_reflns_av_unetI/netI     0.0304
_diffrn_reflns_Laue_measured_fraction_full 0.980
_diffrn_reflns_Laue_measured_fraction_max 0.919
_diffrn_reflns_limit_h_max       10
_diffrn_reflns_limit_h_min       -12
_diffrn_reflns_limit_k_max       10
_diffrn_reflns_limit_k_min       -10
_diffrn_reflns_limit_l_max       11
_diffrn_reflns_limit_l_min       -10
_diffrn_reflns_number            4496
_diffrn_reflns_point_group_measured_fraction_full 0.968
_diffrn_reflns_point_group_measured_fraction_max 0.891
_diffrn_reflns_theta_full        25.242
_diffrn_reflns_theta_max         26.490
_diffrn_reflns_theta_min         2.923
_diffrn_source                   'fine-focus sealed tube'
_exptl_absorpt_coefficient_mu    16.516
_exptl_absorpt_correction_T_max  0.16
_exptl_absorpt_correction_T_min  0.11
_exptl_absorpt_correction_type   multi-scan
_exptl_absorpt_process_details   'SADABS v2.03 (Bruker, 2003)'
_exptl_crystal_colour            black
_exptl_crystal_density_diffrn    4.095
_exptl_crystal_description       block
_exptl_crystal_F_000             1044
_exptl_crystal_size_max          0.250
_exptl_crystal_size_mid          0.200
_exptl_crystal_size_min          0.180
_refine_diff_density_max         0.901
_refine_diff_density_min         -0.907
_refine_diff_density_rms         0.206
_refine_ls_abs_structure_details
;
 Flack x determined using 229 quotients [(I+)-(I-)]/[(I+)+(I-)]
 (Parsons, Flack and Wagner, Acta Cryst. B69 (2013) 249-259).
;
_refine_ls_abs_structure_Flack   0.015(12)
_refine_ls_extinction_coef       0.0033(2)
_refine_ls_extinction_expression Fc^*^=kFc[1+0.001xFc^2^\l^3^/sin(2\q)]^-1/4^
_refine_ls_extinction_method     'SHELXL-2016/6 (Sheldrick 2016)'
_refine_ls_goodness_of_fit_ref   1.193
_refine_ls_hydrogen_treatment    undef
_refine_ls_matrix_type           full
_refine_ls_number_parameters     33
_refine_ls_number_reflns         604
_refine_ls_number_restraints     0
_refine_ls_restrained_S_all      1.193
_refine_ls_R_factor_all          0.0197
_refine_ls_R_factor_gt           0.0174
_refine_ls_shift/su_max          0.001
_refine_ls_shift/su_mean         0.000
_refine_ls_structure_factor_coef Fsqd
_refine_ls_weighting_details
'w=1/[\s^2^(Fo^2^)+0.0181P] where P=(Fo^2^+2Fc^2^)/3'
_refine_ls_weighting_scheme      calc
_refine_ls_wR_factor_gt          0.0299
_refine_ls_wR_factor_ref         0.0305
_reflns_Friedel_coverage         0.655
_reflns_Friedel_fraction_full    0.950
_reflns_Friedel_fraction_max     0.851
_reflns_number_gt                587
_reflns_number_total             604
_reflns_threshold_expression     'I > 2\s(I)'
_cod_data_source_file            JSSC-2018-263-195.cif
_cod_data_source_block           4
_cod_original_cell_volume        957.04(15)
_cod_database_code               1561067
_shelx_space_group_comment
;
The symmetry employed for this shelxl refinement is uniquely defined
by the following loop, which should always be used as a source of
symmetry information in preference to the above space-group names.
They are only intended as comments.
;
_shelx_estimated_absorpt_t_min   0.104
_shelx_estimated_absorpt_t_max   0.155
_shelx_res_file
;
TITL NT186_EuSrPI_multiint in P2(1)3
    shelx.res
    created by SHELXL-2016/6 at 13:29:45 on 23-Jan-2018
CELL 0.71073   9.85470   9.85470   9.85470  90.0000  90.0000  90.0000
ZERR    4   0.00050   0.00050   0.00050   0.0000   0.0000   0.0000
LATT -1
SYMM 0.5-X, -Y, 0.5+Z
SYMM -X, 0.5+Y, 0.5-Z
SYMM 0.5+X, 0.5-Y, -Z
SYMM Z, X, Y
SYMM 0.5+Z, 0.5-X, -Y
SYMM 0.5-Z, -X, 0.5+Y
SYMM -Z, 0.5+X, 0.5-Y
SYMM Y, Z, X
SYMM -Y, 0.5+Z, 0.5-X
SYMM 0.5+Y, 0.5-Z, -X
SYMM 0.5-Y, -Z, 0.5+X
SFAC P BR Ba Eu
UNIT 28 4 2.89 5.11
temp -183
size 0.25 0.18 0.2

L.S. 17
BOND
FMAP 2
PLAN -20

eadp eu2 ba2
exyz eu2 ba2
acta

WGHT    0.000000    0.018100
EXTI    0.003281
FVAR       0.10012   0.27816
BR1   2    0.406455    0.406455    0.406455    10.33333    0.00972    0.00972 =
         0.00972   -0.00215   -0.00215   -0.00215
EU1   4    0.587918    0.587918    0.587918    10.33333    0.00446    0.00446 =
         0.00446   -0.00024   -0.00024   -0.00024
EU2   4    0.854151    0.854151    0.854151    20.33333    0.00623    0.00623 =
         0.00623   -0.00133   -0.00133   -0.00133
BA2   3    0.854151    0.854151    0.854151   -20.33333    0.00623    0.00623 =
         0.00623   -0.00133   -0.00133   -0.00133
P1    1    0.052504    0.622337    0.277090    11.00000    0.00532    0.00617 =
         0.00561   -0.00082    0.00021   -0.00082
P2    1    0.116883    0.235113    0.303792    11.00000    0.00614    0.00629 =
         0.00469   -0.00015    0.00077    0.00159
P3    1    0.040661    0.040661    0.040661    10.33333    0.00641    0.00641 =
         0.00641    0.00105    0.00105    0.00105
HKLF 4




REM  NT186_EuSrPI_multiint in P2(1)3
REM R1 =  0.0174 for     587 Fo > 4sig(Fo)  and  0.0197 for all     604 data
REM     33 parameters refined using      0 restraints

END

WGHT      0.0000      0.0181

REM Highest difference peak  0.901,  deepest hole -0.907,  1-sigma level  0.206
Q1    1   0.8630  0.7842  0.7159  11.00000  0.05    0.90
Q2    1   0.6067  0.6003  0.5442  11.00000  0.05    0.88
Q3    1   0.8849  0.9595  0.9597  11.00000  0.05    0.88
Q4    1   0.9608  0.9630  1.0365  11.00000  0.05    0.86
Q5    1   0.7872  0.7872  0.7872  10.33333  0.05    0.84
Q6    1   0.2806  0.2806  0.2806  10.33333  0.05    0.81
Q7    1   0.7152  0.7023  0.6408  11.00000  0.05    0.78
Q8    1   0.5347  0.5347  0.5347  10.33333  0.05    0.77
Q9    1   0.7804  0.7123  0.7115  11.00000  0.05    0.76
Q10   1   0.7898  0.7851  0.6331  11.00000  0.05    0.76
Q11   1   0.8613  0.6406  0.7081  11.00000  0.05    0.76
Q12   1   0.8624  0.7086  0.7852  11.00000  0.05    0.75
Q13   1   0.5392  0.6090  0.4595  11.00000  0.05    0.71
Q14   1   0.8586  0.8573  0.7977  11.00000  0.05    0.71
Q15   1   0.4583  0.6062  0.5371  11.00000  0.05    0.68
Q16   1   0.6370  0.6370  0.6370  10.33333  0.05    0.66
Q17   1   0.2951  0.7206  0.7073  11.00000  0.05    0.66
Q18   1   1.0960  0.8831  0.7902  11.00000  0.05    0.65
Q19   1   0.5350  0.4632  0.4613  11.00000  0.05    0.64
Q20   1   0.3631  0.3599  0.6484  11.00000  0.05    0.64
;
_shelx_res_checksum              30836
_shelx_hkl_file
;
  -1  -1   0    5.92    0.55
  -1   0  -1    6.98    0.42
  -1   0   1    7.31    0.63
  -1   1   0    7.55    0.47
   0  -1  -1    6.11    0.52
   0  -1   1    5.69    0.62
   0   1   1    5.74    0.52
   1  -1   0    7.39    0.47
   1   0  -1    7.12    0.66
   1   1   0    6.04    0.57
  -1  -1  -1  142.54    6.60
   1  -1   1  133.74    6.45
   1   1  -1  121.84    6.94
  -1   1   1  131.46    6.62
   1  -1  -1  143.82    6.64
  -1  -1   1  120.09    6.84
  -1   1  -1  132.77    6.49
   1   1   1  137.01    6.59
  -2   0   0   23.77    1.67
   0  -2   0   25.33    1.59
   0   0  -2   24.81    1.58
   0   0   2   25.94    1.59
   0   2   0   26.15    1.60
   2   0   0   25.75    1.75
   2  -1   0   31.83    1.71
   2   1   0   27.75    1.90
   0   2   1   31.06    1.84
   1   0   2   31.50    1.70
  -1   0   2   32.73    1.94
   0  -2  -1   30.90    1.83
   0  -2   1   27.45    1.85
  -1   0  -2   34.15    1.72
  -2   1   0   32.63    1.70
  -2  -1   0   30.02    1.90
   2   0   1  167.61    8.02
   2   0  -1  149.75    8.40
   0  -1   2  157.94    8.40
   1  -2   0  164.43    8.13
   1   2   0  159.62    8.27
  -1  -2   0  170.35    8.29
   0  -1  -2  176.85    8.23
  -2   0  -1  179.68    8.00
  -2   0   1  157.83    8.35
  -2  -1  -1  418.63   19.13
   1  -1   2  368.43   19.18
  -1  -2  -1  402.86   19.22
   1   2  -1  348.95   19.34
  -1  -1  -2  416.18   19.14
   2   1  -1  362.97   19.67
   1  -2   1  406.72   19.07
  -1   2   1  416.55   19.19
   1  -2  -1  414.26   19.19
  -1  -2   1  406.57   19.38
   1  -1  -2  400.03   19.23
  -2  -1   1  368.81   19.50
  -1  -1   2  384.97   19.53
   1   1   2  408.76   19.12
  -1   2  -1  410.73   19.10
   1   2   1  396.01   19.20
  -1   1  -2  372.66   19.09
   2   1   1  406.44   19.13
  -2  -2   0  106.55    5.49
  -2   0  -2  105.64    5.11
  -2   0   2  107.33    5.58
  -2   2   0  106.70    5.22
   0  -2  -2  104.26    5.40
   0  -2   2  102.30    5.56
   0   2   2  100.87    5.37
   2  -2   0  104.38    5.22
   2   0  -2   90.80    5.60
   2   0   2  107.21    5.11
   2   2   0   98.55    5.48
  -2  -2  -1   45.48    2.49
   2   2  -1   37.29    2.71
  -2  -1  -2   45.66    2.32
   2  -1   2   41.37    2.14
  -2   1   2   45.39    2.55
   2  -2   1   44.45    2.18
   1  -2   2   40.30    2.34
   2  -1   2   42.48    2.06
  -1   2   2   40.47    2.45
   1   2  -2   37.13    2.91
  -1  -2   2   36.83    2.70
   1  -2  -2   39.05    2.43
   1   2   2   39.40    2.40
  -2   2  -1   42.18    2.19
   2  -1  -2   42.20    2.51
  -1   2  -2   39.97    2.53
  -2  -1   2   42.08    2.82
   2   1   2   43.79    2.31
  -2  -2   1   40.90    2.71
   2   2   1   39.26    2.43
  -2  -2  -2  237.83   11.31
   2   2  -2  201.96   12.03
  -2   2   2  231.61   11.39
   2  -2   2  232.29   11.00
   2  -2  -2  226.72   11.36
  -2   2  -2  219.23   11.16
   2   2   2  234.95   11.31
  -3   0   0   -0.03    0.36
   0  -3   0   -0.11    0.29
   0   0  -3    0.16    0.33
   0   0   3    1.20    0.45
   3   0   0    0.18    0.48
   0  -3  -1    2.15    0.55
   0  -3   1    2.93    0.59
   0   3   1    2.55    0.60
   1   0   3    2.95    0.50
   3   1   0    1.54    0.60
  -3   1   0    2.76    0.48
  -1   0  -3    2.41    0.46
  -1   0   3    3.63    0.70
  -1   0   3    2.65    0.65
  -3   1   0    2.86    0.45
  -3  -1   0    2.51    0.70
  -3  -2   0  554.33   26.10
  -3   2   0  544.84   25.68
  -2   0  -3  530.95   25.65
   2   0   3  512.38   25.61
   3  -2   0  555.13   25.71
  -2   0   3  526.52   26.15
   3   2   0  508.68   26.08
  -2   0   3  532.92   26.13
   0   3   2  534.24   25.94
   1   3   0  263.74   14.02
   3   0  -1  267.38   14.28
  -3   0  -1  304.29   13.76
  -3   0   1  289.08   14.20
   3   0   1  277.82   13.91
   0  -1  -3  298.73   13.99
   0  -1   3  279.05   14.15
   1  -3   1  111.31    5.69
  -3  -1  -1  116.10    5.69
  -3   1   1  111.66    5.76
   1  -1   3  109.82    5.66
   1  -1   3  106.18    5.78
   1   1  -3  104.22    6.23
  -3   1   1  115.61    5.77
  -1  -3  -1  121.17    5.89
   3   1  -1   99.54    6.36
  -1  -1  -3  117.33    5.72
   1   3  -1  106.53    5.96
  -1   1   3  119.22    5.90
  -1  -1   3  109.39    6.07
   1  -3  -1  114.64    5.77
   3   1   1  103.87    5.70
   1  -1  -3  112.08    5.87
  -1   3  -1  107.97    5.70
  -3   1  -1  116.41    5.39
  -3  -1   1  106.45    6.10
   1   1   3  106.86    5.67
  -3   1  -1   99.38    5.50
  -1  -3   1  109.67    5.90
  -3   2   1  937.87   42.95
   1   3  -2  792.12   43.33
  -2   1   3  924.42   43.19
  -2  -1  -3  919.17   42.86
   3   2  -1  832.00   43.48
   2  -1   3  846.91   42.80
   3  -2   1  937.39   42.64
  -1   3   2  875.19   43.02
   2  -1   3  870.09   42.66
   1  -3   2  854.77   42.89
   2   1  -3  757.45   43.61
  -1  -3  -2  932.43   43.07
  -3  -2  -1  958.09   43.07
  -1   3  -2  838.28   43.01
   2   1   3  912.01   42.84
  -1  -3   2  896.45   43.31
  -3  -2   1  962.67   43.51
  -3   2  -1  947.95   42.63
   3  -2  -1  893.91   42.94
   1   3   2  908.26   43.06
   2  -1  -3  939.01   43.20
   1  -3  -2  879.91   43.04
   3   2   1  913.00   43.07
   0   2   3  877.30   44.21
   2   3   0  909.42   44.39
  -3   0   2  922.66   44.48
  -3   0  -2 1000.00   43.85
   0  -2   3  886.21   44.50
  -2   3   0  959.20   44.10
   0  -2  -3  883.28   44.22
   2  -3   0  928.75   44.06
   3   0   2  978.93   43.89
   3   0  -2  834.76   44.58
   1   2  -3  203.62   12.94
   3   1  -2  215.23   13.00
   1  -2   3  220.47   12.27
  -3   1   2  235.11   12.27
   2  -3   1  240.48   11.99
   2   3  -1  212.44   12.45
  -3   1   2  252.46   12.34
  -3  -1  -2  259.35   12.05
  -1  -2  -3  239.77   12.20
  -2  -3  -1  256.47   12.36
   1   2   3  264.04   12.24
   3   1   2  279.40   12.10
  -2  -3   1  255.94   12.54
  -2   3  -1  266.61   12.07
  -3  -1   2  249.46   12.72
  -1  -2   3  262.51   12.75
  -1   2  -3  234.34   12.46
   2   3   1  257.12   12.34
  -3  -2  -2  159.92    7.30
   2   2  -3  133.31    8.37
  -2  -3  -2  158.43    7.41
  -2  -2  -3  155.60    7.26
   2   3  -2  131.48    7.83
   3   2  -2  138.72    8.29
  -2   2   3  161.52    7.50
   2  -3   2  157.27    7.06
  -2   3   2  154.58    7.37
   2  -2   3  142.07    7.06
  -2   3  -2  127.83    7.09
   2  -2  -3  131.90    7.33
   2  -3  -2  129.82    7.27
  -3  -2   2  121.25    7.68
   2   2   3  136.12    7.20
  -2  -2   3  133.10    7.75
   2   3   2  138.50    7.30
   3  -2  -2  133.20    7.30
  -2   2  -3  119.47    7.04
   3   2   2  136.17    7.21
  -3  -3   0   19.59    1.76
  -3   0  -3   21.30    1.29
  -3   0   3   18.63    1.87
  -3   0   3   20.85    1.90
  -3   3   0   20.07    1.42
   0  -3  -3   20.96    1.70
   0  -3   3   20.62    1.90
   0   3   3   20.00    1.66
   3  -3   0   18.45    1.42
   3   0   3   20.86    1.28
   3   3   0   19.49    1.84
  -3  -3  -1  171.83    8.96
   3  -1   3  184.82    8.33
  -3  -1  -3  181.37    8.64
   3   1  -3  155.72    9.75
  -3   1   3  171.59    9.05
  -3   1   3  173.68    8.99
   3  -1   3  165.81    8.43
  -3   3   1  176.89    8.77
  -1  -3  -3  175.49    8.92
   3   3  -1  163.71    9.28
   1   3  -3  152.61    9.62
  -1   3   3  166.18    8.90
   3  -3   1  177.04    8.53
   1  -3   3  164.15    8.83
   1  -3  -3  173.85    8.95
   1   3   3  172.76    8.89
   3  -3  -1  177.60    8.78
  -1   3  -3  168.89    9.29
  -3  -3   1  181.80    9.32
  -3   3  -1  182.43    8.57
  -3  -1   3  162.83    9.28
   3   1   3  180.41    8.64
  -1  -3   3  175.09    9.34
   3   3   1  176.63    9.00
  -3  -3  -2   78.42    4.20
   2   3  -3   66.48    5.13
  -3  -2  -3   77.15    4.01
   2  -3   3   72.79    3.84
  -3   2   3   77.95    4.29
   3   2  -3   67.88    5.34
  -2  -3  -3   76.07    4.15
   3   3  -2   63.29    4.75
   3  -3   2   76.14    3.66
   2  -3  -3   72.57    4.18
  -3   3  -2   68.13    3.73
  -3  -3   2   68.30    4.60
   2   3   3   68.36    4.08
   3  -3  -2   73.73    4.11
  -3  -2   3   68.78    4.59
   3  -2  -3   73.68    4.22
  -2   3  -3   63.30    4.21
   3   2   3   67.71    3.94
  -2  -3   3   66.04    4.55
   3   3   2   68.23    4.10
  -3  -3  -3   56.90    3.69
   3  -3   3   57.15    3.24
   3   3  -3   51.78    4.81
  -3   3   3   54.60    3.76
  -3  -3   3   75.91    4.55
  -3   3  -3   68.28    3.64
   3   3   3   73.10    3.80
  -4   0   0  928.01   42.75
   0  -4   0  894.17   42.64
   0   0   4  870.23   42.60
   0   4   0  855.20   42.60
   4   0   0  864.63   42.87
   0  -4   1  316.56   15.82
   0   4  -1  301.52   15.84
   0   4   1  323.44   15.84
   1   0   4  314.04   15.65
   4   1   0  290.77   16.17
  -1   0  -4  320.93   15.69
  -1   0   4  328.30   15.97
  -1   0   4  315.09   15.89
   0  -4  -1  313.81   15.80
  -4  -1   0  339.05   16.02
  -4   1   0  330.04   15.57
  -4   1   0  321.00   15.73
   0  -4   2   23.18    1.84
   0   4   2   22.97    1.83
  -2   0   4   26.64    2.12
   2   0   4   21.68    1.52
   4   2   0   20.72    2.03
  -2   0   4   22.46    1.93
  -4  -2   0   23.22    1.98
  -4   2   0   25.25    1.54
  -4   2   0   22.79    1.55
  -2   0  -4   25.21    1.62
   0  -4  -2   23.44    1.83
  -3   0   4  427.55   20.80
   4   3   0  396.31   20.67
   0  -4   3  392.51   20.58
   0   4   3  410.89   20.43
   3   0   4  401.76   19.94
   4  -3   0  419.12   20.10
  -3   0  -4  412.20   19.99
  -4  -3   0  425.31   20.65
  -4   3   0  422.23   20.07
   0  -4  -3  415.54   20.46
  -1  -4   0    4.21    0.88
   1   4   0    4.58    0.92
  -4   0  -1    5.12    0.69
  -4   0   1    2.72    0.75
   0   1   4    5.79    0.85
   1  -4   0    4.15    0.76
   4   0  -1    7.14    1.32
   4   0   1    3.67    0.86
   0  -1   4    3.78    0.89
   0  -1   4    3.70    0.96
   0  -1  -4    4.52    0.80
  -1   1   4   70.39    3.96
  -4  -1  -1   68.68    3.71
   1  -1   4   70.35    3.76
   4   1  -1   61.64    4.55
  -4   1   1   68.90    3.77
  -4   1   1   67.67    3.84
  -1  -1  -4   68.25    3.74
   1  -4   1   69.29    3.77
   1  -1   4   66.67    3.87
   1   1  -4   63.35    4.23
  -1  -4  -1   65.89    3.89
  -1   4   1   71.92    3.85
   1   4  -1   66.13    4.01
  -4  -1   1   60.68    4.10
   1  -1  -4   64.72    3.88
   1  -4  -1   64.43    3.77
   1   4   1   60.70    3.82
  -1  -1   4   65.46    4.07
   1   1   4   62.71    3.68
  -1  -4   1   62.83    3.90
  -4   1  -1   61.53    3.56
   4   1   1   62.68    3.81
  -4   1  -1   67.63    3.40
   1   4  -2   17.69    1.92
   2  -1   4   17.41    1.33
   1  -4   2   17.85    1.53
  -1   4   2   18.59    1.62
  -4   2   1   17.76    1.45
  -4  -2  -1   18.21    1.58
  -2   1   4   18.02    1.75
  -1  -4  -2   18.52    1.65
  -2  -1  -4   17.45    1.42
   2   1  -4   15.65    2.19
   4   2  -1   14.48    2.13
   2  -1   4   18.44    1.54
   2  -1  -4   22.72    1.84
  -4   2  -1   23.02    1.22
   1   4   2   22.91    1.75
   1  -4  -2   22.43    1.71
  -4   2  -1   21.83    1.31
  -2  -1   4   23.37    2.04
  -1  -4   2   22.29    1.87
  -1   4  -2   21.31    1.70
   2   1   4   22.67    1.50
  -4  -2   1   23.16    2.18
   4   2   1   22.25    1.77
  -3   1   4   12.49    1.59
   3  -1   4   14.93    0.97
  -4  -3  -1   13.77    1.50
   3  -1   4   13.00    1.18
   1  -4   3   10.87    1.33
  -1   4   3   11.15    1.38
   4   3  -1   12.36    1.89
  -4   3   1   15.20    1.27
  -3   1   4   13.99    1.50
   1   4  -3   17.48    2.23
   4  -3   1   14.03    1.04
  -3  -1  -4   12.62    1.17
   3   1  -4    9.89    2.24
  -1  -4  -3   11.94    1.40
   3   1   4   14.29    1.17
  -3  -1   4   12.66    1.77
   1  -4  -3   13.54    1.44
  -4   3  -1   12.75    1.00
  -4  -3   1   13.32    1.78
   1   4   3   15.20    1.50
   4   3   1   11.78    1.53
  -1   4  -3   13.38    1.64
   4  -3  -1   14.35    1.31
  -1  -4   3   11.85    1.69
   0  -2   4   14.33    1.68
   4   0   2   15.17    1.17
  -2  -4   0   14.28    1.47
  -2   4   0   13.23    1.21
  -4   0  -2   14.75    0.98
  -4   0   2   12.81    1.56
   2  -4   0   13.98    1.23
   2   4   0   12.79    1.48
   4   0  -2   11.65    1.80
   0   2   4   14.35    1.35
   0  -2  -4   15.17    1.36
  -4   1   2  252.84   12.47
  -2  -4  -1  255.99   12.54
   1   2  -4  202.87   13.06
  -4  -1  -2  259.27   12.12
  -1   2   4  252.05   12.48
  -1  -2  -4  247.73   12.34
   1  -2   4  229.80   12.53
   2  -4   1  240.10   12.13
   4   1  -2  228.93   13.34
  -1  -2   4  258.54   12.89
   2  -4  -1  263.53   12.33
  -2   4  -1  254.42   12.22
   4   1   2  252.44   12.17
   2   4   1  237.35   12.44
  -2  -4   1  242.02   12.58
  -4  -1   2  261.06   12.87
   1   2   4  240.53   12.28
  -1   2  -4  221.75   12.41
  -4  -2  -2  276.15   13.44
   2  -2   4  245.31   13.44
  -2  -4  -2  276.76   13.65
  -2   4   2  265.10   13.51
   4   2  -2  249.54   14.60
  -2   2   4  260.48   13.67
   2   4  -2  247.74   13.99
   2  -4   2  265.34   13.28
   2   2  -4  239.38   14.62
   2  -2   4  263.85   13.26
  -2  -2  -4  263.27   13.42
   2  -2  -4  279.46   13.71
   2  -4  -2  291.35   13.60
   2   4   2  277.50   13.62
   4   2   2  277.04   13.47
  -2  -2   4  277.74   14.11
  -2   4  -2  265.70   13.38
  -2  -4   2  290.04   14.02
  -4  -2   2  275.87   14.10
   2   2   4  277.26   13.42
   3   2  -4  120.50    8.06
   2  -4   3  119.38    6.31
   3  -2   4  127.74    6.03
  -2   4   3  126.39    6.67
  -3  -2  -4  130.06    6.46
  -2  -4  -3  127.73    6.67
   2   4  -3  109.18    7.37
  -4  -3  -2  132.00    6.66
   4   3  -2  116.77    7.58
   3  -2   4  119.23    6.15
   4  -3   2  132.30    5.97
  -3  -2   4  119.71    7.11
   3   2   4  122.83    6.40
  -4   3  -2  116.07    5.98
  -2  -4   3  123.21    7.14
  -2   4  -3  108.43    6.56
   4   3   2  115.64    6.56
   2   4   3  117.06    6.59
   3  -2  -4  117.85    6.71
   2  -4  -3  125.46    6.68
  -4  -3   2  116.71    7.17
   4  -3  -2  109.82    6.57
   0  -3   4    2.59    0.90
   4   0   3    4.60    0.60
   0   3  -4    7.75    2.02
   3   4   0    5.49    1.23
  -3  -4   0    3.83    1.07
  -3   4   0    4.05    0.75
  -4   0  -3    3.08    0.50
  -4   0   3    4.37    1.23
   3  -4   0    3.80    0.77
   0  -3  -4    3.50    0.95
   3  -4   1  507.93   25.30
  -4   1   3  488.92   25.80
  -1  -3  -4  518.08   25.68
  -4  -1  -3  518.40   25.30
   1  -3   4  501.47   25.76
  -3   4   1  508.21   25.52
   1   3  -4  446.03   26.68
   4   1  -3  487.93   26.78
  -4   1   3  532.19   25.83
  -3  -4  -1  536.87   25.84
  -1   3   4  518.63   25.75
  -3   4  -1  550.25   25.40
   3  -4  -1  545.05   25.57
   4   1   3  556.73   25.37
  -1  -3   4  538.35   26.18
  -1   3  -4  485.83   26.18
   1   3   4  531.66   25.66
   1  -3  -4  557.81   25.81
  -3  -4   1  571.35   26.12
  -4  -1   3  551.19   26.21
   3   4   1  525.45   25.82
  -3   4   2   62.17    4.27
   4   2  -3   82.60    5.97
  -3  -4  -2   85.10    4.63
   3   4  -2   80.66    5.17
  -2   3   4   81.78    4.61
  -2  -3  -4   81.81    4.44
   2  -3   4   80.34    4.30
   2   3  -4   78.17    5.97
  -4  -2  -3   83.46    4.29
  -4   2   3   77.62    4.56
   3  -4   2   82.90    4.05
   2   3   4   72.67    4.36
  -4  -2   3   75.18    4.92
   3  -4  -2   71.02    4.34
   4   2   3   73.65    4.23
  -3  -4   2   74.98    4.95
  -3   4  -2   72.49    4.12
   3   4   2   66.37    4.40
   2  -3  -4   71.21    4.48
  -2   3  -4   62.84    4.43
  -4  -3  -3    6.40    1.15
   3   3  -4    5.08    2.27
  -4   3   3    6.17    1.24
  -3  -4  -3    5.11    1.17
  -3   4   3    5.45    1.26
  -3  -3  -4    6.54    1.15
   4   3  -3    5.72    1.84
   3  -3   4    5.13    0.74
  -3   3   4    5.30    1.23
   3  -4   3    4.41    0.76
   3   4  -3    4.85    1.82
  -3   4  -3    4.45    0.96
   3  -3  -4    5.86    1.24
  -3   3  -4    7.09    0.89
  -4  -3   3    6.34    1.74
   3   3   4    4.63    1.01
  -3  -4   3    3.16    1.13
   3   4   3    4.42    1.12
   4  -3  -3    4.01    1.07
  -3  -3   4    6.53    1.66
   4   3   3    5.12    1.09
  -4  -4   0  295.79   15.27
  -4   0  -4  293.31   14.43
  -4   0   4  298.38   15.44
  -4   0   4  295.50   15.32
  -4   4   0  300.39   14.67
   0  -4  -4  306.69   15.11
   0  -4   4  295.10   15.28
   0   4  -4  264.90   15.84
   0   4   4  300.91   15.05
   4  -4   0  297.49   14.67
   4   0   4  306.54   14.43
   4   4   0  298.81   15.36
  -4  -4  -1  181.73    9.73
   4  -1   4  174.75    8.96
  -4  -1  -4  191.39    9.21
   4  -4   1  187.88    9.15
  -4   1   4  182.00    9.86
  -4   1   4  181.84    9.76
   4   1  -4  172.84   10.78
  -4   4   1  189.17    9.41
  -1  -4  -4  190.32    9.69
   4  -1   4  194.16    8.84
   4   4  -1  174.43   10.11
  -1   4   4  187.46    9.69
   1  -4   4  184.14    9.62
   1   4  -4  160.07   10.63
   1   4   4  189.60    9.64
   4  -4  -1  173.47    9.36
  -4  -1   4  181.81   10.06
  -1  -4   4  180.40   10.05
  -4  -4   1  196.17   10.12
  -4   4  -1  187.42    9.18
   4   1   4  182.38    9.17
  -1   4  -4  164.80   10.22
   4   4   1  181.00    9.76
  -4  -4  -2   42.58    2.95
   2  -4   4   36.93    2.54
  -4  -2  -4   38.72    2.56
   4  -4   2   39.34    2.24
  -4   2   4   39.78    3.00
  -4   2   4   37.69    2.84
   4   4  -2   38.71    3.69
  -2  -4  -4   39.83    2.84
  -2   4   4   40.51    2.91
   4   2  -4   39.31    4.48
   2   4  -4   30.78    4.00
  -2  -4   4   41.63    3.40
  -4  -4   2   40.31    3.42
   2  -4  -4   40.75    2.89
   2   4   4   38.24    2.80
   4  -4  -2   35.86    2.73
  -4  -2   4   37.56    3.23
  -2   4  -4   35.81    3.21
   4   2   4   37.58    2.53
  -4   4  -2   44.11    2.37
   4   4   2   37.80    2.85
  -4  -4  -3  251.80   12.43
   4   4  -3  241.44   13.79
   4  -4   3  249.33   11.62
  -4   3   4  233.33   12.49
   4   3  -4  247.21   14.29
  -4   4   3  247.15   12.40
  -3  -4  -4  247.74   12.39
   3  -4   4  253.25   11.86
   3   4  -4  217.50   13.78
  -3   4   4  246.66   12.51
   3  -4  -4  241.17   12.46
  -3  -4   4  229.73   12.95
  -3   4  -4  213.61   12.30
   3   4   4  236.62   12.32
   4  -4  -3  237.71   12.33
  -4  -3   4  246.79   12.96
   4  -3  -4  240.48   12.47
  -4   4  -3  222.24   11.89
  -4  -4   3  230.57   13.00
   4   4   3  233.85   12.32
  -4  -4  -4  395.20   19.57
   4  -4   4  390.70   18.75
   4   4  -4  370.47   21.29
  -4   4   4  396.19   19.73
   4  -4  -4  402.45   19.73
  -4  -4   4  405.78   20.32
  -4   4  -4  364.96   18.93
   4   4   4  386.26   19.50
  -5   0   0    1.16    0.66
   0  -5   0    0.16    0.45
   0   0   5    0.14    0.54
   0   0   5    2.47    0.71
   0   5   0    0.30    0.47
   5   0   0    0.76    0.84
   0   5  -1  217.12   11.65
   0   5   1  219.43   11.58
   1   0   5  226.78   11.47
   5   1   0  212.99   12.15
   0  -5  -1  226.27   11.61
  -5  -1   0  247.50   11.85
  -5   1   0  238.11   11.32
  -5   1   0  221.32   11.55
  -1   0   5  216.64   11.69
  -1   0   5  227.85   11.69
   0  -5   1  229.97   11.63
   0  -5   2    1.73    0.63
   0   5  -2    2.06    0.93
   0   5   2    1.86    0.58
   2   0   5    3.16    0.72
   5   2   0    2.53    1.01
   0  -5  -2    3.17    0.77
  -2   0  -5    3.53    0.81
  -2   0   5    3.54    0.98
  -2   0   5    2.06    0.68
  -5   2   0    2.81    0.64
  -5   2   0    3.80    0.87
  -5  -2   0    2.63    0.97
   0  -5  -3   19.08    1.91
  -3   0  -5   19.47    1.56
   0   5   3   18.87    1.91
  -3   0   5   19.44    2.23
  -5   3   0   19.99    1.51
  -5  -3   0   20.84    2.17
  -3   0   5   22.06    2.16
   3   0   5   19.43    1.47
   5   3   0   18.70    2.29
  -4   0   5   52.27    3.86
   0   5   4   50.94    3.60
   5  -4   0   54.66    3.21
  -4   0   5   50.80    4.00
   5   4   0   52.42    4.02
   0  -5  -4   56.93    3.69
   0  -5   4   53.58    3.78
  -5  -4   0   51.83    3.88
  -5   4   0   54.37    3.16
   1   5   0   20.39    1.95
   5   0  -1   23.72    2.45
   5   0   1   21.27    2.08
  -1  -5   0   21.21    1.94
  -1   5   0   23.40    1.91
   1  -5   0   23.99    1.86
  -5   0  -1   25.18    1.77
   0  -1   5   21.90    2.10
   0  -1  -5   22.29    1.89
   0   1   5   22.31    1.89
   0  -1   5   25.72    2.05
  -5   0   1   26.34    2.21
   1  -1   5  410.67   20.62
  -5   1   1  424.63   20.80
  -5   1   1  428.89   20.65
   5   1  -1  400.33   21.64
  -1  -1  -5  416.88   20.65
   1  -1   5  391.88   20.73
  -1  -5  -1  416.50   20.86
  -1   1   5  427.41   20.89
  -1   5   1  426.12   20.76
   1   5  -1  391.38   20.91
  -5  -1  -1  435.00   20.62
   1   1   5  405.72   20.61
  -1  -1   5  407.55   21.00
   5   1   1  389.56   20.89
   1  -1  -5  447.20   20.92
   1   5   1  401.20   20.78
  -5   1  -1  449.55   20.52
  -5   1  -1  431.98   20.27
  -1  -1   5  415.54   21.04
  -5  -1   1  432.07   21.13
  -1  -5   1  418.98   20.89
   1  -5  -1  433.41   20.74
   1   5  -2   19.05    2.27
   5   2  -1   23.38    2.95
  -5   2   1   22.11    1.79
  -5  -2  -1   25.94    2.04
  -2   1   5   22.85    2.15
   1  -5   2   22.09    1.90
  -5   2   1   22.58    1.88
  -2  -1  -5   23.33    1.82
  -1   5   2   22.53    2.01
  -1  -5  -2   25.22    2.10
   2  -1   5   24.73    1.76
   2  -1   5   24.45    1.98
  -2  -1   5   24.32    2.33
   1   5   2   25.90    2.10
   5   2   1   24.93    2.20
   2   1   5   25.61    1.82
  -5  -2   1   28.37    2.57
  -5   2  -1   27.47    1.51
  -5   2  -1   25.09    1.77
  -1  -5   2   26.00    2.21
  -1   5  -2   22.22    2.04
   1  -5  -2   27.11    2.09
  -1  -5  -3    8.08    1.37
  -5  -3  -1    6.75    1.35
  -3   1   5    6.94    1.53
   1   5  -3    6.24    1.55
   5   3  -1    8.85    1.93
  -5   3   1    8.45    1.04
  -3  -1  -5    7.27    1.05
   3  -1   5    8.17    0.88
   3  -1   5    8.35    1.18
  -1   5   3    7.34    1.31
   1  -5   3    7.01    1.21
   1  -5  -3    8.04    1.32
   3   1   5    6.51    0.94
  -5   3  -1    7.93    0.90
  -1   5  -3    8.48    1.49
  -5   3  -1    9.99    0.85
   5   3   1   11.28    1.66
  -3  -1   5    8.05    1.74
  -5  -3   1   10.25    1.89
   5  -3  -1    5.78    1.11
   1   5   3    6.89    1.31
  -1  -5   3    8.01    1.56
   5   4  -1  180.97   10.64
   1  -5   4  172.54    9.85
  -4   1   5  190.46   10.20
  -5   4   1  193.52    9.72
  -4  -1  -5  202.15    9.60
   5  -4   1  196.04    9.47
  -1  -5  -4  192.82   10.10
  -5  -4  -1  196.83   10.22
  -4   1   5  190.66   10.35
   4  -1   5  189.39    9.50
   4  -1   5  198.77    9.28
   1   5  -4  168.32   10.92
  -5   4  -1  195.75    9.45
   5  -4  -1  183.97    9.73
   1  -5  -4  184.00   10.06
  -1  -5   4  188.12   10.41
   1   5   4  181.69   10.01
  -4  -1   5  183.85   10.41
  -5  -4   1  198.78   10.60
   4   1   5  191.34    9.53
   5   4   1  178.69   10.20
  -1   5  -4  169.34   10.47
   5   0   2  205.63   10.69
   2  -5   0  207.64   10.63
   0   2  -5  182.81   11.11
   0   2   5  211.64   10.81
   5   0  -2  199.24   11.41
  -5   0   2  224.43   11.16
  -2  -5   0  218.15   11.01
  -2   5   0  211.59   10.75
   2   5   0  199.98   10.96
  -5   0  -2  221.19   10.29
   0  -2   5  209.23   11.14
   5   1  -2  116.80    8.03
  -5   1   2  117.06    7.02
  -1   2   5  120.05    7.04
  -1  -2  -5  121.93    6.89
   1  -2   5  116.07    7.13
   2  -5   1  115.01    6.72
   2   5  -1  114.98    7.22
  -5  -1  -2  125.09    6.64
   1  -2   5  118.00    6.95
  -2  -5  -1  124.19    7.12
   1   2  -5  104.84    7.61
   5   1   2  135.60    6.89
  -2   5  -1  131.80    6.87
   1  -2  -5  136.96    7.12
  -5  -1   2  145.99    7.48
  -2  -5   1  131.29    7.23
  -5   1  -2  145.23    6.28
   1   2   5  133.62    6.93
   2  -5  -1  138.39    6.95
  -5   1  -2  144.42    6.29
  -1  -2   5  138.39    7.49
   2   5   1  133.09    7.13
  -2  -5  -2   43.02    3.07
   2   5  -2   35.38    3.24
  -5   2   2   42.90    2.85
   2   2  -5   36.58    4.04
   2  -5   2   41.81    2.71
  -2  -2  -5   41.91    2.80
   2  -2   5   43.16    2.69
   2  -2   5   39.09    3.00
  -2   5   2   45.93    2.95
  -5  -2  -2   43.88    2.77
   5   2  -2   41.21    4.22
  -5   2   2   40.70    2.85
  -2  -2   5   44.00    3.39
  -5  -2   2   42.66    3.40
   2   5   2   42.24    2.99
  -2  -5   2   42.74    3.23
   5   2   2   40.43    2.85
   2  -5  -2   44.77    2.91
  -2   5  -2   40.89    2.80
   2  -2  -5   43.58    3.03
   2   2   5   40.41    2.72
  -3  -2  -5  765.73   36.58
   3   2  -5  699.13   38.26
  -5  -3  -2  806.42   36.81
   3  -2   5  737.54   36.20
   5   3  -2  685.93   37.89
   2   5  -3  671.16   37.42
  -2   5   3  753.88   36.82
   3  -2   5  697.98   36.48
  -2  -5  -3  763.89   36.90
  -5   3   2  790.70   36.73
   2  -5   3  732.33   36.49
   3  -2  -5  762.28   37.02
  -3  -2   5  781.78   37.39
   5   3   2  777.06   36.84
   3   2   5  787.48   36.56
  -2  -5   3  760.45   37.30
   5  -3  -2  770.40   36.76
   2   5   3  763.00   36.86
  -5  -3   2  793.18   37.50
   2  -5  -3  791.65   36.90
  -2   5  -3  713.54   36.76
  -2   5   4  441.11   22.78
   5  -4   2  480.39   22.03
  -5   4   2  461.97   22.61
  -4  -2  -5  455.94   22.46
  -4   2   5  470.34   22.88
  -2  -5  -4  453.84   22.83
   2  -5   4  455.55   22.47
   2   5  -4  404.43   23.87
   5   4  -2  429.22   23.81
   4  -2   5  465.99   21.89
   4   2  -5  449.29   24.63
   4  -2   5  442.62   21.97
  -5   4  -2  457.26   22.04
  -5  -4   2  484.95   23.53
   2   5   4  471.91   22.84
   4   2   5  460.21   22.41
   2  -5  -4  477.95   22.93
  -2  -5   4  449.14   23.31
   5  -4  -2  467.75   22.67
  -2   5  -4  431.91   23.11
   0   3   5   14.41    1.63
   5   0   3   12.32    1.24
   3   5   0   12.61    1.87
  -5   0  -3   14.71    1.04
  -5   0   3   13.85    1.90
  -3  -5   0   13.88    1.82
  -3   5   0   13.25    1.38
   0  -3  -5   15.07    1.68
   0  -3   5   15.11    1.95
   0   3  -5   11.07    2.40
   3  -5   0   13.94    1.42
  -3  -5  -1   90.98    5.44
   1  -3   5   82.21    5.38
  -1  -3  -5   90.01    5.25
   3   5  -1   85.40    5.62
  -5   1   3   80.66    5.34
   3  -5   1   89.09    4.91
  -1   3   5   89.86    5.32
   5   1  -3   93.23    6.66
  -5  -1  -3   92.27    4.81
   1   3  -5   81.22    6.46
  -5   1   3   89.07    5.40
  -1  -3   5   97.40    5.76
  -5  -1   3   96.32    5.74
  -3  -5   1   97.05    5.65
  -3   5  -1   91.31    4.98
   1   3   5   93.32    5.21
   3  -5  -1   93.71    5.11
  -1   3  -5   81.69    5.57
   3   5   1   89.83    5.40
   1  -3  -5   90.27    5.31
   5   1   3   94.48    4.93
   3   5  -2  283.61   15.78
  -5  -2  -3  315.03   14.94
   2  -3   5  292.15   15.08
  -5   2   3  291.04   15.19
  -5   2   3  295.71   15.16
  -3  -5  -2  296.43   15.31
   3  -5   2  304.35   14.76
  -2   3   5  288.31   15.28
   5   2  -3  295.07   16.80
  -2  -3  -5  300.83   15.12
  -3   5   2  281.30   15.03
   2   3  -5  286.19   16.78
   2   3   5  299.04   15.04
  -5  -2   3  312.54   15.67
  -3   5  -2  295.77   14.90
   5   2   3  311.99   15.05
   2  -3  -5  292.86   15.26
  -2   3  -5  264.40   14.98
  -3  -5   2  318.35   15.73
  -2  -3   5  320.05   15.75
   3  -5  -2  311.92   15.13
   3   5   2  296.67   15.24
   5   3  -3   14.82    3.50
  -3  -5  -3   15.55    1.94
   3   3  -5   15.15    3.68
   3  -3   5   13.92    1.45
  -3   3   5   15.60    1.99
   3  -5   3   15.61    1.43
  -3   5   3   14.66    1.75
  -5  -3  -3   16.49    1.72
   3  -3   5   15.78    1.44
   3   5  -3   17.03    2.87
  -3   5  -3   15.49    1.72
  -5  -3   3   18.27    2.43
   3  -3  -5   15.48    1.87
   5   3   3   16.65    1.76
  -3  -3   5   19.62    2.33
   3  -5  -3   16.51    1.76
   5  -3  -3   15.94    1.78
   3   5   3   13.00    1.75
   3   5  -4   25.39    3.99
   4  -3   5   29.17    1.77
  -5  -4  -3   29.70    2.63
   5   4  -3   29.26    4.26
  -4  -3  -5   31.07    2.50
   3  -5   4   27.60    2.14
  -3   5   4   29.51    2.66
   4   3  -5   29.60    4.84
   4  -3   5   28.66    1.74
  -5  -4   3   36.14    3.45
   4   3   5   33.70    2.44
   3  -5  -4   34.76    2.73
  -3   5  -4   31.32    3.00
   4  -3  -5   36.49    2.89
   5   4   3   33.19    2.69
  -4  -3   5   35.06    3.13
  -3  -5   4   35.72    3.35
   5  -4  -3   31.28    2.63
  -4  -5   0   50.28    3.68
   4   5   0   47.65    3.75
   5   0   4   50.47    2.79
  -5   0   4   49.17    3.84
  -4   5   0   49.08    3.11
   0  -4  -5   55.05    3.58
   0  -4   5   47.55    3.75
   0   4  -5   52.50    4.76
   0   4   5   47.50    3.38
   4  -5   0   50.97    3.12
   4   5  -1  169.91   10.31
   5   1  -4  182.93   11.36
  -5  -1  -4  188.86    9.39
  -5   1   4  193.08   10.20
  -5   1   4  199.45   10.14
   1   4  -5  184.63   11.46
  -4  -5  -1  193.66   10.11
   1  -4   5  202.30   10.09
  -4   5   1  189.71    9.64
  -1  -4  -5  202.07    9.99
  -1   4   5  184.74    9.94
   4  -5   1  191.68    9.41
   5   1   4  183.75    9.38
  -1   4  -5  164.22   10.58
  -4  -5   1  186.31   10.32
   4  -5  -1  182.26    9.63
   1  -4  -5  183.04    9.94
   1   4   5  177.26    9.80
   4   5   1  165.57    9.98
  -4   5  -1  175.78    9.42
  -1  -4   5  179.79   10.29
  -5   2   4   34.05    2.83
   5   2  -4   38.50    4.68
   4   5  -2   36.26    3.61
   4  -5   2   37.42    2.26
   2  -4   5   38.53    2.68
   2   4  -5   33.47    4.56
  -4  -5  -2   34.73    2.96
  -5   2   4   36.67    2.97
  -5  -2  -4   38.53    2.49
  -2  -4  -5   36.23    2.79
  -2   4   5   40.13    3.00
   5   2   4   32.40    2.42
   2  -4  -5   33.97    2.84
  -4  -5   2   31.75    3.25
   4   5   2   30.45    2.76
  -5  -2   4   31.29    3.13
  -2  -4   5   35.22    3.21
  -2   4  -5   32.85    3.21
   2   4   5   33.96    2.70
  -4   5  -2   34.43    2.34
  -5   3   4  325.79   17.06
  -5  -3  -4  334.70   16.73
  -4   5   3  325.87   16.90
  -3  -4  -5  320.65   16.87
   5   3  -4  309.08   18.79
   4   5  -3  304.56   18.07
  -3   4   5  327.12   17.11
   3   4  -5  302.01   18.73
   3  -4   5  324.08   16.39
   4  -5   3  332.56   16.26
   3  -4  -5  341.94   17.11
   4  -5  -3  360.21   17.00
   3   4   5  344.29   16.89
  -3   4  -5  321.51   16.69
   4   5   3  321.94   17.18
  -3  -4   5  351.13   17.60
   5   3   4  343.33   16.76
  -4  -5   3  360.81   17.84
  -4   5  -3  331.11   16.55
  -5  -3   4  358.66   17.59
  -5  -4  -4    7.97    1.91
   4   4  -5    9.14    2.93
  -5   4   4    9.75    1.91
  -4  -5  -4   10.33    1.84
   4  -4   5   11.05    1.10
   4   5  -4    6.92    2.72
  -4   4   5    7.51    1.86
   4  -4   5    7.98    0.95
  -4   5   4    9.51    1.89
   5   4  -4   10.74    3.10
   4  -5   4   11.25    1.12
   4  -5  -4    8.62    1.67
  -4  -5   4   10.64    2.18
  -4   5  -4    8.75    2.10
  -5  -4   4   11.10    2.50
   4   4   5    8.90    1.59
  -4  -4   5   10.13    2.33
   4   5   4    9.05    1.71
   5  -4  -4    9.25    1.75
   4  -4  -5   10.26    1.77
   5   4   4   13.02    1.72
  -5  -5   0   53.82    4.11
  -5   0  -5   53.31    3.00
  -5   0   5   53.97    4.26
  -5   0   5   53.76    4.08
  -5   5   0   54.46    3.33
   0  -5  -5   55.29    3.86
   0  -5   5   51.38    4.00
   0   5  -5   47.13    4.94
   0   5   5   53.52    3.78
   5  -5   0   52.10    3.28
   5   0   5   54.57    3.01
   5   5   0   54.78    4.24
   1   5  -5  467.07   26.66
  -5  -1  -5  517.67   24.72
  -1   5   5  487.73   25.31
  -5   1   5  519.52   25.71
  -5   1   5  517.21   25.54
   5   5  -1  502.11   26.01
  -5   5   1  515.16   24.99
  -1  -5  -5  505.77   25.36
   5  -5   1  518.44   24.72
   1  -5   5  512.66   25.33
  -5  -1   5  512.07   25.78
   1  -5  -5  525.59   25.47
  -1   5  -5  475.85   26.24
  -5  -5   1  514.20   25.84
   1   5   5  491.40   25.27
   5  -5  -1  500.20   24.97
  -1  -5   5  502.30   25.76
   5   1   5  522.37   24.72
  -5   5  -1  519.55   24.77
  -5  -5  -2   33.23    2.97
   5  -5   2   33.22    2.05
   5   2  -5   34.59    4.92
  -5   2   5   33.50    3.02
  -5   2   5   32.88    2.91
   2  -5   5   35.74    2.60
  -5   5   2   31.86    2.55
   5   5  -2   34.53    3.93
   2   5  -5   32.57    4.66
  -2   5   5   35.73    2.95
   2  -5  -5   27.94    2.72
  -2  -5   5   26.82    3.14
  -2   5  -5   24.33    3.56
   5  -5  -2   29.42    2.51
  -5  -5   2   33.08    3.51
  -5  -2   5   29.85    3.17
   5   2   5   28.49    2.27
  -5   5  -2   29.48    2.12
   5   5   2   28.48    2.87
  -5  -5  -3   49.95    3.78
   3   5  -5   44.57    5.59
  -5  -3  -5   43.96    3.29
  -3   5   5   43.86    3.64
  -5   3   5   40.64    3.60
  -5   3   5   43.59    3.64
   5  -5   3   47.33    2.65
  -3  -5  -5   46.74    3.59
   3  -5   5   45.44    3.00
  -3   5  -5   46.85    3.90
  -5  -3   5   48.07    3.95
   3  -5  -5   52.23    3.72
  -3  -5   5   48.58    4.19
  -5  -5   3   51.78    4.43
   3   5   5   45.97    3.46
   5  -5  -3   48.95    3.47
  -5   5  -3   49.35    3.01
   5   3   5   51.16    3.29
   5   5   3   43.03    3.55
  -5  -5  -4   97.83    6.32
   5   5  -4  107.26    8.45
  -5  -4  -5   98.77    6.16
   5   4  -5  106.24    8.85
  -5   4   5   97.17    6.41
  -5   5   4   99.75    6.38
  -4  -5  -5   98.03    6.29
   4  -5   5  104.82    5.53
   4   5  -5  102.05    8.67
  -4   5   5   94.83    6.43
   4  -5  -5  110.79    6.52
  -4  -5   5  113.83    7.10
  -4   5  -5  103.20    5.93
   4   5   5  104.07    6.27
   5  -5  -4  110.08    6.42
   5  -4  -5  108.48    6.50
  -5  -4   5  114.57    6.96
   5   4   5  106.59    6.17
  -5  -5   4  113.11    7.20
   5   5   4  108.62    6.34
  -5  -5  -5  751.91   35.90
   5   5  -5  771.18   38.51
  -5   5   5  744.96   36.08
   5  -5  -5  699.36   35.93
  -5  -5   5  713.43   36.45
   5   5   5  669.06   35.68
  -6   0   0  383.39   19.13
   0  -6   0  400.65   19.16
   0   0   6  380.91   19.09
   0   0   6  370.16   19.02
   0   6   0  360.58   19.04
   6   0   0  381.64   19.46
   6   1   0  184.53   10.97
   1   0   6  186.92   10.07
  -6  -1   0  209.11   10.47
  -6   1   0  197.91    9.87
  -6   1   0  191.99   10.15
  -1   0   6  198.84   10.43
  -1   0   6  191.94   10.30
   0  -6  -1  194.09   10.26
   0  -6   1  197.86   10.27
   0   6  -1  180.89   10.26
   0   6   1  190.15   10.25
   1   0   6  194.21   10.10
  -2   0   6  118.00    6.77
   6   2   0  107.23    7.52
   0   6   2  119.11    6.69
  -6  -2   0  121.00    6.98
  -6   2   0  122.70    6.17
  -2   0   6  119.11    6.94
   0   6  -2  112.22    6.80
   0  -6  -2  114.97    6.63
   0  -6   2  113.42    6.59
   6   3   0    6.17    1.72
  -3   0   6    6.67    1.47
   3   0   6    7.88    1.09
  -6   3   0    6.99    1.15
  -3   0  -6    5.07    1.11
  -3   0   6    6.11    1.52
  -6   3   0    6.46    0.98
   0  -6  -3    5.64    1.42
   0  -6   3    6.81    1.51
   0  -6  -4   15.43    2.03
   4   0   6   16.07    1.39
  -6  -4   0   13.99    2.39
  -6   4   0   15.55    1.46
   0   6   4   16.37    2.05
  -4   0   6   16.15    2.31
   0  -6   4   14.43    2.11
   6   4   0   15.56    2.66
  -4   0  -6   16.49    1.53
  -4   0   6   13.59    2.42
   0  -6   5   96.96    6.19
   6  -5   0   99.90    5.47
   6   5   0   99.65    6.64
  -6  -5   0  102.96    6.45
  -6   5   0   96.34    5.39
  -5   0   6   90.01    6.18
   0  -6  -5   95.71    6.02
  -5   0   6   97.22    6.63
  -5   0  -6   94.47    5.15
   0   6   5   88.40    5.88
   5   0   6   99.39    5.12
   0   6  -5   90.58    7.22
   6   0  -1   89.37    6.09
   1   6   0   89.87    5.62
   0  -1   6   90.46    5.74
  -6   0  -1  101.23    5.35
   6   0   1   98.42    5.79
  -1   6   0   91.07    5.50
  -6   0   1  101.49    5.78
  -1  -6   0   95.50    5.67
   1  -6   0   95.18    5.48
   0   1   6   95.59    5.57
   0  -1  -6  100.75    5.62
   0  -1   6   95.14    5.66
   1  -1   6  202.94   10.93
   6   1  -1  216.75   12.06
   1  -1   6  200.87   10.78
   1  -6   1  206.26   10.84
  -1   1   6  212.69   11.06
  -1   6   1  204.25   10.88
  -6  -1  -1  214.85   10.80
  -1  -1  -6  208.48   10.82
  -6   1   1  204.34   10.95
   1   6  -1  196.67   11.10
  -6   1   1  207.95   10.74
   1   1   6  205.53   10.78
   1  -6  -1  207.33   10.87
  -6   1  -1  218.24   10.63
  -1  -1   6  204.02   11.21
   6   1   1  201.07   11.63
  -6   1  -1  213.62   10.37
  -1  -6   1  200.27   10.99
   1   6   1  210.46   11.01
  -1  -1   6  208.67   11.16
  -6  -1   1  216.24   11.26
  -2   1   6  461.95   22.73
   2  -1   6  459.55   22.37
  -1   6   2  485.35   22.56
   1  -6   2  465.17   22.39
   2  -1   6  470.12   22.18
   6   2  -1  458.49   23.63
  -6   2   1  476.49   22.20
  -1  -6  -2  473.66   22.62
   1   6  -2  444.64   22.82
  -6   2   1  443.60   22.40
  -2   1   6  445.88   22.50
  -6  -2   1  451.31   22.89
  -6   2  -1  440.65   22.11
  -1  -6   2  418.26   22.51
  -2  -1   6  437.31   22.90
  -1   6  -2  415.08   22.43
  -2  -1   6  450.67   22.79
   1  -6  -2  424.29   22.39
   1   6   2  447.33   22.54
  -6   2  -1  475.37   21.78
   6   2   1  398.18   22.76
   1  -6   3  251.11   12.90
  -1   6   3  245.90   13.01
   3  -1   6  254.13   12.77
   1   6  -3  241.48   13.57
   3  -1   6  253.94   12.45
  -3   1   6  239.90   13.27
  -6   3   1  252.77   12.72
  -3   1   6  261.17   13.17
  -3  -1  -6  256.33   12.69
  -6  -3  -1  271.77   13.13
  -6   3   1  268.20   12.70
  -1  -6  -3  266.08   13.18
  -6   3  -1  259.39   12.28
   3   1   6  230.87   12.53
   1  -6  -3  235.45   12.97
  -3  -1   6  256.48   13.43
  -3  -1   6  239.58   13.58
   1   6   3  248.42   13.09
  -6   3  -1  239.63   12.43
  -1   6  -3  241.22   13.17
  -1  -6   3  240.52   13.17
   6   3   1  232.12   13.20
  -1  -6  -4   35.22    3.19
  -4   1   6   35.78    3.20
  -6   4   1   38.86    2.73
   6   4  -1   38.50    4.03
  -4   1   6   37.40    3.46
   4  -1   6   41.01    2.82
   1  -6   4   38.57    3.00
  -6  -4  -1   37.20    3.26
   4  -1   6   38.62    2.37
  -1   6   4   37.90    3.15
   1   6  -4   35.40    4.07
  -6   4  -1   40.11    2.51
  -1  -6   4   39.53    3.37
   6  -4  -1   40.87    2.90
   4   1   6   42.64    2.66
  -4  -1   6   40.78    3.85
  -4  -1   6   37.65    3.53
  -6   4  -1   44.24    2.48
   1   6   4   40.88    3.20
   1  -6  -4   40.72    3.17
  -6  -4   1   42.44    3.92
   6   4   1   39.33    3.45
  -1   6  -4   40.34    3.70
   5  -1   6   55.65    2.86
   6   5  -1   51.09    4.85
   1  -6   5   49.88    3.83
  -5   1   6   48.46    4.29
  -6   5   1   50.93    3.42
   1   6  -5   52.42    5.64
   5  -1   6   49.43    3.27
  -5  -1  -6   49.79    3.26
  -1   6   5   54.06    3.95
   6  -5   1   57.84    3.28
  -1  -6  -5   48.03    3.89
  -5   1   6   50.40    4.09
   1   6   5   51.93    3.92
  -1   6  -5   42.65    4.82
   5   1   6   52.37    3.21
   6   5   1   52.64    4.27
  -5  -1   6   49.18    4.45
  -6   5  -1   54.17    3.21
   1  -6  -5   52.39    3.98
   6  -5  -1   53.57    3.53
  -6  -5   1   54.13    4.56
  -1  -6   5   53.49    4.31
  -5  -1   6   58.16    4.40
   0  -2   6  165.01    9.26
  -6   0  -2  173.17    8.40
   0   2   6  169.37    8.98
   2   6   0  162.11    9.16
   6   0  -2  165.73    9.74
   0  -2   6  168.28    9.23
   6   0   2  160.75    8.94
   0  -2  -6  164.01    8.95
  -6   0   2  168.54    9.21
  -2  -6   0  160.59    9.11
  -2  -6  -1   63.57    4.34
  -6   1   2   61.93    4.15
   2   6  -1   67.39    4.55
   1  -2   6   62.29    4.25
  -1   2   6   68.10    4.34
   6   1  -2   65.48    5.51
  -2   6   1   64.67    4.11
   1  -2   6   63.68    4.39
   2  -6   1   66.37    4.00
  -1  -2  -6   63.19    4.11
  -2  -6   1   67.88    4.44
  -6   1  -2   68.96    3.45
  -1  -2   6   66.24    4.55
   2   6   1   62.49    4.28
   6   1   2   59.92    4.29
  -2   6  -1   63.02    4.04
   1   2   6   69.27    4.15
   2  -6  -1   65.96    4.07
  -6  -1   2   71.06    4.54
  -6   1  -2   68.86    3.43
   1  -2  -6   65.81    4.27
   6   2  -2   67.29    5.84
   2   2  -6   65.01    5.61
   2  -6   2   69.57    4.21
  -2  -6  -2   72.32    4.62
  -2   6   2   69.64    4.43
   2  -2   6   71.04    4.56
   2   6  -2   69.34    4.94
   2  -2   6   72.53    4.19
  -2  -2  -6   71.76    4.34
  -6   2   2   68.93    4.28
  -6   2   2   70.81    4.41
  -2   2   6   67.59    4.59
  -6  -2  -2   73.39    4.23
   2   2   6   66.06    4.20
   2  -2  -6   71.15    4.60
  -2  -6   2   72.38    4.76
   2  -6  -2   70.44    4.39
  -2   6  -2   71.81    4.38
   2   6   2   65.88    4.48
  -2  -2   6   68.86    4.83
  -6  -2   2   71.04    4.88
   6   2   2   67.31    4.45
   2   6  -3  101.00    7.18
  -6  -3  -2  109.28    6.43
   6   3  -2  104.28    7.85
  -6   3   2  108.94    6.34
  -2  -6  -3  103.40    6.60
   2  -6   3  108.08    6.26
   3  -2   6  103.68    6.41
  -2   6   3  107.89    6.52
  -6   3   2  109.88    6.33
  -3  -2  -6  111.84    6.32
   3  -2   6  106.26    5.97
   2   6   3  119.33    6.71
  -2   6  -3  115.04    6.62
  -6  -3   2  122.21    7.23
   2  -6  -3  131.25    6.71
  -2  -6   3  130.19    7.10
  -3  -2   6  123.93    7.15
   6   3   2  118.91    6.71
   3   2   6  120.61    6.29
  -2  -6  -4  112.45    6.79
   4  -2   6  115.51    5.81
  -2   6   4  105.34    6.66
  -4  -2  -6  110.98    6.31
   4  -2   6  101.87    6.11
   4   2  -6  110.33    8.67
   2  -6   4  104.04    6.35
  -4   2   6  110.97    6.96
  -6   4   2  110.91    6.42
   2   6  -4  106.26    7.78
  -4   2   6  107.13    6.69
   2   6   4  121.12    6.80
  -6   4  -2  118.27    5.75
  -2  -6   4  126.11    7.32
   4   2   6  120.24    6.31
   6  -4  -2  117.31    6.56
   2  -6  -4  121.70    6.80
  -4  -2   6  119.23    7.23
  -6   4  -2  118.91    5.81
   6   4   2  118.35    6.89
  -2   6  -4  110.97    7.00
  -6   5   2    6.09    1.57
   6  -5   2    6.08    1.11
   6   5  -2    4.88    2.06
  -5   2   6   10.46    2.13
   2   6  -5    3.06    2.31
  -2  -6  -5    8.50    1.78
  -6  -5  -2    4.58    1.30
  -2   6   5    6.62    1.58
  -5  -2  -6    5.33    1.45
   5   2  -6    8.71    3.12
  -5   2   6    7.22    1.97
   2  -6   5    6.31    1.63
   6   5   2    9.25    2.25
   2   6   5    8.28    1.89
  -2   6  -5    9.93    2.38
  -6  -5   2   10.00    2.36
   5   2   6    9.77    1.39
   6  -5  -2    6.11    1.59
   2  -6  -5    8.85    1.89
  -6   5  -2    7.87    1.16
  -2  -6   5   10.58    2.59
  -5  -2   6    8.60    2.29
   0   3  -6  113.81    7.95
   0  -3  -6  128.71    7.36
   0  -3   6  139.35    7.73
  -3  -6   0  129.17    7.56
   3   6   0  136.63    7.67
   0   3   6  136.06    7.39
   6   0   3  122.54    7.07
   3  -6   0  133.28    7.10
  -6   0   3  132.27    7.64
  -6   0   3  125.21    7.57
  -3   6   0  135.79    7.15
   1   3  -6   50.74    5.06
  -1  -3  -6   47.42    3.76
   3  -6   1   53.52    3.55
  -6  -1  -3   55.09    3.36
   1  -3   6   48.11    4.00
   3   6  -1   45.68    4.12
  -3  -6  -1   49.66    4.00
   6   1  -3   47.10    5.17
  -1   3   6   49.47    3.89
   3   6   1   64.06    4.20
  -1  -3   6   69.03    4.46
   1  -3  -6   68.56    4.13
  -3  -6   1   70.95    4.39
  -6  -1   3   66.67    4.36
   6   1   3   65.34    3.73
   3  -6  -1   60.40    3.86
  -3   6  -1   67.13    3.76
   1   3   6   67.27    3.96
  -6   2   3  738.10   35.36
   2  -3   6  709.21   35.32
   2   3  -6  679.07   36.98
   3  -6   2  724.19   34.92
   3   6  -2  706.31   36.00
  -3  -6  -2  746.97   35.59
   6   2  -3  742.55   37.23
  -2  -3  -6  742.11   35.26
   2  -3   6  730.48   35.14
  -6  -2  -3  776.26   35.01
  -2   3   6  718.48   35.50
  -3   6   2  739.87   35.27
  -3  -6   2  742.54   35.82
  -6  -2   3  731.02   35.73
   2  -3  -6  707.19   35.47
  -2  -3   6  715.97   35.75
   3  -6  -2  703.91   35.21
   2   3   6  661.01   35.07
  -3   6  -2  679.98   35.05
   3   6   2  678.94   35.37
   6   2   3  712.86   35.09
   3  -6   3   15.14    1.69
  -3   6   3   15.82    2.03
   3   6  -3   17.73    3.06
  -6   3   3   13.95    1.88
   3  -3   6   16.11    1.58
   3  -3   6   17.35    1.96
  -3  -3  -6   18.38    2.01
   3   3  -6   19.86    4.52
   6   3  -3   16.41    3.87
  -3  -6  -3   19.58    2.32
  -3   3   6   15.70    2.28
  -3  -6   3   16.84    2.58
  -6  -3   3   19.33    2.73
   6   3   3   15.26    1.98
   3  -6  -3   17.17    1.97
  -3  -3   6   17.10    2.43
   3  -3  -6   14.83    2.11
  -3   6  -3   14.04    2.00
   3   3   6   15.30    1.81
   3   6   3   13.41    2.01
   3  -6   4  184.81    9.51
  -6  -4  -3  180.36    9.90
   4  -3   6  177.61    9.15
   4  -3   6  177.67    9.03
  -4   3   6  176.31   10.20
  -3   6   4  166.68    9.94
  -3  -6  -4  174.61   10.07
   3   6  -4  175.54   11.46
  -4  -3  -6  175.58    9.72
   4   3  -6  177.89   12.37
  -3  -6   4  198.30   10.80
   3   6   4  187.47   10.06
   6   4   3  187.55   10.00
   3  -6  -4  189.88   10.05
   4   3   6  185.89    9.69
  -3   6  -4  179.47   10.11
  -4  -3   6  195.62   10.52
   4  -3  -6  186.21   10.22
  -6  -5  -3   98.35    6.39
  -5  -3  -6   98.76    6.00
   5   3  -6   96.77    8.97
   3   6  -5  102.65    8.40
  -5   3   6  100.68    6.40
  -3   6   5   92.48    6.35
   3  -6   5   93.89    5.76
   6   5  -3  104.56    8.34
  -6   5   3   87.71    6.08
   6  -5  -3  107.78    6.26
   3   6   5  104.06    6.34
   3  -6  -5  109.03    6.51
  -5  -3   6  122.55    6.99
  -6  -5   3  108.46    7.36
   6   5   3  108.19    6.50
   5   3   6  109.38    6.02
  -3  -6   5  108.69    7.03
  -3   6  -5  103.10    7.00
   0  -4  -6  102.35    6.07
   0   4   6   96.35    5.96
   4  -6   0  100.90    5.61
   0  -4   6  103.62    6.36
  -4   6   0  102.42    5.67
  -6   0   4  100.40    6.40
  -4  -6   0   94.67    6.23
  -6   0  -4  102.59    5.06
   0   4  -6   90.06    7.14
   6   0   4   96.59    5.31
   4   6   0  100.59    6.39
  -6   1   4   92.56    5.91
   6   1  -4   98.46    7.50
  -1   4   6   93.26    5.71
  -6  -1  -4   97.86    4.97
  -4  -6  -1   90.43    5.84
  -4   6   1   96.88    5.40
   4  -6   1   95.51    5.17
  -6   1   4  103.49    5.93
   1  -4   6   91.10    5.79
  -1  -4   6   92.39    6.04
   4  -6  -1   89.73    5.34
   1  -4  -6   85.75    5.64
  -6  -1   4   89.89    5.99
   6   1   4   89.75    5.09
   4   6   1   89.23    5.86
  -1   4  -6   77.78    6.14
  -4   6  -1   85.99    5.17
  -4  -6   1   86.74    5.99
   4  -6   2   65.99    3.69
  -6   2   4   63.73    4.39
  -6  -2  -4   63.17    3.74
  -6   2   4   63.07    4.30
   2  -4   6   65.00    4.23
   4   6  -2   69.41    5.24
   6   2  -4   69.60    6.66
  -4  -6  -2   62.18    4.70
  -2  -4  -6   66.43    4.25
   2   4  -6   60.55    6.37
  -2   4   6   64.99    4.44
   6   2   4   59.38    3.81
   2   4   6   57.21    4.01
  -2  -4   6   57.39    4.52
  -4  -6   2   59.84    4.79
  -4   6  -2   55.44    3.76
  -6  -2   4   56.54    4.46
   2  -4  -6   61.30    4.29
  -2   4  -6   48.48    4.22
   6   3  -4   23.62    4.80
   3  -4   6   26.78    2.19
   3   4  -6   14.52    3.43
  -6  -3  -4   25.88    2.27
   3  -4   6   26.37    2.27
  -6   3   4   23.52    2.56
  -6   3   4   29.56    2.67
  -4  -6  -3   24.16    2.71
   4   6  -3   22.06    3.79
  -4   6   3   25.66    2.50
  -3   4   6   26.91    2.82
  -3  -4  -6   22.64    2.49
   4  -6   3   24.25    1.90
  -3  -4   6   23.00    2.90
  -4   6  -3   22.52    2.24
  -6  -3   4   23.51    3.06
   6   3   4   22.48    2.36
   3  -4  -6   22.29    2.58
   4   6   3   19.51    2.45
  -4  -6   3   21.06    3.23
   4  -6  -3   22.91    2.37
   3   4   6   18.10    2.22
   4  -6   4   14.30    1.62
   4  -4   6   15.84    1.48
   4  -4   6   13.74    1.45
  -4   4   6   16.02    2.56
   4   6  -4   19.28    4.40
  -4   6   4   14.73    2.29
  -4  -4  -6   14.26    2.07
  -6  -4  -4   17.00    2.24
  -6   4   4   14.43    2.22
   4   4  -6   16.56    4.10
  -4  -6   4   15.36    3.12
  -4  -4   6   19.56    2.90
   6   4   4   20.66    2.33
  -4   6  -4   19.44    2.59
   4  -6  -4   18.10    2.25
   4   6   4   17.93    2.32
   4  -4  -6   19.95    2.52
   4   4   6   18.11    2.07
  -6  -4   4   22.38    3.17
  -4   6   5   56.01    4.29
  -5  -4  -6   55.99    3.91
  -6   5   4   55.10    4.16
   4  -6   5   58.06    3.32
   5   4  -6   64.21    7.40
  -6  -5  -4   54.86    4.15
  -4  -6  -5   56.44    4.25
  -5   4   6   55.87    4.31
   6   5  -4   63.16    6.99
  -4   6  -5   43.55    4.29
  -4  -6   5   45.12    4.64
   6  -5  -4   43.45    3.83
   5   4   6   48.12    3.73
   4  -6  -5   47.37    3.96
   4   6   5   48.29    3.96
   6   5   4   52.86    4.04
   5  -4  -6   46.23    4.10
  -5  -4   6   47.45    4.48
   0  -5  -6    9.50    2.05
   0   5  -6   14.53    3.79
   0  -5   6   11.75    2.42
  -6   0   5   10.03    2.46
   5  -6   0   10.59    1.51
   6   0   5   11.19    1.27
  -5   6   0   12.71    1.59
  -6   0   5   12.78    2.52
   0   5   6   16.35    2.14
   1  -5   6   57.06    4.25
  -6  -1  -5   58.72    3.37
  -1  -5  -6   54.39    4.10
   5  -6   1   59.27    3.51
  -1   5   6   53.02    4.08
  -5   6   1   60.13    3.76
  -6   1   5   55.03    4.24
  -6   1   5   56.18    4.44
   5   6  -1   57.23    4.98
  -5  -6  -1   55.02    4.32
   5   6   1   52.79    4.38
   1   5   6   53.98    4.00
  -1   5  -6   57.05    5.31
   5  -6  -1   55.91    3.73
   1  -5  -6   52.38    4.12
  -1  -5   6   54.54    4.51
  -5   6  -1   56.51    3.59
  -5  -6   1   56.96    4.66
   6   1   5   56.43    3.45
  -2   5   6   21.83    2.58
   6   2  -5   25.07    5.80
  -5  -6  -2   18.80    2.71
   5   6  -2   19.43    3.50
   5  -6   2   18.96    1.74
  -6  -2  -5   18.91    1.91
   2   5  -6   18.99    4.64
  -6   2   5   19.89    2.53
  -5   6   2   19.60    2.19
   2  -5   6   22.57    2.39
  -2  -5  -6   21.79    2.51
  -6   2   5   18.35    2.61
  -2   5  -6   16.32    3.26
   6   2   5   15.45    1.91
  -2  -5   6   17.85    2.80
  -5   6  -2   19.34    1.88
   5  -6  -2   17.62    2.10
   5   6   2   18.30    2.60
  -6  -2   5   16.95    2.64
   2  -5  -6   15.81    2.38
   2   5   6   20.13    2.33
  -5  -6   2   20.20    3.21
  -6  -3  -5   57.31    4.00
  -3   5   6   63.90    4.63
  -5  -6  -3   68.06    4.68
   3  -5   6   60.85    3.90
   3   5  -6   63.31    6.87
  -3  -5  -6   61.38    4.37
   5  -6   3   61.70    3.51
   5   6  -3   62.38    6.05
  -6   3   5   65.51    4.64
   6   3  -5   55.58    7.60
   3   5   6   56.25    4.19
  -5  -6   3   61.79    5.23
  -6  -3   5   63.96    4.82
   6   3   5   61.13    4.08
   3  -5  -6   63.43    4.55
  -3   5  -6   59.72    4.41
  -3  -5   6   62.02    4.94
  -5   6  -3   56.42    3.84
   5  -6  -3   61.43    4.24
   5   6   3   55.71    4.41
  -6   4   5  110.87    7.13
  -5   6   4  116.61    7.09
  -4  -5  -6  124.83    7.11
  -6   4   5  126.64    7.23
  -4   5   6  127.05    7.41
  -6  -4  -5  122.73    6.92
   4  -5   6  124.44    6.19
   4   5  -6  134.31   10.10
   5   6  -4  135.18    9.65
  -5  -6  -4  118.23    7.22
   5  -6   4  127.63    6.08
   4   5   6  103.46    6.76
   5   6   4   95.25    6.83
   6   4   5  102.14    6.71
  -4  -5   6  108.97    7.45
   5  -6  -4  106.87    6.89
  -5  -6   4  105.28    7.82
   4  -5  -6  109.43    7.16
  -6  -5  -5   49.36    4.19
  -6   5   5   45.44    4.29
  -5  -6  -5   47.94    4.29
   5   6  -5   51.93    7.08
  -5  -5  -6   55.98    4.24
   6   5  -5   61.45    7.50
  -5   5   6   44.25    4.33
   5  -6   5   50.89    2.98
  -5   6   5   50.24    4.29
   5   5  -6   49.55    7.49
  -5   6  -5   54.12    3.47
   5  -5  -6   53.14    4.35
  -5  -5   6   58.84    4.94
  -5  -6   5   58.74    5.14
   5   6   5   50.27    4.16
   6  -5  -5   56.91    4.32
   5  -6  -5   51.63    4.22
  -6   0   6  684.44   33.60
  -6   0   6  645.04   33.10
  -6   6   0  668.75   32.28
   0  -6   6  656.74   33.11
   0   6  -6  647.38   34.47
   6  -6   0  658.45   32.23
   6   0   6  664.56   31.79
   6   6   0  644.01   33.43
  -6  -6  -1   47.14    4.28
  -6  -1  -6   48.56    3.20
  -1   6   6   49.23    4.07
  -6   1   6   46.26    4.45
  -6   1   6   52.37    4.28
   6   6  -1   54.49    5.10
  -6   6   1   50.82    3.58
  -1  -6  -6   47.64    4.07
   6  -6   1   51.34    3.34
   1  -6   6   52.44    4.16
  -6  -1   6   50.67    4.72
   1  -6  -6   52.28    4.14
  -1   6  -6   58.12    5.73
  -6  -6   1   53.44    4.91
   1   6   6   51.45    4.05
  -1  -6   6   52.62    4.55
   6   1   6   53.37    3.29
  -6   6  -1   59.57    3.47
   6   6   1   51.35    4.50
  -6  -6  -2   62.98    4.89
   6   6  -2   73.30    6.27
  -6  -2  -6   61.66    4.04
  -6   2   6   60.09    4.99
  -6   2   6   65.56    4.89
   6  -6   2   65.14    3.79
  -6   6   2   65.02    4.36
  -2  -6  -6   66.92    4.79
   2  -6   6   62.48    4.43
   2   6  -6   63.82    7.08
  -2   6   6   64.97    4.80
   2  -6  -6   67.17    4.86
  -2  -6   6   62.08    5.12
  -2   6  -6   69.12    5.99
   2   6   6   63.47    4.64
   6  -6  -2   67.05    4.41
  -6   6  -2   63.34    3.93
   6   2   6   60.65    4.03
  -6  -6   2   75.75    5.78
   6   6   2   60.55    4.97
  -6  -6  -3   25.67    3.20
   3  -6   6   23.48    2.50
  -6  -3  -6   26.79    2.56
  -6   3   6   25.80    3.21
  -6   3   6   28.27    3.11
   6  -6   3   29.12    1.94
  -6   6   3   26.39    2.82
  -3  -6  -6   28.49    3.14
  -3   6   6   27.59    3.22
   6   6  -3   23.12    5.18
   3   6  -6   31.78    6.00
  -3  -6   6   22.39    3.47
  -6  -6   3   28.39    4.06
   3  -6  -6   25.84    3.17
   3   6   6   24.13    2.85
   6  -6  -3   20.21    2.64
  -6   6  -3   26.59    2.29
  -3   6  -6   25.91    3.87
   6   6   3   22.03    3.12
  -6  -6  -4  248.43   14.02
   4   6  -6  274.90   16.93
  -6  -4  -6  261.46   13.74
  -6   4   6  232.87   14.09
  -6   4   6  277.35   14.19
  -6   6   4  245.12   13.88
  -4  -6  -6  241.37   13.96
   6   6  -4  279.01   16.63
   4  -6   6  258.75   13.09
  -4   6   6  259.58   14.21
   4  -6  -6  265.02   14.20
  -4   6  -6  259.03   13.65
  -6  -6   4  282.31   14.99
   4   6   6  252.66   13.89
   6  -6  -4  252.43   13.88
  -4  -6   6  281.35   14.76
   6   6   4  250.19   14.00
  -6  -6  -5   11.80    2.90
   6   5  -6   14.15    5.03
  -6  -5  -6   12.15    2.71
   5  -6   6    9.99    1.28
  -6   5   6   11.55    3.07
  -6   6   5   12.79    2.96
  -5  -6  -6   12.40    2.83
   6   6  -5   11.37    3.97
  -5   6   6   11.57    2.58
   5   6  -6    9.00    4.44
   5  -6   6   10.63    1.42
  -6  -5   6   12.18    2.74
   5  -6  -6   12.17    2.72
   6  -6  -5    8.08    1.90
  -6  -6   5   13.49    2.91
  -5  -6   6   14.94    2.99
  -6  -6  -6  295.53   18.68
   6   6  -6  392.98   22.66
   6  -6  -6  380.87   19.16
  -6  -6   6  389.18   19.61
   6   6   6  345.56   18.74
  -7   0   0    0.42    0.95
   0  -7   0    1.38    0.86
   0   0   7    0.89    0.90
   0   0   7    0.03    0.83
   0   7   0    1.09    0.91
   7   0   0    0.13    1.17
   0  -7  -1    9.06    1.70
   0  -7   1    6.45    1.62
   0   7  -1    8.52    1.90
   0   7   1    8.22    1.71
   1   0   7    9.33    1.60
   1   0   7   10.33    1.59
   7   1   0   10.09    2.38
  -1   0   7    8.10    1.66
  -7   1   0    8.91    1.69
  -7   1   0    9.10    1.29
  -7  -1   0   10.06    1.98
   0   7   2    9.99    1.77
   0   7  -2   15.11    2.32
   7   2   0   12.98    3.03
   2   0   7   12.14    1.71
   2   0   7   12.35    1.57
  -7   2   0   13.80    1.39
  -2   0   7   12.21    2.20
  -2   0   7    9.10    1.81
   0  -7  -2   13.16    1.87
   0  -7   2   11.14    1.75
  -7  -2   0   12.72    2.32
   7   3   0    8.05    2.11
   0  -7  -3   10.42    1.92
   0  -7   3    8.25    1.81
   0   7  -3    4.32    1.59
   3   0   7    7.32    1.33
  -7   3   0   10.03    1.24
  -7   3   0    8.12    1.56
  -3   0   7    9.53    2.34
  -3   0   7    8.41    1.99
   3   0   7   11.29    1.66
   0   7   3    7.51    1.73
  -7  -4   0  137.04    8.20
   4   0   7  126.56    7.05
  -4   0   7  134.38    8.45
  -4   0   7  137.52    8.13
   0  -7  -4  134.39    7.88
   0   7   4  130.06    7.84
  -7   4   0  133.17    7.23
   4   0   7  134.50    7.35
   7   4   0  137.05    8.64
  -7   4   0  136.47    7.12
  -5   0   7   13.49    2.81
   5   0   7   11.09    1.88
   0   7  -5   13.88    3.10
   0   7   5   14.08    2.44
   5   0   7   15.31    1.53
  -5   0   7   13.31    3.19
  -7  -5   0   15.40    2.97
   7   5   0   11.97    3.25
   0  -7   5   15.13    2.69
   0  -7  -5   12.77    2.33
  -7   5   0   13.85    1.71
  -7   6   0  165.06    8.85
   6   0   7  165.85    8.69
  -6   0   7  155.18    9.79
   0   7  -6  173.71   11.46
   6   0   7  168.15    8.43
   7  -6   0  162.99    8.90
  -7  -6   0  169.78   10.18
   7   6   0  169.85   10.46
   0   7   6  156.20    9.56
  -6   0   7  169.05   10.40
   0  -7  -6  158.77    9.61
   0  -7   6  163.20   10.09
   7   0   1  287.69   15.11
   0  -1   7  274.31   15.12
  -1   7   0  282.50   14.93
   0  -1   7  284.65   15.05
   1  -7   0  280.45   14.87
  -1  -7   0  298.69   15.13
  -7   0  -1  310.72   14.71
   7   0  -1  292.69   15.62
   0   1   7  296.50   15.01
  -7   0   1  300.41   15.06
   1   7   0  266.42   14.98
  -1   7   1  219.39   11.89
   1   7  -1  205.98   12.07
  -1   1   7  214.93   11.84
  -7   1   1  223.72   11.67
   1  -7   1  221.15   11.85
  -1  -1  -7  216.41   11.81
  -7  -1  -1  223.81   11.72
  -1  -7  -1  231.09   12.09
  -7   1   1  220.57   11.90
   1  -1   7  216.01   11.92
   7   1  -1  221.31   13.06
  -1   1   7  215.54   12.14
   1  -1   7  215.31   11.77
   1   1   7  226.41   11.80
  -7   1  -1  241.65   11.58
  -1  -7   1  227.85   12.05
   1  -7  -1  230.08   11.89
   1   7   1  220.80   12.00
  -1  -1   7  224.85   12.26
  -7  -1   1  242.55   12.24
  -7   1  -1  241.51   11.31
   7   1   1  228.74   12.60
  -1  -1   7  236.55   12.20
  -1   7   2   87.80    5.50
   2  -1   7   90.67    5.22
  -7   2   1   92.48    5.14
   7   2  -1   93.28    6.95
  -1  -7  -2   91.00    5.65
   1  -7   2   88.63    5.44
  -2   1   7   90.91    5.81
  -2   1   7   94.66    5.59
   2  -1   7   89.83    5.48
   1   7  -2   84.10    5.87
   2   1   7   86.74    5.21
  -1  -7   2   83.14    5.54
   1  -7  -2   87.95    5.47
  -7   2  -1   90.31    4.73
   7   2   1   90.97    6.18
  -7  -2   1   87.46    5.88
  -2  -1   7   87.73    5.76
  -7   2  -1   82.37    5.01
   7   3  -1  159.34   10.55
  -3   1   7  155.39    9.38
   1  -7   3  158.22    9.17
   1   7  -3  150.99    9.83
  -3  -1  -7  164.92    9.02
   3  -1   7  158.04    8.75
   3  -1   7  166.51    9.16
  -1  -7  -3  167.70    9.51
  -7   3   1  165.99    8.91
  -7  -3  -1  170.61    9.40
  -7   3   1  161.94    9.05
  -1   7   3  160.95    9.36
  -3   1   7  162.07    9.69
  -3  -1   7  183.79   10.21
  -1   7  -3  173.62    9.65
   1   7   3  169.97    9.43
  -7   3  -1  175.84    8.86
  -7   3  -1  182.28    8.53
   7   3   1  173.94    9.91
   1  -7  -3  183.88    9.51
   3   1   7  174.16    8.94
  -1  -7   3  173.79    9.57
  -3  -1   7  189.90    9.92
  -4  -1  -7  163.99    9.04
  -1  -7  -4  161.06    9.60
  -7  -4  -1  164.01    9.62
   1   7  -4  160.63   10.40
  -4   1   7  161.54    9.93
  -7   4   1  167.63    9.01
  -7   4   1  162.43    9.07
  -1   7   4  165.84    9.55
   1  -7   4  153.14    9.32
   7   4  -1  157.71   10.66
  -4   1   7  164.95    9.63
   4  -1   7  153.38    8.65
   4  -1   7  158.46    9.10
  -7   4  -1  180.64    8.86
   7   4   1  185.95   10.14
  -4  -1   7  169.87   10.30
   1   7   4  178.04    9.65
  -7   4  -1  187.40    8.68
  -1  -7   4  180.82    9.86
  -1   7  -4  172.92   10.05
   1  -7  -4  174.93    9.59
   4   1   7  174.42    8.93
  -7  -4   1  200.11   10.38
  -4  -1   7  187.10   10.04
  -5   1   7  108.22    7.27
   5  -1   7   97.62    6.09
  -5   1   7  108.16    6.91
   7   5  -1  117.30    8.04
  -5  -1  -7  104.69    5.99
   5  -1   7  107.37    5.59
   1  -7   5  100.54    6.51
  -7  -5  -1  105.16    6.92
  -7   5   1  103.47    6.08
   1   7  -5  105.84    8.30
   1   7   5  104.16    6.87
  -1  -7   5  110.81    7.03
  -5  -1   7  107.22    7.50
  -7   5  -1  108.22    5.87
  -5  -1   7  103.54    7.02
   5   1   7  108.83    5.93
   1  -7  -5  114.80    6.88
   7   5   1  114.90    7.35
  -1   7  -5  100.52    7.63
  -7  -5   1  110.76    7.41
   1  -7   6   40.50    3.98
   7  -6   1   45.55    3.20
  -1   7   6   41.30    4.01
  -6   1   7   43.89    4.63
  -6   1   7   46.11    4.22
   1   7  -6   28.17    5.95
  -7   6   1   43.30    3.36
  -6  -1  -7   41.90    3.05
   7   6  -1   44.71    5.32
  -7  -6  -1   47.75    4.42
  -1   7  -6   48.01    5.80
   1   7   6   40.35    3.92
   7  -6  -1   46.72    3.52
  -1  -7   6   47.09    4.47
  -7  -6   1   50.46    5.10
  -7   6  -1   45.98    3.13
   1  -7  -6   47.32    4.22
   7   6   1   41.63    4.57
  -6  -1   7   37.55    4.65
  -6  -1   7   45.35    4.41
   6   1   7   43.66    3.02
  -2  -7   0  292.79   15.75
   0  -2   7  297.08   15.85
   0   2   7  304.67   15.60
   0  -2   7  310.65   15.89
   0  -2  -7  288.66   15.54
   2   7   0  280.94   15.72
  -7   0   2  311.15   15.73
   2  -7   0  300.09   15.40
  -7   0  -2  316.16   14.93
   7   0   2  306.73   15.46
   2  -7   1    0.67    0.82
  -2  -7  -1    4.55    1.32
  -7   1   2    1.79    0.93
  -1   2   7    0.72    0.83
   7   1  -2    6.56    2.36
   1  -2   7    2.37    1.21
   1  -2   7    2.79    1.10
  -1  -2  -7    2.47    1.05
  -2   7   1    1.09    0.86
   1  -2  -7    1.47    1.14
   1   2   7    1.19    0.90
  -1  -2   7    0.38    0.98
   7   1   2    2.54    1.44
  -7  -1   2    1.74    1.02
  -2   7  -1    6.67    1.51
  -7   1  -2    2.88    0.56
   2  -7  -1    0.13    0.73
   2   7   1    0.22    0.96
  -7   1  -2    2.10    0.59
  -1  -2   7   -0.03    1.23
   2  -2   7   72.01    4.80
  -2   2   7   70.83    4.87
   2  -7   2   69.04    4.43
  -7  -2  -2   75.54    4.37
  -7   2   2   69.21    4.56
   2  -2   7   71.95    4.35
  -2   7   2   67.61    4.56
   2   7  -2   76.86    5.29
   7   2  -2   71.13    6.37
  -7   2   2   71.17    4.42
   2  -7  -2   66.00    4.47
  -7   2  -2   70.29    3.56
  -2  -2   7   71.12    5.01
  -2   7  -2   64.85    4.58
   7   2   2   60.32    4.74
   2   2   7   68.40    4.37
  -2  -2   7   67.81    5.29
  -7   2  -2   69.90    3.51
   2   7   2   66.09    4.71
  -7  -2   2   68.80    4.99
   7   3  -2   26.55    4.42
  -3  -2  -7   20.09    2.25
  -7   3   2   22.73    2.15
   2  -7   3   19.26    2.23
   2   7  -3   18.45    3.31
  -3   2   7   20.30    2.50
   3  -2   7   21.43    1.94
   3  -2   7   19.75    2.56
  -3   2   7   23.51    2.82
  -2   7   3   18.14    2.40
  -7  -3  -2   20.35    2.36
  -7   3   2   18.25    2.24
  -2  -7  -3   24.32    2.74
  -3  -2   7   26.68    3.80
  -3  -2   7   27.84    3.05
   2  -7  -3   26.08    2.48
  -7  -3   2   30.27    3.31
   3   2   7   25.46    2.19
  -2   7  -3   22.95    2.62
   7   3   2   23.01    2.80
  -2  -7   3   30.13    3.08
  -7  -4  -2   61.94    4.31
   2  -7   4   56.19    3.93
   2   7  -4   47.80    5.33
   4  -2   7   57.60    3.34
   4  -2   7   53.27    3.88
  -4   2   7   55.23    4.55
  -4  -2  -7   56.98    3.87
  -7   4   2   60.53    3.90
  -2   7   4   62.04    4.34
   7   4  -2   69.05    6.14
  -7   4   2   63.64    4.02
   4   2   7   50.84    3.68
   7   4   2   55.65    4.51
  -2   7  -4   50.97    4.45
  -4  -2   7   56.85    4.61
   2  -7  -4   57.34    4.25
  -2  -7   4   60.34    4.67
   5  -2   7  192.23   10.08
  -5   2   7  193.22   11.58
   7   5  -2  222.79   13.08
   5  -2   7  212.22    9.92
   2  -7   5  191.10   10.81
  -2  -7  -5  201.32   11.33
  -2   7   5  187.26   11.13
  -5  -2  -7  193.30   10.61
   2   7  -5  196.70   12.95
  -7   5   2  192.56   10.72
  -7  -5  -2  201.71   11.28
  -2   7  -5  204.28   12.09
   2   7   5  195.70   11.16
  -7   5  -2  203.18   10.04
   2  -7  -5  211.74   11.35
  -7  -5   2  212.62   12.04
  -5  -2   7  206.71   11.66
   7   5   2  206.56   11.57
  -7   5  -2  207.50   10.12
  -2  -7   5  205.19   11.71
   2   7  -6  198.72   13.24
  -6   2   7  190.99   10.93
   7   6  -2  215.55   12.88
   2  -7   6  185.38   10.40
  -6   2   7  175.36   11.15
  -2   7   6  182.62   10.81
  -7  -6  -2  185.34   10.93
  -2  -7  -6  189.90   10.86
  -6  -2  -7  180.26   10.00
  -7   6  -2  183.68    9.67
  -6  -2   7  191.29   11.44
  -6  -2   7  196.64   11.22
  -7  -6   2  201.28   11.70
   2  -7  -6  187.06   10.88
   7   6   2  184.23   11.07
  -2   7  -6  189.63   12.06
  -2  -7   6  189.01   11.30
   2   7   6  188.30   10.73
   0   3   7  332.74   16.99
  -3  -7   0  328.84   17.24
   7   0   3  338.97   16.55
   0  -3  -7  333.14   17.00
   0  -3   7  333.05   17.24
  -7   0   3  336.71   17.24
   3   7   0  317.66   17.20
   3  -7   0  316.14   16.63
   0  -3   7  317.67   17.33
  -3   7   0  329.68   16.76
   3  -7   1   66.17    4.34
   1  -3   7   63.38    4.73
  -1  -3  -7   65.06    4.59
   1  -3   7   71.37    4.91
   7   1  -3   71.72    6.39
  -3  -7  -1   66.54    4.91
  -7  -1  -3   68.04    4.04
  -1   3   7   66.01    4.89
   3   7  -1   60.17    5.01
  -3   7  -1   72.75    4.48
   3   7   1   72.10    4.93
  -3  -7   1   71.99    5.03
  -1  -3   7   74.10    5.06
   1   3   7   77.76    4.67
   7   1   3   74.61    4.79
  -7  -1   3   78.68    5.02
   2  -3   7    1.22    1.20
  -2  -3  -7    1.42    0.92
   2  -3   7    2.97    1.09
  -7   2   3    2.83    1.09
   2   3  -7    2.24    2.35
   7   2  -3    3.16    2.30
  -3  -7  -2    0.85    1.24
  -7  -2  -3    2.82    0.97
  -7   2   3    0.95    1.08
  -2   3   7    2.67    1.29
   3  -7   2    1.85    0.90
   3   7  -2    2.79    1.66
   2   3   7    3.36    1.12
   3   7   2    3.49    1.03
   2  -3  -7    1.76    1.05
  -3   7  -2    2.89    1.10
  -2  -3   7    3.40    1.40
   7   2   3    2.88    1.25
  -7  -2   3    2.58    1.37
   3  -7  -2    1.20    0.79
  -3  -7   2    1.04    1.27
   3   7  -3  141.40    9.15
  -7   3   3  139.70    7.97
   3  -3   7  142.92    7.51
  -7  -3  -3  138.22    7.80
  -3  -3  -7  140.26    7.93
  -7   3   3  137.12    7.94
   3  -7   3  134.69    7.63
  -3   7   3  135.42    8.01
   3  -3   7  141.75    7.93
   3   3  -7  135.85   10.36
  -3   3   7  144.43    8.40
   7   3  -3  146.70   10.21
  -3  -3   7  140.13    8.44
  -7  -3   3  152.66    8.67
   3   3   7  137.46    7.75
   3  -3  -7  134.15    8.26
  -3   7  -3  138.29    8.00
   3   7   3  131.58    8.30
   7   3   3  135.40    8.05
  -3  -7   3  147.78    8.72
   3  -7  -3  141.02    8.04
  -3   7   4   54.99    4.23
   4   3  -7   52.53    6.92
  -7   4   3   56.62    4.08
   4  -3   7   52.87    3.61
  -3  -7  -4   53.07    4.45
   3  -7   4   49.57    3.72
  -7  -4  -3   55.50    4.14
  -7   4   3   53.45    3.93
   4  -3   7   52.56    3.26
  -4  -3  -7   53.48    3.97
  -4   3   7   49.84    4.48
   7   4  -3   56.14    6.38
   3   7  -4   53.56    5.83
   4   3   7   59.07    3.89
   3  -7  -4   59.97    4.26
  -4  -3   7   62.46    4.69
  -3  -7   4   64.21    5.01
   7   4   3   62.59    4.45
   3   7   4   60.26    4.32
  -3   7  -4   58.34    4.50
  -7  -5  -3   65.88    4.82
   5   3  -7   59.64    7.90
  -5   3   7   65.20    5.14
  -5   3   7   68.71    4.92
   7   5  -3   77.94    7.31
  -3   7   5   58.44    4.77
   3  -7   5   66.06    4.26
  -5  -3  -7   67.84    4.46
   3   7  -5   69.49    7.27
  -7   5   3   62.88    4.46
  -3  -7  -5   64.89    4.97
   3  -7  -5   56.89    4.70
  -3  -7   5   64.39    5.42
   7   5   3   58.93    4.87
  -5  -3   7   62.37    5.02
   3   7   5   62.69    4.77
  -3   7  -5   61.95    5.63
  -7  -5   3   58.18    5.47
   3   7  -6   40.64    6.87
  -7   6   3   28.87    3.10
   3  -7   6   29.24    2.86
  -6  -3  -7   27.25    2.90
  -3   7   6   32.99    3.65
  -6   3   7   25.90    3.79
  -3  -7  -6   28.85    3.53
  -6   3   7   26.09    3.51
  -7  -6  -3   25.88    3.56
   7   6  -3   31.35    6.21
   6   3  -7   30.54    7.55
   3   7   6   24.08    3.17
   7  -6  -3   25.68    3.13
   3  -7  -6   33.76    3.61
  -3  -7   6   25.94    4.02
  -7  -6   3   28.44    4.37
  -3   7  -6   26.41    4.81
  -6  -3   7   27.74    3.87
   0   4   7  177.21    9.86
   4  -7   0  173.92    9.43
  -4   7   0  176.99    9.50
  -4  -7   0  172.21   10.13
   4   7   0  177.35   10.29
   0  -4  -7  183.80    9.94
   0  -4   7  183.64   10.19
   7   0   4  174.11    9.11
  -7   0  -4  183.52    8.71
  -7   0   4  181.10   10.23
   0   4  -7  154.59   10.84
  -7  -1  -4  156.88    7.94
   4  -7   1  147.33    8.26
  -4   7   1  150.55    8.50
  -1  -4  -7  153.55    8.91
  -7   1   4  146.63    8.87
  -4  -7  -1  157.20    9.12
   1  -4   7  151.89    8.94
  -7   1   4  144.84    8.93
   7   1  -4  161.22   10.77
   4   7  -1  147.01    9.33
   4   7   1  148.33    9.13
  -4   7  -1  161.55    8.46
   1   4   7  161.55    8.72
  -4  -7   1  153.81    9.24
  -1   4  -7  148.38    9.31
  -1  -4   7  156.51    9.08
  -7  -1   4  158.38    9.06
   7   1   4  157.79    8.33
   4  -7  -1  157.58    8.49
  -2   4   7   86.27    5.89
   7   2  -4   92.49    8.18
  -7   2   4   84.58    5.74
   2  -4   7   85.37    5.68
  -7   2   4   80.46    5.71
  -4  -7  -2   84.76    5.94
  -2  -4  -7   85.43    5.62
   4  -7   2   84.95    5.13
   4   7  -2   91.43    6.74
   2  -4   7   89.02    5.66
   2   4  -7   83.80    8.03
  -7  -2  -4   88.08    5.11
  -4   7  -2   86.97    5.35
  -2  -4   7   95.44    6.06
   7   2   4   95.10    5.45
   2  -4  -7   91.79    5.89
  -4  -7   2   96.63    6.41
   2   4   7   89.77    5.53
  -7  -2   4   88.16    5.96
   4   7   2   87.82    5.89
   4  -7  -2   91.24    5.54
  -3   4   7  149.79    9.63
   3  -4   7  155.94    8.95
  -7  -3  -4  161.53    9.05
   3  -4   7  166.61    9.12
  -3  -4  -7  157.17    9.37
   4   7  -3  168.97   10.88
  -7   3   4  163.94    9.43
  -4  -7  -3  171.03    9.93
   3   4  -7  158.50   12.04
   7   3  -4  164.24   11.80
   4  -7   3  161.37    8.83
  -4   7   3  155.44    9.34
   4  -7  -3  183.80    9.48
  -4   7  -3  168.96    9.27
  -3  -4   7  181.67    9.95
  -4  -7   3  187.36   10.44
   3  -4  -7  171.31    9.73
   4   7   3  172.00    9.63
  -7  -3   4  185.33   10.15
   3   4   7  173.95    9.32
   4  -4   7  131.89    7.03
  -4  -4  -7  134.92    7.76
  -4   7   4  131.06    7.90
   4  -7   4  134.43    7.16
  -7   4   4  137.36    7.83
   7   4  -4  159.00   10.83
   4  -4   7  131.36    6.91
   4   4  -7  127.00   10.90
   4   7  -4  150.77   10.07
  -7  -4  -4  135.94    7.69
  -4  -7  -4  131.10    8.08
  -4   4   7  131.10    8.19
  -4  -4   7  132.15    8.20
   4  -4  -7  129.15    8.08
   4   7   4  119.41    7.82
   4  -7  -4  124.89    7.76
  -4  -7   4  127.89    8.63
  -4   7  -4  124.14    7.80
   4   4   7  118.71    7.47
  -7   5   4   18.14    2.90
  -4  -7  -5   18.89    3.23
  -7  -5  -4   20.62    3.02
  -4   7   5   23.41    3.19
   4  -7   5   19.55    2.26
   7   5  -4   36.24    6.33
   4   7  -5   26.18    6.04
  -5  -4  -7   22.37    2.82
   5   4  -7   27.68    5.79
  -5   4   7   20.94    3.31
  -7  -5   4   24.68    3.83
  -4  -7   5   20.59    3.91
  -4   7  -5   20.98    4.01
   4   7   5   19.97    2.96
  -5  -4   7   27.23    3.49
   4  -7  -5   25.77    3.05
  -4   7   6  194.74   10.98
  -6   4   7  183.83   11.07
  -6  -4  -7  185.87   10.42
  -4  -7  -6  188.56   10.90
   4   7  -6  220.35   14.33
   6   4  -7  207.33   14.75
  -6   4   7  211.35   11.08
  -7  -6  -4  189.51   10.84
  -4   7  -6  162.42   11.15
  -7  -6   4  183.86   11.52
   4  -7  -6  170.73   10.71
  -6  -4   7  162.51   11.02
  -4  -7   6  174.36   11.31
   0   5  -7   92.99    7.50
   5  -7   0   88.68    5.19
   0  -5  -7   87.34    5.77
   5   7   0   86.56    6.24
  -7   0   5   84.18    5.92
   0  -5   7   81.41    5.96
  -5   7   0   85.45    5.21
  -5  -7   0   87.16    6.11
  -7   0   5   80.09    6.07
   0   5   7   84.63    5.65
  -7   0  -5   83.69    4.33
  -5   7   1  163.37    9.38
   5  -7   1  166.98    9.15
  -5  -7  -1  165.49   10.05
  -7   1   5  165.58    9.92
  -1  -5  -7  164.17    9.77
  -1   5   7  166.58    9.83
   1  -5   7  162.68    9.89
   5   7  -1  157.15   10.63
  -7   1   5  162.29   10.08
  -7  -1  -5  163.79    8.78
  -1   5  -7  180.09   10.98
   1  -5  -7  181.06    9.98
  -5   7  -1  182.52    9.34
   5   7   1  179.49   10.22
  -7  -1   5  185.93   10.37
   7   1   5  184.93    9.12
   5  -7  -1  177.03    9.40
  -1  -5   7  191.40   10.30
   1   5   7  177.03    9.74
  -7   2   5  127.32    7.63
  -7   2   5  124.58    7.74
   5  -7   2  126.07    6.76
   7   2  -5  135.41   10.40
   2  -5   7  124.96    7.38
  -7  -2  -5  125.19    6.80
   5   7  -2  137.15    8.91
  -2   5   7  114.04    7.58
   2   5  -7  136.04   10.47
  -5  -7  -2  130.65    7.90
  -2  -5  -7  126.73    7.57
  -5   7   2  117.53    7.20
   5  -7  -2  120.85    7.21
  -2   5  -7  105.28    7.73
   7   2   5  123.57    7.00
  -5  -7   2  129.21    8.42
   2  -5  -7  125.69    7.66
   2   5   7  117.77    7.33
  -2  -5   7  122.34    7.84
  -5   7  -2  121.03    6.96
   5   7   2  118.45    7.73
  -3   5   7   37.93    3.88
  -3  -5  -7   35.30    3.51
   5   7  -3   38.08    5.26
  -7   3   5   35.36    3.57
   3   5  -7   44.15    6.90
   3  -5   7   35.27    3.13
   7   3  -5   43.40    6.77
  -7   3   5   36.02    3.71
   3  -5   7   39.64    3.28
  -7  -3  -5   37.66    3.17
   5  -7   3   35.25    2.72
  -5  -7  -3   36.68    3.87
   3   5   7   36.30    3.38
  -5  -7   3   41.17    4.70
  -3  -5   7   40.18    4.02
   5   7   3   40.14    3.75
   5  -7  -3   40.78    3.44
  -5   7  -3   40.71    3.33
   3  -5  -7   41.46    3.88
  -7   4   5  186.49   11.59
  -4   5   7  201.65   11.95
   7   4  -5  230.41   14.83
  -5   7   4  200.76   11.57
   5   7  -4  231.99   14.20
   4  -5   7  188.19   10.67
   5  -7   4  211.33   10.70
  -7   4   5  205.64   11.63
  -7  -4  -5  204.91   11.33
  -4  -5  -7  201.36   11.57
   4   5  -7  209.66   14.84
  -5  -7  -4  201.55   11.81
  -4  -5   7  214.39   12.12
  -5   7  -4  218.25   11.43
   5   7   4  208.51   11.74
   4  -5  -7  230.44   12.04
  -5  -7   4  212.60   12.57
   5  -7  -4  222.10   11.66
   7   5  -5  134.81   10.66
   5   7  -5  127.19   10.49
  -7   5   5  117.86    7.15
  -7  -5  -5   96.91    6.74
  -5   7   5  107.17    7.01
   5   5  -7  124.46   10.90
  -5   5   7  103.32    7.26
  -7   5   5  104.55    6.97
  -5  -7  -5  104.66    7.10
   5  -7   5  108.26    5.72
  -5  -5  -7  106.45    6.84
  -5  -5   7   95.67    7.13
  -5  -7   5   97.45    7.74
  -7  -5   5   96.85    7.28
   5  -7  -5   98.78    6.78
   5  -5  -7  104.93    7.16
  -5   7  -5   98.79    6.68
   7   5   5   92.63    6.71
   5   7  -6  137.25   11.67
   6   5  -7  113.90   11.78
  -5  -7  -6  103.18    7.62
  -5   7   6  101.68    7.94
   7   6  -5  133.99   11.30
  -6   5   7  112.55    7.86
   5  -7   6  108.87    6.08
   5   7   6  106.19    7.48
  -7  -6   5  122.52    8.24
  -6  -5   7  121.32    8.02
   5  -7  -6  111.67    7.58
  -5  -7   6  120.34    8.41
  -5   7  -6  117.85    6.68
   6   7   0   19.53    3.56
  -7   0   6   16.10    3.43
   0   6  -7   22.64    5.25
   0   6   7   16.58    2.75
   6  -7   0   16.67    2.14
   0  -6   7   16.62    3.24
  -7   0   6   15.33    2.98
  -6  -7   0   19.59    3.25
  -6   7   0   16.11    2.18
  -1  -6  -7   57.77    4.58
  -7  -1  -6   52.47    3.31
   6   7  -1   60.21    5.70
  -6   7   1   56.58    3.98
   6  -7   1   56.57    3.69
  -7   1   6   54.11    4.70
  -6  -7  -1   53.08    4.85
   1  -6   7   59.84    4.73
  -7   1   6   55.07    5.05
  -1   6   7   53.42    4.56
  -6  -7   1   54.93    5.50
  -7  -1   6   51.75    4.71
   1  -6  -7   54.59    4.53
  -7  -1   6   57.49    5.12
   1   6   7   51.07    4.31
   6  -7  -1   51.07    3.89
   6   7   1   51.45    4.91
  -1   6  -7   59.91    6.31
  -1  -6   7   48.40    4.80
  -6   7  -1   49.61    3.70
   7   1   6   56.01    3.58
  -7   2   6  229.67   12.69
  -6  -7  -2  217.25   12.79
  -2  -6  -7  205.25   12.44
   6   7  -2  250.83   14.22
  -7  -2  -6  230.74   11.72
   6  -7   2  226.14   11.61
   2   6  -7  232.46   15.45
   2  -6   7  227.48   12.30
  -7   2   6  220.14   12.91
   6  -7  -2  230.28   12.41
  -7  -2   6  215.82   12.84
  -6  -7   2  248.46   13.84
  -6   7  -2  222.99   11.80
   7   2   6  228.57   11.89
  -2  -6   7  243.67   13.12
  -2   6  -7  225.09   13.47
   6   7   2  223.40   12.85
   2   6   7  213.65   12.38
   3  -6   7    5.75    1.61
   6   7  -3    8.11    3.18
  -3  -6  -7    7.15    1.98
  -3   6   7    3.82    1.78
   6  -7   3    7.49    1.56
  -7   3   6    4.68    1.73
  -7   3   6    4.51    2.08
   7   3  -6    2.43    3.30
  -7  -3  -6    4.98    1.49
   3   6  -7    7.93    4.31
  -6  -7  -3    3.70    1.91
  -6   7   3    3.83    1.66
  -6   7  -3    5.46    1.52
  -6  -7   3    4.72    2.25
   6  -7  -3    6.03    1.78
   3  -6  -7    5.82    2.04
  -7  -3   6    3.92    1.64
   6   7   3    3.48    1.93
  -3   6  -7    3.80    2.20
   3   6   7    4.00    1.59
  -3  -6   7   12.44    3.14
   6   7  -4   98.66    9.19
   7   4  -6   79.41    9.32
  -7   4   6   76.24    5.66
  -6  -7  -4   74.30    5.87
  -7   4   6   75.21    5.78
  -4   6   7   75.45    5.89
   6  -7   4   79.27    4.17
   4  -6   7   63.18    4.65
   4  -6   7   75.70    4.55
   4   6  -7   79.17    9.42
  -4  -6  -7   74.71    5.61
  -6   7   4   68.63    5.42
  -7  -4  -6   66.51    5.09
  -6  -7   4   76.63    6.53
  -6   7  -4   70.53    4.97
   6  -7  -4   70.80    5.28
  -4  -6   7   82.54    6.11
   4  -6  -7   69.75    5.72
  -7  -4   6   75.56    5.83
   5  -6   7   21.10    1.77
   5   6  -7   19.33    5.07
  -6  -7  -5   19.77    3.75
   6   7  -5   37.76    8.08
  -5  -6  -7   19.94    3.45
   7   5  -6   17.27    4.71
  -7   5   6   20.56    3.68
   5  -6   7   19.55    1.79
  -5   6   7   26.20    4.07
   5  -6  -7   30.98    3.97
  -6  -7   5   24.89    4.67
   6   7   5   23.78    3.72
  -5  -6   7   29.55    4.19
  -7  -5   6   20.54    3.96
   6   7  -6   42.83    8.93
   7   6  -6   23.47    5.73
   6   6  -7   29.39    6.95
  -6  -6   7   25.27    4.51
  -7  -6   6   25.10    4.59
  -6  -7   6   23.87    4.83
  -7  -7   0   20.05    3.75
  -7   0   7   13.79    3.10
  -7   0   7   16.92    3.32
   0  -7  -7    6.05    1.76
   0  -7   7   13.56    2.71
   0   7  -7   10.92    3.75
   0   7   7   15.79    3.11
   7  -7   0   13.18    2.34
   7   0   7   10.77    1.48
   7   0   7    9.65    1.83
   7   7   0    7.90    2.52
  -7  -7  -1    4.77    1.86
   1  -7   7    6.32    1.92
  -7  -1  -7    2.76    1.09
  -1  -7  -7    5.25    2.01
   7  -7   1    3.08    1.29
  -7   1   7    3.46    2.07
  -7   1   7    3.58    2.01
   7   7  -1    1.03    2.78
  -7   7   1    2.22    1.33
  -1   7   7    4.04    1.76
  -1  -7   7    0.70    1.87
  -7   7  -1    3.49    1.32
  -7  -1   7    2.07    2.27
   1  -7  -7    2.18    1.65
  -7  -7   1    4.18    2.23
   1   7   7    2.89    1.54
   7  -7  -1    5.39    1.47
  -7  -1   7    0.60    1.69
   7   1   7    6.71    1.77
  -1   7  -7    6.97    3.60
   7   7   1    4.72    2.32
  -7  -7  -2  117.51    8.23
   7  -7   2  132.32    6.81
  -7  -2  -7  107.02    6.84
   7   7  -2  138.87   10.11
   2   7  -7  124.46   10.90
  -7   2   7  124.62    8.49
  -7   2   7  125.32    8.07
   2  -7   7  126.49    7.67
  -7   7   2  121.13    7.37
  -2  -7  -7  115.59    7.92
  -2   7   7  131.02    8.21
  -2   7  -7  123.72    9.51
  -7   7  -2  120.92    6.87
   2  -7  -7  132.87    8.18
  -2  -7   7  127.82    8.46
  -7  -2   7  121.63    8.00
   2   7   7  117.30    7.80
   7  -7  -2  116.50    7.38
  -7  -7   2  136.37    9.16
   7   2   7  115.73    6.98
  -7  -2   7  125.33    8.52
  -7  -7  -3   92.74    6.98
   7  -7   3   97.30    5.32
   7   3  -7   97.90   10.83
  -7   3   7   98.69    7.21
  -7   3   7   94.02    6.79
   7   7  -3  119.89    9.86
  -3  -7  -7   97.77    6.90
   3  -7   7   99.74    6.18
   3   7  -7  107.24   10.31
  -3   7   7  102.19    7.16
   3  -7  -7   95.60    6.96
  -3  -7   7  103.79    7.45
  -3   7  -7   95.42    7.60
   7  -7  -3   95.09    6.55
  -7  -7   3  104.05    7.90
  -7  -3   7   90.66    6.84
  -7   7  -3   94.88    5.63
  -7  -7  -4   28.16    4.18
   7   7  -4   36.27    7.89
   7   4  -7   32.17    8.81
  -7   4   7   29.81    4.14
  -4  -7  -7   26.10    3.85
   4  -7   7   27.93    2.84
  -4   7   7   23.71    4.22
   4  -7  -7   30.07    4.08
  -7  -7   4   32.31    4.89
   4   7   7   22.71    3.73
  -7  -4   7   24.87    4.09
  -4   7  -7   26.19    3.92
   7   7   4   25.88    4.19
   7   7  -5   52.91    9.54
   7   5  -7   56.19   10.11
  -7   5   7   55.34    5.33
  -7  -5   7   36.96    5.10
  -7  -7   6   18.27    4.90
  -8   0   0   16.39    2.40
   0  -8   0   14.86    2.21
   0   0   8   18.60    2.33
   0   0   8   12.30    2.09
   0   8   0   12.12    2.22
   8   0   0   16.55    3.00
   1   0   8  326.54   16.78
   1   0   8  318.50   16.80
   8   1   0  340.75   18.01
   0   8  -1  309.98   16.99
  -8  -1   0  344.18   16.98
  -8   1   0  343.54   16.42
  -8   1   0  338.15   16.71
  -1   0   8  317.19   17.11
  -1   0   8  324.34   16.96
   0  -8  -1  320.78   16.94
   0  -8   1  298.51   16.81
   0   8   1  318.88   16.96
   8   2   0  125.51    8.59
   0   8   2  118.18    7.27
   2   0   8  121.44    6.93
   2   0   8  125.90    7.12
   0   8  -2  114.21    7.48
   0  -8   2  116.71    7.18
  -2   0   8  120.47    7.33
   0  -8  -2  116.55    7.25
  -8   2   0  125.84    6.91
  -2   0   8  117.05    7.61
  -8  -2   0  122.93    7.46
  -8   2   0  120.86    6.54
  -8   3   0  872.28   42.94
  -8  -3   0  958.22   44.11
   0   8  -3  862.67   44.16
   0   8   3  867.28   43.77
   0  -8  -3  876.36   43.83
  -3   0   8  876.48   43.94
   8   3   0  930.31   45.04
  -8   3   0  941.15   43.35
  -3   0   8  876.17   44.35
   3   0   8  886.79   43.45
   0  -8   3  825.85   43.65
   8   4   0   40.93    5.06
   4   0   8   39.43    3.37
   0   8   4   40.17    3.73
  -4   0   8   40.98    3.86
   0  -8   4   39.19    3.71
  -8  -4   0   41.22    4.11
  -8   4   0   42.88    2.88
  -8   4   0   40.37    3.22
  -4   0   8   37.72    4.52
   0  -8  -4   41.57    3.91
   5   0   8    4.26    1.56
  -5   0   8    0.86    1.76
   0  -8  -5    1.94    1.26
   0  -8   5   -0.17    1.46
   5   0   8    0.33    0.84
   8   5   0    8.38    2.44
   0   8   5   -0.55    1.19
  -8   5   0    0.23    1.10
  -8  -5   0    2.05    1.82
   0   8  -6   45.46    6.40
  -8  -6   0   39.68    4.84
   6   0   8   36.86    2.70
   6   0   8   32.60    3.29
   0   8   6   38.48    4.13
   0  -8   6   42.39    4.44
  -6   0   8   29.35    5.02
  -8   6   0   40.18    3.30
  -8   6   0   37.45    3.09
   0  -8  -6   32.44    4.00
  -6   0   8   40.67    4.44
  -7   0   8   68.62    6.61
   7   0   8   60.75    3.70
   0   8   7   67.27    5.65
   0  -8  -7   59.72    5.52
   7   0   8   62.00    4.27
  -8   7   0   66.51    4.52
  -7   0   8   63.58    5.74
  -8  -7   0   69.44    6.39
   0  -1   8    3.40    1.22
  -1   8   0    6.37    1.55
  -1  -8   0    6.43    1.64
   1  -8   0    3.42    0.99
   0   1   8    5.23    1.25
   1   8   0    5.94    1.62
  -8   0   1    2.16    1.25
   0  -1   8    3.58    1.23
   8   0   1    5.15    1.66
  -8   0  -1    4.17    1.20
   1   8  -1   35.00    3.48
   1  -1   8   40.61    3.19
   8   1  -1   35.17    4.63
  -8   1   1   32.13    2.81
   1  -8   1   31.65    2.97
  -8  -1  -1   36.71    3.06
  -1  -8  -1   34.87    3.29
   1  -1   8   27.94    3.17
  -1   1   8   35.26    3.34
  -1   1   8   32.16    3.01
  -8   1   1   38.72    3.16
  -1   8   1   41.91    3.30
   1  -8  -1   34.87    3.09
  -1  -8   1   32.79    3.19
  -8   1  -1   35.49    2.78
   8   1   1   33.14    4.19
   1   1   8   33.94    3.05
  -1  -1   8   33.94    3.52
   1   8   1   30.39    3.14
  -1   8  -1   34.38    3.19
  -8   1  -1   37.04    2.45
  -8  -1   1   34.74    3.45
  -1  -1   8   34.30    3.27
  -2   1   8   46.68    3.58
  -2   1   8   49.45    3.98
   8   2  -1   52.40    5.47
   1   8  -2   44.19    4.04
   2  -1   8   47.56    3.30
  -1   8   2   42.95    3.46
  -8   2   1   48.20    3.14
  -8  -2  -1   48.33    3.59
  -1  -8  -2   51.00    3.85
   2  -1   8   46.02    3.64
  -8   2   1   47.64    3.48
   1   8   2   31.98    3.42
  -8   2  -1   34.23    2.91
   1  -8  -2   33.24    3.31
  -8  -2   1   35.78    3.78
  -1  -8   2   33.60    3.36
   2   1   8   35.67    3.12
  -8   2  -1   35.80    2.55
  -2  -1   8   38.47    4.02
   8   2   1   32.53    4.47
  -2  -1   8   34.53    3.58
  -3   1   8  123.72    7.71
  -3  -1  -8  125.19    7.35
  -8   3   1  127.83    7.40
   1  -8   3  126.93    7.55
  -1  -8  -3  128.36    7.85
  -1   8   3  118.26    7.60
  -3   1   8  128.53    8.16
   8   3  -1  139.47    9.55
  -8  -3  -1  137.14    7.77
   1   8  -3  133.57    8.37
   3  -1   8  124.98    7.52
  -8   3   1  129.58    7.11
  -1  -8   3  122.71    7.76
  -3  -1   8  131.31    8.52
   1  -8  -3  128.85    7.71
  -8  -3   1  134.76    8.26
  -8   3  -1  124.12    6.94
  -8   3  -1  129.54    6.65
   8   3   1  135.17    8.65
  -3  -1   8  132.52    8.07
  -1   8  -3  120.91    7.90
   1   8   3  128.35    7.81
  -4  -1  -8   16.37    2.17
   4  -1   8   13.21    1.69
   8   4  -1   17.09    4.54
  -1   8   4   11.73    2.48
   4  -1   8   17.89    2.57
  -1  -8  -4   10.52    2.79
   1  -8   4   12.04    2.30
   1   8  -4   17.87    3.78
  -4   1   8   10.84    2.51
  -8   4   1   13.82    1.90
  -4   1   8   14.18    3.36
  -8   4   1    8.78    2.14
  -8  -4  -1   10.66    2.72
   1  -8  -4   12.23    2.50
   8   4   1   13.20    3.39
  -8   4  -1   13.11    2.00
  -8  -4   1   12.56    3.15
  -1  -8   4   12.68    2.67
  -4  -1   8   11.47    2.38
  -8   4  -1   11.61    1.46
  -1   8  -4    8.39    2.16
  -4  -1   8   13.60    3.45
   1   8   4   13.79    2.58
  -5  -1  -8   89.85    5.52
   5  -1   8   94.76    5.08
  -1  -8  -5   86.86    6.36
  -8   5   1   87.83    5.49
   8   5  -1   99.42    8.02
  -8   5   1   99.20    5.81
   1   8  -5   92.14    8.15
  -8  -5  -1   87.06    6.46
  -1   8   5   98.69    6.39
   1  -8   5   90.17    6.13
  -5   1   8   94.46    7.07
  -5  -1   8   88.58    7.25
  -8  -5   1   96.76    7.01
  -1  -8   5   94.89    6.66
  -8   5  -1   92.67    5.35
   1   8   5   88.25    6.23
   1  -8  -5   89.17    6.30
  -5  -1   8   86.84    6.60
   1  -8   6   90.89    6.29
  -1  -8  -6   91.89    6.50
   1   8  -6   92.98    8.98
  -1   8   6   85.23    6.56
  -6   1   8  100.32    7.37
  -6  -1  -8   87.86    5.35
  -8   6   1   89.61    5.58
   6  -1   8   87.19    5.27
   6  -1   8   90.85    4.77
  -8   6   1   98.73    5.90
  -8  -6  -1   91.28    6.81
   1   8   6   86.28    6.34
   6   1   8   82.91    5.25
  -8   6  -1   86.61    5.18
  -8  -6   1   96.15    7.53
  -8   6  -1   92.10    5.40
  -6  -1   8   86.37    6.68
  -6  -1   8   88.06    7.35
  -1   8  -6   98.74    8.33
  -1  -8   6   86.45    6.70
  -7   1   8  183.48   11.75
  -1  -8  -7  173.84   10.98
  -8  -7  -1  176.78   11.32
  -7   1   8  190.40   11.19
  -1   8   7  191.07   11.12
   1  -8  -7  174.00   11.32
  -8  -7   1  194.68   11.86
  -7  -1   8  176.11   11.07
  -8   7  -1  176.46    9.66
   8   7   1  184.66   11.89
   1   8   7  182.07   10.89
   0   2   8   -0.58    1.05
  -2  -8   0    0.75    1.25
  -8   0   2    1.08    1.12
   0  -2   8    1.86    1.37
   8   0   2    2.57    1.38
  -8   0  -2    2.39    0.86
  -8   0   2    1.65    1.10
   2  -8   0    3.30    1.19
   2   8   0    0.19    1.19
   0  -2   8    0.99    1.24
   0  -2  -8    0.90    1.07
  -2   8   0   -0.09    1.02
  -1   2   8   19.40    2.66
   2  -8   1   22.74    2.47
   2   8  -1   16.56    2.93
  -2   8   1   17.70    2.44
   8   1  -2   22.89    4.28
  -8   1   2   17.30    2.50
  -8   1   2   21.69    2.41
  -8  -1  -2   17.12    2.07
   1  -2   8   22.65    2.93
  -1  -2  -8   20.06    2.54
   1  -2   8   15.95    2.47
   8   1   2   25.95    3.51
  -8   1  -2   21.53    1.70
  -1  -2   8   21.59    2.90
  -2   8  -1   19.61    2.55
  -2  -8   1   22.23    2.75
   2   8   1   23.18    2.91
   2  -8  -1   19.07    2.39
  -1  -2   8   19.20    3.15
  -8  -1   2   21.89    2.81
  -8   1  -2   20.94    1.58
   1   2   8   21.66    2.52
   8   2  -2  141.08    9.92
  -2  -8  -2  131.77    8.21
  -8   2   2  129.01    7.63
  -8  -2  -2  135.58    7.61
  -2   2   8  132.81    8.28
   2  -8   2  130.23    7.75
  -8   2   2  132.68    7.87
  -2  -2  -8  135.53    7.81
   2  -2   8  132.08    8.08
  -2   8   2  127.67    7.88
   2   8  -2  126.48    8.55
  -2   2   8  142.17    8.05
   2   2   8  135.25    7.72
  -2  -2   8  139.52    8.78
  -2   8  -2  134.85    7.99
  -2  -8   2  129.74    8.14
   2  -8  -2  130.90    7.87
  -8  -2   2  149.93    8.41
  -8   2  -2  142.01    6.77
  -2  -2   8  141.17    8.40
  -8   2  -2  143.98    6.72
   2   8   2  136.50    8.14
  -3   2   8  145.70    8.98
  -8   3   2  161.54    8.48
  -8   3   2  151.14    8.22
  -3   2   8  160.46    8.77
  -2  -8  -3  156.40    8.91
  -3  -2  -8  151.42    8.38
  -2   8   3  147.46    8.61
  -8  -3  -2  149.90    8.41
   3  -2   8  153.10    8.63
   2  -8   3  151.22    8.38
   2   8  -3  156.01    9.62
   8   3  -2  170.77   10.76
   3  -2   8  136.72    7.96
  -2  -8   3  139.05    8.86
  -8  -3   2  149.92    9.02
   2   8   3  127.97    8.57
  -3  -2   8  143.23    8.93
   2  -8  -3  133.73    8.44
   3   2   8  135.81    8.10
  -2   8  -3  133.46    8.60
  -3  -2   8  144.15    9.44
   4  -2   8    9.00    1.93
  -2   8   4    9.52    2.11
  -8   4   2    8.82    1.92
  -8  -4  -2   13.70    2.59
  -2  -8  -4    5.03    1.64
  -4   2   8    6.65    1.64
   4  -2   8    8.74    1.51
   2  -8   4    7.80    2.16
   8   4  -2   12.37    3.57
  -4  -2  -8   13.61    2.18
   2   8  -4    6.05    2.52
  -8   4   2   10.87    2.24
   2  -8  -4   12.12    2.45
   2   8   4   12.10    2.61
  -2  -8   4   11.25    2.84
  -2   8  -4   11.45    2.94
  -4  -2   8    9.68    2.20
  -8  -4   2    9.73    2.33
  -4  -2   8    6.59    2.38
   2  -8   5   73.31    5.25
  -5   2   8   76.48    6.14
  -8   5   2   85.20    5.36
   8   5  -2   92.33    8.12
  -8  -5  -2   76.08    5.69
  -5  -2  -8   77.25    5.09
   5  -2   8   75.34    4.28
  -2  -8  -5   74.83    5.83
   2   8  -5   83.59    7.95
  -2   8   5   74.01    5.69
   5  -2   8   72.29    4.76
   2   8   5   75.77    5.62
  -5  -2   8   79.40    6.12
  -2   8  -5   93.32    7.26
  -2  -8   5   84.75    6.24
   2  -8  -5   81.06    5.77
  -8  -5   2   77.59    6.38
   2  -8   6  131.57    7.78
  -6   2   8  133.20    8.38
   2   8  -6  143.34   11.08
  -8  -6  -2  125.62    8.41
   8   6  -2  111.89   10.28
  -8   6   2  144.47    7.93
  -6  -2  -8  125.71    7.36
  -6   2   8  124.07    8.80
  -2  -8  -6  121.22    8.25
  -8   6   2  130.95    7.58
  -2   8   6  124.55    8.28
  -8   6  -2  137.41    6.87
  -2   8  -6  137.10    9.97
  -2  -8   6  129.13    8.74
   2  -8  -6  131.03    8.29
   6   2   8  108.39    7.19
   2   8   6  124.52    8.13
  -8  -6   2  138.94    9.18
   8   6   2  126.54    9.02
  -6  -2   8  127.50    9.01
  -8   6  -2  122.44    6.69
  -6  -2   8  134.88    8.57
  -2  -8  -7   40.49    4.71
  -2   8   7   37.58    4.82
  -8  -7  -2   37.15    5.13
  -7   2   8   43.42    4.73
  -7  -2   8   43.14    5.41
   8   7   2   45.30    5.81
  -8  -7   2   35.42    5.90
  -8   7  -2   37.85    3.13
   2  -8  -7   38.87    4.69
  -7  -2   8   40.81    4.59
  -8   0   3  195.27   10.43
   0  -3   8  175.37   10.62
  -8   0  -3  196.46    9.29
   0   3   8  185.92   10.38
  -3   8   0  179.64   10.09
   3  -8   0  179.27   10.02
  -3  -8   0  181.50   10.61
   8   0   3  176.93    9.66
   0  -3   8  182.28   10.54
   0  -3  -8  186.42   10.37
  -1   3   8  244.53   14.05
   1  -3   8  245.01   14.00
   8   1  -3  261.48   15.79
  -8  -1  -3  261.48   13.20
  -3  -8  -1  238.40   14.13
  -8   1   3  250.51   13.98
   1  -3   8  250.46   14.06
  -1  -3  -8  251.07   13.91
   3   8  -1  235.91   14.34
  -8   1   3  247.29   13.93
   3  -8   1  243.57   13.58
  -3   8  -1  264.01   13.78
  -1  -3   8  278.47   14.36
   1   3   8  280.97   13.96
  -3  -8   1  275.68   14.40
   1  -3  -8  281.27   14.37
   3  -8  -1  271.27   13.81
   3   8   1  262.82   14.25
  -1  -3   8  267.68   14.67
  -8  -1   3  294.00   14.22
   8   1   3  281.30   14.21
  -8   2   3   59.61    4.22
   2  -3   8   60.89    4.52
  -2  -3  -8   52.95    4.21
   3   8  -2   57.56    5.09
  -2   3   8   55.03    4.55
  -8  -2  -3   59.29    3.87
   8   2  -3   66.53    6.86
  -3   8   2   58.41    4.30
  -8   2   3   55.80    4.32
   3  -8   2   59.69    4.02
   2   3   8   51.44    4.05
  -3   8  -2   48.19    4.08
  -2  -3   8   56.15    4.57
  -8  -2   3   56.19    4.55
   2  -3  -8   55.26    4.52
  -2  -3   8   50.34    5.07
  -3  -8   2   57.10    4.79
   3  -8  -2   55.14    4.11
   3   8  -3   12.17    2.89
  -3   8   3   10.73    2.44
  -3   3   8    8.88    2.18
  -3  -8  -3    7.63    1.84
   3  -3   8   12.96    1.95
  -3  -3  -8    9.12    2.27
  -8   3   3    9.99    2.40
  -8   3   3    7.50    2.05
  -8  -3  -3    8.28    2.08
   8   3  -3   19.44    5.27
   3  -8   3   11.55    2.07
   3  -3   8   10.66    2.52
  -8  -3   3    6.75    2.13
   3   3   8    8.06    1.97
  -3   8  -3    8.86    2.02
   3  -8  -3   11.52    2.19
   3   8   3   12.02    2.37
  -3  -8   3    6.63    1.97
  -3  -3   8    8.87    2.48
  -3  -3   8    8.92    2.12
  -4  -3  -8   90.88    5.58
  -3   8   4   80.04    5.77
   4  -3   8   81.50    5.29
   3   8  -4   90.26    7.60
  -4   3   8   84.63    5.93
   3  -8   4   83.20    5.35
   8   4  -3   95.18    8.34
  -8   4   3   84.21    5.55
   4  -3   8   83.56    4.74
  -3  -8  -4   77.37    5.98
  -8  -4  -3   75.86    5.52
  -8  -4   3   82.94    6.31
  -4  -3   8   85.35    6.57
  -3   8  -4   81.89    5.95
  -4  -3   8   78.01    5.94
  -3  -8   4   87.42    6.59
   3   8   4   78.33    5.78
   3  -8  -4   78.56    5.65
  -5  -3  -8  352.63   19.19
  -8   5   3  387.55   19.47
   8   5  -3  445.93   22.63
  -8  -5  -3  362.43   19.56
  -5   3   8  364.96   20.12
  -3   8   5  355.98   19.68
  -8   5   3  368.33   19.31
   3  -8   5  369.51   19.13
   3   8  -5  415.99   22.22
  -5   3   8  389.47   19.92
   5  -3   8  363.57   18.20
   5  -3   8  363.53   18.31
  -3  -8  -5  361.60   19.86
  -3  -8   5  379.55   20.36
   3   8   5  358.02   19.68
  -5  -3   8  373.79   19.95
  -5  -3   8  383.51   20.42
  -8  -5   3  371.69   20.26
  -3   8  -5  390.43   20.55
   3  -8  -5  376.03   19.75
  -3  -8  -6  142.91    9.16
  -3   8   6  149.72    9.20
  -8  -6  -3  135.22    9.03
  -6   3   8  141.02    9.49
   3  -8   6  154.55    8.44
   8   6  -3  165.93   12.16
  -6   3   8  163.38    9.31
  -8  -6   3  141.68    9.69
   8   6   3  129.81    9.28
  -6  -3   8  138.65    9.15
  -6  -3   8  141.43    9.54
  -3   8  -6  151.14   10.33
   3  -8  -6  140.33    9.06
  -3  -8   6  134.54    9.52
  -3  -8  -7  187.45   12.23
  -7   3   8  195.17   12.29
  -7  -3   8  213.26   12.70
  -8  -7   3  231.69   13.37
  -7  -3   8  225.92   12.44
   4   8   0   64.92    5.60
  -4   8   0   63.58    4.64
   0   4   8   73.82    5.09
   4  -8   0   65.94    4.60
   0  -4   8   61.86    5.38
  -8   0   4   72.79    5.20
  -8   0   4   70.70    5.29
   0  -4  -8   70.47    5.10
   0  -4   8   73.07    5.30
  -4  -8   0   67.21    5.37
  -8   0  -4   71.89    3.61
   8   0   4   69.14    3.93
   1  -4   8  193.80   10.91
   4   8  -1  188.40   11.36
  -4  -8  -1  185.12   11.04
   4  -8   1  188.79   10.23
  -1  -4  -8  188.95   10.69
  -4   8   1  183.59   10.40
  -1   4   8  196.43   10.86
  -8  -1  -4  187.84    9.67
  -8   1   4  190.63   10.78
  -4  -8   1  186.45   11.11
   4  -8  -1  190.09   10.39
  -1  -4   8  203.83   11.04
   8   1   4  189.45   10.52
   4   8   1  186.61   11.02
  -4   8  -1  179.36   10.31
   1   4   8  187.03   10.59
  -8  -1   4  196.85   10.82
   2  -4   8    8.39    2.03
  -2   4   8    4.03    1.53
   2   4  -8    3.75    3.25
   8   2  -4    5.02    3.21
   4   8  -2    4.95    2.44
  -8  -2  -4    4.50    1.22
  -8   2   4    3.48    1.66
  -2  -4  -8    5.06    1.60
   4  -8   2    6.30    1.45
  -4  -8  -2    4.16    1.57
   4  -8  -2    2.96    1.38
  -4  -8   2    5.20    2.19
  -2  -4   8    6.78    1.85
   8   2   4    4.99    1.77
   2   4   8    4.11    1.50
  -8  -2   4    2.79    1.69
  -4   8  -2    5.47    1.48
   4   8   2    5.83    1.72
   2  -4  -8    3.91    1.69
  -3   4   8  309.04   16.60
   3  -4   8  290.31   15.57
  -4   8   3  295.78   16.10
  -3  -4  -8  291.72   16.05
   3  -4   8  297.86   15.88
   3   4  -8  309.01   19.18
   4   8  -3  320.42   17.62
   4  -8   3  308.60   15.61
  -4  -8  -3  298.69   16.50
   8   3  -4  347.75   19.16
  -8  -3  -4  305.39   15.72
  -8   3   4  319.63   16.25
  -4  -8   3  315.76   17.02
  -8  -3   4  312.98   16.48
   4   8   3  293.80   16.34
  -3  -4   8  306.02   16.48
  -4   8  -3  287.69   15.97
   3  -4  -8  302.65   16.47
   4  -8  -3  295.58   16.06
   4  -4   8   79.43    4.71
   4   4  -8   81.71    9.33
   4   8  -4   88.71    7.93
  -4  -8  -4   80.21    5.89
   4  -8   4   71.12    4.91
  -4  -4  -8   74.00    5.33
  -4   8   4   83.71    5.62
   4  -4   8   74.15    4.39
  -8  -4  -4   70.89    5.17
   8   4  -4   86.11    8.76
  -8   4   4   72.90    5.28
  -8   4   4   78.26    5.38
  -4  -8   4   70.44    6.29
  -8  -4   4   66.76    5.69
   4   8   4   65.16    5.48
   4  -8  -4   59.60    5.11
  -4   8  -4   71.96    5.54
  -4  -4   8   66.79    5.55
  -5   4   8   44.09    4.73
  -5   4   8   44.36    4.77
   4   8  -5   47.17    7.68
   8   5  -4   48.41    7.59
   5  -4   8   44.13    2.65
  -4   8   5   45.28    4.49
   5   4  -8   53.15    8.98
  -8   5   4   45.53    4.36
  -4  -8  -5   41.20    4.62
  -5  -4  -8   41.08    4.09
  -8  -5  -4   43.13    4.32
   4  -8   5   44.26    3.56
  -5  -4   8   44.87    4.55
  -8  -5   4   56.32    5.09
   5   4   8   41.24    3.83
   4  -8  -5   48.35    4.27
   4   8   5   38.80    4.39
   8   5   4   52.57    4.84
  -4   8  -5   52.48    5.51
  -4  -8   5   45.78    5.38
  -6   4   8   35.46    4.44
  -4  -8  -6   33.70    4.53
   6   4  -8   55.53    9.73
   8   6  -4   39.90    8.01
  -6   4   8   34.11    4.84
  -6  -4   8   40.10    4.60
  -8  -6   4   41.89    5.14
  -7   4   8   56.37    5.60
   7   4  -8   41.57   10.62
  -8  -7   4   49.29    6.18
  -7  -4   8   50.20    5.41
   0  -5  -8    1.99    1.68
   0  -5   8    2.93    1.77
  -8   0   5    1.48    1.66
   0   5   8    1.29    1.38
   5   8   0    1.90    1.99
  -5  -8   0   -0.34    1.84
  -8   0   5   -0.58    1.60
  -5   8   0    0.31    1.14
   5   8  -1   74.99    6.17
  -8   1   5   78.29    5.64
  -1  -5  -8   78.25    5.24
  -1   5   8   73.31    5.32
  -8  -1  -5   76.48    3.88
  -5  -8  -1   78.81    5.73
   5  -8   1   72.61    4.53
  -5  -8   1   59.47    5.65
  -5   8  -1   57.32    4.46
   1  -5  -8   57.45    5.01
   5   8   1   58.56    5.44
   1   5   8   60.38    4.87
   5  -8  -1   58.15    4.52
  -8  -1   5   63.06    5.38
  -8  -1   5   54.62    4.87
   8   1   5   55.87    4.49
   5   8  -2   80.21    7.22
  -2   5   8   76.82    6.02
  -8   2   5   84.60    6.12
  -5   8   2   78.74    5.51
  -8   2   5   81.44    5.87
   2   5  -8   86.29    9.29
   8   2  -5   88.77    8.99
  -5  -8  -2   77.85    6.16
  -8  -2  -5   76.53    4.86
   5  -8   2   76.16    4.99
  -2  -5  -8   82.03    5.82
   2  -5  -8   80.11    5.96
  -5  -8   2   87.76    6.70
   2   5   8   75.12    5.57
   5  -8  -2   85.50    5.50
   5   8   2   85.38    6.19
  -8  -2   5   80.40    5.84
  -2  -5   8   85.85    6.04
   8   2   5   83.64    5.38
  -5   8  -2   83.39    5.40
   5  -8   3  164.11    8.93
   3  -5   8  151.58    9.17
  -3   5   8  170.04   10.18
  -5  -8  -3  168.23   10.08
  -8   3   5  150.56    9.78
  -3  -5  -8  162.68    9.74
  -8  -3  -5  156.85    9.09
   3   5  -8  163.25   13.15
   8   3  -5  188.39   13.26
  -8   3   5  167.44    9.80
   3  -5   8  174.78    9.37
   3  -5  -8  169.19   10.04
   5   8   3  165.70   10.01
  -3  -5   8  170.48   10.03
   5  -8  -3  166.84    9.58
  -8  -3   5  168.30    9.94
  -5   8  -3  166.34    9.44
  -5  -8  -4   30.49    3.99
  -8   4   5   22.71    3.68
   4  -5   8   26.34    2.62
   8   4  -5   27.74    7.06
   4  -5   8   22.34    2.42
   4   5  -8   28.82    7.90
  -4  -5  -8   26.49    3.48
  -8   4   5   24.71    3.53
  -5   8   4   21.48    3.46
   4   5   8   20.13    3.02
   5  -8  -4   22.64    3.17
  -5  -8   4   24.80    4.69
  -4  -5   8   29.84    3.80
  -8  -4   5   21.07    3.75
  -5  -8  -5   31.08    4.57
   5   5  -8   39.14    9.02
   8   5  -5   44.11    8.28
   5  -5   8   32.53    2.26
   5  -8   5   36.97    3.00
   5   8  -5   46.02    8.21
  -8   5   5   39.87    4.37
  -5   5   8   32.91    4.70
  -5  -5   8   40.49    4.65
  -5   8  -5   39.08    4.85
  -5  -8   5   34.47    5.42
  -8  -5   5   42.45    4.68
  -6   5   8   48.34    5.63
   5  -8   6   47.87    3.57
  -8  -6   5   58.41    5.92
  -5   8  -6   56.19    5.13
  -7   5   8   28.49    5.31
   5  -8   7   25.27    2.68
  -8  -7   5   36.27    5.61
  -6   8   0   95.92    6.21
  -8   0   6   97.12    7.31
  -8   0   6   99.81    7.01
   0   6   8   96.71    6.88
  -6  -8   0  107.48    7.55
   0  -6  -8   96.96    6.89
   0  -6   8  104.56    7.26
   0   6  -8  100.44    9.21
   6  -8   0  105.81    6.26
   6   8   0  109.59    7.82
  -6  -8  -1   25.05    4.02
  -1   6   8   19.16    3.55
  -1  -6  -8   27.82    3.56
  -8   1   6   19.89    3.48
  -8   1   6   19.59    3.98
  -8  -1  -6   20.59    1.90
   1  -6   8   27.69    3.90
   6  -8   1   26.04    2.59
   6   8  -1   26.13    4.75
  -6   8   1   19.49    2.75
  -8  -1   6   20.82    3.29
  -1   6  -8   24.67    5.34
   6  -8  -1   17.72    2.64
   8   1   6   15.55    2.53
  -8  -1   6   21.28    3.88
  -6  -8   1   17.37    4.32
   1   6   8   14.44    3.14
   6   8   1   20.92    4.03
   1  -6  -8   14.07    3.41
  -6   8  -1   15.54    2.64
  -8   2   6   27.56    4.02
   2  -6   8   25.24    3.57
  -8   2   6   18.76    3.60
  -2  -6  -8   25.60    3.58
   6   8  -2   30.13    5.51
  -2   6   8   25.16    3.80
   6  -8   2   24.23    2.58
  -8  -2  -6   23.02    2.50
  -6   8   2   24.05    3.10
  -6  -8  -2   22.92    3.98
   2   6  -8   27.72    7.52
  -8  -2   6   27.95    3.52
  -2  -6   8   28.96    3.90
  -2   6  -8   27.77    4.63
   6  -8  -2   23.01    3.11
   8   2   6   26.89    2.99
   6   8   2   22.93    4.12
  -6  -8   2   24.23    4.78
  -3   6   8  203.77   12.51
  -8   3   6  210.92   12.26
  -6  -8  -3  202.24   12.46
  -3  -6  -8  195.67   12.17
   8   3  -6  242.67   16.10
   6   8  -3  248.65   14.88
   3  -6   8  206.81   11.58
  -6  -8   3  201.85   13.45
  -3  -6   8  225.73   12.71
  -8  -3   6  219.44   12.39
   3  -6  -8  218.32   12.58
  -6  -8  -4   65.71    6.02
   6   8  -4   88.46    9.65
  -8   4   6   66.90    5.69
   4  -6   8   70.22    4.55
   8   4  -6   65.44    9.84
  -4   6   8   65.38    6.13
   6   8   4   69.09    5.95
   4  -6  -8   68.10    6.16
  -8  -4   6   79.15    5.98
   6   8  -5  144.24   12.62
   5  -6   8  114.57    6.43
  -8  -5   6  131.82    8.66
   8   6  -6   -9.24    5.00
  -7  -8   0  289.16   15.88
   7  -8   0  273.73   14.27
  -8   0   7  255.24   16.34
  -8   0   7  271.75   15.23
   0   7   8  271.90   15.14
   0  -7  -8  274.04   15.20
  -7   8   0  263.51   14.30
   7  -8   1  185.97    9.79
  -8  -1  -7  168.22    9.11
  -8   1   7  182.87   10.92
  -7  -8  -1  184.61   11.40
  -1  -7  -8  177.49   10.87
   7   8  -1  204.87   12.43
  -1   7   8  186.25   10.95
  -7  -8   1  201.88   11.97
  -8  -1   7  166.98   11.37
   8   1   7  158.01    9.39
  -7   8  -1  173.15    9.87
   1  -7  -8  177.77   10.88
  -8  -1   7  181.26   10.83
  -7  -8  -2    6.99    2.46
  -2  -7  -8    2.57    1.88
   7   8  -2    1.97    3.04
  -8   2   7    4.92    2.35
   7  -8   2    4.00    1.48
  -2   7   8    4.71    2.53
   2  -7  -8    3.77    2.37
  -8  -2   7    5.86    2.08
   7   8   2    1.82    2.73
  -7  -8   2    1.75    2.64
  -7   8  -2    2.10    1.61
   7  -8   3    9.08    1.99
   7   8  -3    6.31    4.38
  -7  -8  -3    6.69    2.67
  -3   7   8    8.58    2.89
  -3  -7  -8    5.77    2.51
  -8   3   7    7.41    2.50
   7   8   3    9.69    3.02
  -8  -3   7   14.59    3.64
   3   7   8    6.65    1.95
  -7  -8   3   10.18    3.15
  -7   8  -3   12.85    2.74
   3  -7  -8   14.21    3.08
   8   4  -7   95.70   11.81
   4  -7   8   82.09    5.25
   7  -8   4   78.20    4.50
  -7   8  -4   83.41    5.24
  -7  -8   4   91.57    7.88
  -8  -4   7   78.32    6.56
   5  -7   8  129.07    7.03
  -8  -5   7  142.92    9.33
  -8  -8   0    2.27    2.60
  -8   0   8    2.83    2.55
   0  -8  -8    0.16    2.41
   0   8   8    3.80    2.56
   8   8   0    0.17    3.45
   8   8  -1   26.39    6.84
  -1   8   8   26.28    4.67
  -8   1   8   25.40    4.52
  -1  -8  -8   23.90    4.29
  -8  -1   8   22.16    4.36
   1  -8  -8   17.57    4.40
  -8  -8   1   19.74    4.48
  -2  -8  -8    6.35    2.33
  -2   8   8   11.44    3.44
  -8   2   8   14.17    3.32
  -8   8  -2   11.92    2.82
  -8  -8   2    3.54    3.28
  -8  -2   8    4.19    2.35
   2  -8  -8    9.57    2.96
   2   8   8   10.01    2.75
  -8   3   8    3.74    3.03
  -8  -3   8    3.27    2.55
  -8  -8   3    2.55    3.77
  -8  -8   4   98.02    8.91
  -9   0   0    0.44    1.44
   0  -9   0    3.12    1.22
   0   0   9   -0.11    1.37
   0   0   9    0.52    1.27
   0   9   0    1.12    1.34
   0   9  -1  174.95   10.60
   0   9   1  182.02   10.50
   1   0   9  189.11   10.33
   1   0   9  180.20   10.33
   0  -9   1  168.53   10.32
  -1   0   9  187.31   10.49
   0  -9  -1  190.77   10.53
  -9   1   0  178.74   10.04
  -1   0   9  185.40   10.70
  -9  -1   0  194.93   10.46
  -9   1   0  181.17    9.70
  -9   2   0    1.31    1.31
  -2   0   9    1.93    1.61
   2   0   9   -0.56    1.20
   2   0   9    1.21    1.38
   0   9   2    3.39    1.32
  -2   0   9    2.00    1.51
   0  -9  -2    0.69    1.35
   0  -9   2    0.30    1.35
   0   9  -2    2.50    1.76
  -9   2   0    2.07    0.96
  -9  -2   0    0.17    1.46
   0   9  -3  165.70   10.72
   0  -9   3  173.00   10.16
  -9  -3   0  180.53   10.44
  -9   3   0  170.08    9.23
  -9   3   0  186.43    9.65
  -3   0   9  190.52   11.05
  -3   0   9  177.43   10.41
   0  -9  -3  173.63   10.30
   3   0   9  178.19   10.18
   0   9   3  171.12   10.28
  -9   4   0   47.29    3.69
   0   9   4   37.40    4.07
   0  -9  -4   44.30    4.45
  -9   4   0   37.10    3.05
  -9  -4   0   42.61    4.79
  -4   0   9   52.12    5.30
  -4   0   9   44.79    4.39
   0  -9   4   39.55    3.96
   0   9   5   94.56    7.07
  -5   0   9  103.06    7.48
   0  -9  -5   92.17    7.03
   0  -9   5  103.70    7.21
  -5   0   9   98.47    8.05
  -9  -5   0  104.21    7.61
   5   0   9   99.91    5.99
   5   0   9  112.96    6.80
   9   5   0  114.78    9.12
  -9   5   0  104.25    6.34
  -9   6   0    9.36    2.36
  -9  -6   0   13.90    3.68
   0  -9  -6   13.50    3.66
   6   0   9   13.44    3.28
   0   9   6   10.96    2.78
  -6   0   9   17.10    4.25
   0   9   7   22.06    4.49
  -7   0   9   24.08    4.70
   0  -9  -7   26.30    4.53
  -8   0   9    1.37    2.61
   0  -9  -8   -0.50    2.24
   0   1   9   22.83    3.00
  -9   0   1   23.89    2.68
   0  -1   9   26.48    3.22
   1  -9   0   21.41    2.84
  -9   0  -1   22.44    2.63
   0   1   9   24.93    2.83
   1   9   0   22.28    3.26
  -9   0   1   26.47    3.08
  -1  -9   0   24.01    3.04
   0  -1   9   21.44    3.20
  -1   9   0   25.14    3.03
   1  -9   1   80.79    5.40
  -1  -9  -1   80.27    5.69
  -9  -1  -1   83.60    5.27
   1  -1   9   80.71    5.62
  -9   1   1   84.83    5.11
  -1   1   9   81.77    5.52
  -9   1   1   84.63    5.36
  -1   1   9   81.05    5.81
   1  -1   9   78.05    5.43
   1   9  -1   78.41    5.86
  -1   9   1   75.64    5.54
  -1   9  -1   70.47    5.56
   1  -9  -1   79.39    5.47
  -9   1  -1   77.32    4.92
  -1  -1   9   76.10    5.92
  -1  -9   1   77.75    5.59
  -1  -1   9   79.74    5.68
   1   1   9   76.73    5.39
   1   9   1   75.60    5.61
   1   1   9   77.18    5.40
  -9   1  -1   75.87    4.58
  -9  -1   1   78.41    5.61
  -1   9   2   68.45    4.93
   2  -1   9   63.24    4.80
  -9   2   1   64.07    4.18
   1  -9   2   58.78    4.61
  -9  -2  -1   67.48    4.74
   1   9  -2   60.44    5.35
  -2   1   9   64.02    5.19
  -1  -9  -2   65.37    4.99
  -9   2   1   65.52    4.51
  -2   1   9   62.98    4.77
  -9   2  -1   61.74    3.66
   1  -9  -2   59.76    4.71
  -9   2  -1   50.64    3.97
  -2  -1   9   60.48    4.98
  -1  -9   2   57.76    4.78
   1   9   2   54.19    4.78
  -9  -2   1   63.22    5.09
  -2  -1   9   58.22    5.40
  -9  -3  -1   16.10    3.04
  -3   1   9   16.03    2.99
   3  -1   9   15.72    3.02
   1   9  -3   18.84    3.89
  -9   3   1   19.37    2.25
  -9   3   1   15.35    2.67
  -1   9   3   16.00    2.90
  -1  -9  -3   16.92    3.23
   1  -9   3   18.12    2.94
  -3   1   9   16.87    3.32
  -9   3  -1   21.54    2.31
  -9   3  -1   19.73    1.81
   1   9   3   20.12    3.20
  -3  -1   9   20.27    4.02
   1  -9  -3   19.02    3.05
  -3  -1   9   22.21    3.44
  -1  -9   3   21.42    3.01
  -9  -3   1   15.22    3.56
  -1   9  -3   19.80    3.65
  -1  -9  -4  137.42    9.78
   4  -1   9  157.93    9.41
  -9   4   1  146.31    9.05
  -1   9   4  149.80    9.56
   1   9  -4  149.58   10.61
   1  -9   4  143.21    9.30
  -9  -4  -1  148.04    9.58
  -4   1   9  157.67   10.31
  -4   1   9  143.91    9.62
   4  -1   9  144.80    8.59
  -4  -1   9  175.17   10.83
   1  -9  -4  162.87    9.67
   1   9   4  166.14    9.78
  -1   9  -4  169.37   10.35
  -4  -1   9  168.00    9.98
  -9  -4   1  175.35   10.26
  -9   4  -1  179.50    8.43
  -1  -9   4  167.49    9.87
   4   1   9  187.63    9.52
  -9   4  -1  171.39    8.59
   9   4   1  188.98   11.73
   5  -1   9  159.68    9.20
   9   5  -1  183.85   12.80
   1  -9   5  157.89    9.44
  -9  -5  -1  155.22    9.78
  -9   5   1  163.17    8.66
   5  -1   9  152.18    8.27
  -5   1   9  160.47    9.81
  -1   9   5  158.18    9.64
  -1  -9   5  151.61    9.94
   9   5   1  162.44   10.97
   1   9   5  139.59    9.39
  -9   5  -1  146.42    8.11
  -9   5  -1  154.35    8.47
  -5  -1   9  150.49   10.64
   1  -9  -5  153.62    9.64
  -5  -1   9  150.92    9.83
   5   1   9  169.36    9.22
  -9  -5   1  154.64   10.24
  -6   1   9    1.67    2.05
  -1  -9  -6    6.23    2.54
   9   6  -1    2.96    3.94
  -6   1   9    2.33    2.93
   6  -1   9    1.06    1.67
  -1   9   6   -0.17    2.04
   1   9   6    4.66    2.36
  -9  -6   1    3.07    2.67
   6   1   9    6.46    2.10
  -6  -1   9    2.04    2.86
  -6  -1   9    1.95    2.00
   1  -9  -6   -2.66    2.16
  -7   1   9   -0.99    2.49
  -1   9   7    3.33    2.84
  -1  -9  -7    1.81    2.76
   1  -9  -7    5.62    2.63
  -7  -1   9   -0.74    2.21
   1   9   7    3.29    2.45
  -9   7  -1    3.43    1.50
   7   1   9    3.60    2.19
  -8   1   9  263.56   15.65
  -1  -9  -8  234.25   15.58
  -8  -1   9  269.76   15.57
   1   9   8  267.67   15.55
   8   1   9  295.07   14.08
  -9   0   2  727.40   35.25
  -9   0  -2  757.99   34.54
  -9   0   2  774.33   35.36
   0  -2   9  666.54   35.90
   0   2   9  710.69   35.43
  -2  -9   0  690.21   35.56
  -2   9   0  671.66   35.25
   0  -2   9  682.76   35.60
   2   9   0  677.42   35.63
   2  -9   0  722.54   35.27
  -2   9   1   12.90    2.66
  -1  -2  -9   16.59    2.73
  -1   2   9   17.69    2.90
  -1   2   9   14.96    2.64
  -9   1   2   14.21    2.55
  -2  -9  -1   14.13    2.96
   1  -2   9   14.98    3.07
   2   9  -1   20.18    3.46
  -9  -1  -2   13.84    2.13
  -9   1   2    9.75    2.32
   2  -9  -1   14.11    2.55
  -9   1  -2   16.77    1.73
  -9  -1   2   13.77    2.77
   2   9   1   16.95    3.04
  -9   1  -2   11.39    1.47
   9   1   2   13.95    2.94
  -1  -2   9   17.51    3.49
   1   2   9    8.95    2.44
  -1  -2   9   22.63    3.19
   2   9  -2   28.88    4.16
  -2   9   2   28.09    3.30
  -2  -2  -9   27.24    3.23
   2  -2   9   29.84    3.66
   2  -9   2   28.78    3.12
  -9  -2  -2   27.33    2.90
  -9   2   2   31.92    3.29
  -2  -9  -2   33.47    3.79
  -2   2   9   24.07    3.64
  -2   2   9   31.30    3.31
  -9   2   2   28.33    2.91
   2  -9  -2   23.81    3.04
  -9  -2   2   23.84    3.50
  -2  -2   9   25.53    3.52
  -9   2  -2   25.80    1.77
  -9   2  -2   27.04    1.88
   2   9   2   30.86    3.54
  -2  -9   2   26.37    3.50
  -2  -2   9   28.91    4.33
  -2  -9  -3   16.68    3.24
  -3   2   9   13.99    3.00
  -2   9   3   14.20    2.82
  -9  -3  -2   14.69    2.76
  -3  -2  -9   10.32    2.66
  -9   3   2   11.88    2.76
  -3   2   9   12.46    3.40
   2  -9   3   16.78    2.79
  -9   3   2   14.42    2.41
   2   9  -3   13.76    3.17
   3  -2   9   14.35    3.18
   2  -9  -3   22.83    2.97
  -2  -9   3   20.76    3.26
  -3  -2   9   20.83    3.38
   2   9   3   17.38    3.21
  -9  -3   2   18.87    3.45
  -2   9  -3   20.45    3.45
  -3  -2   9   14.64    3.13
  -4  -2  -9  288.00   16.06
   4  -2   9  320.89   16.33
  -4   2   9  315.65   17.23
   4  -2   9  301.70   15.57
   2   9  -4  326.38   18.08
  -9   4   2  306.62   15.93
  -4   2   9  321.75   16.81
  -9   4   2  308.68   16.22
  -9  -4  -2  301.34   16.43
  -2   9   4  303.26   16.60
   2  -9   4  309.87   16.30
   9   4   2  324.09   17.54
  -2   9  -4  308.92   17.03
  -2  -9   4  316.93   17.06
  -4  -2   9  308.00   17.65
   2   9   4  293.70   16.65
   2  -9  -4  295.19   16.53
  -9  -4   2  306.46   17.03
  -4  -2   9  302.63   16.85
   5  -2   9    6.06    1.75
  -9   5   2    5.56    1.72
  -2   9   5    5.51    2.35
  -5   2   9    4.17    2.52
   2  -9   5    4.35    1.84
   5  -2   9    5.71    1.22
  -2  -9  -5    4.55    2.28
  -5   2   9    3.21    2.14
   2   9   5    3.46    1.99
  -5  -2   9    4.36    2.36
  -5  -2   9    5.49    2.69
  -9  -5   2    4.79    2.54
   2  -9  -5    8.17    2.33
  -6   2   9   46.05    4.95
  -6   2   9   45.24    5.84
  -2  -9  -6   45.84    5.05
  -9  -6   2   31.31    5.48
   2  -9  -6   38.58    4.88
   2   9   6   34.03    4.44
  -6  -2   9   31.99    5.55
  -6  -2   9   32.81    4.71
  -7   2   9   33.25    5.04
  -2  -9  -7   32.05    5.19
  -7  -2   9   35.91    4.85
  -9   8  -2    3.65    1.81
   0   3   9    9.96    2.14
   0  -3  -9   13.54    2.93
  -3   9   0   13.43    2.64
   3   9   0    9.12    2.26
  -3  -9   0   15.19    2.81
  -9   0  -3   13.95    1.60
   3  -9   0   13.59    2.56
   0  -3   9   14.37    2.67
  -9   0   3   12.60    2.60
  -9   0   3   14.46    2.76
  -1   3   9   12.91    2.54
  -9  -1  -3   12.42    1.94
  -1  -3  -9   10.99    2.70
  -9   1   3    9.32    2.52
  -3  -9  -1    8.01    2.02
   3   9  -1   13.36    3.51
  -9   1   3   12.46    2.62
   3  -9   1   11.34    2.45
   1  -3   9   12.33    2.92
   9   1   3   15.60    3.60
  -3  -9   1   12.92    3.05
   1  -3  -9   12.82    2.92
  -1  -3   9   10.25    2.83
   3   9   1    5.48    2.12
   3  -9  -1    9.58    2.41
   1   3   9   10.44    2.55
  -9  -1   3   10.34    2.72
  -3   9  -1   11.48    2.50
  -9   2   3   24.19    3.26
   3  -9   2   27.69    3.08
  -9  -2  -3   23.94    2.75
   3   9  -2   30.59    4.55
  -2   3   9   20.64    3.61
  -3  -9  -2   32.74    3.82
  -3   9   2   20.35    3.16
  -9   2   3   25.30    3.06
  -2  -3  -9   21.28    3.19
   3  -9  -2   29.10    3.16
   3   9   2   28.29    3.78
  -9  -2   3   29.04    3.53
  -2  -3   9   29.08    3.56
  -3  -9   2   28.99    3.95
   9   2   3   21.80    4.25
  -3   9  -2   28.16    3.43
  -2  -3   9   30.75    4.39
  -3   9   3  150.36    9.16
  -3  -3  -9  151.70    9.06
   3   9  -3  174.68   10.79
  -9   3   3  149.00    8.84
  -3   3   9  152.43    9.64
   3  -9   3  147.22    8.79
  -9  -3  -3  150.48    8.79
  -3   3   9  160.93    9.50
  -9   3   3  158.55    9.18
  -3   9  -3  154.65    9.37
   3  -9  -3  152.16    9.11
  -3  -3   9  146.50   10.10
  -3  -3   9  158.81    9.51
   3   9   3  141.24    9.31
  -3  -9   3  158.74    9.88
  -9  -3   3  156.63    9.52
   3  -9   4   55.99    4.66
  -4  -3  -9   60.12    4.94
   4  -3   9   57.64    4.05
   3   9  -4   70.13    7.31
  -3  -9  -4   54.22    5.41
  -9   4   3   59.49    4.98
  -4   3   9   57.17    5.61
  -3   9   4   56.43    5.12
   4  -3   9   55.14    4.71
  -9   4   3   56.23    4.60
  -4  -3   9   78.69    5.56
   4   3   9   67.32    4.87
   3   9   4   62.81    5.34
  -3  -9   4   75.33    6.12
  -3   9  -4   77.90    5.89
  -4  -3   9   71.16    6.43
   3  -9  -4   65.22    5.08
  -9  -4   3   72.03    5.75
  -3  -9  -5   25.42    4.35
  -5   3   9   28.69    4.81
   5  -3   9   30.75    2.75
  -5   3   9   29.52    4.29
  -9  -5   3   35.44    4.91
   3   9   5   29.45    4.07
  -5  -3   9   28.80    4.87
  -5  -3   9   30.86    4.25
   9   6  -3   77.39    9.76
  -3  -9  -6   52.21    5.98
  -6   3   9   63.09    5.95
  -9  -6   3   71.04    6.63
  -6  -3   9   67.82    6.62
  -7   3   9   17.29    4.73
  -3  -9  -7    9.80    3.01
   3   9   7   10.28    2.86
  -4   9   0  101.85    6.72
  -4  -9   0  115.54    7.67
   4  -9   0  107.59    6.70
   0  -4   9  104.46    7.21
  -9   0   4  103.68    6.91
   0   4   9  111.49    7.17
   0  -4  -9  108.67    7.21
   4   9   0  103.94    7.63
  -4  -9  -1   97.28    6.95
   1  -4   9   96.97    6.67
  -9   1   4   96.66    6.52
  -1  -4  -9   91.21    6.54
  -9  -1  -4   93.16    5.26
  -4   9   1   98.63    6.34
  -1   4   9   96.84    6.73
   4  -9   1  100.99    6.12
   1  -4  -9   86.62    6.51
   4  -9  -1   91.69    6.12
   9   1   4   96.84    6.38
   4   9   1   96.44    6.99
  -9  -1   4   89.47    6.55
  -4   9  -1   90.10    6.13
  -9  -1   4   91.77    6.36
   4   9  -2   83.93    7.46
  -2  -4  -9   81.51    6.06
  -2   4   9   85.79    6.50
  -9   2   4   82.76    6.14
   2  -4   9   91.10    6.27
  -4  -9  -2   90.48    6.62
  -9  -2  -4   85.22    5.23
   4  -9   2   92.74    5.68
  -9   2   4   86.80    6.17
   4  -9  -2   79.30    5.79
   4   9   2   79.84    6.43
   9   2   4   87.97    6.50
  -4  -9   2   89.92    6.81
  -9  -2   4   86.95    6.18
   2  -4  -9   81.28    6.36
  -4   9  -2   85.19    5.98
  -2  -4   9   84.73    6.19
  -3  -4  -9   69.39    5.68
   4  -9   3   75.92    5.21
   4   9  -3   86.57    7.64
   3  -4   9   77.28    5.67
  -3   4   9   72.05    6.16
  -9   3   4   71.54    5.78
  -4  -9  -3   69.30    6.12
   3   4   9   74.39    5.49
   4   9   3   76.52    6.13
   3  -4  -9   81.63    6.20
  -3  -4   9   83.98    6.04
  -4  -9   3   84.80    6.85
  -4   9  -3   76.02    5.87
   4  -9  -3   80.26    5.65
  -9  -3   4   82.94    6.10
   4  -9   4   19.84    2.88
   4  -4   9   21.64    2.87
   4   9  -4   23.51    6.28
  -4   4   9   17.61    4.28
  -4  -9  -4   17.89    3.92
  -4  -4   9   19.09    3.66
  -4   9  -4   19.58    3.93
  -4  -9   4   19.69    4.54
  -9  -4   4   17.24    3.78
   4   9   4   17.27    3.68
  -4  -9  -5    2.78    2.57
   5  -4   9    2.78    1.12
  -5   4   9    1.57    2.12
  -5   4   9    3.83    2.89
  -9  -5   4    5.38    2.50
  -5  -4   9    0.56    1.92
   9   6  -4  303.35   18.67
  -6   4   9  268.26   15.14
  -4  -9  -6  225.69   14.80
   4   9   6  238.12   14.63
  -9  -6   4  270.42   15.28
  -7   4   9   33.96    5.75
   0  -5  -9  121.91    7.97
  -5   9   0  116.89    7.42
   0  -5   9  100.82    8.15
  -9   0   5  127.50    7.90
   5   9   0  127.01    8.70
  -9   0   5  120.19    8.80
   0  -5   9  125.91    8.13
   0   5   9  120.16    7.96
  -5  -9   0  126.17    8.59
   5  -9   0  123.35    7.42
  -9   1   5   47.80    4.53
  -9  -1  -5   44.07    2.79
  -5  -9  -1   50.08    5.25
   1  -5   9   50.81    4.82
  -1  -5  -9   42.93    4.45
  -1   5   9   44.77    4.67
   5   9  -1   43.23    5.58
   5  -9   1   45.97    3.74
   5  -9  -1   35.63    3.90
  -5   9  -1   43.87    3.90
   1  -5  -9   37.03    4.43
   9   1   5   38.29    3.95
   5   9   1   43.18    5.09
  -9  -1   5   35.61    4.05
  -2   5   9  151.49    9.76
   5   9  -2  173.52   11.20
  -2  -5  -9  150.88    9.47
  -5  -9  -2  146.43    9.82
  -9   2   5  147.71    9.43
   2  -5   9  152.66    9.43
   5  -9   2  164.77    8.77
   5   9   2  151.62    9.82
   2   5   9  141.45    9.54
  -5   9  -2  159.22    9.14
  -9  -2   5  150.68    9.39
   2  -5  -9  149.98    9.64
  -5  -9   2  161.17   10.49
  -5  -9  -3   65.18    6.03
   5  -9   3   69.73    4.69
  -3   5   9   64.83    6.10
   3  -5   9   61.47    5.18
   5   9  -3   78.82    8.18
   3   5   9   55.12    5.39
  -9  -3   5   68.27    5.57
   3  -5  -9   64.87    5.98
  -5   9  -3   64.65    5.46
  -5  -9   3   78.56    6.86
   5   9  -4  144.71   12.19
  -4   5   9  133.83    9.15
   4  -5   9  122.04    7.40
  -5  -9  -4  130.00    9.01
  -9  -4   5  126.08    8.65
  -5  -9   4  133.69    9.71
   4  -5  -9  132.10    9.00
   9   5  -5   52.45    9.66
  -5  -9  -5   41.69    5.60
  -9  -5   5   32.13    5.01
   5   9   5   29.04    4.91
  -6   5   9    3.46    3.01
   9   6  -5    0.69    5.76
  -9  -6   5    3.29    3.15
   6   9   0  192.53   11.91
  -9   0   6  176.48   10.85
  -6  -9   0  186.28   11.69
   0  -6  -9  172.62   10.96
  -1   6   9   36.67    4.56
  -6  -9  -1   36.81    5.34
  -1  -6  -9   30.94    4.31
   6   9  -1   26.71    5.87
  -9   1   6   31.85    4.35
  -9  -1  -6   33.48    2.21
  -9  -1   6   30.50    4.10
  -6  -9   1   33.90    5.52
   1  -6  -9   26.87    4.30
   6   9   1   21.44    4.86
   9   1   6   27.37    3.30
  -9   2   6   35.60    4.69
  -6  -9  -2   24.61    4.92
   6   9  -2   52.85    6.89
  -2   6   9   36.74    4.84
  -2  -6  -9   28.90    4.40
  -6  -9   2   33.62    5.77
  -9  -2   6   34.88    4.25
   2   6   9   33.19    4.28
   2  -6  -9   34.38    4.72
   6   9  -3   22.63    5.13
   6  -9   3   20.92    3.07
  -6  -9  -3   29.97    4.98
  -3   6   9   17.91    4.62
  -9  -3   6   26.18    4.20
   6   9   3   25.95    4.78
  -6  -9   3   35.76    5.88
   3  -6  -9   31.95    4.70
   4  -6   9   60.88    4.39
   6  -9   4   58.50    4.38
   9   4  -6   79.74   11.10
  -9  -4   6   51.49    5.78
   9   5  -6   67.88   11.73
   5  -6   9   46.13    3.18
  -9  -5   6   55.95    5.87
  -9  -6   6    3.04    3.18
   0  -7  -9    4.08    2.35
  -7  -9   0    6.97    3.04
  -9   0   7    7.66    2.84
  -7  -9  -1   27.87    5.65
  -1  -7  -9   22.42    4.52
   1  -7  -9   25.70    4.66
   7   9   1   27.47    5.54
  -7  -9   1   25.52    5.81
  -9  -1   7   20.47    4.09
   1   7   9   22.65    4.39
  -2   7   9  310.93   18.32
  -9  -2   7  314.88   17.89
  -7  -9   2  357.04   19.61
   2  -7  -9  340.59   18.48
   7   9  -3    6.71    5.16
  -9  -3   7    4.27    2.48
  -7  -9   3    9.54    4.27
   9   4  -7   27.15    7.94
   7  -9   4   21.22    2.54
  -9  -4   7   17.95    4.73
   0   8   9   17.49    4.04
   0  -8  -9   27.64    5.37
   1  -8  -9   20.66    5.20
  -9  -2   8   25.29    4.66
 -10   0   0    5.91    1.55
 -10   0   0    6.79    1.93
   0 -10   0   11.76    2.85
   0   0  10    6.75    1.93
   0  10   0   10.37    2.51
   0  10   1  194.67   11.48
   1   0  10  189.26   11.28
 -10  -1   0  193.00   11.18
 -10   1   0  195.93   10.88
  -1   0  10  214.08   11.59
   0 -10  -1  204.44   11.52
   0 -10   1  192.60   11.33
   0  10  -1  192.11   11.63
   1   0  10  202.88   11.46
   0  10  -2   46.30    5.07
   0 -10   2   45.42    4.43
   2   0  10   50.20    4.32
   2   0  10   51.03    4.64
 -10   2   0   48.57    4.00
  -2   0  10   54.02    4.76
   0 -10  -2   51.59    4.77
 -10  -2   0   44.38    4.66
   0  10   2   44.83    4.63
   0  10   3   39.40    4.49
   0 -10  -3   36.59    4.51
  -3   0  10   43.00    4.45
  -3   0  10   30.66    5.08
   3   0  10   45.80    4.40
  -4   0  10    2.50    2.26
  -4   0  10    0.74    2.79
 -10   4   0    2.65    1.24
   0  10   4    5.85    2.74
   4   0  10   -0.17    2.12
   0 -10  -4   -1.21    1.82
   0  10   5    4.94    2.44
 -10   5   0    2.64    1.44
  -5   0  10    6.73    3.47
   0 -10  -5    1.06    2.17
  -6   0  10  415.00   23.45
   7   0  10   49.30    5.03
 -10   0  -1   88.87    5.50
   0   1  10  104.23    6.50
  -1  10   0   86.12    6.42
 -10   0  -1   81.95    5.70
   0  -1  10   95.94    6.70
 -10   0   1   92.90    5.87
 -10   0   1   89.41    6.20
  -1 -10   0   90.69    6.53
   1 -10   0   91.07    6.28
   1  10   0   87.67    6.73
   1 -10   1   24.26    3.34
  10   1  -1   22.16    4.63
 -10   1   1   22.56    2.85
  -1   1  10   27.54    3.38
 -10  -1  -1   22.56    3.27
  -1  10   1   20.79    3.58
  -1 -10  -1   23.50    3.69
   1  10  -1   21.69    4.10
   1  -1  10   19.03    3.66
   1  -1  10   23.91    3.49
 -10   1   1   22.41    3.20
 -10   1  -1   27.38    2.83
   1 -10  -1   34.51    3.63
   1  10   1   28.16    3.90
  -1  10  -1   29.51    3.97
 -10  -1   1   23.42    3.66
   1   1  10   26.79    3.65
   1   1  10   32.73    3.73
  -1 -10   1   22.72    3.59
  -1  -1  10   33.12    3.88
   1 -10   2  196.57   11.74
  -1  10   2  203.74   11.93
  -2   1  10  209.19   11.96
 -10   2   1  203.44   11.10
   2  -1  10  211.10   12.05
  10   2  -1  231.25   14.42
  -1 -10  -2  217.20   12.21
   1  10  -2  204.83   12.48
   2  -1  10  197.24   11.65
 -10  -2   1  204.26   12.01
 -10   2  -1  202.60   10.86
   1 -10  -2  203.29   11.89
   1  10   2  195.64   11.99
   2   1  10  223.60   11.95
  -2  -1  10  210.46   12.16
 -10   2  -1  213.81   10.61
  -1 -10   2  211.52   12.11
   2   1  10  205.77   11.61
  -1  10   3   15.61    3.59
  -3   1  10   21.80    3.61
   3  -1  10   19.90    3.98
  -1 -10  -3   18.91    3.90
 -10   3   1   20.75    2.59
  -3   1  10   22.01    4.43
   1 -10  -3   21.12    3.64
  -3  -1  10   24.93    3.91
 -10   3  -1   24.11    2.06
   3   1  10   19.86    3.57
 -10   3  -1   20.60    2.52
  -1 -10  -4   14.87    3.16
  -4   1  10   13.83    3.79
   4  -1  10   16.22    3.98
  -4   1  10    9.75    3.12
 -10   4   1    9.54    2.47
   1 -10  -4   13.55    2.97
  -4  -1  10    3.67    3.19
 -10   4  -1   11.25    1.71
   1  10   4   13.59    3.70
  -5   1  10   41.57    6.01
   5  -1  10   46.65    5.01
  -1 -10  -5   39.47    5.16
   1  10   5   40.07    5.06
 -10   5  -1   41.20    2.98
  -5  -1  10   29.80    6.34
   6  -1  10   88.82    6.11
  -1 -10  -6  102.53    7.71
   1  10   6   82.36    7.13
  -6  -1  10   91.44    8.81
 -10   6  -1   89.01    5.16
 -10   0   2   40.66    4.00
 -10   0   2   37.15    3.72
 -10   0  -2   35.74    2.93
 -10   0  -2   34.58    3.08
   0   2  10   41.54    4.13
   2 -10   0   43.00    3.95
   0  -2  10   40.20    4.64
   2  10   0   40.60    4.80
  -2 -10   0   34.96    4.34
   0  -2  10   45.36    4.68
  -2  10   0   38.17    4.26
 -10  -1  -2    8.81    2.35
 -10   1   2   11.41    2.66
  -2 -10  -1   14.19    3.54
   1  -2  10   13.14    3.60
   1  -2  10   10.98    2.51
  -1   2  10   16.48    3.09
 -10   1   2   11.01    2.79
  -2  10   1   13.93    2.73
   2  10  -1   16.95    3.94
 -10   1  -2   12.67    1.82
   1   2  10   14.31    3.19
 -10   1  -2   11.74    1.55
  10   1   2   10.32    3.19
   2 -10  -1   10.43    2.20
   1   2  10   11.73    2.58
 -10  -1   2   12.74    2.56
   2  10   1   12.68    2.94
  -1  -2  10   12.85    3.37
  -2 -10   1   11.11    2.47
 -10   2   2   90.73    6.18
  10   2  -2  105.32    9.73
   2  10  -2  103.41    7.75
   2  -2  10   99.13    7.08
  -2   2  10   95.76    6.85
   2 -10  -2  106.24    6.86
  -2 -10   2  103.49    7.26
   2   2  10   95.52    6.59
  -2  -2  10   84.11    7.08
 -10  -2   2  101.96    6.97
  -2 -10  -3  104.86    7.84
  -3   2  10  122.67    7.86
  -3   2  10  104.44    8.13
   3  -2  10  110.28    7.74
   2  10   3  118.00    7.97
  -2 -10  -4   47.06    5.39
  -4   2  10   53.61    5.33
  -4   2  10   53.02    6.03
   4  -2  10   49.74    5.04
   2  10   4   54.61    5.48
  -2 -10  -5   18.06    3.79
   5  -2  10   15.29    2.63
  -5   2  10   12.71    3.31
   2  10   5   18.81    4.22
  -2 -10  -6   20.37    4.01
  -2 -10  -7   97.61    9.09
   2  10   7  109.79    8.88
 -10   0  -3   10.72    1.50
   0  -3  10    9.61    3.15
   0  -3 -10    6.38    2.02
 -10   0  -3    9.08    1.69
   3  10   0    9.64    2.98
 -10   0   3   13.24    3.39
  -3 -10   0   16.72    3.75
  -3 -10  -1   86.71    6.67
  -1  -3 -10   84.98    6.27
   3  10  -1   77.36    6.92
   3  10   1   77.36    6.67
   1   3  10   75.80    6.01
  -1  -3  10   74.72    6.98
  -3 -10   1   81.14    6.58
 -10  -1   3   80.50    5.98
  -2   3  10  318.82   15.84
   3  10  -2  300.66   16.48
   2  -3  10  274.17   15.49
   3  10   2  253.30   15.59
 -10  -2   3  277.32   15.74
  -2  -3  10  253.85   16.18
  -3 -10   2  275.81   15.85
   3  -3  10   49.12    4.91
  -3   3  10   54.27    5.61
  -3   3  10   55.98    5.32
  -3 -10  -3   50.04    5.45
  -3  -3  10   41.74    5.99
   3  10   3   45.12    5.33
  -3 -10  -4  102.22    7.76
  -4   3  10   97.74    7.88
   4  -3  10   93.01    6.74
  -4   3  10   97.97    8.09
   3  10   4  103.41    7.54
  -5   3  10  104.41    8.46
  -3 -10  -5   99.94    8.14
   5  -3  10   97.58    6.09
  -3 -10  -6   11.47    3.34
   3  10   6   19.28    4.86
   4  10   0    2.86    2.39
   0  -4 -10   -1.84    1.91
  -4 -10   0    1.86    2.61
   4  10  -1   66.57    6.73
  -4 -10  -1   65.32    6.18
  -1  -4 -10   64.01    5.62
   1  -4 -10   60.19    5.72
   4  10   1   69.03    6.34
  -4 -10   1   62.99    6.20
   1   4  10   59.62    5.50
  -4 -10  -2   74.55    6.53
   4  10   2   74.07    6.84
  -3   4  10   21.62    4.88
  -4 -10  -3   20.54    4.61
  -3  -4  10   29.08    5.69
   4  10   3   24.26    4.70
  -4 -10  -4   11.13    3.24
  -4   4  10   19.81    5.14
  -4  -4  10    9.87    3.16
  -4 -10  -5   13.60    3.42
   5  -4  10   16.21    2.45
   4  10   5   26.84    5.14
  -5  -4  10   23.10    5.64
  -6  -4  10  152.59   11.00
   5  10   0   85.35    7.77
   0  -5 -10   81.26    6.71
  -5 -10   0   93.79    7.70
   0   5  10   82.37    6.80
   5  10  -1   34.01    6.00
  -5 -10  -1   20.12    3.78
   5  10   1   25.31    5.19
  -5 -10   1   23.21    5.24
   1  -5 -10   22.40    4.33
   2  -5 -10   18.59    4.59
  -5 -10   2   11.42    3.12
  -5 -10  -3   22.21    5.00
  -3   5  10    7.46    3.06
   3  -5 -10   13.13    3.17
  -5 -10  -4   51.35    6.46
   5  10   4   46.08    6.30
   5  -5  10    4.62    1.37
  -6 -10   0  350.20   20.09
   0   6  10  345.32   19.78
   0  -6 -10  359.44   20.06
  -6 -10  -1   75.31    7.25
   6  10  -1   46.98    7.78
  -1   6  10   68.60    6.67
   1  -6 -10   58.76    6.31
  -6 -10   1   59.63    7.18
  -6 -10  -2   33.35    6.19
   6  10   2   44.81    6.43
   2  -6 -10   34.50    5.51
  -7 -10   0   42.00    7.42
   7  10   0   48.30    8.15
   7  10  -1   61.88    9.51
  -1   7  10   65.95    7.23
   1  -7 -10   62.91    7.45
  -7 -10   1   69.68    8.44
  -2   0  11    0.78    3.34
  -3   0  11   70.42    7.20
  -4   0  11   87.35    8.72
  -5   0  11    6.34    3.69
 -11   0  -1    6.80    1.64
  -2   1  11   11.75    3.32
 -11   2  -1   10.24    1.86
  -3   1  11   25.65    5.50
 -11   3  -1   26.62    2.30
  -4   1  11   18.05    4.81
  -4  -1  11   29.35    6.53
  -5  -1  11  178.15   13.12
 -11   0  -2   37.37    2.93
  -2   2  11   41.00    5.50
  -3   2  11  141.35   10.29
  -2   3  11   27.92    5.39
  -3   3  11   51.80    6.87
  -4   3  11   69.18    8.28
  -3   4  11  156.31   11.20
 -12   1  -2   41.58    2.86
   0   0   0    0.00    0.00
;
_shelx_hkl_checksum              62082
loop_
_space_group_symop_operation_xyz
'x, y, z'
'-x+1/2, -y, z+1/2'
'-x, y+1/2, -z+1/2'
'x+1/2, -y+1/2, -z'
'z, x, y'
'z+1/2, -x+1/2, -y'
'-z+1/2, -x, y+1/2'
'-z, x+1/2, -y+1/2'
'y, z, x'
'-y, z+1/2, -x+1/2'
'y+1/2, -z+1/2, -x'
'-y+1/2, -z, x+1/2'
loop_
_atom_site_label
_atom_site_type_symbol
_atom_site_fract_x
_atom_site_fract_y
_atom_site_fract_z
_atom_site_U_iso_or_equiv
_atom_site_adp_type
_atom_site_occupancy
_atom_site_site_symmetry_order
_atom_site_calc_flag
_atom_site_refinement_flags_posn
_atom_site_refinement_flags_adp
_atom_site_refinement_flags_occupancy
_atom_site_disorder_assembly
_atom_site_disorder_group
Br1 Br 0.40646(6) 0.40646(6) 0.40646(6) 0.0097(3) Uani 1 3 d S T P . .
Eu1 Eu 0.58792(3) 0.58792(3) 0.58792(3) 0.0045(2) Uani 1 3 d S T P . .
Eu2 Eu 0.85415(3) 0.85415(3) 0.85415(3) 0.0062(2) Uani 0.278(19) 3 d S T P . .
Ba2 Ba 0.85415(3) 0.85415(3) 0.85415(3) 0.0062(2) Uani 0.722(19) 3 d S T P . .
P1 P 0.05250(15) 0.62234(16) 0.27709(16) 0.0057(4) Uani 1 1 d . . . . .
P2 P 0.11688(16) 0.23511(16) 0.30379(15) 0.0057(4) Uani 1 1 d . . . . .
P3 P 0.04066(16) 0.04066(16) 0.04066(16) 0.0064(6) Uani 1 3 d S T P . .
loop_
_atom_site_aniso_label
_atom_site_aniso_U_11
_atom_site_aniso_U_22
_atom_site_aniso_U_33
_atom_site_aniso_U_23
_atom_site_aniso_U_13
_atom_site_aniso_U_12
Br1 0.0097(3) 0.0097(3) 0.0097(3) -0.0021(3) -0.0021(3) -0.0021(3)
Eu1 0.0045(2) 0.0045(2) 0.0045(2) -0.00024(13) -0.00024(13) -0.00024(13)
Eu2 0.0062(2) 0.0062(2) 0.0062(2) -0.00133(14) -0.00133(14) -0.00133(14)
Ba2 0.0062(2) 0.0062(2) 0.0062(2) -0.00133(14) -0.00133(14) -0.00133(14)
P1 0.0053(9) 0.0062(8) 0.0056(8) -0.0008(6) 0.0002(6) -0.0008(7)
P2 0.0061(9) 0.0063(8) 0.0047(8) -0.0002(6) 0.0008(7) 0.0016(6)
P3 0.0064(6) 0.0064(6) 0.0064(6) 0.0011(7) 0.0011(7) 0.0011(7)
loop_
_atom_type_symbol
_atom_type_description
_atom_type_scat_dispersion_real
_atom_type_scat_dispersion_imag
_atom_type_scat_source
P P 0.1023 0.0942 'International Tables Vol C Tables 4.2.6.8 and 6.1.1.4'
Br Br -0.2901 2.4595 'International Tables Vol C Tables 4.2.6.8 and 6.1.1.4'
Ba Ba -0.3244 2.2819 'International Tables Vol C Tables 4.2.6.8 and 6.1.1.4'
Eu Eu -0.1578 3.6682 'International Tables Vol C Tables 4.2.6.8 and 6.1.1.4'
loop_
_geom_angle_atom_site_label_1
_geom_angle_atom_site_label_2
_geom_angle_atom_site_label_3
_geom_angle
_geom_angle_site_symmetry_1
_geom_angle_site_symmetry_3
Eu1 Br1 Eu2 96.814(16) . 4_466
Eu1 Br1 Eu2 96.814(17) . 2_664
Eu2 Br1 Eu2 118.612(7) 4_466 2_664
Eu1 Br1 Eu2 96.814(16) . 3_646
Eu2 Br1 Eu2 118.612(7) 4_466 3_646
Eu2 Br1 Eu2 118.612(7) 2_664 3_646
Br1 Eu1 P1 72.83(3) . 10_655
Br1 Eu1 P1 72.83(3) . 6_556
P1 Eu1 P1 111.67(3) 10_655 6_556
Br1 Eu1 P1 72.83(3) . 2_565
P1 Eu1 P1 111.67(3) 10_655 2_565
P1 Eu1 P1 111.67(3) 6_556 2_565
Br1 Eu1 P1 134.34(3) . 4_566
P1 Eu1 P1 64.76(5) 10_655 4_566
P1 Eu1 P1 138.25(3) 6_556 4_566
P1 Eu1 P1 107.425(13) 2_565 4_566
Br1 Eu1 P1 134.34(3) . 12_665
P1 Eu1 P1 107.425(13) 10_655 12_665
P1 Eu1 P1 64.76(5) 6_556 12_665
P1 Eu1 P1 138.25(3) 2_565 12_665
P1 Eu1 P1 76.54(4) 4_566 12_665
Br1 Eu1 P1 134.34(3) . 8_656
P1 Eu1 P1 138.25(3) 10_655 8_656
P1 Eu1 P1 107.425(13) 6_556 8_656
P1 Eu1 P1 64.76(5) 2_565 8_656
P1 Eu1 P1 76.54(4) 4_566 8_656
P1 Eu1 P1 76.54(4) 12_665 8_656
Br1 Eu1 P2 71.72(3) . 12_565
P1 Eu1 P2 38.64(4) 10_655 12_565
P1 Eu1 P2 139.75(4) 6_556 12_565
P1 Eu1 P2 74.93(4) 2_565 12_565
P1 Eu1 P2 64.86(4) 4_566 12_565
P1 Eu1 P2 136.68(4) 12_665 12_565
P1 Eu1 P2 110.80(4) 8_656 12_565
Br1 Eu1 P2 71.72(3) . 4_556
P1 Eu1 P2 139.75(4) 10_655 4_556
P1 Eu1 P2 74.93(4) 6_556 4_556
P1 Eu1 P2 38.64(4) 2_565 4_556
P1 Eu1 P2 136.68(4) 4_566 4_556
P1 Eu1 P2 110.80(4) 12_665 4_556
P1 Eu1 P2 64.86(4) 8_656 4_556
P2 Eu1 P2 110.63(3) 12_565 4_556
Br1 Eu1 P2 71.72(3) . 8_655
P1 Eu1 P2 74.93(4) 10_655 8_655
P1 Eu1 P2 38.64(4) 6_556 8_655
P1 Eu1 P2 139.75(4) 2_565 8_655
P1 Eu1 P2 110.80(4) 4_566 8_655
P1 Eu1 P2 64.86(4) 12_665 8_655
P1 Eu1 P2 136.68(4) 8_656 8_655
P2 Eu1 P2 110.63(3) 12_565 8_655
P2 Eu1 P2 110.63(3) 4_556 8_655
Br1 Eu1 P2 108.28(3) . 10_655
P1 Eu1 P2 72.77(4) 10_655 10_655
P1 Eu1 P2 64.99(4) 6_556 10_655
P1 Eu1 P2 175.46(4) 2_565 10_655
P1 Eu1 P2 75.10(4) 4_566 10_655
P1 Eu1 P2 38.06(4) 12_665 10_655
P1 Eu1 P2 112.77(4) 8_656 10_655
P2 Eu1 P2 109.61(2) 12_565 10_655
P2 Eu1 P2 137.15(3) 4_556 10_655
P2 Eu1 P2 39.33(5) 8_655 10_655
Br1 Eu1 P2 108.28(3) . 6_556
P1 Eu1 P2 175.46(4) 10_655 6_556
P1 Eu1 P2 72.77(4) 6_556 6_556
P1 Eu1 P2 64.99(4) 2_565 6_556
P1 Eu1 P2 112.77(4) 4_566 6_556
P1 Eu1 P2 75.10(4) 12_665 6_556
P1 Eu1 P2 38.06(4) 8_656 6_556
P2 Eu1 P2 137.15(3) 12_565 6_556
P2 Eu1 P2 39.33(5) 4_556 6_556
P2 Eu1 P2 109.61(2) 8_655 6_556
P2 Eu1 P2 110.64(3) 10_655 6_556
P3 Eu2 P1 135.78(3) 1_666 12_665
P3 Eu2 P1 135.78(3) 1_666 8_656
P1 Eu2 P1 74.31(4) 12_665 8_656
P3 Eu2 P1 135.78(3) 1_666 4_566
P1 Eu2 P1 74.31(4) 12_665 4_566
P1 Eu2 P1 74.31(4) 8_656 4_566
P3 Eu2 Br1 87.124(11) 1_666 2_665
P1 Eu2 Br1 78.24(3) 12_665 2_665
P1 Eu2 Br1 65.77(3) 8_656 2_665
P1 Eu2 Br1 136.24(3) 4_566 2_665
P3 Eu2 Br1 87.124(11) 1_666 4_566
P1 Eu2 Br1 65.77(3) 12_665 4_566
P1 Eu2 Br1 136.24(3) 8_656 4_566
P1 Eu2 Br1 78.24(3) 4_566 4_566
Br1 Eu2 Br1 119.750(2) 2_665 4_566
P3 Eu2 Br1 87.124(11) 1_666 3_656
P1 Eu2 Br1 136.24(3) 12_665 3_656
P1 Eu2 Br1 78.24(3) 8_656 3_656
P1 Eu2 Br1 65.77(3) 4_566 3_656
Br1 Eu2 Br1 119.750(2) 2_665 3_656
Br1 Eu2 Br1 119.750(2) 4_566 3_656
P3 Eu2 P2 66.40(3) 1_666 11_566
P1 Eu2 P2 118.09(4) 12_665 11_566
P1 Eu2 P2 136.47(4) 8_656 11_566
P1 Eu2 P2 70.42(4) 4_566 11_566
Br1 Eu2 P2 153.31(3) 2_665 11_566
Br1 Eu2 P2 58.40(3) 4_566 11_566
Br1 Eu2 P2 64.55(3) 3_656 11_566
P3 Eu2 P2 66.40(3) 1_666 7_665
P1 Eu2 P2 70.42(4) 12_665 7_665
P1 Eu2 P2 118.09(4) 8_656 7_665
P1 Eu2 P2 136.47(4) 4_566 7_665
Br1 Eu2 P2 58.40(3) 2_665 7_665
Br1 Eu2 P2 64.55(3) 4_566 7_665
Br1 Eu2 P2 153.31(3) 3_656 7_665
P2 Eu2 P2 105.04(3) 11_566 7_665
P3 Eu2 P2 66.40(3) 1_666 3_656
P1 Eu2 P2 136.47(4) 12_665 3_656
P1 Eu2 P2 70.42(4) 8_656 3_656
P1 Eu2 P2 118.09(4) 4_566 3_656
Br1 Eu2 P2 64.55(3) 2_665 3_656
Br1 Eu2 P2 153.31(3) 4_566 3_656
Br1 Eu2 P2 58.40(3) 3_656 3_656
P2 Eu2 P2 105.04(3) 11_566 3_656
P2 Eu2 P2 105.04(3) 7_665 3_656
P2 P1 P3 99.75(10) 3 3
P2 P1 Eu1 77.15(6) 3 2_564
P3 P1 Eu1 93.48(5) 3 2_564
P2 P1 Eu1 77.07(6) 3 4_466
P3 P1 Eu1 91.91(5) 3 4_466
Eu1 P1 Eu1 154.20(5) 2_564 4_466
P2 P1 Eu2 121.59(7) 3 4_466
P3 P1 Eu2 137.92(9) 3 4_466
Eu1 P1 Eu2 102.46(5) 2_564 4_466
Eu1 P1 Eu2 90.12(4) 4_466 4_466
P1 P2 P2 104.59(6) 3_545 5
P1 P2 P2 104.45(6) 3_545 9
P2 P2 P2 60.0 5 9
P1 P2 Eu1 64.21(6) 3_545 4_456
P2 P2 Eu1 71.33(7) 5 4_456
P2 P2 Eu1 125.38(6) 9 4_456
P1 P2 Eu1 64.87(6) 3_545 2_564
P2 P2 Eu1 123.61(6) 5 2_564
P2 P2 Eu1 69.34(7) 9 2_564
Eu1 P2 Eu1 129.07(5) 4_456 2_564
P1 P2 Eu2 125.32(6) 3_545 3_646
P2 P2 Eu2 112.46(5) 5 3_646
P2 P2 Eu2 128.46(3) 9 3_646
Eu1 P2 Eu2 91.04(4) 4_456 3_646
Eu1 P2 Eu2 117.82(4) 2_564 3_646
P1 P3 P1 101.53(10) 11_455 7_554
P1 P3 P1 101.53(10) 11_455 3_545
P1 P3 P1 101.53(10) 7_554 3_545
P1 P3 Eu2 116.57(8) 11_455 1_444
P1 P3 Eu2 116.57(8) 7_554 1_444
P1 P3 Eu2 116.57(8) 3_545 1_444
loop_
_geom_bond_atom_site_label_1
_geom_bond_atom_site_label_2
_geom_bond_distance
_geom_bond_site_symmetry_2
Br1 Eu1 3.0974(11) .
Br1 Eu2 3.5252(2) 4_466
Br1 Eu2 3.5252(2) 2_664
Br1 Eu2 3.5252(2) 3_646
Eu1 P1 3.1119(16) 10_655
Eu1 P1 3.1119(16) 6_556
Eu1 P1 3.1119(16) 2_565
Eu1 P1 3.1693(16) 4_566
Eu1 P1 3.1693(16) 12_665
Eu1 P1 3.1693(16) 8_656
Eu1 P2 3.3696(15) 12_565
Eu1 P2 3.3696(15) 4_556
Eu1 P2 3.3696(15) 8_655
Eu1 P2 3.4118(16) 10_655
Eu1 P2 3.4118(16) 6_556
Eu2 P3 3.184(3) 1_666
Eu2 P1 3.2501(15) 12_665
Eu2 P1 3.2501(15) 8_656
Eu2 P1 3.2501(15) 4_566
Eu2 P2 3.5805(16) 11_566
Eu2 P2 3.5805(16) 7_665
Eu2 P2 3.5805(16) 3_656
P1 P2 2.158(2) 3
P1 P3 2.172(2) 3
P2 P2 2.282(3) 5
P2 P2 2.282(3) 9
