#------------------------------------------------------------------------------
#$Date: 2021-04-13 10:31:20 +0300 (Tue, 13 Apr 2021) $
#$Revision: 264072 $
#$URL: file:///home/coder/svn-repositories/cod/cif/1/56/16/1561672.cif $
#------------------------------------------------------------------------------
#
# This file is available in the Crystallography Open Database (COD),
# http://www.crystallography.net/
#
# All data on this site have been placed in the public domain by the
# contributors.
#
data_1561672
loop_
_publ_author_name
'Luo, Mengjia'
'Bu, Kejun'
'Liu, Yiting'
'Wang, Ruiqi'
'Zhang, Xian'
'Zheng, Chong'
'Jin, Qingyuan'
'Zhang, Xiaolei'
'Huang, Fuqiang'
_publ_section_title
;
 Synthesis, crystal structure, and optical properties of Ba2SbO2SX (X =
 Br, I) oxy-chalcohalides
;
_journal_name_full               'Journal of Solid State Chemistry'
_journal_page_first              120811
_journal_paper_doi               10.1016/j.jssc.2019.06.016
_journal_volume                  278
_journal_year                    2019
_chemical_formula_moiety         'O2 S Sb, I, 2(Ba)'
_chemical_formula_sum            'Ba2 Cu0 I O2 S Sb'
_chemical_formula_weight         587.39
_space_group_crystal_system      monoclinic
_space_group_IT_number           11
_space_group_name_Hall           '-P 2yb'
_space_group_name_H-M_alt        'P 1 21/m 1'
_cell_angle_alpha                90
_cell_angle_beta                 93.045(4)
_cell_angle_gamma                90
_cell_formula_units_Z            2
_cell_length_a                   7.7310(11)
_cell_length_b                   6.0775(9)
_cell_length_c                   8.0267(11)
_cell_measurement_reflns_used    3839
_cell_measurement_temperature    273.(2)
_cell_measurement_theta_max      27.6430
_cell_measurement_theta_min      2.5411
_cell_volume                     376.60(9)
_computing_cell_refinement       'SAINT V8.37A (Bruker AXS Inc., 2015)'
_computing_data_reduction        'SAINT V8.37A (Bruker AXS Inc., 2015)'
_computing_molecular_graphics    'shelXle (C.B. Huebschle, rev 786)'
_computing_structure_refinement  'SHELXL-2014/7 (Sheldrick, 2014)'
_computing_structure_solution    'XT, VERSION 2014/5'
_diffrn_ambient_temperature      273.(2)
_diffrn_detector_area_resol_mean 10.4167
_diffrn_measured_fraction_theta_full 1.000
_diffrn_measured_fraction_theta_max 1.000
_diffrn_measurement_device_type  'CCD area detector'
_diffrn_measurement_method       'phi and omega scans'
_diffrn_radiation_type           MoK\a
_diffrn_radiation_wavelength     0.71073
_diffrn_reflns_av_R_equivalents  0.0249
_diffrn_reflns_av_unetI/netI     0.0175
_diffrn_reflns_limit_h_max       10
_diffrn_reflns_limit_h_min       -10
_diffrn_reflns_limit_k_max       7
_diffrn_reflns_limit_k_min       -7
_diffrn_reflns_limit_l_max       10
_diffrn_reflns_limit_l_min       -10
_diffrn_reflns_number            5401
_diffrn_reflns_theta_full        27.65
_diffrn_reflns_theta_max         27.65
_diffrn_reflns_theta_min         2.54
_exptl_absorpt_coefficient_mu    18.187
_exptl_absorpt_correction_T_max  0.840
_exptl_absorpt_correction_T_min  0.614
_exptl_absorpt_correction_type   multi-scan
_exptl_absorpt_process_details
;
SADABS-2016/2 - Bruker AXS area detector scaling and absorption correction
;
_exptl_crystal_colour            pure
_exptl_crystal_density_diffrn    5.180
_exptl_crystal_density_method    'not measured'
_exptl_crystal_description       stick
_exptl_crystal_F_000             496
_exptl_crystal_size_max          0.0932
_exptl_crystal_size_mid          0.0228
_exptl_crystal_size_min          0.0083
_refine_diff_density_max         0.935
_refine_diff_density_min         -0.796
_refine_ls_extinction_coef       0.0078(3)
_refine_ls_extinction_method     'SHELXL-2014/7 (Sheldrick 2014'
_refine_ls_goodness_of_fit_ref   1.117
_refine_ls_hydrogen_treatment    undef
_refine_ls_matrix_type           full
_refine_ls_number_parameters     41
_refine_ls_number_reflns         959
_refine_ls_number_restraints     0
_refine_ls_restrained_S_all      1.117
_refine_ls_R_factor_all          0.0153
_refine_ls_R_factor_gt           0.0135
_refine_ls_shift/su_max          0.000
_refine_ls_shift/su_mean         0.000
_refine_ls_structure_factor_coef Fsqd
_refine_ls_weighting_details
'w=1/[\s^2^(Fo^2^)+(0.0091P)^2^+0.4008P] where P=(Fo^2^+2Fc^2^)/3'
_refine_ls_weighting_scheme      calc
_refine_ls_wR_factor_gt          0.0293
_refine_ls_wR_factor_ref         0.0298
_reflns_number_gt                901
_reflns_number_total             959
_reflns_threshold_expression     'I > 2\s(I)'
_cod_data_source_file            JSSC-2019-278-120811.cif
_cod_data_source_block           BaSbI
_cod_database_code               1561672
_shelx_res_file
;


    P2m_a.res created by SHELXL-2014/7


TITL P2m_a.res in P2(1)/m
REM Old TITL P2m in P2(1)/m

REM SHELXT solution in P2(1)/m
REM R1 0.059,  Rweak 0.002,  Alpha 0.020,  Orientation as input
REM Formula found by SHELXT:  Ba I2 S3 Sb

CELL  0.71073   7.7310   6.0775   8.0267   90.000   93.045   90.000
ZERR    2.000   0.0011   0.0009   0.0011    0.000    0.004    0.000
LATT  1
SYMM -X, 1/2+Y, -Z
SFAC BA CU I O S SB
UNIT 4 0 2 4 2 2
TEMP 0
L.S. 10
ACTA
LIST 4
FMAP 2
PLAN 20
OMIT 0 1 0
WGHT    0.009100    0.400800
EXTI    0.007798
FVAR       0.35217
BA01  1    0.081786    0.750000    0.342518    10.50000    0.01143    0.01082 =
         0.01300    0.00000    0.00032    0.00000
BA2   1    0.336576    0.750000    0.821528    10.50000    0.02087    0.01515 =
         0.01256    0.00000   -0.00254    0.00000
SB03  6    0.363499    1.250000    0.536470    10.50000    0.01062    0.01112 =
         0.01248    0.00000    0.00108    0.00000
I004  3    0.133423    0.250000    0.100759    10.50000    0.02627    0.01831 =
         0.02364    0.00000   -0.00103    0.00000
S005  5    0.529689    1.250000    0.799075    10.50000    0.01424    0.02414 =
         0.01418    0.00000   -0.00371    0.00000
O6    4    0.204728    1.013054    0.584482    11.00000    0.01403    0.00992 =
         0.01819    0.00002   -0.00032   -0.00044
HKLF 4

REM  P2m_a.res in P2(1)/m
REM R1 =  0.0135 for     901 Fo > 4sig(Fo)  and  0.0153 for all     959 data
REM     41 parameters refined using      0 restraints

END

WGHT      0.0091      0.4008

REM Highest difference peak  0.935,  deepest hole -0.796,  1-sigma level  0.183
Q1    1   0.1958  0.7500  0.3379  10.50000  0.05    0.94
Q2    1   0.0010  0.2500  0.1060  10.50000  0.05    0.83
Q3    1   0.4589  0.7500  0.7971  10.50000  0.05    0.83
Q4    1   0.4039  1.2500  0.6132  10.50000  0.05    0.72
Q5    1   0.4927  1.2500  0.5251  10.50000  0.05    0.64
Q6    1   0.2987  0.7500  0.4180  10.50000  0.05    0.59
Q7    1  -0.0559  0.7500  0.3590  10.50000  0.05    0.58
Q8    1   0.4382  1.2500  0.7402  10.50000  0.05    0.57
Q9    1   0.1919  0.7500  0.8345  10.50000  0.05    0.57
Q10   1   0.2651  0.8186  0.2854  11.00000  0.05    0.55
Q11   1   0.2487  1.2500  0.5572  10.50000  0.05    0.53
Q12   1   0.6010  1.2500  0.5388  10.50000  0.05    0.52
Q13   1   0.3495  1.2500  0.8363  10.50000  0.05    0.48
Q14   1   0.2670  0.2500  0.1028  10.50000  0.05    0.47
Q15   1   0.1854  1.1373  0.5840  11.00000  0.05    0.47
Q16   1   0.1151  0.7500  0.9161  10.50000  0.05    0.46
Q17   1   0.3592  0.1107  0.0225  11.00000  0.05    0.45
Q18   1   0.2232  1.1518  0.8023  11.00000  0.05    0.43
Q19   1   0.0233  0.2500  0.2199  10.50000  0.05    0.43
Q20   1   0.3844  0.2500  0.0938  10.50000  0.05    0.42
;
_shelx_res_checksum              7164
_shelx_hkl_file
;
  -1   0   0   63.69    2.30
   1   0   0   54.09    2.20
  -1   0   0   53.19    2.10
   2   0   0   27.30    2.20
  -2   0   0   27.70    2.10
   3   0   0  363.56   11.50
   3   0   0  369.36   10.40
  -3   0   0  355.66   11.60
   4   0   0 3805.92  104.59
   4   0   0 3964.10  102.89
  -4   0   0 3704.73  104.79
   5   0   0  834.52   24.70
  -5   0   0  807.92   24.70
  -5   0   0  762.52   24.80
  -6   0   0  179.78    8.70
   6   0   0  176.18    8.10
  -6   0   0  181.78    8.30
  -7   0   0 1154.48   35.10
  -7   0   0 1080.69   34.40
   7   0   0 1115.09   34.20
  -8   0   0   50.19    5.60
  -8   0   0   59.09    6.10
   8   0   0   44.90    5.00
  -9   0   0  156.48    9.60
  -9   0   0  135.49    9.10
   9   0   0  133.09    8.50
 -10   0   0  117.29    9.30
  10   0   0  118.49    8.60
 -10   0   0  123.69   10.10
   0  -1   0    3.30    0.70
   0  -1   0    2.10    0.60
   0  -1   0    1.00    0.50
   0   1   0    0.80    0.60
   0   1   0    0.20    0.40
   0   1   0    1.60    0.60
   1  -1   0    1.40    0.50
  -1  -1   0    0.90    0.40
  -1  -1   0    1.00    0.80
   1  -1   0    0.70    0.60
   1  -1   0    1.00    0.60
   1  -1   0    0.50    0.50
  -1  -1   0    1.90    0.80
  -1   1   0    2.00    0.90
  -1   1   0    2.10    0.90
  -1   1   0    2.30    0.60
   1   1   0    0.90    0.50
  -1   1   0    1.10    0.60
   1   1   0    3.70    0.90
   1   1   0    2.00    0.80
  -1   1   0    0.80    0.40
   2  -1   0   20.60    1.60
   2  -1   0   22.20    1.40
  -2  -1   0   21.80    1.90
   2  -1   0   19.60    2.00
   2  -1   0   20.70    1.80
  -2  -1   0   21.30    1.50
  -2   1   0   22.50    1.80
   2   1   0   19.60    2.10
   2   1   0   25.00    2.00
   2   1   0   21.80    1.70
  -2   1   0   20.70    2.40
  -2   1   0   28.00    1.90
  -2   1   0   22.00    1.40
   3  -1   0   25.20    2.70
  -3  -1   0   30.00    2.30
   3  -1   0   31.00    2.30
  -3  -1   0   34.90    2.70
   3   1   0   28.40    2.50
  -3   1   0   30.90    2.60
   4  -1   0 1428.96   40.20
   4  -1   0 1384.06   41.00
  -4  -1   0 1372.26   39.90
  -4  -1   0 1433.86   40.60
   4   1   0 1424.76   39.70
  -4   1   0 1404.96   40.50
   5  -1   0 1104.59   32.10
  -5  -1   0 1073.39   31.90
  -5  -1   0 1074.39   32.50
  -5   1   0 1051.09   32.20
   5   1   0 1093.79   31.90
  -6  -1   0    9.10    2.80
  -6  -1   0   10.60    2.50
   6  -1   0   11.20    2.60
   6   1   0    8.30    2.40
  -6   1   0   11.20    2.70
   7  -1   0  327.37   12.90
  -7  -1   0  340.57   13.30
  -7  -1   0  306.37   13.30
   7   1   0  327.57   12.70
  -7   1   0  335.97   13.30
   8  -1   0  641.14   22.00
  -8  -1   0  633.84   22.60
  -8  -1   0  646.24   22.30
   8   1   0  596.74   21.30
  -8   1   0  629.84   23.00
  -8   1   0  625.34   21.80
   9  -1   0  804.92   27.70
  -9  -1   0  838.72   28.30
  -9  -1   0  796.92   28.50
  -9   1   0  826.72   29.10
  -9   1   0  812.52   27.60
   9   1   0  835.22   27.50
 -10  -1   0   24.10    5.40
 -10   1   0   24.30    5.40
   0   2   0 9999.00  268.77
   1  -2   0    4.80    1.30
  -1  -2   0    2.60    1.10
   1  -2   0    2.90    1.10
  -1  -2   0    3.70    0.90
  -1  -2   0    3.40    1.20
   1  -2   0    4.20    0.80
   1  -2   0    3.00    1.30
  -1  -2   0    2.60    1.10
  -1   2   0    3.00    0.80
   1   2   0    4.00    1.00
  -1   2   0    4.00    1.40
   2  -2   0   69.89    3.60
   2  -2   0   72.69    4.20
  -2  -2   0   70.19    4.30
   2  -2   0   72.09    4.30
   2  -2   0   72.79    3.30
  -2  -2   0   75.59    3.30
  -2   2   0   67.99    3.70
  -2   2   0   82.99    3.80
   2   2   0   74.79    3.20
  -3  -2   0  737.83   21.60
   3  -2   0  736.73   23.10
   3  -2   0  743.73   21.50
   3  -2   0  752.92   22.00
  -3   2   0  747.03   21.50
  -3   2   0  749.03   22.30
   4  -2   0 3691.43  103.19
  -4  -2   0 3864.01  103.09
  -4  -2   0 3679.03  101.49
   4  -2   0 3803.82  102.09
  -4   2   0 3750.52  100.59
  -4   2   0 3520.55  102.29
   5  -2   0 1134.89   35.40
  -5  -2   0 1155.28   33.60
  -5  -2   0 1145.49   34.90
   5  -2   0 1149.19   34.00
  -5   2   0 1140.99   34.30
  -6  -2   0  127.29    6.80
   6  -2   0  130.99    6.70
   6  -2   0   99.39    7.40
  -6  -2   0  120.49    7.40
   6   2   0  117.09    6.30
  -6   2   0  128.99    7.00
  -7  -2   0  723.73   23.70
   7  -2   0  717.53   23.80
  -7  -2   0  711.23   24.70
   7   2   0  698.73   23.10
  -7   2   0  730.93   23.90
  -8  -2   0   79.59    7.30
   8  -2   0   82.99    6.60
  -8  -2   0   83.49    6.90
  -8   2   0   92.79    6.60
   8   2   0   91.69    6.40
   9  -2   0   83.69    7.30
  -9  -2   0   86.79    7.90
  -9  -2   0   92.59    8.50
   9   2   0   73.29    6.60
  -9   2   0   83.39    7.30
  -9   2   0   69.19    8.00
   0  -3   0   -1.30    1.10
   0  -3   0    1.10    1.30
   0  -3   0    0.10    0.70
   0  -3   0    0.40    1.30
   0   3   0    1.70    0.80
  -1  -3   0    3.70    1.20
   1  -3   0    5.10    1.70
   1  -3   0    2.60    1.60
  -1  -3   0    1.10    1.50
  -1  -3   0    4.50    1.90
   1  -3   0    8.90    1.30
   1  -3   0    5.50    1.90
  -1  -3   0    1.70    1.40
   1   3   0    5.00    1.00
   1   3   0    5.20    1.50
  -2  -3   0    2.60    1.70
   2  -3   0    0.70    0.90
  -2  -3   0    1.10    1.10
  -2  -3   0    3.70    1.80
   2  -3   0   -1.20    1.50
   2  -3   0    3.50    1.60
   2  -3   0    1.40    1.50
  -2   3   0    0.80    1.30
   2   3   0    0.30    0.90
   2   3   0    1.80    1.20
   3  -3   0   15.00    3.20
   3  -3   0   10.40    1.70
  -3  -3   0   14.20    2.00
   3  -3   0   13.90    2.20
   3  -3   0   11.70    2.70
  -3  -3   0   14.60    3.00
  -3   3   0   13.50    2.40
  -4  -3   0  948.51   27.20
   4  -3   0  923.01   27.50
  -4  -3   0  915.21   30.00
   4  -3   0  883.81   29.20
  -4   3   0  926.31   28.00
   5  -3   0  807.62   24.80
  -5  -3   0  814.92   24.50
   5  -3   0  808.02   26.60
  -5   3   0  787.82   25.30
  -5   3   0  746.73   23.30
   6  -3   0    0.50    2.80
  -6  -3   0    5.80    2.60
   6  -3   0    1.00    1.80
  -6   3   0    1.30    2.30
   6   3   0    2.20    1.90
   7  -3   0  239.58   11.10
  -7  -3   0  250.17   11.50
   7  -3   0  254.97   13.10
   7   3   0  276.37   10.80
  -8  -3   0  531.65   19.60
   8  -3   0  506.45   19.30
   8   3   0  524.55   18.40
  -8   3   0  510.55   19.30
   9  -3   0  679.23   25.10
  -9  -3   0  741.63   25.80
  -9   3   0  691.33   24.70
   9   3   0  704.83   23.90
   0  -4   0 7924.11  214.38
   0  -4   0 7796.02  214.78
   0  -4   0 7891.91  215.08
   1  -4   0   21.60    3.30
  -1  -4   0   21.70    3.40
   1  -4   0   26.90    2.30
  -1  -4   0   25.10    3.80
   1  -4   0   14.00    2.90
   1  -4   0   29.20    3.90
   1   4   0   16.70    2.10
  -2  -4   0    6.90    1.80
  -2  -4   0    3.80    2.40
  -2  -4   0    3.10    2.60
   2  -4   0   10.20    2.80
   2  -4   0    6.10    1.60
   2  -4   0    6.90    2.60
   2  -4   0    5.20    2.40
  -2   4   0    4.10    2.00
  -3  -4   0  241.28    8.80
   3  -4   0  226.68   10.70
   3  -4   0  246.28    9.00
  -3  -4   0  242.38   11.50
   3  -4   0  242.08   11.10
  -3  -4   0  231.58   10.40
  -3   4   0  230.08    9.80
   4  -4   0 2206.38   62.79
  -4  -4   0 2348.27   66.59
   4  -4   0 2218.08   65.39
  -4  -4   0 2233.68   62.59
  -4   4   0 2165.38   63.69
   5  -4   0  420.46   17.60
  -5  -4   0  469.45   15.60
  -5  -4   0  446.36   18.70
   5  -4   0  455.65   15.60
  -5   4   0  433.26   16.10
   6  -4   0   89.79    7.80
  -6  -4   0   91.49    6.70
  -6  -4   0   94.99    8.80
   6  -4   0   83.99    5.90
  -6   4   0   74.39    6.20
   7  -4   0  717.03   24.10
  -7  -4   0  690.63   28.50
  -7  -4   0  709.63   24.30
   7  -4   0  703.23   26.70
   7   4   0  719.23   22.90
  -7   4   0  702.93   24.60
   8  -4   0   35.20    6.70
   8  -4   0   27.60    4.90
  -8  -4   0   26.80    5.50
  -8  -4   0   25.50    7.30
  -8   4   0   30.00    5.00
   8   4   0   33.30    4.40
   0  -5   0    2.40    2.40
   0  -5   0    0.60    2.60
  -1  -5   0    0.10    2.30
   1  -5   0   -1.20    2.40
   1  -5   0    0.70    1.40
  -1  -5   0    2.50    2.40
   1  -5   0    1.30    2.30
  -2  -5   0   -0.10    2.30
   2  -5   0   -1.40    1.40
  -2  -5   0    1.00    2.90
   2  -5   0    4.00    2.80
   2  -5   0    3.20    2.40
  -2   5   0    0.80    2.10
  -3  -5   0   18.40    4.00
  -3  -5   0   21.90    3.00
   3  -5   0   23.70    3.20
  -3  -5   0   18.60    4.10
   3  -5   0   25.70    4.50
   3  -5   0   24.00    4.50
  -3   5   0   24.50    4.00
  -4  -5   0  601.74   23.40
  -4  -5   0  630.54   19.30
   4  -5   0  624.94   22.70
   4  -5   0  560.54   19.60
   4  -5   0  614.64   22.60
  -4   5   0  609.94   21.00
   5  -5   0  442.36   18.70
   5  -5   0  453.75   16.10
   5  -5   0  440.46   18.80
  -5  -5   0  470.75   15.80
  -5  -5   0  439.06   18.00
  -5  -5   0  446.96   19.70
  -5   5   0  450.35   17.00
  -6  -5   0   11.00    3.90
   6  -5   0    8.00    2.80
  -6  -5   0    3.20    4.10
  -6  -5   0    5.50    4.30
   6  -5   0   11.20    4.60
  -6   5   0    5.40    3.00
  -7  -5   0  118.49   11.60
  -7  -5   0  137.39    9.50
   7  -5   0  136.79   10.80
   7  -5   0  119.09    7.90
  -7   5   0  119.99    8.70
   7   5   0  111.69    6.90
   0  -6   0 3810.22  110.29
   0  -6   0 3938.51  111.49
  -1  -6   0    1.20    2.80
  -1  -6   0    0.60    3.50
   1  -6   0    5.50    3.70
   1  -6   0    2.90    3.20
   1  -6   0    8.20    2.20
   2  -6   0   13.40    4.00
  -2  -6   0   13.50    3.80
   2  -6   0    8.40    2.40
  -2  -6   0   10.80    4.20
   2  -6   0   13.00    3.80
  -2   6   0    5.10    2.70
  -3  -6   0  234.78   12.60
   3  -6   0  237.98   13.00
   3  -6   0  242.58    9.80
  -3  -6   0  222.58   13.00
   3  -6   0  243.78   12.90
  -3   6   0  230.88   11.40
   4  -6   0 1307.17   43.20
  -4  -6   0 1416.66   38.60
  -4  -6   0 1269.47   41.90
   4  -6   0 1300.67   43.00
  -4  -6   0 1266.87   43.90
   4  -6   0 1287.87   39.20
  -4   6   0 1347.17   41.50
  -5  -6   0  378.16   13.70
   5  -6   0  377.96   17.70
  -5  -6   0  371.06   17.10
   5  -6   0  376.96   17.80
  -5  -6   0  377.46   18.70
   5  -6   0  359.26   14.30
  -5   6   0  366.76   15.70
   6  -6   0   33.70    7.20
  -6  -6   0   30.60    6.50
  -6  -6   0   43.40    7.10
   6  -6   0   29.90    4.30
  -6   6   0   37.60    5.70
   0  -7   0   -1.20    4.00
   0  -7   0    2.00    4.50
   1  -7   0    2.30    4.20
   1  -7   0    7.90    4.10
  -1  -7   0    0.10    4.20
  -1  -7   0    7.10    4.50
   2  -7   0    4.20    3.90
  -2  -7   0    1.00    3.90
  -2  -7   0    7.60    4.90
   2  -7   0    5.20    2.80
   2  -7   0    3.20    4.20
  -2   7   0    7.60    3.30
   3  -7   0    3.30    4.20
  -3  -7   0   13.60    5.00
  -3  -7   0   13.30    5.10
   3  -7   0   12.50    5.10
   3  -7   0    6.50    3.10
  -3   7   0    5.70    3.50
   4  -7   0  268.27   11.60
  -4  -7   0  276.07   16.20
   4  -7   0  266.17   15.50
   4  -7   0  248.78   15.20
  -4  -7   0  265.77   15.50
  -4   7   0  268.27   13.50
  10   0  -1  208.68   11.50
 -10   0   1  238.08   12.40
 -10   0   1  237.38   13.10
  -9   0   1    1.30    3.40
  -9   0   1   -1.80    3.00
   9   0  -1    2.90    2.70
  -8   0   1    5.70    2.90
   8   0  -1    8.20    2.70
  -8   0   1    7.70    3.20
  -7   0   1  239.78   10.80
   7   0  -1  256.27    8.40
   7   0  -1  243.88   10.20
  -7   0   1  241.28   10.20
   7   0  -1  220.68    8.20
  -6   0   1   15.70    2.80
   6   0  -1   19.60    3.10
   6   0  -1   14.90    2.60
  -6   0   1   20.50    3.30
  -5   0   1  139.19    7.00
   5   0  -1  148.39    6.40
  -5   0   1  147.99    6.40
  -4   0   1    1.10    1.40
  -4   0   1    1.70    1.10
   4   0  -1    1.10    0.90
  -3   0   1  126.39    4.60
   3   0  -1  130.99    5.10
  -3   0   1  117.89    5.20
   3   0  -1  119.29    4.80
  -2   0   1 3532.25   93.29
   2   0  -1 3300.87   93.59
   2   0  -1 3530.15   93.09
   1   0  -1    5.60    0.60
  -1   0   1    3.30    0.50
   1   0  -1    3.10    0.70
  -1   0   1    1.90    0.60
   1   0  -1    3.80    0.50
   0   0  -1  232.48    6.80
   0   0   1  227.08    6.60
   0   0  -1  226.08    6.80
   0   0   1  238.08    6.80
  -1   0  -1  245.78    7.20
   1   0   1  219.58    7.50
  -1   0  -1  226.68    7.60
   1   0   1  236.38    6.90
  -1   0  -1  243.78    6.90
   1   0   1  233.28    7.30
  -2   0  -1 4375.36  115.49
  -2   0  -1 4192.48  114.49
   2   0   1 4169.18  115.39
   2   0   1 4248.38  114.69
  -3   0  -1 3098.69   83.79
  -3   0  -1 3068.89   85.99
   3   0   1 3181.28   83.89
  -4   0  -1   76.99    4.80
  -5   0  -1 1630.14   47.70
  -6   0  -1 1328.27   40.20
   6   0   1 1316.77   39.50
  -7   0  -1 2321.57   65.89
   7   0   1 2325.17   65.59
  -7   0  -1 2153.28   65.69
  -8   0  -1   -0.30    2.60
   8   0   1    3.00    2.50
  -8   0  -1    6.10    2.90
  -9   0  -1  258.97   13.00
   9   0   1  246.38   12.10
  -9   0  -1  244.88   12.90
 -10  -1   1  182.38   11.60
  10  -1  -1  191.38   10.60
 -10   1   1  160.18   11.80
  10   1  -1  169.98    9.90
  -9  -1   1  697.33   24.80
   9  -1  -1  706.83   24.50
  -9  -1   1  704.53   25.20
  -9   1   1  694.83   25.70
  -9   1   1  707.63   23.90
   9   1  -1  683.23   23.70
   8  -1  -1   13.40    3.20
  -8  -1   1   18.10    3.70
  -8  -1   1   14.30    3.60
   8   1  -1   23.40    3.60
  -8   1   1   14.40    3.60
  -8   1   1   16.40    3.50
  -7  -1   1  772.12   24.90
   7  -1  -1  759.22   24.50
  -7  -1   1  728.03   24.60
  -7   1   1  741.33   23.90
   7   1  -1  798.42   24.10
  -7   1   1  719.03   25.40
  -6  -1   1 3335.27   95.29
  -6  -1   1 3394.46   95.29
   6  -1  -1 3521.45   95.09
  -6   1   1 3480.95   94.69
   6   1  -1 3327.57   94.49
  -6   1   1 3448.25   96.19
  -5  -1   1  243.98    9.60
  -5  -1   1  242.68    9.70
   5  -1  -1  262.67    8.00
  -5   1   1  251.77    9.20
   5   1  -1  237.78    9.00
  -5   1   1  255.87   10.40
  -4  -1   1   84.89    4.70
   4  -1  -1   93.39    4.60
  -4  -1   1   92.79    4.70
   4  -1  -1   95.69    3.90
  -4   1   1   96.69    4.50
   4   1  -1   96.29    4.40
   3  -1  -1    4.60    1.20
   3  -1  -1    6.00    1.60
  -2   1   1 7644.63  205.78
  -1  -1   1   43.40    1.50
   1  -1  -1   43.60    2.20
  -1  -1   1   41.00    2.30
  -1  -1   1   42.60    2.30
   1  -1  -1   41.00    2.30
  -1   1   1   41.80    2.50
   1   1  -1   46.20    2.30
   1   1  -1   46.20    2.40
  -1   1   1   42.20    2.40
   1   1  -1   44.20    1.50
  -1   1   1   41.80    2.20
   0  -1  -1   25.70    1.40
   0  -1  -1   27.70    1.60
   0  -1   1   25.50    1.80
   0  -1   1   27.10    1.70
   0  -1   1   23.50    1.50
   0  -1  -1   23.60    1.40
   0   1   1   23.70    1.40
   0   1   1   24.60    1.60
   0   1   1   26.20    1.50
   0   1   1   25.80    1.90
   0   1   1   23.40    1.10
   0   1  -1   23.80    1.70
   0   1   1   23.30    1.50
   0   1  -1   21.10    1.60
  -1  -1  -1  524.35   15.40
   1  -1   1  512.85   15.30
  -1  -1  -1  521.25   15.20
   1  -1   1  516.15   15.40
   1  -1   1  513.95   15.30
   1   1   1  526.35   15.10
   1   1   1  537.55   15.40
  -1   1  -1  531.65   15.50
  -1   1  -1  496.45   15.30
  -1   1  -1  502.95   15.30
  -1   1  -1  511.85   15.20
  -2  -1  -1 1810.22   50.19
   2  -1   1 1781.12   49.99
  -2  -1  -1 1786.62   49.80
  -2   1  -1 1802.42   49.99
  -2   1  -1 1731.63   49.99
   2   1   1 1886.41   49.80
   3  -1   1  616.54   19.80
  -3  -1  -1  646.74   19.20
  -3  -1  -1  654.83   20.10
   3  -1   1  661.53   19.60
   3   1   1  673.33   19.20
  -3   1  -1  647.74   20.20
   4  -1   1  375.96   13.50
  -4  -1  -1  381.86   12.70
   4  -1   1  388.46   13.10
  -4  -1  -1  384.56   13.60
  -4   1  -1  403.86   13.90
   4   1   1  396.86   12.40
   5  -1   1  521.75   17.00
  -5  -1  -1  505.45   16.50
   5  -1   1  472.85   17.30
  -5  -1  -1  508.25   17.60
  -5   1  -1  497.15   17.40
   5   1   1  512.45   15.50
  -6  -1  -1   25.60    3.60
   6  -1   1   24.30    3.60
  -6  -1  -1   18.70    3.50
   6   1   1   22.70    3.50
  -6   1  -1   21.60    3.60
   7  -1   1   37.00    4.40
  -7  -1  -1   35.30    5.00
  -7  -1  -1   30.30    4.60
   7   1   1   34.00    4.30
  -8  -1  -1  277.67   12.50
   8  -1   1  282.57   12.40
  -8  -1  -1  256.77   12.90
  -8   1  -1  303.27   13.20
   8   1   1  256.57   12.00
  -9  -1  -1    2.50    3.60
   9  -1   1    7.10    3.20
  -9  -1  -1    8.60    3.90
  -9   1  -1    3.50    3.70
   9   1   1    6.40    3.40
  -9   1  -1    2.90    3.60
  -9  -2   1    4.00    3.70
   9  -2  -1    0.30    2.50
  -9   2   1    0.80    3.20
   9   2  -1    2.00    2.50
  -9   2   1   -4.40    3.40
  -8  -2   1    4.40    3.10
   8  -2  -1    2.10    2.40
  -8   2   1    6.00    3.00
  -8   2   1    9.20    3.40
   8   2  -1    1.70    2.10
   7  -2  -1  127.79    7.20
  -7  -2   1  131.89    7.60
  -7   2   1  126.29    6.90
  -7   2   1  120.29    8.00
   7   2  -1  121.19    6.50
   6  -2  -1    5.20    1.80
   6  -2  -1    2.00    1.30
  -6  -2   1    2.40    2.10
  -6   2   1    3.30    2.10
   6   2  -1    1.20    1.60
   5  -2  -1  332.97   13.90
   5  -2  -1  364.46   12.80
   5  -2  -1  373.46   11.50
  -5  -2   1  357.26   12.80
   5   2  -1  366.06   12.10
  -5   2   1  352.46   12.50
  -4  -2   1    0.90    1.40
   4  -2  -1    1.40    1.40
   4  -2  -1    0.10    1.00
   4  -2  -1    0.50    1.60
  -4   2   1    4.90    1.90
   4   2  -1    0.90    1.00
  -4   2   1    2.00    1.50
   3  -2  -1   13.10    1.90
   3  -2  -1   11.30    2.30
   3  -2  -1   12.30    1.90
  -3  -2   1    8.00    1.70
   3  -2  -1    9.50    2.20
  -3  -2   1   15.60    2.70
   3   2  -1   11.20    1.40
  -3   2   1   11.00    1.60
  -3   2   1   11.90    2.10
   2  -2  -1 2134.99   59.69
   2  -2  -1 2113.89   59.59
  -2  -2   1 2158.38   59.09
   2  -2  -1 2192.18   58.89
  -2  -2   1 2125.89   59.99
   2  -2  -1 2199.58   59.49
  -2   2   1 2044.20   58.59
   1  -2  -1  178.28    6.90
   1  -2  -1  188.48    7.10
   1  -2  -1  191.58    7.30
  -1  -2   1  187.88    6.80
   1  -2  -1  187.08    6.30
   1   2  -1  182.68    6.60
   0  -2  -1    2.40    1.10
   0  -2  -1    2.60    0.70
   0  -2  -1    4.20    1.20
   0  -2  -1    3.00    1.10
   0  -2   1    2.80    1.00
   0  -2   1    8.80    1.70
   0  -2   1    2.70    1.00
   0  -2   1    4.80    0.60
   0   2   1    4.20    0.90
   0   2   1    2.50    1.20
   0   2  -1    1.30    1.20
   1  -2   1   83.99    4.40
  -1  -2  -1   82.99    3.80
   1  -2   1   80.19    4.20
   1  -2   1   86.19    3.20
  -1  -2  -1   83.19    4.50
  -1  -2  -1   85.29    4.40
   1   2   1   86.69    2.60
   1   2   1   80.89    3.40
  -1   2  -1   72.29    4.10
   2  -2   1 5361.06  146.59
   2  -2   1 5027.20  146.49
  -2  -2  -1 5458.55  146.59
  -2  -2  -1 5436.36  146.39
  -2   2  -1 5768.42  145.69
  -2   2  -1 5239.68  146.09
  -3  -2  -1 2926.51   81.39
  -3  -2  -1 2919.31   79.49
  -3  -2  -1 2874.51   81.49
   3  -2   1 2973.60   80.49
  -3   2  -1 2851.51   81.09
  -3   2  -1 3029.00   79.79
  -4  -2  -1  282.87    9.40
  -4  -2  -1  262.67   10.30
   4  -2   1  273.57   11.00
  -4  -2  -1  275.37   11.00
   4  -2   1  274.77   10.00
  -4   2  -1  275.37    8.40
  -4   2  -1  276.07   10.80
  -5  -2  -1  985.90   30.50
   5  -2   1  951.60   29.00
  -5  -2  -1  981.30   28.40
   5  -2   1  949.01   30.30
  -5   2  -1  912.41   29.70
   6  -2   1  941.01   29.60
   6  -2   1  972.20   31.10
  -6  -2  -1  950.30   29.00
  -6   2  -1  948.61   30.50
   7  -2   1 1564.74   46.90
  -7  -2  -1 1545.95   48.40
  -7  -2  -1 1663.53   46.60
  -7   2  -1 1512.05   47.30
   7   2   1 1560.94   46.60
  -8  -2  -1    3.60    3.50
   8  -2   1    3.30    2.70
  -8  -2  -1    4.20    3.30
   8   2   1    6.30    2.80
  -8   2  -1    2.90    2.90
   9  -2   1  317.77   14.70
  -9  -2  -1  353.76   15.00
  -9  -2  -1  332.37   16.20
   9   2   1  324.87   14.40
  -9   2  -1  336.57   15.20
   9  -3  -1  600.94   22.50
  -9  -3   1  624.74   23.50
  -9   3   1  579.74   24.00
  -9   3   1  631.94   21.80
   9   3  -1  596.04   20.80
   8  -3  -1    8.10    2.90
  -8  -3   1   11.80    3.90
  -8   3   1    6.30    3.50
  -8   3   1    5.70    2.90
   8   3  -1   10.50    2.80
  -7  -3   1  535.15   19.40
   7  -3  -1  528.05   18.90
   7   3  -1  527.45   17.60
  -7   3   1  531.15   18.50
   6  -3  -1 2494.85   75.79
  -6  -3   1 2665.53   74.19
   6  -3  -1 2700.83   71.69
   6  -3  -1 2509.75   73.69
   6   3  -1 2645.04   72.39
  -6   3   1 2577.34   73.49
   5  -3  -1  172.78    7.80
   5  -3  -1  157.38    9.10
   5  -3  -1  176.78    7.30
  -5  -3   1  178.58   10.10
  -5  -3   1  174.08    8.20
   5   3  -1  179.28    6.90
  -5   3   1  165.38    7.80
  -4  -3   1   38.70    4.00
   4  -3  -1   37.70    4.60
   4  -3  -1   35.40    3.40
   4  -3  -1   35.90    3.70
  -4  -3   1   44.00    4.90
   4   3  -1   42.90    2.80
  -4   3   1   41.60    3.40
   3  -3  -1    7.00    2.10
  -3  -3   1    0.00    1.50
  -3  -3   1    0.30    1.70
   3  -3  -1    1.00    1.20
   3  -3  -1    0.20    1.60
  -3   3   1    0.20    1.20
  -2  -3   1 6822.42  187.78
   2  -3  -1 6977.60  187.38
   2  -3  -1 7137.99  188.98
  -2  -3   1 6998.20  189.38
   2  -3  -1 7138.29  188.88
   2  -3  -1 6578.74  188.68
  -1  -3   1   54.89    3.70
  -1  -3   1   59.09    4.30
   1  -3  -1   58.69    4.50
   1  -3  -1   62.69    3.20
   1  -3  -1   56.59    4.00
  -1  -3   1   58.39    4.50
   0  -3   1   25.50    2.70
   0  -3  -1   25.60    2.00
   0  -3   1   27.40    3.00
   0  -3  -1   24.20    3.30
   0  -3  -1   27.30    2.90
   0  -3   1   26.80    3.40
   0  -3   1   28.20    1.50
   0  -3  -1   23.70    3.00
   0   3  -1   26.20    1.60
   0   3   1   28.80    2.50
   1  -3   1  318.27   11.60
  -1  -3  -1  313.67   10.90
  -1  -3  -1  291.07   11.80
   1  -3   1  322.57   11.80
  -1  -3  -1  303.37   11.60
   1  -3   1  311.57    9.50
  -1   3  -1  310.17    9.70
   1   3   1  312.27    9.30
   2  -3   1 1266.07   35.80
  -2  -3  -1 1242.88   38.20
  -2  -3  -1 1299.17   38.30
  -2  -3  -1 1270.27   36.80
   2  -3   1 1305.07   38.10
   2  -3   1 1277.17   37.90
  -2  -3  -1 1316.87   35.10
   2   3   1 1270.57   34.80
  -2   3  -1 1237.58   37.30
   3  -3   1  365.16   13.80
  -3  -3  -1  371.66   11.00
   3  -3   1  351.06   13.60
  -3  -3  -1  361.76   13.60
  -3  -3  -1  342.57   13.90
   3  -3   1  357.76   11.80
  -3   3  -1  353.46   12.80
  -4  -3  -1  270.77   11.40
   4  -3   1  265.37   11.60
   4  -3   1  270.97   10.10
  -4  -3  -1  276.57    9.30
  -4  -3  -1  263.17   12.30
  -4   3  -1  271.47   10.90
  -5  -3  -1  418.56   13.80
   5  -3   1  409.06   14.50
   5  -3   1  419.76   16.30
  -5   3  -1  409.46   12.90
  -5   3  -1  410.86   15.60
   6  -3   1   27.60    4.70
  -6  -3  -1   31.70    4.30
   6  -3   1   34.10    4.10
  -6   3  -1   31.00    4.80
   7  -3   1   23.10    3.60
  -7  -3  -1   29.20    4.30
   7  -3   1   31.50    5.20
  -7   3  -1   23.90    4.30
  -8  -3  -1  219.68   10.70
   8  -3   1  195.88   10.40
  -8   3  -1  180.18   10.50
   8   3   1  191.88    9.90
  -9  -3  -1    7.90    4.50
   9  -3   1   10.40    3.90
   9   3   1    9.70    3.90
  -9   3  -1   10.50    4.10
  -8  -4   1    8.30    5.70
   8  -4  -1    1.60    2.90
  -8  -4   1   -2.50    3.90
   8   4  -1    1.00    2.30
  -8   4   1    4.70    3.40
   7  -4  -1  147.49   10.50
   7  -4  -1  136.59    8.10
  -7  -4   1  131.69   11.10
  -7  -4   1  146.39    9.20
   7   4  -1  141.99    6.90
  -7   4   1  110.19    7.80
  -6  -4   1   18.70    3.90
  -6  -4   1    3.00    3.80
   6  -4  -1    7.40    2.50
   6  -4  -1    6.30    3.70
  -6   4   1    7.30    2.90
   6   4  -1    6.30    2.00
   5  -4  -1  114.49    6.40
  -5  -4   1  109.99    7.00
  -5  -4   1  106.29    8.30
   5  -4  -1  110.59    8.10
   5  -4  -1  110.39    6.70
  -5   4   1  111.09    6.40
   5   4  -1  113.39    5.20
   4  -4  -1    2.60    1.70
   4  -4  -1    3.30    2.30
  -4  -4   1    5.20    2.40
   4  -4  -1    8.10    2.80
  -4  -4   1   -3.40    2.10
   4  -4  -1    3.30    2.50
   4   4  -1    2.20    1.30
  -4   4   1    2.30    1.90
   3  -4  -1   34.00    3.30
   3  -4  -1   32.10    4.60
   3  -4  -1   36.50    4.40
  -3  -4   1   37.50    4.80
  -3  -4   1   27.90    4.00
  -3  -4   1   34.30    3.90
   3  -4  -1   37.50    4.60
  -3   4   1   26.70    3.40
   3   4  -1   35.60    2.40
   2  -4  -1 1563.84   47.70
   2  -4  -1 1679.03   45.80
  -2  -4   1 1601.74   46.20
   2  -4  -1 1610.34   47.80
  -2  -4   1 1602.14   48.20
  -2  -4   1 1603.94   47.90
   2  -4  -1 1625.74   47.80
   2   4  -1 1624.64   43.70
  -1  -4   1    4.80    2.30
   1  -4  -1    4.80    2.10
   1  -4  -1    4.10    2.00
   1  -4  -1    5.60    1.50
  -1  -4   1    7.80    2.10
   1  -4  -1    6.10    2.30
  -1  -4   1    4.10    2.00
   1   4  -1    7.50    0.90
   0  -4  -1   79.99    6.10
   0  -4  -1   90.09    6.10
   0  -4  -1   91.79    4.30
   0  -4  -1   89.49    5.70
   0  -4   1   94.69    6.30
   0  -4   1   91.89    3.50
   0   4  -1   92.49    3.70
  -1  -4  -1   82.49    5.40
  -1  -4  -1   83.09    6.00
   1  -4   1   87.49    6.20
  -1  -4  -1   79.99    6.10
   1  -4   1   73.09    5.80
   1  -4   1   83.59    3.70
   1   4   1   83.79    4.00
   2  -4   1 2523.85   69.39
   2  -4   1 2555.34   72.59
  -2  -4  -1 2537.15   71.19
  -2  -4  -1 2510.85   72.99
  -2   4  -1 2487.95   71.69
   2   4   1 2536.15   68.49
   3  -4   1 1676.43   49.60
   3  -4   1 1627.94   49.70
   3  -4   1 1639.74   46.70
  -3  -4  -1 1652.63   49.90
  -3  -4  -1 1561.44   49.80
  -3  -4  -1 1686.53   48.20
  -3  -4  -1 1742.23   45.70
   3   4   1 1628.74   45.30
  -3   4  -1 1656.73   48.60
  -4  -4  -1   39.70    5.70
  -4  -4  -1   53.79    3.70
   4  -4   1   52.89    4.00
   4  -4   1   46.40    5.30
   4  -4   1   51.59    5.50
  -4  -4  -1   56.49    5.20
  -4   4  -1   56.79    5.00
  -5  -4  -1  867.61   25.80
   5  -4   1  866.61   29.50
   5  -4   1  881.01   27.00
  -5  -4  -1  853.71   30.60
  -5   4  -1  866.21   28.10
  -6  -4  -1  677.93   27.00
  -6  -4  -1  702.33   22.00
   6  -4   1  690.63   22.90
   6  -4   1  689.43   25.30
  -6   4  -1  683.33   24.10
   7  -4   1 1357.06   41.60
  -7  -4  -1 1362.76   40.90
  -7  -4  -1 1293.57   47.00
   7  -4   1 1425.36   44.70
  -7   4  -1 1346.97   42.80
   8  -4   1   -1.70    2.70
  -8  -4  -1   18.40    7.80
  -8  -4  -1    1.00    4.70
   8  -4   1    8.30    4.80
   8   4   1    1.20    2.90
  -8   4  -1    1.30    3.80
  -7  -5   1  381.86   16.10
  -7  -5   1  358.56   19.20
   7  -5  -1  368.86   15.20
   7  -5  -1  361.06   18.00
  -7   5   1  369.96   15.30
   7   5  -1  375.86   13.00
  -6  -5   1 1724.13   50.39
  -6  -5   1 1627.04   53.99
   6  -5  -1 1653.03   49.80
   6  -5  -1 1691.33   53.09
   6   5  -1 1721.93   47.20
  -6   5   1 1629.24   49.90
   5  -5  -1  111.09    6.50
   5  -5  -1  109.49    8.70
  -5  -5   1  113.19    9.00
   5  -5  -1  109.69    8.80
  -5  -5   1  113.09    7.70
  -5  -5   1   99.39    9.00
  -5   5   1   95.19    6.70
   5   5  -1  124.49    5.30
   4  -5  -1   38.90    5.70
  -4  -5   1   31.50    5.40
   4  -5  -1   36.70    5.70
  -4  -5   1   26.90    4.90
   4  -5  -1   40.90    5.90
   4  -5  -1   32.60    3.80
  -4  -5   1   42.40    5.00
   4   5  -1   35.60    2.80
  -4   5   1   37.20    4.50
  -3  -5   1   -3.40    2.10
   3  -5  -1    1.70    3.00
   3  -5  -1    1.90    2.70
  -3  -5   1    5.20    3.10
   3  -5  -1    2.50    2.70
   3  -5  -1    0.90    1.70
  -3  -5   1    3.20    2.60
  -3   5   1   -2.00    1.90
   2  -5  -1 3472.05  107.89
   2  -5  -1 4004.60  108.99
   2  -5  -1 3713.73  108.39
  -2  -5   1 4047.89  108.89
  -2  -5   1 3951.50  106.19
   2  -5  -1 3793.52  105.49
  -2  -5   1 3898.11  109.29
   1  -5  -1   23.30    2.90
   1  -5  -1   16.00    3.70
   1  -5  -1   17.80    4.00
   1  -5  -1   16.60    3.60
  -1  -5   1   16.00    3.80
   1   5  -1   19.60    2.00
   0  -5   1    3.70    3.00
   0  -5   1    2.60    2.30
   0  -5  -1    2.50    2.30
   0  -5  -1    3.00    2.50
   0  -5  -1    7.10    2.90
   0   5  -1    1.10    1.60
  -1  -5  -1  265.27   12.40
   1  -5   1  269.77    8.90
   1  -5   1  265.17   12.20
   1  -5   1  251.97   12.20
  -1  -5  -1  259.87   11.60
  -1  -5  -1  265.07   12.70
   2  -5   1  682.63   20.20
   2  -5   1  640.14   23.50
  -2  -5  -1  651.43   24.20
  -2  -5  -1  677.03   24.10
   2  -5   1  657.03   23.60
  -2  -5  -1  653.23   22.50
  -2   5  -1  718.53   23.10
   2   5   1  648.54   19.30
   3  -5   1  237.18   12.00
   3  -5   1  257.47    9.60
  -3  -5  -1  252.77   11.50
   3  -5   1  271.07   12.70
  -3  -5  -1  245.48   12.60
   3   5   1  236.28    8.40
  -3   5  -1  254.77   11.30
  -4  -5  -1  112.29    5.00
   4  -5   1   93.29    7.80
  -4  -5  -1   97.09    8.50
   4  -5   1  108.49    8.20
   4  -5   1  104.79    6.00
  -4  -5  -1  109.59    7.90
  -4   5  -1  108.39    7.10
  -5  -5  -1  257.77    9.20
  -5  -5  -1  241.58   13.80
   5  -5   1  256.17   13.20
  -5  -5  -1  245.48   12.00
   5  -5   1  253.97   10.60
  -5   5  -1  249.28   11.80
   6  -5   1    5.60    3.80
  -6  -5  -1   17.20    3.50
  -6  -5  -1   36.90    7.30
  -6  -5  -1   14.70    4.60
  -6   5  -1    8.50    3.20
   7  -5   1   18.90    3.90
  -7  -5  -1   18.10    6.40
  -7  -5  -1   26.20    5.70
   7  -5   1   18.80    5.60
  -7   5  -1   20.70    4.90
   6  -6  -1    3.10    5.10
  -6  -6   1    4.80    4.80
  -6  -6   1    8.80    4.40
  -6  -6   1   -0.30    5.10
   6  -6  -1    4.40    3.00
  -6   6   1    1.40    3.30
  -5  -6   1  130.89   11.10
  -5  -6   1  151.78    9.00
   5  -6  -1  130.39   10.50
   5  -6  -1  125.69   10.20
  -5  -6   1  154.98   11.70
   5  -6  -1  144.39    8.20
  -5   6   1  143.29    8.70
   4  -6  -1    3.30    4.00
  -4  -6   1    5.00    3.50
  -4  -6   1   14.40    4.80
   4  -6  -1    9.70    3.90
  -4  -6   1    7.70    4.60
   4  -6  -1    6.50    2.60
  -4   6   1    6.10    2.90
   3  -6  -1   -1.30    2.00
  -3  -6   1   -5.00    3.50
   3  -6  -1    2.20    3.40
   3  -6  -1    4.20    3.60
   3  -6  -1   -0.60    3.50
  -3  -6   1    2.50    3.20
  -3  -6   1   -0.70    3.10
  -3   6   1    1.40    2.60
  -2  -6   1  691.03   26.20
   2  -6  -1  703.73   25.50
   2  -6  -1  707.73   25.80
   2  -6  -1  706.33   26.10
  -2  -6   1  671.73   25.70
   2  -6  -1  733.93   22.40
   1  -6  -1   30.10    3.60
   1  -6  -1   22.70    4.50
   1  -6  -1   28.60    5.00
  -1  -6   1   25.80    5.00
   1  -6  -1   27.10    5.20
  -1  -6   1   27.10    5.30
   0  -6  -1   11.30    3.60
   0  -6   1    9.80    4.10
   0  -6  -1    8.80    3.70
   0  -6  -1   11.50    3.70
   0  -6   1    8.10    3.40
  -1  -6  -1   25.10    5.00
   1  -6   1   24.40    3.10
  -1  -6  -1   19.70    4.10
   1  -6   1   31.80    5.60
   1  -6   1   23.80    5.20
  -1  -6  -1   24.70    5.30
  -2  -6  -1 1713.73   51.39
   2  -6   1 1676.13   52.69
   2  -6   1 1571.44   52.39
  -2  -6  -1 1684.63   53.19
   2  -6   1 1770.22   47.90
  -2   6  -1 1708.13   51.69
   3  -6   1  975.50   28.10
   3  -6   1  901.71   32.00
  -3  -6  -1  913.71   32.90
  -3  -6  -1  937.31   30.90
   3  -6   1  877.91   32.30
  -3   6  -1  932.01   31.00
  -4  -6  -1   76.49    8.90
   4  -6   1   77.69    5.60
   4  -6   1   77.99    8.10
   4  -6   1   70.29    8.20
  -4  -6  -1   78.79    8.10
  -4   6  -1   75.89    6.70
  -5  -6  -1  354.96   15.80
   5  -6   1  365.26   17.30
   5  -6   1  336.67   13.60
  -5  -6  -1  355.76   18.20
   5  -6   1  312.97   16.60
  -5   6  -1  344.27   15.30
  -6  -6  -1  292.67   18.40
   6  -6   1  344.57   13.80
   6  -6   1  320.27   17.10
  -6  -6  -1  333.77   15.90
  -6   6  -1  320.67   15.00
   4  -7  -1   14.20    5.30
  -4  -7   1    5.60    4.90
  -4  -7   1    8.20    5.60
   4  -7  -1   13.60    5.20
   4  -7  -1    2.70    3.10
  -4   7   1    2.20    3.40
  -3  -7   1    1.70    4.80
   3  -7  -1    1.10    4.10
   3  -7  -1    5.40    2.90
  -3  -7   1    3.70    4.10
   3  -7  -1    2.60    4.20
  -3   7   1   -0.20    3.40
   2  -7  -1 2121.89   65.69
   2  -7  -1 2180.98   60.39
   2  -7  -1 2169.08   65.09
  -2  -7   1 2091.29   65.19
  -2  -7   1 1980.10   65.59
  -2   7   1 2121.99   63.99
   1  -7  -1   27.10    6.10
  -1  -7   1   24.50    6.20
  -1  -7   1   26.10    5.80
   1  -7  -1   37.90    7.00
   0  -7  -1    8.70    4.30
   0  -7   1    6.00    4.40
   0  -7  -1    3.70    4.00
   0  -7   1    3.50    4.50
   1  -7   1  101.49    9.40
  -1  -7  -1  102.09    9.30
   1  -7   1  108.39   10.20
  -1  -7  -1  105.49    9.60
  -2  -7  -1  331.97   15.70
   2  -7   1  336.87   11.70
   2  -7   1  294.47   15.90
   2  -7   1  305.37   16.30
  -2  -7  -1  311.77   16.80
  -2   7  -1  314.87   15.30
   3  -7   1   85.89    9.90
  -3  -7  -1   80.39    9.00
   3  -7   1   58.59    5.60
   3  -7   1   85.79    9.10
  -3  -7  -1   83.29    9.80
  -3   7  -1   79.69    7.70
  -4  -7  -1   45.30    7.70
  -4  -7  -1   52.79    7.40
   4  -7   1   57.29    8.40
   4  -7   1   51.09    5.70
   4  -7   1   58.69    8.80
  -4   7  -1   48.10    6.80
 -10   0   2    0.10    4.10
  -9   0   2  321.87   15.20
   9   0  -2  312.87   13.60
  -9   0   2  349.67   13.80
  -8   0   2 1389.76   41.40
  -8   0   2 1370.86   43.00
   8   0  -2 1433.46   39.70
   8   0  -2 1332.67   41.50
   7   0  -2   14.90    2.60
  -7   0   2   18.60    3.50
   7   0  -2   22.80    3.40
  -7   0   2   26.00    3.80
  -6   0   2   21.90    3.10
   6   0  -2   23.50    3.10
  -6   0   2   23.80    3.80
  -5   0   2   27.50    2.70
  -5   0   2   24.20    3.30
   5   0  -2   28.90    2.80
   4   0  -2 3398.46   90.09
   4   0  -2 3283.67   90.29
  -4   0   2 3321.67   89.79
  -4   0   2 3197.08   90.99
   3   0  -2  124.39    4.50
   3   0  -2  121.09    4.70
  -3   0   2  112.49    5.20
  -2   0   2    6.20    1.20
   2   0  -2    4.30    0.90
  -2   0   2    5.40    1.10
   1   0  -2    1.50    0.60
   1   0  -2   -0.70    0.80
   1   0  -2    1.30    0.40
  -1   0   2    0.20    0.70
  -1   0   2    1.40    0.60
   0   0  -2    1.40    0.80
   0   0  -2    1.70    0.80
   0   0   2    1.90    0.80
   0   0   2    1.00    0.60
   0   0   2    1.80    0.70
   1   0   2   57.59    2.80
   1   0   2   58.09    2.30
  -1   0  -2   59.59    3.40
  -1   0  -2   56.99    2.80
  -1   0  -2   57.59    2.30
   1   0   2   63.99    3.40
  -1   0  -2   51.89    3.30
  -2   0  -2  650.03   18.30
  -2   0  -2  645.14   18.70
   2   0   2  632.14   18.30
  -2   0  -2  637.64   19.90
  -2   0  -2  630.24   18.70
  -3   0  -2   43.50    3.70
   3   0   2   46.20    3.00
  -3   0  -2   48.50    2.60
  -3   0  -2   51.79    3.40
  -4   0  -2  840.82   23.50
  -4   0  -2  817.12   26.20
  -5   0  -2 1427.76   43.00
  -6   0  -2  176.38    9.50
   7   0   2   67.19    5.80
  -7   0  -2   57.39    6.10
   8   0   2    2.70    2.60
  -8   0  -2   -2.30    2.90
  -9   0  -2  904.01   32.40
  -9   0  -2  948.01   32.10
   9   0   2  961.30   31.80
   9  -1  -2   11.20    3.20
  -9  -1   2   13.60    4.10
  -9   1   2   11.80    3.80
  -9   1   2   12.60    4.10
   9   1  -2   10.90    3.00
  -8  -1   2  505.05   19.70
   8  -1  -2  514.75   19.00
  -8   1   2  545.35   18.30
  -8   1   2  535.05   20.40
   8   1  -2  578.04   18.80
   7  -1  -2  359.36   11.30
  -7  -1   2  350.66   13.90
   7  -1  -2  348.37   13.10
  -7   1   2  337.97   14.10
  -7   1   2  354.66   12.40
   7   1  -2  283.57   12.10
  -6  -1   2   42.80    4.50
   6  -1  -2   52.09    3.90
   6  -1  -2   50.49    4.10
  -6   1   2   51.39    3.60
   6   1  -2   54.19    3.90
  -6   1   2   37.20    4.50
  -5  -1   2    7.20    2.00
   5  -1  -2    2.70    1.90
   5  -1  -2    3.40    1.40
  -5   1   2    5.80    2.30
  -5   1   2    5.30    1.50
   5   1  -2    3.30    1.40
   4  -1  -2 5091.59  135.09
   4  -1  -2 4984.80  134.69
  -4  -1   2 4811.32  135.09
   4  -1  -2 4579.34  133.49
  -4   1   2 5086.09  135.59
  -4   1   2 5173.38  133.59
   4   1  -2 4936.11  134.09
   3  -1  -2  253.87    7.80
   3  -1  -2  270.47    9.70
  -3  -1   2  224.18    9.00
   3  -1  -2  267.37    8.90
   3   1  -2  254.37    8.30
  -3   1   2  265.17    9.40
  -3   1   2  288.47    7.90
  -2  -1   2  376.26   11.50
   2  -1  -2  356.46   12.10
  -2  -1   2  370.36   10.60
   2  -1  -2  364.26   11.20
   2   1  -2  365.36   10.50
  -2   1   2  333.77   11.30
  -2   1   2  350.66   11.10
   1  -1  -2  548.45   15.30
   1  -1  -2  535.95   15.60
  -1  -1   2  535.15   15.50
   1  -1  -2  509.45   15.50
  -1  -1   2  534.15   16.20
   1  -1  -2  540.45   16.60
  -1  -1   2  546.85   14.80
  -1   1   2  526.75   14.80
  -1   1   2  510.85   16.50
  -1   1   2  519.35   15.40
   1   1  -2  573.04   15.60
   1   1  -2  548.85   14.90
  -1   1   2  506.55   15.80
  -1   1   2  524.15   15.30
   0   1   2 6458.45  182.58
   0   1   2 7297.07  183.58
   0   1  -2 6630.34  183.08
   1  -1   2 4861.51  135.29
   1  -1   2 5049.99  135.59
  -1  -1  -2 5115.69  135.79
   1   1   2 5093.69  135.59
   1   1   2 4930.41  135.19
  -1   1  -2 5113.69  135.29
  -1   1  -2 4794.22  135.39
  -1   1  -2 5073.39  135.39
  -2  -1  -2  870.51   25.30
  -2  -1  -2  881.41   25.70
  -2  -1  -2  884.21   24.20
   2  -1   2  864.41   25.20
  -2  -1  -2  859.01   23.80
  -2   1  -2  829.42   25.60
  -3  -1  -2 2026.80   54.69
  -3  -1  -2 2031.60   56.89
   3  -1   2 1941.51   55.89
  -3  -1  -2 1996.30   55.69
  -4  -1  -2  935.41   29.30
  -4  -1  -2  968.10   27.60
   4  -1   2  910.31   28.30
  -4   1  -2  958.90   29.40
   5  -1   2 2479.25   70.39
  -5  -1  -2 2443.66   71.19
  -5  -1  -2 2483.35   68.59
  -5   1  -2 2512.45   71.19
  -6  -1  -2  122.09    8.00
   6  -1   2  125.59    7.10
  -6   1  -2  124.69    7.70
  -7  -1  -2  192.48   10.80
   7  -1   2  197.58    9.80
  -7  -1  -2  212.88    9.90
  -7   1  -2  185.38   10.10
  -8  -1  -2  335.77   15.70
  -8  -1  -2  351.16   14.40
   8  -1   2  334.17   14.50
   8   1   2  336.47   14.50
  -8   1  -2  354.26   15.50
   9  -1   2  394.26   16.60
  -9  -1  -2  384.26   18.00
  -9  -1  -2  387.36   16.40
   9   1   2  384.56   16.40
  -9   1  -2  382.16   17.20
   9  -2  -2  345.57   14.90
  -9  -2   2  341.57   15.80
   9   2  -2  333.97   13.60
  -9   2   2  353.36   16.20
  -9   2   2  359.76   14.00
  -8  -2   2 1516.05   47.00
   8  -2  -2 1536.35   46.40
   8   2  -2 1524.05   45.10
  -8   2   2 1545.75   44.60
  -8   2   2 1534.95   47.80
   7  -2  -2   17.70    3.20
  -7  -2   2   16.10    3.50
   7  -2  -2   16.00    2.60
  -7   2   2   11.90    3.40
   7   2  -2   15.90    2.60
  -7   2   2   15.50    3.00
   6  -2  -2  106.69    5.90
  -6  -2   2  100.59    6.60
   6  -2  -2  100.49    5.20
  -6   2   2   95.89    5.10
  -6   2   2   88.89    6.40
   6   2  -2   96.99    5.10
   5  -2  -2   -0.60    1.20
   5  -2  -2    2.00    1.70
  -5  -2   2    0.80    2.00
  -5   2   2    1.10    1.70
   5   2  -2   -0.30    1.10
  -5   2   2    1.60    1.50
  -4  -2   2 2248.58   64.39
   4  -2  -2 2303.57   63.89
   4  -2  -2 2282.07   65.29
   4  -2  -2 2321.87   63.89
  -4   2   2 2327.27   62.89
  -4   2   2 2270.47   64.69
   4   2  -2 2244.88   62.59
   3  -2  -2    4.90    2.00
  -3  -2   2    2.60    1.60
   3  -2  -2    4.50    1.70
   3  -2  -2    4.70    1.30
  -3   2   2    2.20    1.30
  -3   2   2    5.10    1.10
   3   2  -2    4.60    0.90
  -2  -2   2    2.40    1.30
   2  -2  -2    0.60    1.30
   2  -2  -2    1.20    1.40
   2  -2  -2    0.20    0.80
  -2  -2   2    0.50    1.20
   2  -2  -2    1.00    1.20
  -2   2   2    1.00    1.00
   2   2  -2    0.60    0.40
   1  -2  -2  286.27   10.30
   1  -2  -2  287.37    9.30
   1  -2  -2  278.67    9.50
   1  -2  -2  278.17    9.50
  -1  -2   2  292.17    9.80
  -1  -2   2  267.37    9.90
  -1   2   2  282.77    9.00
   0  -2   2   50.29    3.70
   0  -2   2   53.19    3.30
   0  -2  -2   55.69    2.90
   0  -2   2   53.79    3.60
   0  -2  -2   69.79    4.10
   0  -2  -2   56.39    2.90
   0  -2  -2   49.70    3.20
   0   2   2   53.29    3.20
   0   2   2   59.89    2.20
  -1  -2  -2   15.50    2.50
   1  -2   2   16.40    2.30
  -1  -2  -2   17.10    1.70
   1  -2   2   11.90    1.90
  -1  -2  -2   15.50    2.20
  -1  -2  -2   17.70    2.40
   1  -2   2   15.70    2.20
  -1   2  -2   10.70    1.70
  -2  -2  -2   86.19    3.50
  -2  -2  -2   79.19    4.90
  -2  -2  -2   81.39    4.90
   2  -2   2   82.99    4.80
  -2  -2  -2   90.19    4.90
   2  -2   2   80.69    4.80
  -2   2  -2   80.19    4.50
   3  -2   2   16.60    2.70
  -3  -2  -2   13.70    2.50
   3  -2   2   17.50    2.40
  -3  -2  -2   15.00    2.50
  -3  -2  -2   18.50    1.60
  -3   2  -2   11.90    2.30
   4  -2   2  292.27   10.80
   4  -2   2  288.97   11.50
  -4  -2  -2  280.07   11.00
  -4  -2  -2  279.27   11.90
  -4  -2  -2  300.67    9.70
  -4   2  -2  303.87    9.50
  -4   2  -2  300.47   11.80
   5  -2   2 1081.29   34.00
   5  -2   2 1087.19   33.10
  -5  -2  -2 1116.69   31.90
  -5  -2  -2 1077.09   32.90
  -5  -2  -2 1156.48   35.00
  -5   2  -2 1046.80   34.10
   6  -2   2  272.57   12.30
   6  -2   2  275.07   11.30
  -6  -2  -2  279.17   10.60
  -6  -2  -2  262.07   12.60
  -6   2  -2  243.78   11.80
   7  -2   2  117.89    7.60
  -7  -2  -2  134.99    7.80
  -7  -2  -2  120.09    8.90
   7  -2   2  134.09    8.90
  -7   2  -2  155.48    9.00
   8  -2   2   -0.10    2.50
  -8  -2  -2    6.90    3.10
  -8  -2  -2    0.20    3.70
  -8   2  -2    5.00    3.00
  -9  -2  -2 1141.49   35.10
  -9  -2  -2 1070.09   37.80
   9  -2   2 1016.90   35.10
   9   2   2 1056.59   35.20
  -9   2  -2 1082.29   36.20
  -9  -3   2   -1.10    4.60
   9  -3  -2    8.50    3.40
  -9   3   2   13.60    4.70
  -9   3   2   15.60    4.20
   9   3  -2    9.60    3.10
   8  -3  -2  414.16   16.50
  -8  -3   2  421.16   17.70
   8   3  -2  418.76   15.00
  -8   3   2  407.46   17.80
  -8   3   2  441.56   15.40
   7  -3  -2  253.97   11.40
  -7  -3   2  241.78   13.80
   7  -3  -2  275.67   10.10
  -7  -3   2  265.77   12.40
  -7   3   2  268.67   10.60
  -7   3   2  272.97   12.80
   7   3  -2  260.37   10.00
   6  -3  -2   38.10    4.20
  -6  -3   2   36.90    5.30
  -6  -3   2   35.90    4.90
   6  -3  -2   38.40    4.50
   6   3  -2   41.40    3.40
  -6   3   2   47.60    4.30
  -6   3   2   42.00    4.90
   5  -3  -2    7.40    2.50
   5  -3  -2    7.40    2.00
  -5  -3   2    4.30    2.50
  -5  -3   2    9.40    3.40
   5  -3  -2    4.30    2.40
   5   3  -2    6.80    1.50
  -5   3   2    7.90    2.10
   4  -3  -2 3867.51  105.39
   4  -3  -2 3913.01  104.29
  -4  -3   2 3755.32  105.39
  -4  -3   2 3681.13  104.09
   4  -3  -2 3757.52  103.59
  -4   3   2 3595.74  102.59
   4   3  -2 3723.53  101.49
   3  -3  -2  165.08    6.90
  -3  -3   2  159.68    7.50
   3  -3  -2  162.28    8.00
   3  -3  -2  161.78    7.80
  -3  -3   2  169.18    8.10
   3  -3  -2  165.68    7.80
   3   3  -2  162.88    5.10
  -3   3   2  157.08    6.40
   2  -3  -2  310.27   11.50
   2  -3  -2  310.37   11.50
   2  -3  -2  305.47   11.90
  -2  -3   2  298.17   11.40
  -2  -3   2  320.77   11.90
   2  -3  -2  309.17   10.60
   1  -3  -2  342.87   12.00
  -1  -3   2  342.57   12.80
   1  -3  -2  345.27   11.30
   1  -3  -2  330.97   12.20
   1  -3  -2  350.96   13.10
  -1  -3   2  348.77   12.20
   0  -3   2 4598.94  124.89
   0  -3  -2 4739.53  125.39
   0  -3   2 4290.57  124.29
   0  -3  -2 4350.56  122.89
   0  -3  -2 4467.55  124.19
   0  -3  -2 4631.94  123.39
   0  -3   2 4629.84  124.29
   1  -3   2 3309.37   91.19
  -1  -3  -2 3318.77   89.69
  -1  -3  -2 3198.48   91.19
   1  -3   2 3314.67   88.59
  -1  -3  -2 3233.28   91.79
   1  -3   2 3391.16   91.59
  -1   3  -2 3166.08   90.79
  -2  -3  -2  488.95   17.50
   2  -3   2  499.15   15.30
   2  -3   2  507.35   17.40
   2  -3   2  511.75   17.60
  -2  -3  -2  502.05   17.80
  -2  -3  -2  514.35   15.80
  -2   3  -2  528.15   17.20
  -3  -3  -2 1489.45   44.70
  -3  -3  -2 1464.55   44.90
   3  -3   2 1494.05   44.70
  -3  -3  -2 1526.85   42.40
   3  -3   2 1539.45   44.80
   3  -3   2 1489.15   42.50
  -3   3  -2 1479.85   44.00
  -4  -3  -2  674.53   18.60
  -4  -3  -2  592.54   22.70
  -4  -3  -2  666.93   22.40
   4  -3   2  647.54   22.10
  -4  -3  -2  635.34   21.80
   4  -3   2  639.84   20.20
  -4   3  -2  622.64   21.40
  -5  -3  -2 1957.80   58.99
   5  -3   2 2007.00   56.79
  -5  -3  -2 2019.40   55.09
  -5  -3  -2 1962.20   57.89
   5  -3   2 1932.71   58.39
  -5   3  -2 1978.10   54.69
  -5   3  -2 1984.80   58.39
  -6  -3  -2   86.09    5.70
  -6  -3  -2   78.39    7.30
   6  -3   2   93.99    7.40
   6  -3   2   89.79    6.10
  -6   3  -2   83.49    6.60
  -7  -3  -2  166.58   10.80
   7  -3   2  163.68   10.40
  -7  -3  -2  156.38    8.50
   7  -3   2  138.99    8.50
  -7   3  -2  151.88    9.60
  -8  -3  -2  289.47   12.60
  -8  -3  -2  261.27   14.70
   8  -3   2  244.08   13.80
   8  -3   2  240.78   12.30
  -8   3  -2  245.78   12.90
  -9  -3  -2  300.97   17.00
   9  -3   2  286.87   14.20
  -9  -3  -2  312.77   14.50
   9   3   2  307.37   14.30
  -9   3  -2  304.47   15.10
   8  -4  -2  870.31   29.70
  -8  -4   2  878.11   33.80
  -8  -4   2  838.62   30.80
  -8   4   2  881.81   31.40
  -8   4   2  928.71   28.30
   8   4  -2  899.41   27.10
  -7  -4   2    9.20    3.80
  -7  -4   2    9.80    4.80
   7  -4  -2   15.90    3.80
   7  -4  -2   10.20    3.00
   7   4  -2   12.30    2.70
  -7   4   2    8.60    3.60
  -7   4   2    8.00    3.30
   6  -4  -2    8.40    3.40
  -6  -4   2   14.40    4.30
  -6  -4   2    6.80    3.30
   6  -4  -2    7.60    3.60
   6  -4  -2    9.40    2.70
   6   4  -2   11.50    2.10
  -6   4   2   13.10    3.10
   5  -4  -2   10.00    2.40
   5  -4  -2   11.00    3.30
   5  -4  -2   15.30    3.60
  -5  -4   2   19.50    4.10
  -5  -4   2   12.60    3.70
  -5   4   2   14.30    3.00
   5   4  -2   14.20    1.90
   4  -4  -2 1759.32   52.29
   4  -4  -2 1758.02   53.99
  -4  -4   2 1761.32   53.19
  -4  -4   2 1862.91   55.09
   4  -4  -2 1965.40   53.99
   4  -4  -2 1851.31   54.29
  -4   4   2 1780.52   51.89
   4   4  -2 1852.01   49.60
   3  -4  -2   48.10    5.10
  -3  -4   2   46.10    4.70
   3  -4  -2   53.69    5.30
   3  -4  -2   49.99    4.00
  -3  -4   2   50.99    5.80
   3  -4  -2   51.59    5.30
  -3  -4   2   44.20    5.20
  -3   4   2   48.40    3.90
   2  -4  -2   -1.20    2.20
  -2  -4   2    1.00    2.10
   2  -4  -2   -0.10    2.10
   2  -4  -2    2.70    1.50
  -2  -4   2    4.40    2.50
   2  -4  -2    0.60    2.10
  -2  -4   2    1.80    2.50
  -1  -4   2   24.00    3.80
   1  -4  -2   15.10    3.30
  -1  -4   2   18.80    3.80
   1  -4  -2   22.80    2.80
   1  -4  -2   22.50    3.80
   1  -4  -2   22.40    3.40
  -1  -4   2   22.80    3.40
   0  -4   2    2.10    2.30
   0  -4  -2    0.10    1.90
   0  -4   2    0.30    1.90
   0  -4  -2    0.70    1.30
   0  -4  -2   -3.20    2.10
   0  -4   2    1.20    2.00
   0  -4  -2    1.10    1.90
   0   4   2    2.50    1.70
  -1  -4  -2   24.40    4.00
   1  -4   2   12.80    2.80
   1  -4   2   19.30    3.80
  -1  -4  -2   20.00    3.80
   1  -4   2   22.00    1.90
  -1  -4  -2   12.80    2.70
  -1   4  -2   20.10    3.40
  -2  -4  -2  175.18    9.40
  -2  -4  -2  188.38    8.10
   2  -4   2  188.68    6.90
   2  -4   2  179.78    9.40
  -2  -4  -2  186.08    9.80
   2  -4   2  193.48    9.40
  -2   4  -2  183.38    8.90
  -3  -4  -2   32.40    5.00
   3  -4   2   29.60    4.50
  -3  -4  -2   40.60    5.30
  -3  -4  -2   33.10    4.20
   3  -4   2   33.30    3.10
   3  -4   2   29.10    4.60
  -3   4  -2   31.80    4.10
   4  -4   2  419.96   14.40
  -4  -4  -2  434.66   15.00
   4  -4   2  414.36   16.80
  -4  -4  -2  419.66   17.00
  -4  -4  -2  410.96   17.40
   4  -4   2  419.16   16.90
  -4   4  -2  426.46   16.10
  -5  -4  -2  860.31   28.20
   5  -4   2  798.82   25.50
  -5  -4  -2  813.02   25.70
   5  -4   2  783.82   27.90
  -5  -4  -2  835.32   23.20
  -5  -4  -2  786.22   29.30
  -5   4  -2  788.72   27.10
   6  -4   2   84.29    7.90
  -6  -4  -2   86.99    9.40
  -6  -4  -2   98.19    5.70
   6  -4   2   83.59    6.20
  -6   4  -2   95.89    7.50
   7  -4   2   38.80    6.50
  -7  -4  -2   40.20    4.90
   7  -4   2   36.70    5.20
  -7  -4  -2   33.50    7.50
  -8  -4  -2    6.10    6.90
   8  -4   2    0.90    4.60
   8  -4   2    7.90    3.60
  -8   4  -2    5.00    4.10
  -7  -5   2  200.38   12.20
  -7  -5   2  167.08   13.10
   7  -5  -2  210.58   13.50
   7  -5  -2  214.28   10.80
  -7   5   2  206.68   10.20
  -7   5   2  197.78   11.90
   6  -5  -2   33.70    4.90
   6  -5  -2   46.50    6.00
  -6  -5   2   38.50    6.30
   6  -5  -2   37.60    5.90
  -6  -5   2   38.80    5.70
  -6   5   2   40.00    5.20
   5  -5  -2   -2.00    3.30
  -5  -5   2    2.00    3.00
  -5  -5   2   -1.60    3.20
   5  -5  -2   -2.60    3.20
   5  -5  -2    4.90    2.40
   5  -5  -2    7.10    4.00
  -5  -5   2    1.00    3.80
  -5   5   2   -2.00    2.30
   4  -5  -2 2198.38   64.59
   4  -5  -2 2171.68   62.29
   4  -5  -2 2279.07   64.49
  -4  -5   2 2181.68   65.59
  -4  -5   2 2154.88   63.09
   4  -5  -2 2151.88   64.59
  -4  -5   2 2128.79   65.29
  -4   5   2 2114.09   62.19
  -3  -5   2   89.09    8.10
   3  -5  -2   74.89    5.30
  -3  -5   2   93.89    6.80
   3  -5  -2   96.19    7.20
   3  -5  -2  105.69    7.80
  -3  -5   2   95.39    7.60
   3  -5  -2   97.99    7.30
  -3   5   2   88.69    6.00
   2  -5  -2  105.39    8.00
   2  -5  -2  127.39    6.50
  -2  -5   2  129.99    7.50
   2  -5  -2  130.09    8.00
  -2  -5   2  132.39    8.30
   2  -5  -2  125.99    8.10
  -2  -5   2  130.09    8.90
   1  -5  -2  184.18    9.60
  -1  -5   2  184.48   10.50
  -1  -5   2  195.48    9.40
   1  -5  -2  199.48   10.30
  -1  -5   2  195.68   10.20
   1  -5  -2  209.28   10.90
   1  -5  -2  195.28    8.20
   0  -5   2 2776.32   81.19
   0  -5   2 2785.22   81.59
   0  -5  -2 2751.22   82.09
   0  -5  -2 2901.11   81.49
   0  -5  -2 2858.91   79.89
   1  -5   2 2021.10   60.29
   1  -5   2 1976.80   60.49
  -1  -5  -2 2076.69   60.49
  -1  -5  -2 1979.00   58.39
  -1  -5  -2 1984.20   61.09
   1  -5   2 2063.29   55.59
   1   5   2 2006.90   55.09
  -1   5  -2 2091.39   59.99
  -2  -5  -2  289.67   13.60
  -2  -5  -2  280.57   14.00
  -2  -5  -2  312.27   12.30
   2  -5   2  291.87   13.30
   2  -5   2  297.97   10.10
   2  -5   2  299.87   13.80
  -2   5  -2  294.67   12.80
   3  -5   2  752.22   23.10
  -3  -5  -2  773.02   27.40
  -3  -5  -2  793.82   25.00
  -3  -5  -2  755.32   27.50
   3  -5   2  777.32   26.90
   3  -5   2  735.93   26.80
  -3   5  -2  763.82   26.10
  -4  -5  -2  366.16   14.30
   4  -5   2  366.06   13.00
  -4  -5  -2  358.56   16.40
   4  -5   2  344.77   15.80
  -4  -5  -2  344.07   16.50
   4  -5   2  359.76   16.30
  -4   5  -2  362.86   15.00
  -5  -5  -2 1143.19   34.00
   5  -5   2 1107.89   36.50
  -5  -5  -2 1006.20   37.40
   5  -5   2 1062.19   32.90
  -5   5  -2 1059.79   35.10
  -6  -5  -2   65.49    9.30
   6  -5   2   59.29    7.80
  -6  -5  -2   59.29    7.60
   6  -5   2   57.29    5.70
  -6   5  -2   62.29    6.60
   7  -5   2  154.58   11.70
  -7  -5  -2  138.09    9.70
   7  -5   2  128.59    8.50
  -7  -5  -2  104.39   12.80
  -7   5  -2  138.09   10.00
   6  -6  -2   18.00    4.00
  -6  -6   2   13.10    6.30
  -6  -6   2   11.70    5.80
   6  -6  -2   13.60    5.70
  -6  -6   2   17.40    5.00
  -6   6   2   20.20    4.20
   5  -6  -2   -3.00    3.80
   5  -6  -2    1.00    4.30
  -5  -6   2    2.20    5.00
  -5  -6   2    5.40    3.60
   5  -6  -2    3.60    2.70
  -5  -6   2   -0.10    4.30
   5  -6  -2    2.10    4.10
  -5   6   2   -2.20    2.90
   4  -6  -2  810.12   28.90
  -4  -6   2  796.22   29.80
   4  -6  -2  821.22   28.90
  -4  -6   2  812.42   30.00
   4  -6  -2  797.72   26.10
   4  -6  -2  816.22   29.10
  -4   6   2  778.72   26.50
  -3  -6   2    5.20    3.50
  -3  -6   2   -2.30    3.80
  -3  -6   2    1.50    3.40
   3  -6  -2    4.30    2.50
   3  -6  -2    5.90    3.90
   3  -6  -2    3.30    3.30
   3  -6  -2    7.60    3.80
  -3   6   2    8.20    2.90
   2  -6  -2   -0.10    3.00
   2  -6  -2   -1.10    3.30
  -2  -6   2    4.40    4.20
  -2  -6   2    5.30    3.50
   2  -6  -2    3.90    3.30
   2  -6  -2    3.60    2.10
  -2  -6   2    1.10    3.20
   1  -6  -2   90.09    7.80
  -1  -6   2   77.89    7.40
   1  -6  -2  102.69    6.00
   1  -6  -2   85.59    8.20
  -1  -6   2   88.99    8.60
   1  -6  -2   79.89    7.70
   0  -6   2    4.60    4.20
   0  -6   2    9.60    3.80
   0  -6  -2    6.60    3.20
   0  -6  -2   10.90    3.70
   0  -6  -2   12.30    3.60
   1  -6   2    0.90    1.60
   1  -6   2   -0.60    3.50
  -1  -6  -2    1.70    3.10
  -1  -6  -2   -1.80    2.90
  -1  -6  -2    1.90    3.10
   1  -6   2    0.30    2.90
  -1   6  -2   -1.50    2.30
  -2  -6  -2   20.70    5.20
  -2  -6  -2   20.90    4.30
  -2  -6  -2   22.00    5.10
   2  -6   2   13.50    4.00
   2  -6   2   17.60    2.60
   2  -6   2   13.20    4.20
  -2   6  -2   20.40    4.50
   3  -6   2   18.80    3.10
  -3  -6  -2   20.90    4.50
   3  -6   2   19.40    4.40
   3  -6   2   14.00    4.40
  -3  -6  -2   14.70    4.40
  -3  -6  -2   12.90    4.50
  -3   6  -2   17.40    4.00
   4  -6   2  130.69    9.90
   4  -6   2  129.89    7.00
  -4  -6  -2  125.49    9.00
   4  -6   2  118.99   10.30
  -4  -6  -2  131.89   10.70
  -4   6  -2  132.19    8.90
   5  -6   2  430.06   15.90
  -5  -6  -2  437.76   17.60
  -5  -6  -2  409.26   20.50
   5  -6   2  419.76   19.50
  -5   6  -2  441.46   18.40
  -6  -6  -2   75.79   11.30
   6  -6   2   92.69   10.30
   6  -6   2   78.89    7.00
  -6  -6  -2   83.59    9.10
  -6   6  -2   93.19    8.50
   4  -7  -2 1233.58   41.90
   4  -7  -2 1237.88   38.00
   4  -7  -2 1262.37   41.70
  -4  -7   2 1171.58   38.30
  -4  -7   2 1216.18   42.70
  -4  -7   2 1186.38   42.20
  -4   7   2 1225.98   39.10
  -3  -7   2   35.60    6.60
   3  -7  -2   43.70    7.40
  -3  -7   2   35.50    7.00
   3  -7  -2   40.10    5.30
   3  -7  -2   38.80    6.70
   3  -7  -2   37.00    6.80
  -3   7   2   37.00    5.60
   2  -7  -2  117.89   10.20
  -2  -7   2  124.29   11.40
   2  -7  -2  108.39    7.10
  -2  -7   2  111.09    9.80
   2  -7  -2  110.99   10.60
   2  -7  -2  113.79    9.90
   1  -7  -2   83.29    8.90
  -1  -7   2   90.59    9.80
   1  -7  -2   77.49    9.30
  -1  -7   2   88.39    9.20
   1  -7  -2   85.49    9.80
   0  -7  -2 1320.57   41.40
   0  -7  -2 1270.77   44.00
   0  -7  -2 1224.98   42.60
   0  -7   2 1256.77   43.00
   0  -7   2 1266.27   43.20
   1  -7   2  848.32   32.60
  -1  -7  -2  875.21   33.70
  -1  -7  -2  914.71   33.00
   1  -7   2  927.51   33.00
  -1  -7  -2  906.71   30.90
  -1   7  -2  882.21   31.70
   2  -7   2  107.09   10.70
  -2  -7  -2  109.59    9.40
  -2  -7  -2  115.89   10.60
   2  -7   2  108.79    9.80
  -2   7  -2  131.59    9.70
  -3  -7  -2  492.65   19.70
  -3  -7  -2  464.85   21.80
   3  -7   2  480.05   21.30
   3  -7   2  433.56   21.50
   3  -7   2  528.95   16.60
  -3   7  -2  464.05   20.10
   4  -7   2  161.88   12.30
  -4  -7  -2  139.09   10.90
   4  -7   2  149.19   12.30
   4  -7   2  147.69    8.40
  -4  -7  -2  164.28   13.10
  -4   7  -2  164.78   11.00
  -9   0   3  165.18   10.50
   9   0  -3  179.88    9.40
  -8   0   3   76.59    6.90
   8   0  -3   84.49    6.90
   8   0  -3   78.09    5.80
   7   0  -3    4.60    3.20
   7   0  -3    2.70    1.80
  -7   0   3    6.10    2.70
   6   0  -3 4184.98  118.69
   6   0  -3 4484.95  120.79
  -6   0   3 4293.87  120.19
  -5   0   3  331.87   12.60
   5   0  -3  338.07   11.60
   4   0  -3  716.53   21.40
   4   0  -3  725.23   20.60
  -4   0   3  702.13   22.20
  -3   0   3  322.17   11.50
   3   0  -3  357.86    9.80
   3   0  -3  322.57   10.70
  -2   0   3 3387.06   92.79
   2   0  -3 3389.36   92.09
   1   0  -3 3131.99   88.29
  -1   0   3 3307.87   88.99
   1   0  -3 3324.97   87.99
   0   0  -3 1282.47   35.20
   0   0  -3 1286.87   36.50
   0   0   3 1326.97   36.70
   0   0  -3 1313.07   38.50
   0   0   3 1267.07   36.20
   1   0   3 2128.29   60.89
   1   0   3 2163.38   59.99
  -1   0  -3 2248.88   62.39
  -1   0  -3 2299.77   61.89
  -2   0  -3  134.69    6.00
  -2   0  -3  120.59    6.30
  -2   0  -3  123.19    4.70
   2   0   3  132.19    4.70
  -3   0  -3 1644.24   47.70
   3   0   3 1614.24   45.20
  -3   0  -3 1628.54   45.70
  -3   0  -3 1606.24   45.10
  -4   0  -3  216.98   10.00
  -4   0  -3  204.98    7.60
  -5   0  -3    3.70    1.50
  -5   0  -3    9.50    2.90
  -6   0  -3  463.05   18.20
  -7   0  -3   44.00    6.00
   8   0   3  534.85   20.30
  -8   0  -3  510.75   21.00
   9   0   3   74.29    7.60
  -9   0  -3   74.89    8.50
  -9  -1   3    9.90    4.00
   9  -1  -3   14.60    3.40
   9   1  -3   19.40    3.50
  -9   1   3    8.10    3.60
   9   1  -3   15.30    5.10
   8  -1  -3   -0.20    2.10
   8  -1  -3   -4.60    2.70
  -8  -1   3   -1.60    2.60
  -8   1   3   -0.20    2.60
  -8   1   3    1.90    3.00
   8   1  -3    0.00    1.90
   7  -1  -3    2.40    2.60
  -7  -1   3    3.30    2.40
   7  -1  -3    6.30    2.20
  -7   1   3    6.00    2.20
  -7   1   3    1.00    2.20
   7   1  -3    2.00    1.60
   6  -1  -3  108.49    6.50
   6  -1  -3  113.79    6.00
  -6  -1   3   98.79    6.50
  -6   1   3  105.09    6.60
  -6   1   3  110.59    4.90
   6   1  -3   99.79    5.40
   5  -1  -3   17.70    2.60
   5  -1  -3   13.70    1.90
   5  -1  -3    9.90    2.90
  -5  -1   3    9.70    2.30
  -5   1   3   11.30    2.40
   5   1  -3   15.60    2.20
  -5   1   3   14.40    1.70
   4  -1  -3  126.99    5.70
   4  -1  -3  121.79    7.00
  -4  -1   3  112.29    6.10
   4   1  -3  121.09    5.00
  -4   1   3  122.59    6.10
   3  -1  -3    6.50    1.50
   3  -1  -3   10.50    2.60
  -3  -1   3    5.40    1.60
   3   1  -3    3.20    1.60
  -3   1   3    3.20    1.50
   3   1  -3    5.80    1.10
  -3   1   3    3.80    1.60
   2  -1  -3 1609.94   45.80
  -2  -1   3 1650.73   45.50
  -2  -1   3 1653.03   46.70
  -2  -1   3 1673.73   45.10
   2  -1  -3 1652.13   48.10
  -2   1   3 1591.84   45.90
   2   1  -3 1629.94   45.10
  -2   1   3 1681.03   45.20
   1  -1  -3 1007.90   31.90
  -1  -1   3 1074.09   29.40
   1  -1  -3 1022.10   30.00
   1  -1  -3 1205.08   29.20
  -1  -1   3 1085.49   29.20
   1   1  -3 1035.40   29.90
   1   1  -3 1155.48   29.60
  -1   1   3 1027.30   29.80
  -1   1   3 1062.69   29.10
  -1   1   3  911.31   30.00
  -1   1   3 1027.40   29.10
   0  -1  -3    0.10    0.70
   0  -1  -3    0.30    1.40
   0  -1   3    3.70    0.90
   0  -1   3    3.60    1.40
   0  -1  -3    0.30    1.00
   0  -1  -3    2.20    1.00
   0   1  -3    1.30    1.00
   0   1   3    2.50    0.90
   0   1  -3    1.30    0.90
   0   1   3    2.30    1.00
   0   1   3    2.00    1.20
  -1  -1  -3  129.59    5.90
  -1  -1  -3  140.29    4.90
   1  -1   3  137.99    6.00
   1  -1   3  132.79    5.50
  -1  -1  -3  127.29    6.20
  -1   1  -3  133.89    5.60
   1   1   3  133.69    4.90
  -1   1  -3  134.19    5.80
  -2  -1  -3 1102.49   30.40
   2  -1   3 1065.49   31.10
  -2  -1  -3 1047.70   32.20
  -2  -1  -3 1069.79   31.80
  -2   1  -3 1118.69   32.30
  -3  -1  -3 4583.94  128.79
  -3  -1  -3 4568.34  127.29
   3  -1   3 4510.55  127.09
  -3  -1  -3 4836.62  125.39
  -3   1  -3 4722.93  127.19
  -3   1  -3 4734.43  128.59
  -4  -1  -3   45.00    3.70
  -4  -1  -3   43.00    5.00
  -4  -1  -3   43.70    3.70
   4  -1   3   43.30    3.90
  -4   1  -3   52.39    5.00
  -4   1  -3   49.00    3.10
   5  -1   3  314.37   12.30
  -5  -1  -3  312.87   13.70
  -5  -1  -3  313.27   11.30
  -5   1  -3  322.27    9.60
  -5   1  -3  317.07   13.40
  -6  -1  -3   85.09    5.10
  -6  -1  -3   81.79    7.00
  -6   1  -3   84.69    6.60
   7  -1   3 2376.66   70.29
  -7  -1  -3 2490.35   72.39
  -7   1  -3 2375.16   71.29
  -8  -1  -3   41.50    6.40
  -8  -1  -3   37.50    5.10
   8  -1   3   40.70    5.60
  -8   1  -3   29.70    5.20
   9  -1   3   45.10    6.60
  -9  -1  -3   46.10    6.20
  -9  -1  -3   46.60    7.30
  -9   1  -3   53.19    7.50
   9   1   3   44.90    6.40
   9  -2  -3  216.28   11.30
  -9  -2   3  224.88   12.60
   9   2  -3  212.38   10.10
  -9   2   3  224.28   12.50
  -8  -2   3  133.69    9.10
   8  -2  -3  128.79    8.00
   8  -2  -3  141.09    7.20
  -8   2   3  122.59    9.00
   8   2  -3  124.19    6.90
  -8   2   3  133.19    6.70
  -7  -2   3    4.80    2.80
   7  -2  -3    5.50    2.80
   7  -2  -3    1.80    2.00
  -7   2   3   -2.70    2.30
   7   2  -3    1.10    1.80
  -7   2   3    2.80    2.20
  -6  -2   3 3113.19   88.39
   6  -2  -3 3187.58   86.99
   6  -2  -3 3040.90   87.39
  -6   2   3 3215.68   84.99
   6   2  -3 3073.09   85.89
  -6   2   3 3066.69   88.49
  -5  -2   3  260.17   11.30
   5  -2  -3  273.07   11.00
   5  -2  -3  267.97   10.50
  -5   2   3  279.97    8.70
  -5   2   3  283.17   11.40
   5   2  -3  271.07    9.30
   4  -2  -3  299.67   11.60
  -4  -2   3  286.97   11.40
  -4  -2   3  294.07   11.40
   4  -2  -3  289.97   10.60
  -4   2   3  281.47   11.00
  -4   2   3  294.17    8.80
   4   2  -3  285.57    9.30
   3  -2  -3  553.94   17.60
  -3  -2   3  548.75   18.00
   3  -2  -3  554.74   18.80
  -3  -2   3  556.54   16.40
  -3  -2   3  559.84   18.50
   3   2  -3  577.84   16.20
  -3   2   3  545.85   17.80
  -3   2   3  597.44   15.90
  -2  -2   3 3611.74   99.19
  -2  -2   3 3626.34   97.29
  -2  -2   3 3688.83  100.09
   2  -2  -3 3598.84   98.69
   2  -2  -3 3653.93  100.59
   2  -2  -3 3411.66   98.79
   2  -2  -3 3531.75   99.19
   2   2  -3 3594.94   97.19
  -2   2   3 3807.52   97.49
  -2   2   3 3626.74   98.69
   1  -2  -3 3889.41  104.79
  -1  -2   3 3701.63  103.09
   1  -2  -3 3740.73  102.69
   1  -2  -3 3783.02  102.99
   1  -2  -3 3819.12  102.89
  -1  -2   3 3614.94  103.99
  -1  -2   3 3930.71  101.39
  -1   2   3 4135.59  102.19
  -1   2   3 3777.42  102.29
  -1   2   3 3353.76  102.59
   0  -2   3 1002.50   30.10
   0  -2  -3  991.20   30.60
   0  -2   3  989.60   30.10
   0  -2  -3  994.30   29.00
   0  -2  -3 1010.40   28.30
   0  -2   3 1005.40   29.30
   0   2   3 1044.80   28.50
   0   2   3 1023.90   28.00
   0   2  -3  995.80   29.60
   1  -2   3  915.11   27.80
  -1  -2  -3  932.01   27.80
  -1  -2  -3  943.71   27.90
   1  -2   3  942.91   28.30
  -1  -2  -3  888.41   28.70
  -1  -2  -3  930.31   25.70
  -1  -2  -3 1023.60   25.90
  -1   2  -3  936.61   28.10
   1   2   3  946.01   25.70
   2  -2   3  231.68    9.50
  -2  -2  -3  255.67   10.10
   2  -2   3  241.18    9.50
  -2  -2  -3  242.18    9.70
  -2   2  -3  237.78    9.50
  -3  -2  -3  914.01   25.20
  -3  -2  -3  926.51   25.00
  -3  -2  -3  907.71   25.00
   3  -2   3  863.71   27.60
  -3  -2  -3  906.41   28.50
  -3  -2  -3  919.51   28.00
  -3   2  -3  849.81   27.80
   4  -2   3  401.86   15.20
  -4  -2  -3  420.16   13.00
  -4  -2  -3  422.56   15.20
  -4  -2  -3  441.66   16.50
  -4   2  -3  426.06   15.90
   5  -2   3   13.10    3.00
  -5  -2  -3   15.20    3.00
  -5  -2  -3   15.30    2.60
  -5  -2  -3   10.70    3.10
   5  -2   3    8.20    3.00
  -5   2  -3   10.50    2.10
  -5   2  -3   15.40    2.40
  -5   2  -3   14.60    3.50
  -6  -2  -3  630.74   24.10
   6  -2   3  628.14   21.90
   6  -2   3  641.94   22.70
  -6  -2  -3  674.13   20.80
  -6  -2  -3  647.04   21.40
  -6   2  -3  646.94   23.40
  -7  -2  -3   24.40    4.00
   7  -2   3   22.30    4.70
   7  -2   3   19.50    4.00
  -7  -2  -3   14.70    4.20
  -7   2  -3   25.40    5.00
  -8  -2  -3  374.46   17.90
  -8  -2  -3  389.26   14.80
   8  -2   3  325.27   15.10
  -8   2  -3  341.37   16.20
  -9  -2  -3   25.50    6.20
  -9  -2  -3   34.10    5.50
   9  -2   3   30.50    5.20
   9   2   3   32.00    5.60
  -9   2  -3   30.50    5.60
  -9  -3   3    3.60    4.60
   9  -3  -3    8.60    3.50
  -9  -3   3    8.20    6.20
  -9   3   3    2.60    3.80
   9   3  -3    7.90    3.20
   8  -3  -3   -0.20    2.30
  -8  -3   3    8.30    4.90
  -8  -3   3   -0.20    3.70
   8   3  -3    3.30    2.20
  -8   3   3    1.70    3.20
  -8   3   3   -1.50    2.90
   7  -3  -3    8.20    2.80
  -7  -3   3    8.00    4.00
  -7  -3   3    4.60    3.20
   7  -3  -3   13.20    3.60
  -7   3   3    8.30    2.60
   7   3  -3    1.80    2.00
  -7   3   3    0.10    2.60
   6  -3  -3   80.49    5.80
   6  -3  -3   84.09    6.30
  -6  -3   3   75.09    6.80
  -6  -3   3   87.29    6.70
  -6   3   3   90.49    4.80
  -6   3   3   78.69    6.40
   6   3  -3   84.79    4.50
   5  -3  -3    3.00    2.60
   5  -3  -3    5.30    1.90
  -5  -3   3    9.80    3.30
  -5  -3   3    1.40    2.50
   5   3  -3    3.20    1.30
  -5   3   3    5.80    1.80
  -5   3   3    0.20    1.80
   4  -3  -3  109.99    7.10
   4  -3  -3  108.99    6.00
  -4  -3   3  110.49    7.00
   4  -3  -3  110.09    6.80
  -4  -3   3  115.49    7.00
  -4   3   3  108.09    4.70
   4   3  -3  112.49    4.20
  -4   3   3  106.29    6.20
   3  -3  -3    8.20    2.50
  -3  -3   3    8.70    2.70
  -3  -3   3    5.00    2.30
   3  -3  -3    7.50    2.90
   3  -3  -3    7.70    2.80
   3  -3  -3    7.30    1.90
  -3   3   3    5.70    1.50
  -3   3   3    6.00    1.90
  -2  -3   3 1024.20   31.70
   2  -3  -3 1056.09   31.50
   2  -3  -3 1099.79   31.00
   2  -3  -3 1047.60   31.30
  -2  -3   3 1053.09   32.20
   2  -3  -3 1003.40   32.40
  -2   3   3 1058.79   30.50
   1  -3  -3  730.03   25.00
  -1  -3   3  774.92   24.50
  -1  -3   3  786.32   25.00
   1  -3  -3  783.92   23.20
   1  -3  -3  794.32   23.40
   1  -3  -3  774.62   23.80
  -1  -3   3  770.02   24.10
  -1   3   3  752.52   22.20
   0  -3  -3    2.40    2.00
   0  -3  -3    0.30    1.60
   0  -3   3    2.10    1.70
   0  -3   3    0.90    2.00
   0  -3  -3    2.00    1.40
   0  -3   3    2.00    1.80
   0  -3   3    2.80    0.70
   0   3   3    2.20    0.80
   0   3  -3    1.70    1.60
  -1  -3  -3   88.59    6.20
   1  -3   3   96.29    6.00
  -1  -3  -3  100.69    4.50
  -1  -3  -3   94.89    5.70
   1  -3   3   93.79    4.00
   1  -3   3   95.79    5.60
   1  -3   3   97.69    6.20
  -1   3  -3   88.79    5.50
   2  -3   3  801.92   23.70
  -2  -3  -3  812.82   25.90
  -2  -3  -3  807.42   23.20
   2  -3   3  836.62   26.00
   2  -3   3  812.52   26.10
  -2  -3  -3  797.82   26.50
  -2   3  -3  801.62   25.60
   3  -3   3 3538.25   99.29
  -3  -3  -3 3539.65  101.69
  -3  -3  -3 3703.83   98.29
   3  -3   3 3615.14  101.59
  -3  -3  -3 3611.24  101.69
   3  -3   3 3608.44  101.39
  -3  -3  -3 3634.64  101.89
  -3   3  -3 3662.93  101.19
   4  -3   3   32.70    4.60
   4  -3   3   27.60    3.70
  -4  -3  -3   33.60    4.70
  -4  -3  -3   27.00    3.30
  -4  -3  -3   36.70    5.20
  -4  -3  -3   25.50    4.40
  -4   3  -3   29.00    4.20
  -5  -3  -3  203.98    7.10
  -5  -3  -3  155.58    7.20
  -5  -3  -3  219.78   10.30
   5  -3   3  217.48   10.20
   5  -3   3  152.68    8.30
  -5  -3  -3  193.88   10.80
  -5   3  -3  185.78    9.80
   6  -3   3   58.69    6.60
  -6  -3  -3   71.19    5.20
  -6  -3  -3   52.99    6.70
  -6  -3  -3   54.09    6.10
   6  -3   3   54.99    5.30
  -6   3  -3   65.39    6.50
  -7  -3  -3 1774.12   57.29
   7  -3   3 1733.03   53.69
  -7  -3  -3 1934.61   52.29
   7  -3   3 1812.72   55.59
  -7   3  -3 1763.52   55.69
   8  -3   3   31.60    5.00
  -8  -3  -3   27.60    5.30
  -8  -3  -3   26.00    6.20
   8  -3   3   26.50    5.70
  -8   3  -3   24.40    5.10
   8  -4  -3   44.60    6.00
  -8  -4   3   69.79    8.70
  -8  -4   3   55.99    8.50
  -8   4   3   49.99    7.10
   8   4  -3   59.39    5.20
   7  -4  -3    7.90    4.10
  -7  -4   3    1.90    3.70
  -7  -4   3    5.30    4.10
   7  -4  -3    7.20    3.00
  -7   4   3    2.80    3.00
   7   4  -3    2.50    2.10
  -7   4   3    5.50    3.00
   6  -4  -3 2595.04   75.09
   6  -4  -3 2687.03   75.39
  -6  -4   3 2495.75   77.39
  -6  -4   3 2643.34   76.79
   6   4  -3 2693.13   71.79
  -6   4   3 2603.64   76.09
   5  -4  -3  197.78   10.90
   5  -4  -3  200.18   10.10
   5  -4  -3  192.18    9.20
  -5  -4   3  200.38   10.70
  -5  -4   3  186.38   10.10
  -5   4   3  196.78    8.00
   5   4  -3  203.08    6.60
  -5   4   3  190.08    9.60
  -4  -4   3  386.76   15.50
  -4  -4   3  367.26   15.00
   4  -4  -3  390.86   15.10
   4  -4  -3  368.66   15.10
   4  -4  -3  369.86   15.10
   4  -4  -3  357.46   13.60
  -4   4   3  370.46   12.60
  -4   4   3  366.06   14.10
  -3  -4   3  211.38   10.30
   3  -4  -3  205.28    8.80
   3  -4  -3  208.08   10.10
  -3  -4   3  200.48   10.00
   3  -4  -3  204.98   10.60
   3  -4  -3  207.18    9.80
  -3   4   3  215.58    8.30
  -3   4   3  201.88    8.80
  -2  -4   3 1913.01   56.89
   2  -4  -3 2010.30   58.09
  -2  -4   3 1928.31   57.79
  -2  -4   3 1926.11   56.69
   2  -4  -3 1931.01   56.19
   2  -4  -3 1908.21   56.29
   2  -4  -3 1950.50   55.29
  -2   4   3 1985.50   54.79
  -1  -4   3 1738.03   51.99
   1  -4  -3 1742.63   51.59
   1  -4  -3 1767.62   50.79
  -1  -4   3 1819.82   52.09
  -1  -4   3 1802.82   53.09
   1  -4  -3 1767.42   50.39
   1  -4  -3 1751.72   53.19
  -1   4   3 1753.02   49.20
   0  -4   3  529.75   18.70
   0  -4   3  521.15   18.60
   0  -4  -3  536.35   19.90
   0  -4  -3  531.25   18.60
   0  -4   3  514.05   19.40
   0  -4  -3  539.25   17.40
   0   4   3  535.45   15.30
   0   4   3  536.95   15.70
   1  -4   3 1006.30   32.70
   1  -4   3  965.00   31.90
   1  -4   3 1053.59   28.60
  -1  -4  -3 1024.20   30.10
  -1  -4  -3 1015.10   32.20
  -1   4  -3 1050.09   32.20
  -2  -4  -3   50.89    4.00
  -2  -4  -3   49.40    5.70
   2  -4   3   55.69    5.90
  -2  -4  -3   47.50    5.40
   2  -4   3   60.19    5.60
   2  -4   3   55.09    3.40
  -2   4  -3   54.59    5.10
  -3  -4  -3  816.82   28.60
   3  -4   3  824.12   25.30
  -3  -4  -3  868.71   29.10
  -3  -4  -3  824.22   25.30
   3  -4   3  846.22   28.40
   3  -4   3  895.41   28.50
  -3   4  -3  855.21   27.80
  -4  -4  -3  112.99    8.10
   4  -4   3  121.69    6.40
  -4  -4  -3  106.59    8.60
  -4  -4  -3  131.79    6.50
   4  -4   3  121.09    8.30
  -4   4  -3  128.39    7.80
   5  -4   3   10.20    3.30
  -5  -4  -3    8.30    3.20
  -5  -4  -3    6.70    3.10
   5  -4   3    6.90    2.50
  -5  -4  -3    7.30    4.10
  -5   4  -3    8.20    3.10
   6  -4   3  281.77   12.20
  -6  -4  -3  292.07   13.90
  -6  -4  -3  283.57   16.20
  -6  -4  -3  273.67   11.60
   6  -4   3  279.87   13.90
  -6   4  -3  272.67   13.50
   7  -4   3   16.80    4.10
   7  -4   3   20.20    5.20
  -7  -4  -3   17.10    6.30
  -7   4  -3   19.40    5.20
   8  -4   3  328.67   14.80
  -8  -4  -3  309.57   20.50
   8  -4   3  339.97   17.50
  -8   4  -3  323.87   16.50
  -7  -5   3    0.30    4.50
   7  -5  -3    1.90    4.50
  -7  -5   3    0.20    5.00
   7  -5  -3    5.90    3.20
  -7   5   3    4.50    3.40
  -7   5   3    4.90    4.80
  -6  -5   3   45.90    6.60
   6  -5  -3   43.40    6.60
   6  -5  -3   46.90    6.80
  -6  -5   3   41.90    6.90
   6  -5  -3   50.39    5.70
  -6   5   3   57.49    6.40
  -6   5   3   46.90    5.60
  -5  -5   3    6.40    3.60
   5  -5  -3    8.20    3.80
   5  -5  -3    8.30    2.80
   5  -5  -3    3.10    3.60
  -5  -5   3    4.00    3.50
  -5   5   3    2.10    2.40
  -5   5   3    8.90    3.10
   4  -5  -3   69.99    7.30
  -4  -5   3   66.89    7.90
   4  -5  -3   76.69    7.40
  -4  -5   3   77.19    6.80
   4  -5  -3   61.89    6.60
  -4  -5   3   72.69    7.30
   4  -5  -3   70.39    5.60
  -4   5   3   80.19    5.90
  -4   5   3   71.09    5.20
   3  -5  -3   -1.50    2.70
  -3  -5   3    4.70    3.20
   3  -5  -3   -0.10    1.90
  -3  -5   3    0.00    2.80
  -3  -5   3   -3.80    3.10
   3  -5  -3    0.00    2.60
   3  -5  -3    4.10    2.90
  -3   5   3    1.10    2.20
  -3   5   3    1.30    2.30
  -2  -5   3  656.73   23.50
  -2  -5   3  679.93   23.10
   2  -5  -3  665.03   24.30
  -2  -5   3  642.94   24.30
   2  -5  -3  606.04   22.70
   2  -5  -3  695.93   21.50
   2  -5  -3  661.03   22.60
  -2   5   3  639.54   20.60
  -1  -5   3  393.16   15.60
   1  -5  -3  391.36   15.00
  -1  -5   3  395.56   16.90
   1  -5  -3  417.06   16.10
   1  -5  -3  374.16   16.90
  -1  -5   3  385.56   16.00
   1  -5  -3  415.66   14.30
  -1   5   3  401.76   12.90
   0  -5  -3    5.80    3.30
   0  -5  -3    5.40    3.00
   0  -5   3   10.20    3.20
   0  -5   3    0.80    2.50
   0  -5   3    8.60    3.90
   0  -5  -3    5.10    2.70
   0   5   3    3.90    1.30
   0   5   3    3.40    2.20
  -1  -5  -3   43.10    6.10
  -1  -5  -3   36.70    4.70
   1  -5   3   39.50    2.60
   1  -5   3   36.60    5.10
   1  -5   3   33.30    5.20
  -1  -5  -3   38.50    5.30
  -1   5  -3   37.60    4.90
  -2  -5  -3  395.06   17.40
  -2  -5  -3  400.06   16.70
   2  -5   3  388.76   16.30
   2  -5   3  407.86   12.60
  -2  -5  -3  398.56   14.30
   2  -5   3  395.16   16.90
  -2   5  -3  370.66   15.60
   3  -5   3 2018.20   61.89
  -3  -5  -3 1997.80   61.79
   3  -5   3 2038.30   61.59
  -3  -5  -3 2049.49   62.59
   3  -5   3 2055.19   57.29
  -3  -5  -3 2083.59   58.29
  -3   5  -3 2028.10   60.89
   4  -5   3   23.20    3.40
  -4  -5  -3   22.90    5.40
  -4  -5  -3   23.70    5.30
   4  -5   3   17.70    4.10
   4  -5   3   17.80    4.70
  -4  -5  -3   21.90    4.00
  -4   5  -3   23.80    4.80
  -5  -5  -3  166.38    9.10
   5  -5   3  153.18    8.10
  -5  -5  -3  162.08   10.90
   5  -5   3  150.68   10.80
  -5  -5  -3  151.78   11.60
  -5   5  -3  167.68   10.00
  -6  -5  -3   65.89    7.20
   6  -5   3   42.40    5.20
   6  -5   3   41.10    6.30
  -6  -5  -3   49.90    8.50
  -6   5  -3   39.50    6.00
  -7  -5  -3 1118.69   43.70
   7  -5   3 1195.18   41.00
   7  -5   3 1221.68   37.70
  -7   5  -3 1175.18   40.10
   6  -6  -3 1311.97   43.90
   6  -6  -3 1348.86   42.50
   6  -6  -3 1308.47   40.90
  -6  -6   3 1277.27   42.30
  -6  -6   3 1254.37   45.70
  -6  -6   3 1241.58   44.30
  -6   6   3 1347.27   42.00
  -6   6   3 1278.17   39.40
   5  -6  -3  101.99    9.80
  -5  -6   3  101.69   11.30
  -5  -6   3   92.89    8.90
   5  -6  -3  101.59    7.50
  -5  -6   3  103.49    9.90
   5  -6  -3   95.89    9.60
   5  -6  -3   99.09    9.40
  -5   6   3  101.69    7.90
  -5   6   3  100.69    6.90
  -4  -6   3  115.29    8.80
   4  -6  -3  113.79    9.70
   4  -6  -3  108.49    7.50
  -4  -6   3  110.09    9.60
  -4  -6   3  105.59   10.90
   4  -6  -3  110.79    9.30
   4  -6  -3  119.49    9.60
  -4   6   3  109.39    7.50
  -4   6   3  120.89    7.20
  -3  -6   3  184.28   12.50
   3  -6  -3  182.98   10.90
  -3  -6   3  186.18   11.50
   3  -6  -3  185.88    9.20
   3  -6  -3  172.58   11.60
   3  -6  -3  176.78   10.90
  -3  -6   3  173.98   10.40
  -3   6   3  178.68    9.30
  -3   6   3  189.88    9.20
  -2  -6   3 1147.69   39.50
  -2  -6   3 1180.88   39.00
   2  -6  -3 1132.99   37.20
   2  -6  -3 1197.48   38.50
   2  -6  -3 1192.78   35.70
   2  -6  -3 1149.58   39.60
  -2  -6   3 1192.78   37.40
  -2   6   3 1169.98   34.80
   1  -6  -3 1198.68   38.00
   1  -6  -3 1226.48   36.70
  -1  -6   3 1228.08   38.60
   1  -6  -3 1153.78   40.70
  -1  -6   3 1189.58   40.80
   1  -6  -3 1260.47   39.90
  -1  -6   3 1235.18   40.10
  -1   6   3 1224.08   35.10
   0  -6  -3  248.18   13.90
   0  -6  -3  256.27   13.00
   0  -6   3  257.37   13.80
   0  -6  -3  194.98   11.00
   0  -6   3  258.27   13.10
   0   6   3  245.08    8.10
   0   6  -3  246.48   12.60
   1  -6   3  362.86   17.40
  -1  -6  -3  366.66   16.80
   1  -6   3  394.16   17.10
  -1  -6  -3  374.26   17.90
  -1  -6  -3  377.16   15.10
  -1   6  -3  373.16   16.40
   2  -6   3   48.20    6.70
  -2  -6  -3   45.10    7.60
  -2  -6  -3   45.10    5.60
   2  -6   3   54.09    7.60
  -2  -6  -3   53.39    7.20
   2  -6   3   47.40    3.90
  -2   6  -3   45.30    5.90
   3  -6   3  322.07   16.40
  -3  -6  -3  334.27   16.60
   3  -6   3  342.27   12.10
  -3  -6  -3  297.07   16.50
  -3  -6  -3  348.17   14.00
   3  -6   3  322.77   15.90
  -3   6  -3  338.47   15.40
   4  -6   3  127.89   10.90
   4  -6   3  139.99   10.50
  -4  -6  -3  127.09    9.00
   4  -6   3  137.99    7.20
  -4  -6  -3  127.49   10.80
  -4  -6  -3  129.49   11.00
  -4   6  -3  141.99    9.70
  -5  -6  -3   19.20    5.90
   5  -6   3   20.50    3.60
  -5  -6  -3   14.20    4.90
   5  -6   3   19.10    5.70
  -5   6  -3   11.40    4.20
  -3  -7   3   -1.70    4.10
   3  -7  -3   -1.90    4.30
  -3  -7   3    0.70    4.40
   3  -7  -3    4.90    4.80
   3  -7  -3   -1.20    3.10
   3  -7  -3   14.30    5.50
  -3  -7   3   -5.00    5.70
  -3   7   3    2.50    3.20
  -3   7   3   -4.10    3.20
   2  -7  -3  270.77   14.50
  -2  -7   3  275.57   16.50
   2  -7  -3  307.97   15.70
   2  -7  -3  279.77   12.30
   2  -7  -3  300.67   16.80
  -2  -7   3  282.17   15.60
  -2   7   3  271.67   11.60
  -1  -7   3  220.18   13.80
   1  -7  -3  225.88   14.90
   1  -7  -3  238.48   12.70
   1  -7  -3  228.38   13.70
  -1  -7   3  233.78   14.70
   0  -7   3    0.60    5.00
   0  -7  -3   -2.10    4.10
   0  -7   3    1.70    3.90
   0  -7  -3   -1.30    4.10
   0  -7  -3   13.40    5.60
   0   7  -3    1.00    3.80
   1  -7   3   20.40    5.20
   1  -7   3   20.20    6.10
  -1  -7  -3   22.10    5.70
  -1  -7  -3   24.60    5.10
  -1  -7  -3   22.90    5.90
  -1   7  -3   14.50    4.40
   2  -7   3  223.68   14.90
   2  -7   3  249.97   14.50
  -2  -7  -3  227.78   15.20
  -2  -7  -3  247.48   12.70
  -2  -7  -3  259.57   15.00
  -2   7  -3  239.88   13.50
  -3  -7  -3 1093.99   40.90
   3  -7   3 1148.49   39.80
  -3  -7  -3 1114.59   36.10
   3  -7   3 1095.49   40.20
  -3  -7  -3 1125.09   40.20
  -3   7  -3 1158.68   38.80
   9   0  -4    8.20    4.40
  -9   0   4    6.00    3.60
   9   0  -4    9.10    3.10
   8   0  -4  194.98   11.00
   8   0  -4  186.88    9.30
  -8   0   4  220.98   11.40
   7   0  -4   57.19    6.70
   7   0  -4   51.99    4.50
  -7   0   4   62.69    5.80
  -6   0   4  503.45   18.70
   6   0  -4  553.04   20.40
   6   0  -4  516.05   17.30
   6   0  -4  541.65   17.60
  -5   0   4  108.39    6.50
   5   0  -4  114.19    5.60
   5   0  -4  109.89    4.90
   4   0  -4 2065.49   54.49
  -4   0   4 1974.50   57.39
   4   0  -4 1980.60   56.19
   3   0  -4 2237.68   62.39
  -3   0   4 2267.47   63.49
   2   0  -4   82.19    3.30
  -2   0   4   79.49    4.60
   2   0  -4   81.89    4.00
  -1   0   4  473.85   15.80
   1   0  -4  517.35   15.00
  -1   0   4  470.85   14.50
   1   0  -4  502.85   15.10
   0   0  -4  921.21   30.00
   0   0  -4  967.40   25.90
   0   0   4  915.81   27.80
   0   0  -4  957.80   27.70
  -1   0  -4 8484.65  233.08
  -1   0  -4 8636.04  231.88
  -2   0  -4   22.30    3.40
   2   0   4   23.30    2.70
  -2   0  -4   27.80    3.50
   2   0   4   26.10    2.20
  -3   0  -4   98.29    4.70
  -3   0  -4  102.09    6.50
   3   0   4  100.69    4.50
  -3   0  -4  101.79    5.60
   4   0   4  405.56   13.20
  -4   0  -4  388.26   13.40
  -4   0  -4  389.06   15.60
  -5   0  -4 2725.03   78.29
  -5   0  -4 2948.10   82.39
  -6   0  -4   11.00    2.50
  -6   0  -4    9.70    3.20
  -7   0  -4    6.00    3.60
  -8   0  -4  755.42   28.50
   9   0   4   31.70    5.90
  -9   0  -4   23.90    5.70
  -9  -1   4    1.30    3.60
   9  -1  -4    0.20    2.70
  -9   1   4    7.10    3.90
   9   1  -4    2.00    2.90
   9   1  -4   -2.30    4.80
  -8  -1   4 1558.74   48.00
   8  -1  -4 1518.75   46.20
   8  -1  -4 1630.74   46.20
   8   1  -4 1504.65   45.30
  -8   1   4 1471.45   47.70
  -7  -1   4  199.58   10.50
   7  -1  -4  202.48    9.50
   7  -1  -4  225.48   10.70
   7   1  -4  207.68    8.90
  -7   1   4  208.28   10.60
  -6  -1   4  191.88    9.60
   6  -1  -4  200.28   10.20
   6  -1  -4  185.08    8.40
  -6   1   4  188.78    9.50
   6   1  -4  191.48    8.00
  -5  -1   4  221.38   10.10
   5  -1  -4  221.98   11.20
   5  -1  -4  223.78    9.10
  -5   1   4  245.08   10.20
   5   1  -4  226.78    8.50
   4  -1  -4  772.52   23.20
   4  -1  -4  736.43   25.90
  -4  -1   4  761.92   24.30
   4   1  -4  776.82   22.40
  -4   1   4  729.33   23.70
  -3  -1   4 1215.48   32.90
  -3  -1   4 1161.38   34.50
   3  -1  -4  998.10   35.90
   3  -1  -4 1141.89   33.40
  -3   1   4 1162.08   32.40
   3   1  -4 1182.98   32.60
  -3   1   4 1181.58   33.90
   2  -1  -4  503.65   19.60
   2  -1  -4  540.65   17.00
  -2  -1   4  559.04   18.10
  -2  -1   4  544.95   16.00
  -2   1   4  542.05   17.20
  -2   1   4  565.54   15.60
   2   1  -4  559.44   16.50
   2   1  -4  561.64   16.30
   1  -1  -4  553.64   14.90
   1  -1  -4  507.55   19.10
  -1  -1   4  548.95   17.70
   1  -1  -4  541.55   15.60
  -1  -1   4  553.34   15.50
   1  -1  -4  517.85   16.50
  -1   1   4  548.35   15.60
   1   1  -4  543.15   15.50
  -1   1   4  517.85   16.50
   1   1  -4  517.05   16.20
   0  -1   4   36.30    3.40
   0  -1  -4   33.00    2.90
   0  -1   4   38.10    3.30
   0  -1  -4   39.70    4.40
   0  -1  -4   39.80    2.30
   0   1   4   41.20    2.90
   0   1  -4   33.90    2.90
   0   1   4   36.20    2.80
   0   1  -4   34.50    2.60
   1  -1   4    7.70    1.80
  -1  -1  -4    5.30    2.10
   1  -1   4    5.30    1.90
   1   1   4    6.80    1.50
  -1   1  -4    6.20    1.90
   2  -1   4  332.57   11.20
   2  -1   4  341.57   12.10
  -2  -1  -4  327.47   12.40
  -2  -1  -4  303.27   12.50
  -2   1  -4  325.67   12.30
  -3  -1  -4   93.89    5.70
   3  -1   4  100.29    5.30
  -3  -1  -4   94.79    6.70
  -3   1  -4   97.79    5.80
  -3   1  -4  104.89    6.50
   4  -1   4  494.95   16.40
  -4  -1  -4  472.65   16.50
  -4  -1  -4  502.45   18.90
  -4  -1  -4  479.75   14.50
  -4   1  -4  493.05   18.30
  -4   1  -4  493.05   16.00
  -5  -1  -4  473.25   18.70
   5  -1   4  477.25   16.40
  -5  -1  -4  468.45   16.10
  -5   1  -4  450.45   14.60
  -5   1  -4  459.65   18.00
  -6  -1  -4  750.52   27.20
  -6  -1  -4  745.43   23.50
   6  -1   4  743.03   24.80
  -6   1  -4  749.53   26.60
  -7  -1  -4  131.29    9.90
  -7  -1  -4  121.09    6.70
  -7   1  -4  111.29    8.60
   8  -1   4   49.00    6.90
  -8  -1  -4   48.00    7.40
  -8   1  -4   38.50    6.40
  -9  -1  -4  288.67   16.40
   9  -1   4  253.37   14.00
  -9  -1  -4  273.97   13.90
  -9   1  -4  267.07   15.40
   9  -2  -4    1.10    2.70
  -9   2   4    0.70    3.40
   9   2  -4    3.70    2.70
  -8  -2   4  139.79    9.80
   8  -2  -4  136.39    8.60
   8  -2  -4  150.68    8.60
   8   2  -4  139.09    7.30
  -8   2   4  133.39    9.30
   7  -2  -4  117.09    7.60
   7  -2  -4  102.69    6.70
  -7  -2   4  108.29    8.00
  -7   2   4   99.19    7.50
   7   2  -4  110.59    5.80
   6  -2  -4  326.27   13.40
  -6  -2   4  322.07   13.60
   6  -2  -4  329.77   12.50
  -6  -2   4  289.57   13.30
  -6   2   4  304.67   13.10
   6   2  -4  318.47   11.10
  -5  -2   4   48.00    4.90
   5  -2  -4   55.79    5.70
  -5  -2   4   50.59    4.90
   5  -2  -4   44.20    3.90
  -5   2   4   37.00    4.20
   5   2  -4   53.19    3.40
   4  -2  -4 2345.07   66.49
   4  -2  -4 2419.06   68.69
  -4  -2   4 2339.97   67.79
  -4  -2   4 2326.57   66.69
  -4   2   4 2426.06   67.09
   4   2  -4 2304.77   64.69
   3  -2  -4 2158.68   62.09
   3  -2  -4 2163.58   59.59
  -3  -2   4 2069.09   60.79
  -3  -2   4 2172.18   59.49
  -3   2   4 2024.30   59.39
   3   2  -4 2082.59   57.79
   2  -2  -4  314.87   10.10
   2  -2  -4  291.17   10.70
  -2  -2   4  297.47   10.40
  -2  -2   4  308.87    9.20
   2  -2  -4  293.07   12.70
  -2  -2   4  299.37   11.90
  -2   2   4  299.67   10.40
  -2   2   4  288.37    8.90
   1  -2  -4  171.88    8.90
  -1  -2   4  167.98    8.00
   1  -2  -4  168.28    6.30
  -1  -2   4  162.28    6.60
  -1  -2   4  171.18    5.60
   1  -2  -4  154.98    6.70
  -1   2   4  160.68    6.40
   1   2  -4  167.48    7.10
  -1   2   4  156.28    6.00
  -1   2   4  167.88    6.40
   0  -2   4  492.95   15.70
   0  -2  -4  504.65   15.60
   0  -2  -4  494.45   17.90
   0  -2   4  509.55   16.90
   0  -2   4  482.55   17.00
   0  -2  -4  493.75   15.30
   0  -2  -4  469.45   14.80
   0   2   4  503.85   14.90
   0   2  -4  484.95   16.20
   0   2   4  498.05   14.90
  -1  -2  -4 5551.64  149.69
   1  -2   4 5480.55  150.48
  -1  -2  -4 5488.65  150.08
   1  -2   4 5521.85  150.98
   1  -2   4 5302.27  149.69
  -1  -2  -4 5664.83  151.78
  -1  -2  -4 5708.43  147.99
  -1   2  -4 5341.17  150.28
   1   2   4 5448.85  148.09
  -2  -2  -4   18.90    3.00
  -2  -2  -4   18.80    3.20
  -2  -2  -4   20.40    2.10
   2  -2   4   21.90    3.40
   2  -2   4   26.50    3.70
  -2   2  -4   18.40    2.90
  -3  -2  -4  300.57    9.60
   3  -2   4  294.67   11.60
  -3  -2  -4  290.87   12.70
  -3  -2  -4  293.97   12.20
  -3   2  -4  300.87   12.30
  -4  -2  -4  502.55   17.80
   4  -2   4  499.25   17.50
  -4  -2  -4  481.55   19.10
  -4   2  -4  483.85   18.20
  -5  -2  -4 2778.82   78.39
   5  -2   4 2816.52   78.59
  -5  -2  -4 2599.34   74.99
  -5  -2  -4 2688.63   80.99
  -5   2  -4 2882.71   76.29
  -5   2  -4 2752.32   79.99
  -6  -2  -4    3.50    2.90
  -6  -2  -4    5.40    3.60
   6  -2   4   -1.50    2.50
   6  -2   4   11.70    3.60
  -6   2  -4    3.90    3.20
   7  -2   4    2.40    3.50
  -7  -2  -4    2.30    4.40
   7  -2   4    0.20    2.70
  -7  -2  -4    2.70    3.20
  -7  -2  -4   -1.70    3.20
  -7   2  -4    4.30    3.40
   8  -2   4  472.95   19.60
  -8  -2  -4  507.55   22.70
  -8  -2  -4  539.55   18.70
  -8   2  -4  463.35   20.60
  -8  -3   4 1266.77   42.50
   8  -3  -4 1339.87   39.50
  -8  -3   4 1334.57   42.60
   8  -3  -4 1220.28   40.20
   8   3  -4 1277.27   37.80
  -8   3   4 1276.37   41.70
  -7  -3   4  180.38   10.70
   7  -3  -4  182.78    9.40
   7  -3  -4  168.38    9.80
  -7  -3   4  156.28   10.30
  -7   3   4  176.88   10.10
   7   3  -4  173.58    7.50
  -6  -3   4  143.79    9.30
   6  -3  -4  161.48    9.10
   6  -3  -4  141.09    7.80
  -6  -3   4  144.29    9.00
   6   3  -4  145.89    6.20
  -6   3   4  147.69    8.60
  -5  -3   4  163.58    9.20
   5  -3  -4  158.58    8.00
  -5  -3   4  181.38    9.40
   5  -3  -4  155.38    9.30
  -5   3   4  171.78    8.60
   5   3  -4  171.58    6.20
  -4  -3   4  563.14   20.50
   4  -3  -4  570.34   20.70
   4  -3  -4  550.54   18.90
  -4  -3   4  577.34   19.90
  -4   3   4  542.95   19.00
  -4   3   4  586.44   16.40
  -4   3   4  602.54   16.40
   4   3  -4  580.14   16.60
   3  -3  -4  787.12   24.80
  -3  -3   4  760.82   26.10
   3  -3  -4  804.82   24.70
  -3  -3   4  801.42   25.30
   3  -3  -4  804.22   26.90
  -3   3   4  791.72   24.40
  -3   3   4  803.92   22.70
  -3   3   4  804.72   22.70
   2  -3  -4  376.06   13.40
   2  -3  -4  396.76   13.30
  -2  -3   4  372.36   13.60
  -2  -3   4  394.06   15.00
   2  -3  -4  380.46   13.70
   2  -3  -4  380.86   15.50
  -2   3   4  374.76   12.60
   1  -3  -4  420.16   14.40
   1  -3  -4  423.66   16.80
  -1  -3   4  417.76   14.80
  -1  -3   4  435.06   16.20
  -1  -3   4  422.56   15.90
   1  -3  -4  440.66   14.50
   1  -3  -4  433.96   14.20
  -1   3   4  426.36   13.30
   1   3  -4  426.96   15.20
   0  -3  -4   45.90    4.10
   0  -3   4   47.20    2.60
   0  -3   4   49.50    5.00
   0  -3  -4   48.30    3.40
   0  -3   4   48.40    4.10
   0  -3  -4   46.90    5.20
   0  -3   4   43.90    5.10
   0   3  -4   42.30    4.20
   0   3   4   47.80    2.70
   1  -3   4    5.90    2.20
   1  -3   4    3.50    2.60
  -1  -3  -4    3.60    1.40
   1  -3   4    3.80    2.30
  -1  -3  -4    3.10    2.30
  -1  -3  -4    2.50    2.10
  -1   3  -4    4.20    2.20
   2  -3   4  196.88    9.10
  -2  -3  -4  192.48   10.00
   2  -3   4  206.18    9.60
  -2  -3  -4  192.78    9.40
  -2  -3  -4  184.08    9.00
  -2   3  -4  182.28    9.10
  -3  -3  -4   54.39    5.60
   3  -3   4   57.79    5.60
  -3  -3  -4   53.89    5.80
  -3  -3  -4   58.19    5.90
  -3   3  -4   58.19    5.30
   4  -3   4  349.27   14.30
  -4  -3  -4  330.37   15.00
  -4  -3  -4  331.47   14.40
  -4  -3  -4  338.67   15.00
   4  -3   4  329.57   12.70
  -4   3  -4  342.77   14.10
  -5  -3  -4  339.67   10.60
  -5  -3  -4  339.07   16.00
   5  -3   4  318.37   13.10
  -5  -3  -4  348.67   10.80
  -5  -3  -4  327.47   14.40
   5  -3   4  335.47   14.30
  -5   3  -4  323.27   14.60
  -6  -3  -4  562.14   23.80
   6  -3   4  578.84   21.70
  -6  -3  -4  568.64   21.20
  -6  -3  -4  596.64   18.20
   6  -3   4  559.24   20.40
  -6   3  -4  597.94   17.50
  -6   3  -4  544.45   22.00
   7  -3   4   92.69    7.60
  -7  -3  -4   99.29    8.10
   7  -3   4   94.39    8.60
  -7  -3  -4  103.99    7.50
  -7  -3  -4  112.69   10.60
  -7   3  -4  100.89    8.90
   8  -3   4   30.10    6.10
   8  -3   4   37.60    5.60
  -8  -3  -4   35.40    6.90
  -8   3  -4   32.40    6.00
  -8  -4   4  121.89   11.10
  -8  -4   4  134.39   11.80
  -8   4   4  123.69    9.70
  -7  -4   4   32.50    6.10
   7  -4  -4   31.30    4.50
   7  -4  -4   31.80    5.50
  -7  -4   4   29.10    5.70
  -7   4   4   27.10    4.80
   7   4  -4   35.20    3.90
  -6  -4   4  345.77   15.70
  -6  -4   4  348.47   16.00
   6  -4  -4  349.57   14.30
   6   4  -4  346.97   10.90
  -6   4   4  338.67   14.50
   5  -4  -4   46.00    6.10
  -5  -4   4   58.39    6.10
   5  -4  -4   52.49    5.00
  -5  -4   4   47.00    6.30
  -5   4   4   53.99    3.90
  -5   4   4   49.90    5.10
   4  -4  -4 1235.58   38.10
   4  -4  -4 1178.58   38.70
  -4  -4   4 1236.68   38.20
  -4  -4   4 1161.18   38.40
   4  -4  -4 1194.88   36.80
   4  -4  -4 1252.57   37.60
  -4   4   4 1219.28   34.50
  -4   4   4 1212.38   36.60
   3  -4  -4 1325.77   40.30
   3  -4  -4 1340.37   39.90
  -3  -4   4 1268.57   40.90
   3  -4  -4 1331.47   39.50
  -3  -4   4 1333.77   40.60
   3  -4  -4 1382.06   42.20
  -3   4   4 1297.27   37.80
  -3   4   4 1304.77   38.80
  -2  -4   4   64.39    5.60
  -2  -4   4   65.29    6.20
   2  -4  -4   74.29    5.60
   2  -4  -4   73.29    6.90
   2  -4  -4   63.19    5.50
   2  -4  -4   48.40    4.30
  -2  -4   4   63.89    6.50
  -2   4   4   61.59    4.10
   1  -4  -4  212.28    9.10
   1  -4  -4  216.18    9.10
  -1  -4   4  213.78   10.60
   1  -4  -4  214.98    9.70
  -1  -4   4  218.58   10.10
   1  -4  -4  216.98   11.50
  -1   4   4  212.18    7.60
   0  -4  -4  452.75   15.30
   0  -4  -4  454.95   16.70
   0  -4   4  459.95   17.50
   0  -4   4  453.95   16.90
   0  -4   4  480.65   18.20
   0   4   4  502.45   13.60
   0   4  -4  437.96   17.00
  -1  -4  -4 4493.05  124.09
  -1  -4  -4 4684.43  129.29
   1  -4   4 4454.75  123.19
   1  -4   4 4573.54  126.99
  -1  -4  -4 4495.15  126.89
   1  -4   4 4480.85  127.99
  -1   4  -4 4762.22  127.39
  -2  -4  -4   14.30    3.80
  -2  -4  -4    7.90    3.20
  -2  -4  -4   13.00    2.20
   2  -4   4    8.30    3.30
   2  -4   4   11.40    3.20
   2  -4   4   15.90    2.30
  -2   4  -4    8.20    2.80
  -3  -4  -4   81.19    4.30
  -3  -4  -4   81.59    7.10
   3  -4   4   74.79    4.90
  -3  -4  -4   74.89    6.80
   3  -4   4   88.39    7.10
   3  -4   4   82.69    6.60
  -3   4  -4   72.69    6.20
  -4  -4  -4  267.47    8.80
  -4  -4  -4  250.57   12.90
   4  -4   4  260.67   10.50
   4  -4   4  231.98   12.30
  -4  -4  -4  251.07   13.10
  -4   4  -4  253.07   12.20
   5  -4   4 1618.04   50.89
  -5  -4  -4 1719.13   45.90
  -5  -4  -4 1634.64   51.09
   5  -4   4 1623.24   48.30
  -5  -4  -4 1611.84   52.19
  -5   4  -4 1621.94   50.99
   6  -4   4    6.50    3.00
  -6  -4  -4    6.10    3.80
  -6  -4  -4   15.00    5.80
   6  -4   4    9.20    4.10
  -6   4  -4    7.70    4.10
  -7  -4  -4    0.80    5.80
   7  -4   4    0.90    3.10
   7  -4   4    5.00    4.80
  -7   4  -4    2.70    4.20
  -7  -5   4  101.89   10.90
  -7  -5   4  107.99   10.70
  -7   5   4   98.39    8.70
   6  -5  -4   65.99    6.60
  -6  -5   4   85.59    9.00
   6  -5  -4   80.09    8.40
  -6  -5   4   73.59    8.80
  -6   5   4   71.59    7.10
  -5  -5   4  146.39   10.30
   5  -5  -4  134.59   10.00
  -5  -5   4  129.59    9.90
   5  -5  -4  138.39    8.30
   5  -5  -4  129.79   10.10
  -5   5   4  143.49    7.00
  -5   5   4  153.48    8.50
  -4  -5   4  338.57   15.40
  -4  -5   4  334.07   16.80
  -4  -5   4  336.27   15.30
   4  -5  -4  344.07   13.90
   4  -5  -4  345.37   15.90
   4  -5  -4  316.27   14.90
   4  -5  -4  350.46   14.70
  -4   5   4  352.76   12.50
  -4   5   4  336.87   13.20
   3  -5  -4  526.55   18.70
  -3  -5   4  511.75   21.50
   3  -5  -4  519.35   19.50
  -3  -5   4  537.85   20.40
   3  -5  -4  554.54   19.70
  -3  -5   4  518.35   20.20
   3  -5  -4  535.25   21.40
  -3   5   4  533.05   17.80
  -3   5   4  532.85   17.80
  -2  -5   4  167.78    9.80
  -2  -5   4  165.88   10.90
   2  -5  -4  166.68    8.30
   2  -5  -4  146.59    9.10
  -2  -5   4  161.98    9.30
   2  -5  -4  160.78   10.60
   2  -5  -4  169.28    9.20
  -2   5   4  168.68    7.30
   1  -5  -4  248.08   11.60
  -1  -5   4  231.28   11.60
   1  -5  -4  237.28   10.10
  -1  -5   4  228.28   12.60
  -1  -5   4  234.68   11.40
   1  -5  -4  210.78   12.40
   1  -5  -4  239.88   10.60
  -1   5   4  234.48    8.30
   0  -5  -4   20.70    4.50
   0  -5   4   21.00    4.00
   0  -5   4   15.40    3.50
   0  -5  -4   22.80    3.70
   0  -5   4   10.20    3.90
   0  -5  -4    9.40    3.10
   0   5  -4   20.50    4.20
  -1  -5  -4    2.20    3.00
  -1  -5  -4    2.20    3.10
   1  -5   4    2.80    2.80
   1  -5   4    3.70    1.40
   1  -5   4    6.20    3.50
  -1  -5  -4    4.90    2.60
  -1   5  -4    2.80    2.40
   2  -5   4  148.29    6.20
  -2  -5  -4  145.59    7.30
   2  -5   4  150.68    9.20
  -2  -5  -4  123.69    9.90
  -2  -5  -4  155.08    9.60
   2  -5   4  132.99    9.70
  -2   5  -4  145.49    9.00
   3  -5   4   24.90    4.90
  -3  -5  -4   28.40    3.80
   3  -5   4   30.10    5.10
   3  -5   4   23.70    3.20
  -3  -5  -4   23.60    4.90
  -3  -5  -4   23.50    4.90
  -3   5  -4   23.60    4.30
  -4  -5  -4  263.87   10.00
  -4  -5  -4  246.08   13.90
   4  -5   4  246.88   13.60
   4  -5   4  257.37   10.60
  -4  -5  -4  248.78   13.80
  -4   5  -4  261.97   13.10
   5  -5   4  244.68   10.60
   5  -5   4  231.28   13.20
  -5  -5  -4  239.38   13.80
  -5  -5  -4  190.18   13.60
  -5   5  -4  237.08   12.70
   6  -5   4  339.27   17.10
  -6  -5  -4  350.96   19.10
  -6  -5  -4  357.36   17.60
   6  -5   4  357.86   14.60
  -6   5  -4  332.97   16.80
   5  -6  -4   13.20    3.70
   5  -6  -4   20.30    5.90
  -5  -6   4   16.80    5.40
  -5  -6   4   16.50    5.00
   5  -6  -4   11.60    5.50
  -5  -6   4    9.00    6.20
  -5   6   4   11.90    3.70
  -5   6   4   10.70    3.80
  -4  -6   4  848.82   30.10
  -4  -6   4  834.22   30.70
   4  -6  -4  875.61   30.20
  -4  -6   4  843.82   32.50
   4  -6  -4  842.82   28.20
   4  -6  -4  846.72   31.40
   4  -6  -4  866.11   29.80
  -4   6   4  829.12   26.90
  -4   6   4  818.32   27.30
  -3  -6   4  764.02   29.90
   3  -6  -4  754.12   29.40
   3  -6  -4  766.32   25.70
  -3  -6   4  757.22   27.60
  -3  -6   4  765.32   28.30
   3  -6  -4  781.82   27.50
   3  -6  -4  764.72   27.10
  -3   6   4  809.42   25.70
  -3   6   4  786.22   24.70
  -2  -6   4   96.89   10.00
   2  -6  -4  105.39    7.20
  -2  -6   4  105.09    8.70
   2  -6  -4  118.49    8.90
   2  -6  -4  108.29    8.40
   2  -6  -4  112.69   10.20
  -2  -6   4  112.39    8.60
  -2   6   4   98.39    6.00
   1  -6  -4   51.89    7.20
  -1  -6   4   58.99    8.50
  -1  -6   4   60.09    7.20
   1  -6  -4   64.29    6.60
   1  -6  -4   52.69    7.70
  -1  -6   4   59.39    7.30
   1   6  -4   58.59    6.90
  -1   6   4   67.39    4.20
   0  -6  -4  169.58    9.50
   0  -6  -4  164.18   10.70
   0  -6   4  168.28   10.60
   0  -6  -4  172.58   12.20
   0  -6   4  176.68   12.00
   0   6  -4  161.98   10.30
  -1  -6  -4 2163.88   61.09
  -1  -6  -4 2097.79   66.39
  -1  -6  -4 2070.69   64.19
   1  -6   4 2145.49   65.79
   1  -6   4 2090.19   64.19
  -1   6  -4 2110.29   64.19
  -2  -6  -4    5.10    3.80
   2  -6   4    6.50    3.70
   2  -6   4   13.60    2.50
   2  -6   4    6.50    4.20
  -2  -6  -4    3.70    4.00
  -2  -6  -4    9.90    4.50
  -2   6  -4    8.50    3.70
  -3  -6  -4  126.49    8.20
   3  -6   4  112.29    6.50
  -3  -6  -4  119.09   10.30
   3  -6   4  124.39   10.70
  -3  -6  -4  114.99   10.70
   3  -6   4  125.99    9.90
  -3   6  -4  128.29    9.40
  -4  -6  -4  204.38   14.00
  -4  -6  -4  203.68   13.70
   4  -6   4  206.48   13.70
   4  -6   4  214.48   13.30
   4  -6   4  215.98    9.60
  -4   6  -4  215.18   12.40
   5  -6   4 1021.40   37.70
  -5  -6  -4 1091.39   38.90
   5  -6   4 1073.09   33.30
  -5  -6  -4 1054.49   39.00
  -5   6  -4 1050.79   36.80
   2  -7  -4   88.79    9.70
   2  -7  -4   83.59    9.20
  -2  -7   4   72.79    9.40
  -2  -7   4   71.59    8.80
   2  -7  -4   90.09   10.70
  -2  -7   4   66.69    9.30
   1  -7  -4  166.38   10.80
   1  -7  -4  183.48   12.30
   1  -7  -4  181.78   13.70
  -1  -7   4  194.78   12.70
  -1  -7   4  174.28   13.40
   1   7  -4  165.08   11.60
   0  -7  -4   33.60    6.50
   0  -7  -4   34.00    5.50
   0  -7   4   25.40    6.40
   0  -7   4   31.30    6.70
   0  -7  -4   20.10    6.90
   0   7  -4   28.10    5.70
   1  -7   4   -2.70    4.70
  -1  -7  -4    1.20    4.50
  -1  -7  -4    4.20    4.70
   1  -7   4    3.00    4.50
  -1  -7  -4   -1.30    4.30
  -1   7  -4    0.40    3.80
   2  -7   4   55.89    8.20
   2  -7   4   42.70    8.20
  -2  -7  -4   49.90    6.30
  -2  -7  -4   58.79    8.70
  -2  -7  -4   38.80    7.80
  -2   7  -4   49.50    7.40
   9   0  -5   96.79    8.70
  -9   0   5   79.39    8.70
   9   0  -5  100.39    7.30
   8   0  -5    9.60    4.10
   8   0  -5    6.00    2.50
  -8   0   5    3.70    3.50
   7   0  -5   44.10    4.40
   7   0  -5   51.39    7.10
  -7   0   5   51.49    5.90
   6   0  -5   14.00    4.70
   6   0  -5   11.40    2.30
  -6   0   5    4.10    2.70
  -5   0   5    7.70    2.30
   5   0  -5    3.70    3.60
   5   0  -5    6.90    2.00
   4   0  -5  111.79    8.70
  -4   0   5   91.99    4.90
  -4   0   5   96.09    6.20
   4   0  -5  100.29    5.20
   3   0  -5  146.09    9.70
  -3   0   5  142.49    7.40
   3   0  -5  146.29    4.90
   3   0  -5  158.28    6.50
   2   0  -5  399.86   16.80
   2   0  -5  406.66   13.30
   2   0  -5  404.36   12.50
  -2   0   5  412.76   14.40
   1   0  -5 1834.72   54.69
  -1   0   5 1763.82   51.89
   1   0  -5 1821.92   50.59
   0   0  -5   47.90    2.30
   0   0  -5   46.50    5.50
   0   0   5   46.90    3.90
   0   0  -5   46.10    4.00
  -1   0  -5  117.09    6.60
   1   0   5  119.39    4.90
   1   0   5  117.19    6.10
  -1   0  -5  114.69    5.30
  -1   0  -5  115.09    7.40
   2   0   5   76.19    3.80
  -2   0  -5   92.69    6.40
  -2   0  -5   80.59    5.90
   2   0   5   78.09    5.10
  -3   0  -5 2011.70   58.89
  -3   0  -5 2083.79   60.09
   3   0   5 2017.20   56.19
  -4   0  -5  931.61   29.20
  -4   0  -5  955.10   31.40
   4   0   5  947.91   27.60
  -5   0  -5   61.39    4.90
  -5   0  -5   63.79    6.30
  -6   0  -5  558.84   18.30
  -6   0  -5  553.94   22.10
  -7   0  -5  675.93   26.50
  -8   0  -5  565.94   24.00
   9  -1  -5  135.09   10.40
   9  -1  -5  142.69    8.90
  -9  -1   5  143.99   10.70
  -9   1   5  140.09   10.40
   9   1  -5  144.29   10.90
   9   1  -5  141.89    8.30
   8  -1  -5  525.15   19.00
  -8  -1   5  458.25   19.30
   8  -1  -5  462.85   17.40
   8   1  -5  446.66   16.50
  -8   1   5  426.76   18.70
   7  -1  -5   91.89    8.20
  -7  -1   5   87.29    7.40
   7  -1  -5  100.29    6.30
   7   1  -5   87.09    5.60
  -7   1   5   75.39    7.00
   6  -1  -5 1443.86   42.90
  -6  -1   5 1407.56   44.60
   6  -1  -5 1497.25   45.80
  -6   1   5 1420.96   44.20
   6   1  -5 1479.65   42.10
   5  -1  -5 1955.00   60.99
   5  -1  -5 2054.89   57.89
  -5  -1   5 1962.10   59.39
  -5  -1   5 2077.19   57.59
   5   1  -5 2041.90   56.89
  -5   1   5 2047.10   58.99
  -4  -1   5  301.97   10.40
   4  -1  -5  295.17   11.10
  -4  -1   5  293.07   12.30
   4  -1  -5  289.67   14.20
  -4   1   5  299.57   11.90
   4   1  -5  295.57   10.40
   4   1  -5  300.67    9.90
  -3  -1   5  184.08    8.80
  -3  -1   5  187.78    6.60
   3  -1  -5  162.48   10.30
   3  -1  -5  187.28    7.70
  -3   1   5  172.18    8.00
   3   1  -5  177.28    6.90
   3   1  -5  183.78    6.80
  -3   1   5  188.48    6.20
  -2  -1   5   88.29    6.00
   2  -1  -5  104.19    5.20
   2  -1  -5  104.49    7.90
  -2  -1   5   95.29    3.70
   2   1  -5   96.99    4.50
  -2   1   5   91.59    5.30
   2   1  -5   85.89    4.40
  -1  -1   5 4959.60  136.19
   1  -1  -5 5026.50  134.79
   1  -1  -5 4899.71  133.49
   1  -1  -5 4840.42  138.49
  -1   1   5 4931.51  134.89
   1   1  -5 4881.31  134.29
  -1   1   5 5023.80  133.49
   0  -1   5  145.49    7.50
   0  -1  -5  164.28    5.30
   0  -1  -5  143.09    6.70
   0  -1  -5  148.99    8.90
   0  -1   5  153.68    7.00
   0   1   5  151.08    6.70
   0   1  -5  144.09    6.60
   0   1  -5  153.58    5.80
  -1  -1  -5   19.30    3.30
  -1  -1  -5   27.90    4.60
   1  -1   5   17.70    3.10
   1  -1   5   23.20    3.10
  -1   1  -5   23.10    3.50
   1   1   5   24.60    2.90
   2  -1   5  958.80   28.60
  -2  -1  -5 1009.60   31.20
   2  -1   5  971.20   30.00
  -2  -1  -5  843.52   30.30
  -2   1  -5  967.40   31.10
  -2   1  -5  989.30   30.40
   2   1   5 1015.10   28.60
  -3  -1  -5 1448.96   46.60
   3  -1   5 1540.65   44.00
  -3  -1  -5 1505.55   45.60
  -3   1  -5 1553.14   45.60
  -3   1  -5 1587.04   46.30
   4  -1   5   76.79    5.30
  -4  -1  -5   70.09    6.70
  -4  -1  -5   83.09    5.90
  -4   1  -5   80.29    5.60
  -4   1  -5   81.99    6.60
  -5  -1  -5  173.48   10.60
   5  -1   5  176.18    8.50
  -5  -1  -5  159.48    8.50
  -5   1  -5  172.48    7.80
  -5   1  -5  165.98    9.90
  -6  -1  -5  461.95   20.10
   6  -1   5  485.75   17.40
  -6  -1  -5  478.25   17.00
  -6   1  -5  491.55   15.40
  -6   1  -5  434.26   19.00
  -7  -1  -5   15.20    4.80
  -7  -1  -5   25.10    4.10
  -7   1  -5   19.90    4.80
  -8  -1  -5   28.90    6.50
  -8   1  -5   23.60    5.50
  -8  -2   5   -5.50    3.50
  -8  -2   5    0.80    3.90
   8  -2  -5   -1.70    2.60
   8  -2  -5   -1.00    4.20
  -8   2   5    1.40    3.10
   8   2  -5    2.80    2.40
  -7  -2   5  120.19    8.80
  -7  -2   5  109.19    7.80
   7  -2  -5  114.89    8.80
   7  -2  -5   97.39    6.90
   7   2  -5   94.99    5.80
  -7   2   5  109.39    7.90
   6  -2  -5    2.60    2.00
  -6  -2   5    4.10    3.00
  -6  -2   5    2.00    3.00
   6  -2  -5    0.70    3.50
  -6   2   5    1.40    2.10
   6   2  -5    2.10    1.80
  -5  -2   5   37.60    5.10
   5  -2  -5   45.70    6.60
   5  -2  -5   45.70    4.20
  -5  -2   5   39.10    4.60
  -5   2   5   42.10    4.50
   5   2  -5   41.80    3.40
  -4  -2   5   17.30    3.40
   4  -2  -5   11.80    2.30
  -4  -2   5   20.10    3.20
   4  -2  -5   15.70    4.50
   4   2  -5   17.80    2.40
  -4   2   5   20.50    3.30
   3  -2  -5   88.79    5.30
   3  -2  -5   78.79    7.70
  -3  -2   5   90.09    5.00
  -3  -2   5   91.99    6.60
  -3   2   5   87.69    5.30
   3   2  -5   87.49    4.10
   2  -2  -5  125.39    5.20
  -2  -2   5  119.99    5.50
   2  -2  -5  116.89    6.10
  -2  -2   5  124.99    7.40
   2  -2  -5  120.39    8.80
  -2   2   5  120.09    4.40
  -2   2   5  114.29    5.90
  -2   2   5  122.99    5.20
   2   2  -5  127.69    6.20
  -1  -2   5 1436.16   42.20
   1  -2  -5 1337.27   40.40
  -1  -2   5 1381.96   39.50
   1  -2  -5 1407.36   43.90
   1  -2  -5 1427.66   38.90
  -1   2   5 1389.76   39.80
   1   2  -5 1370.66   40.50
   0  -2   5  198.78    9.10
   0  -2  -5  186.48   10.30
   0  -2   5  181.88    7.60
   0  -2  -5  193.88    7.30
   0  -2   5  179.78    9.20
   0  -2  -5  208.98    8.10
   0   2  -5  192.18    8.30
   0   2   5  201.18    7.50
   0   2   5  189.98    7.20
  -1  -2  -5  249.78    9.20
   1  -2   5  222.18    9.90
  -1  -2  -5  237.28   10.00
   1  -2   5  237.68   10.60
  -1  -2  -5  231.78   11.40
   1   2   5  237.08    8.30
  -1   2  -5  222.58    9.80
  -2  -2  -5  137.09    7.10
  -2  -2  -5  137.49    8.00
  -2  -2  -5  134.89    8.30
   2  -2   5  137.99    7.40
   2  -2   5  140.39    7.80
  -2  -2  -5  138.59    5.60
  -2   2  -5  134.69    7.50
  -3  -2  -5 2332.67   66.89
   3  -2   5 2299.77   65.39
  -3  -2  -5 2157.78   67.19
  -3   2  -5 2372.66   66.89
  -4  -2  -5  820.42   27.20
   4  -2   5  843.72   26.50
  -4  -2  -5  739.83   28.30
  -4   2  -5  847.42   26.60
  -4   2  -5  821.12   27.80
   5  -2   5    7.60    3.20
  -5  -2  -5   13.50    4.50
  -5  -2  -5    5.90    3.20
  -5   2  -5    7.80    2.80
  -5   2  -5    9.60    3.40
  -6  -2  -5  389.86   18.60
  -6  -2  -5  387.86   15.60
  -6   2  -5  379.56   17.10
  -6   2  -5  384.96   12.80
  -7  -2  -5  477.05   22.20
  -7  -2  -5  484.05   18.30
  -7  -2  -5  520.95   17.80
   7  -2   5  447.06   18.90
   7  -2   5  493.55   19.10
  -7   2  -5  444.96   20.00
   8  -2   5  372.66   17.10
  -8  -2  -5  371.56   20.00
  -8  -2  -5  400.46   15.60
  -8   2  -5  375.06   18.20
  -8  -3   5  400.46   18.40
  -8  -3   5  385.76   17.70
   8  -3  -5  401.66   16.60
   8  -3  -5  391.76   16.40
   8   3  -5  380.56   13.90
  -8   3   5  389.26   17.30
  -7  -3   5   75.69    7.60
   7  -3  -5   66.39    6.40
  -7  -3   5   84.89    8.40
   7  -3  -5   90.69    7.80
   7   3  -5   73.89    5.00
  -7   3   5   66.59    6.90
  -6  -3   5 1163.78   35.40
  -6  -3   5 1053.19   36.30
   6  -3  -5 1129.99   36.20
   6  -3  -5 1075.69   34.50
  -6   3   5 1070.29   35.00
   6   3  -5 1112.79   31.80
   5  -3  -5 1666.33   49.50
  -5  -3   5 1592.84   47.40
  -5  -3   5 1550.34   48.80
   5  -3  -5 1559.94   46.90
  -5   3   5 1528.55   47.00
   5   3  -5 1574.04   44.00
   4  -3  -5  194.58   11.50
  -4  -3   5  219.38    9.70
   4  -3  -5  209.28    9.50
  -4  -3   5  197.58   10.70
  -4   3   5  213.78    9.50
   4   3  -5  215.08    7.10
   3  -3  -5  177.18    7.70
  -3  -3   5  155.58    9.00
   3  -3  -5  161.58    7.80
   3  -3  -5  161.48   10.40
  -3  -3   5  162.98    7.90
  -3  -3   5  159.38    5.90
  -3   3   5  152.58    7.40
  -2  -3   5   74.99    6.20
   2  -3  -5   49.30    4.40
  -2  -3   5   68.59    3.10
   2  -3  -5   68.39    4.60
  -2  -3   5   66.09    4.80
   2  -3  -5   60.49    7.10
  -2   3   5   65.59    4.30
   2   3  -5   62.49    5.10
   1  -3  -5 3837.72  109.49
  -1  -3   5 3957.60  111.49
  -1  -3   5 3986.50  106.69
   1  -3  -5 4066.29  113.19
  -1  -3   5 3996.30  111.49
  -1  -3   5 3905.81  109.29
   1  -3  -5 3952.80  108.59
   1   3  -5 4032.80  110.19
  -1   3   5 3903.51  108.09
   0  -3  -5   97.29    5.60
   0  -3   5   91.49    5.80
   0  -3  -5   96.19    7.70
   0  -3   5   94.89    7.00
   0  -3   5   94.19    7.10
   0   3   5   97.99    4.50
   0   3  -5   96.59    6.30
   1  -3   5   12.40    3.30
  -1  -3  -5    9.40    3.40
  -1  -3  -5   10.70    3.10
  -1  -3  -5   11.80    2.90
   1  -3   5   13.70    2.90
   1  -3   5   18.10    3.50
   1   3   5   16.00    1.90
  -1   3  -5   22.10    3.80
  -2  -3  -5  668.03   23.30
  -2  -3  -5  699.83   24.70
  -2  -3  -5  678.33   22.70
   2  -3   5  678.53   23.40
  -2   3  -5  687.23   23.20
  -3  -3  -5 1096.69   35.30
  -3  -3  -5 1163.28   36.70
   3  -3   5 1119.69   35.40
  -3   3  -5 1130.39   35.80
  -4  -3  -5   72.59    6.60
  -4  -3  -5   73.39    7.60
   4  -3   5   57.19    6.10
  -4  -3  -5   84.89    7.30
  -4   3  -5   72.89    6.50
  -5  -3  -5  134.79    9.10
   5  -3   5  131.79    8.10
  -5  -3  -5  134.29   10.50
   5  -3   5  139.89    8.90
  -5   3  -5  129.79    9.20
   6  -3   5  419.76   17.40
   6  -3   5  424.86   16.80
  -6  -3  -5  393.66   20.10
  -6  -3  -5  414.26   17.30
  -6   3  -5  424.66   14.40
  -6   3  -5  424.16   18.60
   7  -3   5   19.20    4.40
   7  -3   5   15.50    4.90
  -7  -3  -5   20.20    6.10
  -7  -3  -5    8.10    4.30
  -7   3  -5    7.80    4.10
  -7  -4   5   42.80    7.00
   7  -4  -5   39.40    6.30
   7  -4  -5   41.70    5.80
  -7  -4   5   34.10    6.70
  -7   4   5   45.90    6.30
  -6  -4   5    1.20    3.80
  -6  -4   5    6.00    3.70
   6  -4  -5    7.80    4.40
   6  -4  -5    7.70    3.10
  -6   4   5    4.60    2.90
  -5  -4   5    5.70    3.20
   5  -4  -5    7.30    2.70
   5  -4  -5    5.40    3.80
  -5  -4   5   15.90    4.00
  -5   4   5    6.60    2.80
   4  -4  -5   35.50    4.60
  -4  -4   5   41.30    5.40
  -4  -4   5   36.00    5.60
   4  -4  -5   48.40    6.90
  -4   4   5   41.90    4.50
  -4   4   5   41.70    3.00
   3  -4  -5  107.99    6.60
  -3  -4   5  103.89    8.00
   3  -4  -5  102.59    6.90
  -3  -4   5   95.29    8.50
  -3  -4   5  106.09    7.10
   3  -4  -5  104.39    8.80
  -3   4   5   98.09    5.90
  -3   4   5   97.49    5.00
  -2  -4   5  222.88   11.50
   2  -4  -5  222.98    9.80
   2  -4  -5  209.58   12.30
   2  -4  -5  230.28    9.90
  -2  -4   5  208.88   10.10
  -2  -4   5  222.08   11.90
  -2   4   5  218.48    8.60
   2   4  -5  221.68   10.40
   1  -4  -5  966.00   30.00
  -1  -4   5  980.10   32.20
  -1  -4   5  953.60   30.60
   1  -4  -5  948.51   30.00
  -1  -4   5  987.70   32.80
   1  -4  -5  945.91   33.50
   1   4  -5  975.00   31.10
  -1   4   5  976.90   28.10
   0  -4   5   35.80    2.40
   0  -4  -5   34.80    5.90
   0  -4   5   29.60    4.20
   0  -4   5   31.20    4.90
   0  -4   5   31.80    5.10
   0  -4  -5   36.00    5.00
   0  -4  -5   39.50    4.00
   0   4   5   33.40    2.70
   0   4  -5   32.40    4.50
   1  -4   5   63.69    3.80
  -1  -4  -5   50.29    6.70
  -1  -4  -5   52.69    5.80
   1  -4   5   61.79    6.60
   1  -4   5   61.29    6.20
   1  -4   5   57.89    5.70
  -1   4  -5   56.89    5.40
   2  -4   5   45.10    5.20
   2  -4   5   45.90    6.30
  -2  -4  -5   38.00    6.10
   2  -4   5   51.79    4.20
  -2  -4  -5   43.80    5.70
  -2   4  -5   50.19    5.20
   3  -4   5 1235.38   35.90
  -3  -4  -5 1179.98   38.30
  -3  -4  -5 1181.08   39.90
   3  -4   5 1208.28   38.80
  -3   4  -5 1222.58   38.80
   4  -4   5  425.76   17.30
   4  -4   5  542.25   20.60
  -4  -4  -5  528.85   21.20
  -4  -4  -5  527.45   20.70
  -4   4  -5  542.15   20.40
  -5  -4  -5   33.20    5.80
   5  -4   5   38.50    5.20
  -5  -4  -5   41.70    7.70
  -5  -4  -5   31.20    6.10
   5  -4   5   34.40    5.70
  -5   4  -5   35.00    5.70
   6  -4   5  358.76   16.70
  -6  -4  -5  355.66   16.90
  -6  -4  -5  301.57   18.40
   6  -4   5  360.26   14.90
  -6  -4  -5  374.26   18.70
  -6   4  -5  352.16   17.00
  -7  -4  -5  392.36   21.00
  -6  -5   5  771.32   28.20
  -6  -5   5  755.12   29.20
   6  -5  -5  737.33   28.20
   6  -5  -5  737.53   26.40
  -6   5   5  765.22   26.40
   5  -5  -5 1072.19   36.60
   5  -5  -5 1045.70   33.90
  -5  -5   5 1001.20   35.00
  -5  -5   5 1058.19   36.30
  -5  -5   5 1057.29   38.20
  -5   5   5 1038.90   33.20
  -4  -5   5  158.48   10.80
   4  -5  -5  143.29    8.70
   4  -5  -5  160.38    9.60
  -4  -5   5  165.88   10.00
   4  -5  -5  147.19   11.30
  -4  -5   5  139.99   11.60
  -4   5   5  155.48    7.00
  -4   5   5  150.58    8.10
   3  -5  -5   86.59    6.50
  -3  -5   5   93.79    8.40
  -3  -5   5   68.59    8.60
   3  -5  -5   88.69    6.90
   3  -5  -5   91.79    7.50
  -3  -5   5   70.39    7.00
   3  -5  -5   67.69    8.60
  -3   5   5   80.89    5.60
  -2  -5   5   31.20    5.30
   2  -5  -5   36.80    4.90
   2  -5  -5   30.10    5.80
  -2  -5   5   34.60    5.00
   2  -5  -5   24.10    3.70
  -2  -5   5   21.70    5.70
   2  -5  -5   34.80    5.10
  -2   5   5   34.20    3.90
   2   5  -5   27.90    4.80
   1  -5  -5 2418.26   67.29
   1  -5  -5 2210.58   70.59
  -1  -5   5 2276.77   67.59
  -1  -5   5 2226.68   68.59
   1  -5  -5 2327.27   65.79
  -1  -5   5 2283.77   69.69
   1   5  -5 2285.37   67.99
  -1   5   5 2361.56   63.49
   0  -5   5   53.19    7.50
   0  -5   5   53.89    6.20
   0  -5  -5   56.79    7.80
   0  -5   5   61.99    6.90
   0  -5  -5   70.39    6.50
   0  -5  -5   59.69    5.50
   0   5  -5   61.09    6.30
  -1  -5  -5   14.10    4.50
   1  -5   5   25.10    2.80
   1  -5   5   23.40    4.30
  -1  -5  -5   26.40    3.60
   1  -5   5   17.50    4.30
  -1  -5  -5   22.70    4.60
  -1   5  -5   21.90    4.10
   2  -5   5  476.15   20.60
  -2  -5  -5  517.35   20.10
  -2  -5  -5  518.15   15.80
   2  -5   5  523.45   16.00
   2  -5   5  518.25   20.10
  -2  -5  -5  480.85   21.60
  -2   5  -5  487.35   19.70
  -3  -5  -5  701.13   27.20
  -3  -5  -5  669.33   25.30
   3  -5   5  710.33   21.70
   3  -5   5  651.73   25.80
   3  -5   5  686.33   25.50
  -3   5  -5  675.23   25.20
  -4  -5  -5   24.10    5.90
   4  -5   5   34.70    5.70
   4  -5   5   31.00    4.10
  -4  -5  -5   34.60    6.10
  -4   5  -5   32.40    5.60
  -5  -5  -5   67.59    9.20
   5  -5   5   55.99    6.30
   5  -5   5   46.50    7.00
  -5  -5  -5   63.99    9.30
  -5   5  -5   70.39    7.90
   4  -6  -5    4.60    4.90
  -4  -6   5    5.30    4.60
   4  -6  -5    5.80    4.20
   4  -6  -5    3.20    4.40
  -4  -6   5    4.00    4.10
   4  -6  -5   13.70    3.80
  -4  -6   5    4.10    5.60
  -4   6   5    1.20    2.90
  -3  -6   5   49.70    7.60
  -3  -6   5   54.99    7.40
   3  -6  -5   48.00    6.40
   3  -6  -5   53.39    6.00
   3  -6  -5   50.19    6.50
  -3  -6   5   42.70    7.90
   3  -6  -5   57.59    8.80
  -3   6   5   52.69    5.50
  -3   6   5   52.59    6.00
  -2  -6   5   59.79    8.30
   2  -6  -5   68.29    7.70
  -2  -6   5   66.99    8.00
   2  -6  -5   66.59    7.40
   2  -6  -5   59.89    9.00
  -2  -6   5   68.99    7.80
   2  -6  -5   71.29    6.60
   2   6  -5   53.49    7.30
  -2   6   5   70.59    5.20
   1  -6  -5  507.65   19.90
   1  -6  -5  493.05   18.10
   1  -6  -5  462.95   22.40
  -1  -6   5  501.15   20.20
  -1  -6   5  489.85   22.20
  -1  -6   5  479.25   20.60
   1   6  -5  494.65   20.30
   0  -6   5   64.19    7.80
   0  -6   5   53.99    7.90
   0  -6  -5   45.00    7.50
   0  -6  -5   56.99    7.60
   0  -6  -5   51.99    6.60
   0  -6   5   51.49    7.00
   0   6  -5   51.29    6.80
   1  -6   5   41.50    6.20
  -1  -6  -5   57.89    6.60
  -1  -6  -5   44.50    7.70
  -1  -6  -5   66.59    7.80
   1  -6   5   61.59    8.70
  -1   6  -5   47.50    6.70
   2  -6   5   39.90    6.10
   2  -6   5   57.09    8.00
  -2  -6  -5   57.29    9.20
  -2  -6  -5   45.40    6.90
  -2   6  -5   29.30    5.40
  -3  -6  -5  871.81   33.70
   3  -6   5  870.91   31.70
  -3  -6  -5  859.71   31.70
   3  -6   5  930.81   33.10
   3  -6   5  799.82   27.80
  -3   6  -5  875.91   31.50
  -4  -6  -5  323.07   17.50
   4  -6   5  354.26   13.20
   4  -6   5  304.17   17.50
  -4  -6  -5  320.47   18.30
  -4   6  -5  320.77   16.50
  -8   0   6  474.25   20.00
   8   0  -6  458.65   17.30
   8   0  -6  473.65   20.20
  -7   0   6  873.21   30.40
   7   0  -6  857.01   27.90
   7   0  -6  914.01   31.70
   6   0  -6  117.69    9.60
   6   0  -6  126.29    6.80
  -6   0   6  121.59    8.20
  -5   0   6  133.59    8.10
   5   0  -6  132.99    6.80
   5   0  -6  151.98   10.30
   4   0  -6   34.50    5.70
   4   0  -6   26.30    3.40
  -4   0   6   32.60    4.20
   3   0  -6 1882.81   50.29
   3   0  -6 1835.92   57.09
   3   0  -6 1856.91   52.49
  -3   0   6 1797.82   53.99
   2   0  -6  100.39    5.40
   2   0  -6   93.59    4.90
  -2   0   6   92.29    6.20
   2   0  -6  107.39    8.60
   1   0  -6   13.10    4.20
  -1   0   6   20.60    3.40
   1   0  -6   13.10    2.70
   0   0  -6  713.53   22.10
   0   0   6  676.33   22.50
   0   0  -6  674.53   24.80
  -1   0  -6   85.79    4.80
  -1   0  -6   96.89    6.30
   1   0   6   85.39    4.50
  -1   0  -6   91.69    7.30
   1   0   6   82.19    5.70
   2   0   6  485.55   14.60
  -2   0  -6  490.65   17.70
  -2   0  -6  477.35   18.40
   2   0   6  449.26   16.60
   3   0   6  394.46   12.40
  -3   0  -6  400.36   16.10
  -3   0  -6  384.56   15.50
   4   0   6  142.79    6.30
  -4   0  -6  147.39    9.20
  -4   0  -6  146.59    8.40
  -5   0  -6  449.06   16.60
  -5   0  -6  451.05   18.80
  -6   0  -6  268.47   11.70
  -6   0  -6  278.67   14.50
  -7   0  -6  490.75   21.80
   8  -1  -6   64.79    6.30
  -8  -1   6   61.19    7.80
  -8  -1   6   71.59    7.50
   8  -1  -6   57.59    8.00
  -8   1   6   63.89    7.70
   7  -1  -6  181.08    9.20
   7  -1  -6  181.78   11.40
  -7  -1   6  183.78    9.70
  -7  -1   6  174.38   10.90
   7   1  -6  179.48    8.50
  -7   1   6  185.08   10.60
   6  -1  -6   26.40    5.40
  -6  -1   6   20.00    4.50
  -6  -1   6   18.20    3.70
   6  -1  -6   23.20    3.60
  -6   1   6   30.40    4.80
   6   1  -6   25.00    3.30
   6   1  -6   26.70    3.50
  -5  -1   6   33.10    4.90
   5  -1  -6   31.70    4.00
   5  -1  -6   37.50    6.10
  -5  -1   6   30.90    3.90
  -5   1   6   30.20    4.50
   5   1  -6   29.30    3.60
   5   1  -6   33.40    3.20
   4  -1  -6  143.89   10.00
   4  -1  -6  142.79    7.10
  -4  -1   6  142.09    8.30
  -4  -1   6  138.59    5.80
  -4   1   6  141.09    7.70
  -4   1   6  140.59    5.40
   4   1  -6  142.79    6.50
   4   1  -6  145.29    5.80
   3  -1  -6 3086.19   86.99
   3  -1  -6 3117.59   91.79
  -3  -1   6 3172.58   89.09
  -3   1   6 3155.18   87.99
   3   1  -6 3072.19   86.09
   3   1  -6 3137.89   85.49
   2  -1  -6   13.20    1.70
  -2  -1   6   15.90    3.30
   2  -1  -6   11.60    4.00
   2  -1  -6   11.70    2.30
  -2   1   6   13.30    2.70
   2   1  -6   13.20    2.30
  -1  -1   6   67.69    5.70
   1  -1  -6   59.39    6.90
   1  -1  -6   63.79    3.90
   1   1  -6   62.09    4.40
  -1   1   6   65.59    4.80
   0  -1  -6   31.50    5.70
   0  -1   6   29.10    4.20
   0  -1  -6   26.90    3.70
   0  -1   6   30.40    3.90
   0   1  -6   26.50    3.10
   0   1  -6   30.60    3.90
   0   1   6   27.70    3.60
   1  -1   6 3205.98   90.49
  -1  -1  -6 3270.37   92.59
   1  -1   6 3197.48   88.79
  -1  -1  -6 3067.79   89.99
  -1  -1  -6 3285.37   87.69
   1   1   6 3265.07   86.39
  -1   1  -6 3200.28   89.89
   1   1   6 3122.59   88.79
   2  -1   6  821.32   25.20
  -2  -1  -6  779.32   27.40
  -2  -1  -6  847.32   28.50
   2  -1   6  860.11   27.20
   2   1   6  836.92   25.50
  -2   1  -6  816.82   28.00
  -2   1  -6  817.12   27.00
  -3  -1  -6   71.19    6.50
  -3  -1  -6   68.09    6.90
   3  -1   6   70.29    5.00
  -3   1  -6   69.59    6.30
  -3   1  -6   70.69    6.20
  -4  -1  -6 1139.99   37.50
   4  -1   6 1134.69   33.60
  -4  -1  -6 1118.69   35.60
  -4   1  -6 1109.19   35.10
  -4   1  -6 1125.79   36.60
  -5  -1  -6  493.25   21.10
   5  -1   6  542.35   17.90
  -5  -1  -6  513.25   18.90
  -5   1  -6  498.95   20.20
  -5   1  -6  506.95   18.10
   6  -1   6  474.45   16.90
  -6  -1  -6  437.86   17.20
  -6  -1  -6  469.45   20.50
  -6   1  -6  439.76   15.90
  -6   1  -6  445.56   19.30
  -7  -1  -6  265.47   12.10
  -7  -1  -6  268.97   15.50
  -7   1  -6  249.88   14.10
  -8  -2   6  523.15   22.20
  -8  -2   6  528.35   20.40
   8  -2  -6  522.45   19.90
   8  -2  -6  549.85   21.50
   8   2  -6  513.45   18.10
  -8   2   6  524.25   21.40
   7  -2  -6 1001.10   33.70
   7  -2  -6  961.10   31.50
  -7  -2   6  948.81   33.60
  -7  -2   6 1008.50   31.60
  -7   2   6  985.50   32.90
   7   2  -6  934.31   29.50
   6  -2  -6  118.59    7.30
  -6  -2   6  126.09    7.60
  -6  -2   6  122.99    9.00
   6  -2  -6  116.89    9.80
  -6   2   6  121.39    8.00
   6   2  -6  117.49    6.30
  -5  -2   6   40.30    5.60
   5  -2  -6   47.80    7.20
  -5  -2   6   39.30    4.70
   5  -2  -6   43.00    4.60
   5   2  -6   44.40    3.80
  -5   2   6   47.90    5.10
   4  -2  -6    9.20    4.30
   4  -2  -6    8.50    2.30
  -4  -2   6   14.00    3.40
  -4  -2   6   14.50    2.70
   4   2  -6   15.00    2.30
   4   2  -6   15.30    2.90
  -4   2   6   11.30    2.60
   3  -2  -6 1207.28   37.70
  -3  -2   6 1302.17   36.30
  -3  -2   6 1305.57   40.00
   3  -2  -6 1157.38   41.80
   3   2  -6 1270.77   37.00
  -3   2   6 1294.07   38.10
  -3   2   6 1313.27   35.30
  -2  -2   6  197.78   10.20
   2  -2  -6  194.48   12.10
  -2  -2   6  202.28    7.60
   2  -2  -6  205.38    8.90
  -2   2   6  197.68    6.60
   2   2  -6  198.38    8.50
  -2   2   6  202.38    8.80
   1  -2  -6    0.70    1.80
  -1  -2   6    1.70    2.70
   1  -2  -6    1.80    1.40
  -1  -2   6    1.40    1.60
   1  -2  -6    1.20    3.30
  -1  -2   6   -0.40    2.00
  -1   2   6    1.20    1.70
   1   2  -6    2.70    2.00
   0  -2   6  957.60   31.60
   0  -2  -6 1041.00   34.00
   0  -2  -6  986.30   29.60
   0  -2   6  999.00   31.00
   0  -2  -6  972.60   28.10
   0   2  -6  945.71   30.10
   0   2   6  957.60   28.20
   0   2   6  986.20   29.30
  -1  -2  -6   50.79    4.30
   1  -2   6   54.79    5.30
   1  -2   6   55.49    5.50
  -1  -2  -6   43.80    4.90
  -1  -2  -6   43.40    6.10
  -1   2  -6   41.90    4.60
   1   2   6   49.30    3.80
  -2  -2  -6  238.08   12.00
  -2  -2  -6  211.98    9.30
   2  -2   6  225.68   10.70
   2  -2   6  215.48    9.80
  -2  -2  -6  217.78   10.90
  -2   2  -6  181.38    9.90
   3  -2   6  210.68    9.80
  -3  -2  -6  178.48   10.70
  -3  -2  -6  206.88   11.10
  -3   2  -6  216.48   10.70
  -4  -2  -6   69.79    7.90
  -4  -2  -6   62.19    6.40
   4  -2   6   83.99    6.50
  -4   2  -6   86.89    7.20
  -4   2  -6   70.89    6.50
  -5  -2  -6  281.17   12.90
  -5  -2  -6  255.07   14.70
   5  -2   6  270.47   12.10
  -5   2  -6  267.47   11.60
  -5   2  -6  248.58   13.40
   6  -2   6  226.68   11.30
  -6  -2  -6  240.58   12.00
  -6  -2  -6  224.28   14.50
  -6   2  -6  229.78   10.00
  -6   2  -6  222.88   12.80
   7  -2   6  538.25   21.00
  -7  -2  -6  563.44   25.30
  -7  -2  -6  558.74   20.80
  -7   2  -6  557.64   23.20
  -7  -3   6  153.08   11.40
  -7  -3   6  172.38   10.30
   7  -3  -6  150.68   11.30
   7  -3  -6  155.38    9.50
  -7   3   6  160.68   10.00
   7   3  -6  162.78    7.60
  -6  -3   6   16.10    4.80
   6  -3  -6   13.50    5.00
  -6  -3   6   17.30    4.20
   6  -3  -6   19.00    3.80
   6   3  -6   15.20    2.60
  -6   3   6   15.80    3.70
   5  -3  -6   23.20    3.80
   5  -3  -6   27.50    5.90
  -5  -3   6   36.30    4.90
  -5  -3   6   20.80    4.40
   5   3  -6   25.60    3.10
  -5   3   6   26.10    4.00
   4  -3  -6  119.39    7.20
  -4  -3   6  127.39    7.10
  -4  -3   6  120.29    8.50
   4  -3  -6  110.79    9.90
   4   3  -6  120.59    7.30
  -4   3   6  124.09    7.10
   3  -3  -6 2377.36   70.29
  -3  -3   6 2402.16   69.39
   3  -3  -6 2405.06   74.69
  -3  -3   6 2525.25   73.09
  -3   3   6 2492.65   69.79
   3   3  -6 2572.44   70.39
   2  -3  -6    6.80    3.80
   2  -3  -6   14.00    2.70
  -2  -3   6    5.90    2.90
  -2  -3   6    9.00    2.60
  -2  -3   6    7.90    3.50
   2  -3  -6    6.80    2.50
  -2   3   6    8.80    2.40
   2   3  -6    3.10    2.60
   1  -3  -6   46.40    6.90
   1  -3  -6   36.20    3.90
  -1  -3   6   39.10    5.50
  -1  -3   6   33.50    4.10
  -1  -3   6   33.90    5.00
  -1   3   6   30.40    3.70
   1   3  -6   31.00    4.50
   0  -3   6   24.90    3.70
   0  -3  -6   23.80    3.50
   0  -3  -6   27.10    5.10
   0  -3   6   17.50    4.10
   0  -3   6   24.00    4.50
   0   3  -6   29.80    4.40
   0   3   6   26.40    3.20
   0   3   6   23.80    3.30
  -1  -3  -6 2355.76   72.19
  -1  -3  -6 2478.95   67.99
   1  -3   6 2371.56   69.89
   1  -3   6 2358.16   70.39
   1  -3   6 2350.76   68.29
  -1  -3  -6 2444.46   68.89
   1   3   6 2414.16   65.79
  -1   3  -6 2396.46   69.39
  -2  -3  -6  584.14   21.60
  -2  -3  -6  629.74   20.60
   2  -3   6  593.14   22.10
   2  -3   6  574.04   21.30
  -2  -3  -6  580.94   23.00
  -2   3  -6  607.94   21.40
  -3  -3  -6   36.80    5.80
   3  -3   6   37.70    5.40
  -3  -3  -6   42.80    5.60
  -3  -3  -6   48.60    6.40
  -3   3  -6   44.30    5.50
   4  -3   6  937.11   30.50
  -4  -3  -6  949.90   32.00
  -4  -3  -6  917.31   30.60
  -4  -3  -6  825.72   32.10
  -4   3  -6  911.41   31.30
  -5  -3  -6  391.16   17.60
  -5  -3  -6  327.07   18.30
  -5  -3  -6  391.46   17.20
   5  -3   6  388.66   16.20
  -5   3  -6  390.36   15.50
  -5   3  -6  402.36   17.60
   6  -3   6  373.66   15.90
   6  -3   6  360.76   16.10
  -6  -3  -6  333.37   19.20
  -6  -3  -6  363.76   16.60
  -6   3  -6  370.06   17.60
  -7  -3  -6  199.98   15.50
   7  -3   6  206.18   12.10
   7  -3   6  210.78   12.70
  -7   3  -6  194.68   13.10
  -6  -4   6   82.39    8.90
   6  -4  -6   70.49    6.80
  -6  -4   6   70.59    7.70
   6  -4  -6   90.99    9.50
  -6   4   6   69.09    6.90
  -5  -4   6   95.29    9.00
   5  -4  -6  108.69    7.50
   5  -4  -6   90.39    9.60
  -5  -4   6   82.79    7.30
  -5   4   6   86.99    6.70
   4  -4  -6   29.70    4.40
   4  -4  -6   27.90    5.90
  -4  -4   6   17.40    4.60
  -4  -4   6   31.90    4.80
  -4   4   6   18.10    3.40
  -3  -4   6 1063.79   36.30
  -3  -4   6 1113.39   33.90
   3  -4  -6 1058.19   33.80
  -3  -4   6 1005.60   36.30
   3  -4  -6 1151.08   33.10
   3  -4  -6 1087.59   38.20
   3   4  -6 1044.70   34.10
  -3   4   6 1064.29   32.60
  -3   4   6 1092.89   30.40
   2  -4  -6   62.09    5.60
  -2  -4   6   61.69    5.80
   2  -4  -6   58.09    7.80
   2  -4  -6   52.59    5.20
  -2  -4   6   45.70    6.60
  -2  -4   6   52.19    7.30
   2   4  -6   57.89    5.70
  -2   4   6   54.89    4.70
   1  -4  -6    1.40    3.60
  -1  -4   6    6.60    3.60
  -1  -4   6   -2.70    3.20
   1  -4  -6    3.50    2.80
  -1  -4   6    1.90    2.70
   1   4  -6    2.50    2.70
  -1   4   6    1.80    2.00
   0  -4   6  438.96   16.80
   0  -4  -6  451.75   20.30
   0  -4   6  445.96   18.70
   0  -4  -6  468.05   16.60
   0  -4   6  429.36   18.50
   0   4  -6  464.25   17.60
   0   4   6  454.35   13.90
   1  -4   6   47.00    6.20
  -1  -4  -6   39.80    6.80
   1  -4   6   43.00    5.60
   1  -4   6   37.80    5.60
  -1  -4  -6   44.30    5.70
  -1   4  -6   40.40    5.20
   2  -4   6  256.47   10.40
  -2  -4  -6  257.57   12.20
  -2  -4  -6  256.17   14.30
   2  -4   6  237.68   12.90
  -2   4  -6  268.07   12.70
  -3  -4  -6  192.78   12.70
   3  -4   6  212.18   11.90
  -3  -4  -6  212.58   11.40
   3  -4   6  214.58    9.80
  -3   4  -6  218.78   11.70
  -4  -4  -6   97.59    9.80
  -4  -4  -6   88.99    8.90
   4  -4   6   99.89    8.50
   4  -4   6   93.59    7.10
  -4  -4  -6   83.39    8.30
  -4   4  -6   84.49    8.40
   5  -4   6  300.47   12.90
  -5  -4  -6  266.37   14.90
  -5  -4  -6  275.47   15.10
  -5  -4  -6  240.78   16.00
   5  -4   6  280.47   14.30
  -5   4  -6  269.07   14.60
   6  -4   6  198.18   12.60
  -6  -4  -6  192.38   12.90
   6  -4   6  194.78   11.20
  -6  -4  -6  166.38   14.70
  -6  -4  -6  209.58   14.20
  -6   4  -6  182.08   12.60
   5  -5  -6   24.80    4.90
   5  -5  -6   22.60    6.30
  -5  -5   6   28.70    6.20
  -5  -5   6   25.00    5.20
  -5  -5   6   28.30    7.20
  -5   5   6   23.70    4.20
  -4  -5   6   50.99    7.20
  -4  -5   6   62.99    7.00
   4  -5  -6   74.39    9.90
   4  -5  -6   67.09    6.50
  -4  -5   6   64.69    9.00
  -4   5   6   54.39    5.70
  -3  -5   6 1484.65   50.09
   3  -5  -6 1485.45   46.30
   3  -5  -6 1551.94   51.39
  -3  -5   6 1528.45   46.90
  -3  -5   6 1534.85   49.20
  -3   5   6 1508.95   44.50
  -3   5   6 1516.55   43.40
   3   5  -6 1517.05   47.20
   2  -5  -6   22.80    6.20
  -2  -5   6    6.10    3.60
  -2  -5   6    3.00    4.20
   2  -5  -6   11.60    4.00
   2  -5  -6   10.20    3.10
  -2  -5   6   11.10    5.00
  -2   5   6    9.00    2.80
   2   5  -6   10.90    3.60
   1  -5  -6   38.90    7.60
   1  -5  -6   42.30    6.30
  -1  -5   6   31.10    5.60
  -1  -5   6   30.60    4.90
  -1  -5   6   33.30    6.00
  -1   5   6   29.70    3.90
   1   5  -6   26.20    5.10
   0  -5  -6   19.00    4.30
   0  -5   6   16.40    5.00
   0  -5  -6   30.30    6.80
   0  -5   6    7.40    4.30
   0  -5   6   11.30    3.60
   0   5  -6   14.40    4.10
   1  -5   6 1618.24   48.90
  -1  -5  -6 1563.34   48.20
   1  -5   6 1580.34   50.39
   1  -5   6 1528.95   50.49
  -1  -5  -6 1543.25   52.49
  -1   5  -6 1606.14   49.50
   2  -5   6  438.06   14.10
  -2  -5  -6  370.16   19.30
  -2  -5  -6  387.76   17.00
   2  -5   6  407.26   17.40
   2  -5   6  411.96   18.80
  -2   5  -6  415.86   17.80
   3  -5   6   37.60    4.60
  -3  -5  -6   29.40    5.90
  -3  -5  -6   37.70    6.40
   3  -5   6   33.60    6.30
  -3   5  -6   36.00    6.30
  -4  -5  -6  552.84   24.60
   4  -5   6  565.14   19.80
  -4  -5  -6  551.14   23.00
   4  -5   6  580.54   23.70
  -4   5  -6  565.94   23.10
  -3  -6   6  481.65   23.90
   3  -6  -6  513.25   20.20
  -3  -6   6  517.85   21.20
   3  -6  -6  521.05   24.60
  -3  -6   6  510.45   22.70
   3  -6  -6  514.25   20.00
   3   6  -6  515.85   21.30
  -3   6   6  541.75   18.00
   2  -6  -6   60.19    7.40
  -2  -6   6   53.59    8.90
   2  -6  -6   71.39   10.60
  -2  -6   6   62.29    8.00
  -2  -6   6   64.69    8.70
   2   6  -6   49.99    7.50
  -1  -6   6    5.70    5.50
  -1  -6   6    4.10    4.00
   1  -6  -6    6.60    4.40
   1  -6  -6   -8.00    4.60
  -1  -6   6   -2.20    3.60
   1   6  -6    4.00    3.90
   0  -6   6  387.96   20.10
   0  -6   6  421.56   19.30
   0  -6   6  400.86   17.90
   0  -6  -6  410.76   21.70
   0  -6  -6  432.76   17.80
   0   6  -6  391.76   18.00
  -1  -6  -6   13.90    5.10
   1  -6   6   19.60    5.00
  -1  -6  -6   17.30    6.80
   1  -6   6   10.40    5.70
  -1   6  -6   10.40    4.90
  -2  -6  -6   76.79   10.70
   2  -6   6   89.79    8.90
  -2  -6  -6   88.19    9.50
   2  -6   6   94.19   10.80
  -2   6  -6   89.89    8.80
  -7   0   7    7.80    4.10
   7   0  -7    7.00    2.80
   7   0  -7    9.10    5.20
   6   0  -7   18.30    5.40
  -6   0   7   20.00    4.30
   6   0  -7   26.50    3.90
   5   0  -7 2876.01   80.79
  -5   0   7 2827.02   83.19
   5   0  -7 2896.91   85.79
  -4   0   7   -1.10    2.50
   4   0  -7    3.00    3.70
   4   0  -7   -2.60    1.60
   3   0  -7    6.40    2.00
  -3   0   7    5.90    2.60
   3   0  -7    2.60    3.30
   3   0  -7    6.20    1.60
   2   0  -7  226.18    8.60
   2   0  -7  255.87   13.30
  -2   0   7  211.38   10.50
  -1   0   7 1844.62   54.89
   1   0  -7 1876.91   52.79
   1   0  -7 1839.12   57.59
   0   0  -7  369.76   16.60
   0   0   7  372.56   14.60
   0   0  -7  369.96   13.90
   0   0   7  379.16   13.10
   1   0   7  382.16   12.80
  -1   0  -7  396.46   14.90
  -1   0  -7  367.76   12.40
   1   0   7  377.76   14.80
  -1   0  -7  378.56   16.80
  -2   0  -7 1611.04   47.40
   2   0   7 1500.65   46.30
   2   0   7 1566.14   43.60
  -2   0  -7 1536.35   48.50
  -3   0  -7   86.99    7.50
   3   0   7  100.89    4.70
  -3   0  -7   99.29    7.60
  -4   0  -7  269.87   12.50
  -4   0  -7  229.38   12.40
  -5   0  -7  625.94   22.50
  -5   0  -7  641.54   24.60
  -6   0  -7  171.68    9.90
  -6   0  -7  175.48   12.00
  -7   0  -7  124.69   11.20
   7  -1  -7   56.79    5.80
  -7  -1   7   47.60    7.00
   7  -1  -7   43.00    7.10
  -7   1   7   51.79    7.00
   7   1  -7   41.40    7.50
   7   1  -7   49.80    5.20
   6  -1  -7   89.19    6.50
  -6  -1   7   89.99    7.90
   6  -1  -7   91.29    9.30
  -6  -1   7  101.19    6.20
  -6   1   7   93.99    7.80
   6   1  -7   90.59    6.00
   5  -1  -7   67.89    5.50
  -5  -1   7   67.89    4.20
  -5  -1   7   65.59    6.80
   5  -1  -7   65.99    8.40
   5   1  -7   59.09    3.90
  -5   1   7   61.19    6.20
   5   1  -7   71.39    4.90
   4  -1  -7   93.29    6.00
  -4  -1   7   87.59    7.20
   4  -1  -7   81.69    8.70
   4   1  -7   92.99    5.50
   4   1  -7   99.59    4.90
  -4   1   7   74.59    6.40
   3  -1  -7    2.50    3.20
   3  -1  -7    1.50    1.70
  -3  -1   7   -1.30    2.60
   3   1  -7   -0.20    2.00
  -3   1   7    3.30    2.30
   2  -1  -7  376.06   17.40
   2  -1  -7  361.16   11.10
  -2  -1   7  326.17   14.60
  -2   1   7  351.16   14.00
   2   1  -7  351.96   12.60
   1  -1  -7  381.76   17.90
   1  -1  -7  390.86   13.30
  -1  -1   7  411.26   16.00
   1   1  -7  403.26   14.20
  -1   1   7  401.06   15.10
   0  -1   7  623.24   20.80
   0  -1  -7  626.94   20.60
   0  -1  -7  645.44   24.50
   0  -1   7  641.34   22.30
   0   1  -7  616.24   20.90
   0   1  -7  624.64   18.20
   0   1   7  649.54   21.20
   0   1  -7  595.84   23.80
   1  -1   7   99.69    6.20
   1  -1   7   84.69    6.50
  -1  -1  -7   89.49    8.00
  -1  -1  -7  107.89    5.00
  -1  -1  -7   89.29    6.80
  -1  -1  -7   79.89    5.90
  -1   1  -7  103.19    6.90
   1   1   7   98.59    6.30
  -1   1  -7   79.59    7.60
   2  -1   7   34.30    4.40
  -2  -1  -7   44.90    6.10
  -2  -1  -7   32.70    5.30
   2  -1   7   41.00    5.00
  -2   1  -7   32.40    5.30
  -2   1  -7   36.80    5.00
   2   1   7   32.50    4.50
  -3  -1  -7  805.02   28.70
  -3  -1  -7  807.42   28.70
   3  -1   7  839.72   25.70
  -3   1  -7  871.61   28.90
  -3   1  -7  804.82   28.20
  -4  -1  -7  737.03   26.10
   4  -1   7  744.43   23.30
  -4  -1  -7  743.23   27.30
  -4   1  -7  727.83   26.40
  -4   1  -7  721.93   25.40
  -5  -1  -7  167.98   10.00
  -5  -1  -7  207.28   12.50
   5  -1   7  180.28    9.00
  -5   1  -7  180.48   10.10
  -5   1  -7  182.78   11.20
  -6  -1  -7  170.78   12.40
  -6  -1  -7  175.78   10.20
  -6   1  -7  185.58   11.80
  -6   1  -7  163.28    9.40
  -7  -1  -7    5.60    4.70
  -7  -1  -7   14.60    6.00
  -7   1  -7   11.50    4.60
   7  -2  -7   16.50    4.00
   7  -2  -7   20.80    5.80
  -7  -2   7   21.00    5.00
  -7  -2   7   18.20    4.70
   7   2  -7   15.50    3.20
  -7   2   7   15.00    4.20
   6  -2  -7    1.30    2.60
   6  -2  -7    0.90    4.70
  -6  -2   7    6.50    3.80
  -6  -2   7   12.50    3.90
   6   2  -7    8.60    3.50
   6   2  -7    7.00    2.30
  -6   2   7    4.00    3.20
   5  -2  -7 2251.37   70.29
   5  -2  -7 2255.37   65.39
  -5  -2   7 2278.27   62.99
  -5  -2   7 2166.58   67.59
   5   2  -7 2223.88   63.09
   5   2  -7 2376.66   63.29
  -5   2   7 2169.68   65.99
   4  -2  -7   -0.50    2.20
   4  -2  -7   -1.80    4.20
  -4  -2   7   -0.40    2.30
  -4  -2   7    1.20    2.80
   4   2  -7   -1.00    2.40
  -4   2   7    1.80    2.40
  -3  -2   7   10.20    2.20
  -3  -2   7    6.80    2.80
   3  -2  -7    5.40    2.10
   3  -2  -7   11.80    5.10
  -3   2   7    9.60    2.50
   3   2  -7   10.50    2.70
   2  -2  -7  247.08   14.80
  -2  -2   7  256.47    8.70
  -2  -2   7  250.57   12.60
  -2   2   7  272.27   11.30
   2   2  -7  272.77   10.70
   1  -2  -7 1968.40   53.99
   1  -2  -7 1861.61   60.59
  -1  -2   7 1921.51   57.89
  -1  -2   7 1948.80   56.99
   1   2  -7 1897.91   55.29
  -1   2   7 1902.01   55.39
   0  -2  -7  513.85   17.70
   0  -2  -7  534.35   15.60
   0  -2   7  512.05   20.00
   0  -2  -7  513.25   22.00
   0  -2   7  516.45   19.20
   0   2   7  520.95   17.70
   0   2  -7  545.75   18.60
  -1  -2  -7  401.16   13.20
  -1  -2  -7  383.36   15.00
  -1  -2  -7  391.06   17.90
   1  -2   7  376.56   16.00
   1  -2   7  388.66   15.20
  -1   2  -7  377.16   15.20
   1   2   7  380.46   13.70
  -2  -2  -7  987.30   33.20
   2  -2   7  991.50   33.50
  -2  -2  -7 1041.30   31.00
  -2  -2  -7 1054.79   35.30
   2  -2   7 1015.10   31.90
  -2   2  -7  992.50   32.80
  -3  -2  -7  117.89    9.20
  -3  -2  -7  118.59    7.90
   3  -2   7  118.29    7.60
  -3  -2  -7  108.99    8.80
  -3   2  -7  111.89    8.20
  -3   2  -7  103.09    8.20
   4  -2   7  135.59    8.30
  -4  -2  -7  113.49   10.10
  -4  -2  -7  121.89    9.20
  -4   2  -7  141.29    9.40
  -4   2  -7  125.59    9.30
  -5  -2  -7  693.23   25.80
  -5  -2  -7  677.13   27.90
   5  -2   7  723.73   24.10
  -5   2  -7  699.93   24.30
  -5   2  -7  704.33   26.60
  -6  -2  -7  198.18   14.30
  -6  -2  -7  203.88   12.00
   6  -2   7  170.58   10.30
  -6   2  -7  196.28   10.20
  -6   2  -7  185.58   12.40
  -6  -3   7   62.49    8.40
  -6  -3   7   98.69    7.70
   6  -3  -7   74.49    7.00
   6  -3  -7   85.19   10.40
  -6   3   7   80.49    7.40
   6   3  -7   80.39    5.40
   6   3  -7   94.59    7.60
   5  -3  -7   53.59    5.80
  -5  -3   7   61.29    5.90
   5  -3  -7   60.99    9.30
  -5  -3   7   52.99    7.40
   5   3  -7   64.39    6.40
  -5   3   7   64.69    6.20
  -4  -3   7   52.49    5.40
   4  -3  -7   53.79    5.50
   4  -3  -7   49.60    8.10
  -4  -3   7   64.89    7.30
   4   3  -7   60.99    6.00
  -4   3   7   58.59    5.70
  -3  -3   7    0.30    2.60
   3  -3  -7   -2.50    2.00
   3  -3  -7    4.50    4.70
  -3  -3   7    0.30    3.00
  -3   3   7    4.50    2.40
   3   3  -7   -0.30    2.60
  -2  -3   7  265.47   13.30
  -2  -3   7  260.27   13.30
  -2  -3   7  264.97   10.30
   2  -3  -7  218.58   14.70
  -2   3   7  263.37   10.90
   2   3  -7  267.77   11.40
  -1  -3   7  302.67   11.60
   1  -3  -7  295.17   16.60
  -1  -3   7  294.57   14.40
   1  -3  -7  317.57   10.60
  -1  -3   7  301.27   14.40
  -1   3   7  312.37   11.80
   1   3  -7  293.67   12.50
   0  -3  -7  509.95   22.50
   0  -3   7  489.25   19.50
   0  -3   7  490.65   20.20
   0  -3  -7  524.45   16.50
   0   3   7  500.65   16.70
   0   3  -7  513.75   18.70
   1  -3   7   82.29    7.30
  -1  -3  -7   92.29    6.40
  -1  -3  -7   92.69    7.20
  -1  -3  -7   85.09    8.90
   1  -3   7   81.49    7.30
  -1   3  -7   88.09    6.90
   1   3   7   83.89    5.10
   2  -3   7   24.60    4.60
  -2  -3  -7   23.40    4.90
  -2  -3  -7   14.20    4.60
  -2  -3  -7   24.40    4.40
   2  -3   7   19.90    4.40
  -2   3  -7   23.30    4.40
  -3  -3  -7  625.94   24.80
  -3  -3  -7  663.83   23.00
   3  -3   7  650.43   23.20
  -3  -3  -7  658.73   25.70
  -3   3  -7  655.73   24.30
  -4  -3  -7  606.44   24.20
   4  -3   7  603.44   22.20
  -4  -3  -7  517.35   23.80
  -4  -3  -7  604.04   22.20
  -4   3  -7  613.94   23.00
  -4   3  -7  611.54   23.50
  -5  -3  -7  120.79   10.10
  -5  -3  -7  126.39   10.10
  -5  -3  -7   97.39   11.30
   5  -3   7  141.29    9.50
  -5   3  -7  119.09    9.00
  -5   3  -7  138.29   10.50
  -6  -3  -7  126.79   10.90
  -6  -3  -7  146.79   13.60
   6  -3   7  126.19    9.90
  -6  -3  -7  123.79   11.60
  -6   3  -7  130.79   11.10
   5  -4  -7 1897.81   60.99
  -5  -4   7 1859.61   54.99
   5  -4  -7 1794.52   55.79
  -5  -4   7 1808.02   59.09
  -5   4   7 1849.11   55.39
   5   4  -7 1919.01   55.39
  -4  -4   7    1.40    3.70
   4  -4  -7    5.50    5.20
   4  -4  -7    1.30    2.70
  -4  -4   7   -3.20    3.60
  -4   4   7   -1.70    2.70
   4   4  -7    2.80    3.40
  -3  -4   7    2.30    3.30
   3  -4  -7    3.50    2.80
  -3  -4   7   -4.80    4.10
  -3  -4   7    6.50    3.60
   3  -4  -7   -2.30    5.00
   3   4  -7    4.30    3.30
  -3   4   7    4.00    2.60
  -2  -4   7  177.38   11.60
   2  -4  -7  167.28    8.40
   2  -4  -7  152.28   13.20
  -2  -4   7  169.08    9.10
  -2  -4   7  162.08   11.50
   2   4  -7  157.78    9.30
  -2   4   7  159.68    8.20
   1  -4  -7 1051.89   40.60
   1  -4  -7 1181.38   34.20
  -1  -4   7 1113.19   38.30
  -1  -4   7 1150.58   38.60
  -1  -4   7 1127.29   35.00
   1   4  -7 1147.09   36.40
  -1   4   7 1147.89   33.60
   0  -4  -7  222.88   14.70
   0  -4   7  229.78   13.10
   0  -4   7  225.98   13.20
   0  -4   7  236.38   11.10
   0  -4  -7  241.08   10.80
   0   4   7  238.48    8.80
   0   4  -7  238.28   11.80
  -1  -4  -7  227.38   10.90
  -1  -4  -7  216.88   14.50
   1  -4   7  230.88   12.80
   1  -4   7  214.88   12.70
  -1   4  -7  227.38   11.80
  -2  -4  -7  974.70   36.40
  -2  -4  -7 1052.79   32.40
   2  -4   7  989.40   34.00
  -2   4  -7  949.01   33.30
   3  -4   7   52.89    7.00
  -3  -4  -7   54.29    7.20
  -3  -4  -7   42.20    7.20
  -3   4  -7   55.89    7.10
  -4  -4  -7  141.79   12.10
  -4  -4  -7  153.68   10.60
   4  -4   7  154.88    9.50
   4  -4   7  149.09   10.60
  -4  -4  -7  164.88   12.40
  -4   4  -7  144.99   10.80
  -5  -4  -7  418.86   20.00
  -5  -4  -7  337.57   20.20
   5  -4   7  422.16   18.50
   5  -4   7  405.86   17.00
  -5  -4  -7  396.66   18.70
  -5   4  -7  395.16   18.00
  -5   4  -7  427.76   19.60
   4  -5  -7   49.10    6.30
  -4  -5   7   45.80    6.90
  -4  -5   7   63.99    9.20
   4  -5  -7   83.59   11.50
  -4  -5   7   53.39    8.60
   4   5  -7   53.49    7.30
  -4   5   7   40.30    6.10
  -3  -5   7   -0.50    3.60
   3  -5  -7    5.90    4.40
   3  -5  -7   -3.70    5.40
  -3  -5   7    2.90    5.60
   3  -5  -7    0.20    2.80
  -3  -5   7    0.80    4.70
  -3   5   7    0.20    3.10
   3   5  -7   -2.90    3.60
  -2  -5   7  207.48   11.00
   2  -5  -7  210.38   10.80
   2  -5  -7  186.18   15.10
  -2  -5   7  217.78   14.20
  -2  -5   7  201.08   13.40
  -2   5   7  196.58    9.30
   2   5  -7  191.98   11.30
  -1  -5   7  231.18   13.80
  -1  -5   7  234.18   14.50
  -1  -5   7  196.98   11.10
   1  -5  -7  236.98   11.50
   1  -5  -7  222.08   15.90
   1   5  -7  231.78   12.40
   0  -5   7  299.07   16.50
   0  -5  -7  305.47   13.10
   0  -5  -7  296.97   18.20
   0  -5   7  296.17   15.80
   0  -5   7  272.17   13.40
   0   5  -7  303.87   14.40
   1  -5   7   32.90    6.30
  -1  -5  -7   50.19    8.70
   1  -5   7   39.40    6.70
   1  -5   7   38.30    5.90
  -1  -5  -7   41.20    5.90
  -1   5  -7   51.69    7.10
  -2  -5  -7   10.90    4.60
  -2  -5  -7   10.30    5.60
   2  -5   7   10.40    5.50
  -2   5  -7   15.60    4.80
  -3  -5  -7  368.06   17.00
   3  -5   7  398.86   15.00
  -3  -5  -7  370.96   20.00
   3  -5   7  356.06   18.30
  -3   5  -7  367.26   17.60
   6   0  -8   30.20    4.40
  -6   0   8   21.40    4.70
   6   0  -8   21.90    5.90
  -5   0   8   22.80    4.80
   5   0  -8   26.40    5.70
   5   0  -8   27.10    3.90
  -4   0   8   18.90    4.20
   4   0  -8   18.50    3.40
   4   0  -8   12.30    5.00
   3   0  -8  931.71   25.40
  -3   0   8  889.81   30.50
   3   0  -8  864.21   32.90
   2   0  -8  788.42   29.60
  -2   0   8  757.62   26.90
   2   0  -8  788.52   23.50
   1   0  -8    0.20    2.60
  -1   0   8   -0.90    2.50
   1   0  -8    3.80    3.40
   0   0   8  379.56   13.40
   0   0  -8  366.66   14.10
   0   0  -8  357.56   17.20
   0   0   8  342.47   14.70
   1   0   8  796.52   27.50
  -1   0  -8  818.52   30.10
  -1   0  -8  868.11   27.60
   1   0   8  837.12   25.10
  -2   0  -8 1273.67   40.10
   2   0   8 1272.27   39.90
  -2   0  -8 1255.87   41.90
   2   0   8 1313.17   36.40
  -3   0  -8    2.80    3.30
  -3   0  -8    6.10    3.50
  -4   0  -8  185.98   11.10
  -4   0  -8  194.68   11.50
  -5   0  -8  107.89    9.60
  -5   0  -8  100.79    8.60
  -6   0  -8  706.73   28.00
  -6   0  -8  674.73   24.70
   6  -1  -8    0.60    2.80
   6  -1  -8    0.40    4.90
  -6  -1   8    4.70    4.00
  -6   1   8    4.60    3.50
   6   1  -8    5.10    5.30
   6   1  -8    1.20    2.60
   5  -1  -8   -0.30    2.40
  -5  -1   8    3.30    3.50
   5  -1  -8   -4.20    4.30
   5   1  -8   -1.60    4.50
   5   1  -8    3.20    2.50
  -5   1   8    1.50    2.90
  -4  -1   8  312.47   15.30
   4  -1  -8  339.87   13.60
   4  -1  -8  345.37   18.00
   4   1  -8  341.17   11.80
  -4   1   8  332.77   14.70
   4   1  -8  334.47   17.80
  -3  -1   8  416.36   17.70
   3  -1  -8  416.46   19.80
   3   1  -8  426.66   14.20
  -3   1   8  417.06   16.80
   3   1  -8  404.26   19.60
  -2  -1   8  131.19    8.90
   2  -1  -8  126.29    5.70
   2  -1  -8  119.39   10.10
   2   1  -8  131.79    7.10
   2   1  -8  113.49   10.00
  -2   1   8  115.39    7.60
  -1  -1   8  474.95   17.70
   1  -1  -8  461.25   15.70
  -1  -1   8  442.56   18.50
   1  -1  -8  476.35   20.90
   1   1  -8  477.95   20.90
  -1   1   8  503.85   18.00
   1   1  -8  449.66   16.50
   0  -1   8  737.63   24.60
   0  -1   8  750.82   26.30
   0  -1  -8  754.72   24.20
   0  -1  -8  756.02   28.60
   0   1  -8  705.93   27.90
   0   1   8  755.82   25.10
   0   1  -8  752.42   24.80
   0   1   8  759.52   22.70
  -1  -1  -8   21.60    5.00
  -1  -1  -8   27.70    3.30
   1  -1   8   28.60    4.20
   1  -1   8   20.40    4.20
  -1  -1  -8   25.60    4.40
   1   1   8   27.20    4.30
  -1   1  -8   24.40    4.20
  -1   1  -8   26.90    5.10
   2  -1   8   -4.20    2.30
  -2  -1  -8    7.60    3.80
  -2  -1  -8   -1.60    2.90
   2  -1   8    1.80    2.90
  -2  -1  -8    8.00    3.70
  -2   1  -8   -1.00    3.00
   2   1   8    1.90    2.70
  -2   1  -8    7.40    3.80
   3  -1   8  776.72   23.90
  -3  -1  -8  792.22   27.40
  -3  -1  -8  717.93   27.60
  -3   1  -8  716.03   27.00
  -3   1  -8  728.43   26.40
  -4  -1  -8   10.50    4.40
  -4  -1  -8    6.60    4.30
   4  -1   8    6.10    3.40
  -4   1  -8   10.10    3.90
  -4   1  -8    7.30    4.10
  -5  -1  -8  214.68   12.00
  -5  -1  -8  190.08   12.80
  -5   1  -8  196.58   12.30
  -5   1  -8  173.78   10.90
   6  -2  -8   59.89    9.00
  -6  -2   8   59.99    8.30
   6  -2  -8   65.49    6.50
   6   2  -8   67.49    5.70
  -6   2   8   61.09    7.40
   5  -2  -8    8.70    3.00
   5  -2  -8   15.70    5.80
  -5  -2   8    7.00    4.00
  -5   2   8    7.60    3.50
   4  -2  -8   28.40    7.40
   4  -2  -8   22.30    3.80
  -4  -2   8   32.60    5.80
  -4   2   8   31.80    4.60
   4   2  -8   42.80    5.20
   3  -2  -8  980.00   31.80
   3  -2  -8  980.80   37.40
  -3  -2   8  992.90   34.50
   3   2  -8 1026.40   30.40
  -3   2   8  974.30   32.00
   2  -2  -8  641.04   27.70
  -2  -2   8  673.13   25.20
   2   2  -8  660.03   21.90
  -2   2   8  685.43   23.10
  -1  -2   8   20.20    4.70
   1  -2  -8   26.10    3.80
   1  -2  -8   19.60    5.80
  -1  -2   8   15.30    4.10
  -1   2   8   20.80    4.00
   1   2  -8   19.90    4.00
   0  -2   8  250.77   13.10
   0  -2  -8  254.07   11.10
   0  -2  -8  254.27   15.00
   0  -2   8  264.97   12.30
   0   2  -8  270.27   11.80
   0   2   8  247.08   11.10
   1  -2   8  571.54   20.40
  -1  -2  -8  569.04   17.40
  -1  -2  -8  544.75   20.10
  -1  -2  -8  551.64   23.70
   1  -2   8  538.95   21.50
  -1   2  -8  540.35   20.40
   1   2   8  585.04   19.20
   2  -2   8  893.91   29.10
   2  -2   8  911.11   31.20
  -2  -2  -8  941.51   27.70
  -2  -2  -8  882.41   30.30
  -2  -2  -8  880.31   32.80
  -2   2  -8  845.92   31.70
  -2   2  -8  876.61   30.20
  -3  -2  -8    8.80    4.30
  -3  -2  -8   -5.70    3.60
   3  -2   8    4.30    3.80
  -3  -2  -8   -3.50    3.60
  -3   2  -8   -2.40    3.40
  -3   2  -8   -1.40    3.30
   4  -2   8  292.47   12.90
  -4  -2  -8  261.47   13.00
  -4  -2  -8  273.97   14.90
  -4  -2  -8  284.77   15.70
  -4   2  -8  276.37   14.60
  -4   2  -8  274.07   14.00
  -5  -2  -8  101.89   10.00
   5  -2   8  131.29    8.90
  -5  -2  -8  130.39   11.70
  -5   2  -8  117.59   10.20
  -5   2  -8  101.99    8.70
   5  -3  -8    4.60    3.00
  -5  -3   8    7.30    4.00
   5  -3  -8   -4.50    5.70
  -5   3   8    6.90    3.50
   5   3  -8    2.40    3.60
   4  -3  -8  261.17   12.50
   4  -3  -8  242.68   17.10
  -4  -3   8  258.77   14.80
  -4   3   8  263.47   12.50
   4   3  -8  303.27   11.90
   3  -3  -8  266.17   17.90
   3  -3  -8  316.37   13.80
  -3  -3   8  309.87   15.80
  -3   3   8  310.67   13.20
   3   3  -8  333.67   13.00
  -2  -3   8   80.99    8.60
   2  -3  -8   63.29    9.70
  -2  -3   8   84.69    8.30
  -2  -3   8   91.99    5.90
   2   3  -8   84.09    6.70
  -2   3   8   86.89    6.70
  -1  -3   8  353.76   16.50
   1  -3  -8  357.16   19.50
  -1  -3   8  349.27   16.90
   1   3  -8  356.86   14.70
  -1   3   8  375.96   14.20
   0  -3  -8  637.74   27.60
   0  -3   8  663.83   25.10
   0  -3   8  653.83   23.90
   0  -3  -8  602.94   19.70
   0   3   8  650.63   20.90
   0   3  -8  604.94   22.50
  -1  -3  -8   28.40    4.20
   1  -3   8   23.40    4.90
  -1  -3  -8   31.20    5.00
  -1  -3  -8   33.10    7.10
   1  -3   8   20.70    4.60
   1   3   8   24.60    3.80
  -1   3  -8   29.90    5.00
   2  -3   8    2.30    4.00
  -2  -3  -8    1.40    4.40
  -2  -3  -8   -0.90    3.60
  -2  -3  -8    1.40    4.00
   2  -3   8    0.70    3.30
  -2   3  -8    4.00    3.40
  -3  -3  -8  583.34   20.60
   3  -3   8  545.35   21.00
  -3  -3  -8  560.64   23.00
  -3  -3  -8  571.94   24.40
  -3   3  -8  539.75   22.20
  -3   3  -8  539.85   23.00
  -4  -3  -8    6.00    4.60
   4  -3   8    2.00    4.50
  -4  -3  -8    1.10    5.50
  -4  -3  -8   10.30    5.10
  -4   3  -8    9.90    4.40
  -4   3  -8    7.30    4.60
  -4  -4   8   12.40    4.90
   4  -4  -8   17.60    7.40
  -4  -4   8   12.00    6.00
   4  -4  -8    9.70    3.60
   4   4  -8   10.50    4.00
  -4   4   8   12.60    3.70
  -3  -4   8  572.64   24.50
  -3  -4   8  575.44   24.70
  -3  -4   8  596.44   20.20
   3  -4  -8  553.14   27.50
  -3   4   8  600.24   20.70
   3   4  -8  594.14   21.40
  -2  -4   8  506.35   22.00
   2  -4  -8  448.26   24.60
  -2  -4   8  496.55   22.10
  -2  -4   8  495.25   17.70
  -2   4   8  512.25   18.00
   2   4  -8  501.95   19.10
  -1  -4   8    6.90    4.10
  -1  -4   8    4.40    3.60
   1  -4  -8   -0.10    5.30
  -1  -4   8   -5.50    4.50
  -1   4   8    4.10    3.30
   1   4  -8    1.70    3.40
   0  -4   8  229.38   13.60
   0  -4  -8  224.28   10.50
   0  -4  -8  229.68   16.10
   0  -4   8  220.58   13.70
   0   4  -8  233.38   12.30
   1  -4   8  499.05   21.10
   1  -4   8  496.95   21.80
  -1  -4  -8  498.25   18.10
  -1  -4  -8  480.35   23.90
  -1   4  -8  512.75   20.30
  -2  -4  -8  664.63   25.50
  -2  -4  -8  820.92   32.30
   2  -4   8  789.42   28.60
  -2   4  -8  820.22   28.60
  -3  -4  -8    2.50    5.10
  -3  -4  -8    0.60    4.40
   3  -4   8    5.50    5.00
  -3   4  -8   -1.90    3.90
  -1  -5   8  218.58   14.20
  -1  -5   8  230.38   15.40
  -1  -5   8  220.18   11.70
   1  -5  -8  207.08   17.00
   1   5  -8  209.58   12.30
   0  -5  -8  340.07   15.60
   0  -5   8  382.86   16.50
   0  -5   8  417.56   20.20
   0  -5   8  396.66   19.70
   0  -5  -8  425.56   23.40
   0   5  -8  406.56   18.00
  -1  -5  -8   15.50    6.80
  -1   5  -8   17.20    5.20
   5   0  -9   -0.30    2.90
  -5   0   9    3.40    4.20
   5   0  -9    5.90    5.00
  -4   0   9    0.20    3.10
   4   0  -9   -4.40    4.40
  -3   0   9  236.68   12.60
   3   0  -9  204.88   14.00
   2   0  -9  269.57   15.60
  -2   0   9  280.17   13.80
   2   0  -9  287.17   10.80
   1   0  -9  266.57   11.00
  -1   0   9  254.37   12.80
   1   0  -9  249.97   14.90
   0   0   9  256.27   12.70
   0   0  -9  254.17   14.70
   0   0   9  258.67   10.90
   0   0  -9  256.17   11.60
   1   0   9  280.07   13.50
  -1   0  -9  287.57   15.60
   1   0   9  305.47   11.30
  -1   0  -9  295.47   13.00
  -2   0  -9   27.60    5.00
  -2   0  -9   26.80    5.50
   2   0   9   22.50    4.50
  -3   0  -9   73.99    8.70
  -3   0  -9   72.09    7.80
  -4   0  -9  420.06   18.90
  -4   0  -9  425.06   19.00
  -5  -1   9  742.73   28.80
   5  -1  -9  762.42   30.90
   5  -1  -9  744.13   25.80
   5   1  -9  752.02   30.90
  -5   1   9  765.02   27.90
   4  -1  -9  565.14   25.30
  -4  -1   9  533.25   22.90
  -4   1   9  609.44   22.70
   4   1  -9  589.74   25.60
   3  -1  -9  120.79   11.40
  -3  -1   9  100.29    9.00
  -3   1   9  112.39    8.70
   3   1  -9  130.29   11.80
   3   1  -9  114.29    6.90
  -2  -1   9  444.76   19.40
   2  -1  -9  450.75   21.60
   2   1  -9  481.95   16.60
   2   1  -9  446.86   21.20
  -2   1   9  463.75   18.60
  -1  -1   9  184.58   11.40
   1  -1  -9  195.58   13.60
   1  -1  -9  215.08    9.50
  -1  -1   9  209.18   10.70
  -1   1   9  201.48   10.90
   1   1  -9  199.68   13.10
   1   1  -9  206.78   10.30
   0  -1   9  817.92   29.20
   0  -1   9  831.92   27.10
   0  -1  -9  856.01   26.70
   0  -1  -9  813.72   31.60
   0   1   9  800.52   27.70
   0   1  -9  824.32   31.20
   0   1  -9  837.02   27.30
   0   1   9  804.42   24.90
   1  -1   9  169.48   10.40
  -1  -1  -9  149.99   12.00
  -1  -1  -9  167.38    9.40
   1  -1   9  165.08    9.10
  -1   1  -9  164.88   11.60
  -1   1  -9  159.98    9.50
   1   1   9  156.68    9.20
   2  -1   9  135.79    9.40
  -2  -1  -9  128.19    9.10
  -2  -1  -9  123.39   10.60
   2  -1   9  135.49    8.10
  -2   1  -9  129.99    9.10
  -2   1  -9  108.59   10.10
   2   1   9  121.59    8.20
  -3  -1  -9  381.16   17.20
  -3  -1  -9  373.06   14.90
  -3  -1  -9  388.86   18.60
  -3   1  -9  374.76   17.60
  -3   1  -9  382.26   17.00
  -4  -1  -9  510.95   21.40
  -4  -1  -9  482.25   21.40
  -4   1  -9  509.15   21.10
  -4   1  -9  480.85   20.60
  -4  -2   9   -2.40    3.40
   4  -2  -9    8.50    5.80
  -4   2   9    3.40    3.50
   3  -2  -9  149.19   13.50
  -3  -2   9  157.38   11.20
  -3   2   9  151.98    9.80
   3   2  -9  165.08    9.20
  -2  -2   9  180.78   11.50
  -2  -2   9  193.18   12.10
   2  -2  -9  191.38   14.70
  -2   2   9  179.18   10.40
   2   2  -9  180.48    9.70
   1  -2  -9  156.48    8.10
  -1  -2   9  149.59   10.20
   1  -2  -9  131.89   12.50
  -1  -2   9  136.99   10.50
   1   2  -9  157.48    8.90
  -1   2   9  138.29    8.90
   0  -2   9  237.88   12.20
   0  -2  -9  246.88   11.40
   0  -2   9  266.67   13.90
   0  -2  -9  229.68   15.30
   0   2   9  247.58   11.30
   0   2  -9  216.28   14.60
   0   2  -9  236.68   11.80
  -1  -2  -9  390.96   15.70
   1  -2   9  360.56   17.10
  -1  -2  -9  386.16   19.60
   1  -2   9  369.96   15.60
  -1   2  -9  370.96   16.00
   1   2   9  384.86   15.10
  -1   2  -9  363.06   18.70
   2  -2   9   44.50    6.70
  -2  -2  -9   43.30    6.50
  -2  -2  -9   43.20    7.50
   2  -2   9   39.70    5.50
  -2   2  -9   37.70    5.90
  -2   2  -9   47.30    7.40
  -3  -2  -9  103.69    8.40
   3  -2   9   77.09    8.00
  -3  -2  -9   88.49   10.40
  -3  -2  -9  102.19    9.80
  -3   2  -9   95.49    9.10
  -3   2  -9   95.09    9.50
  -4  -2  -9  474.95   22.00
  -4  -2  -9  464.85   18.60
  -4  -2  -9  498.75   21.90
  -4   2  -9  459.25   20.60
  -4   2  -9  487.05   20.60
  -3  -3   9   74.59    9.00
   3  -3  -9   63.39   10.30
  -3  -3   9   88.29   10.40
  -3   3   9   68.79    7.50
   3   3  -9   86.29    7.20
  -2  -3   9  390.86   19.00
  -2  -3   9  404.86   18.70
   2  -3  -9  356.26   21.40
   2   3  -9  404.16   15.90
  -2   3   9  397.46   16.10
  -1  -3   9  153.28   11.60
   1  -3  -9  140.29   13.90
  -1  -3   9  164.98   11.40
  -1   3   9  125.49    8.50
   1   3  -9  157.18    9.50
   0  -3   9  718.23   26.70
   0  -3   9  687.03   27.70
   0  -3  -9  713.13   31.00
   0   3  -9  709.13   25.80
   0   3   9  747.63   23.90
   1  -3   9  128.79   10.40
  -1  -3  -9  116.89   12.50
   1  -3   9  124.09   10.00
  -1  -3  -9  117.39    8.90
  -1   3  -9  117.09    9.30
  -2  -3  -9  110.59   11.80
   2  -3   9  103.39    9.40
   2  -3   9   94.19    9.60
  -2  -3  -9   95.39    9.20
  -2   3  -9   96.89   10.90
  -2   3  -9  102.59    9.40
  -3  -3  -9  239.68   15.50
  -3  -3  -9  303.27   17.90
  -3   3  -9  297.37   15.60
  -3   3  -9  310.77   16.40
  -1  -4   9  174.78   13.10
  -1  -4   9  169.18   12.70
   1  -4  -9  189.98   16.70
   1   4  -9  166.18   10.90
   0  -4   9  168.18   13.20
   0  -4   9  200.58   13.30
   0  -4  -9  163.38   15.50
   0   4  -9  165.58   11.10
  -3   0  10    1.40    4.00
   3   0 -10    4.30    5.10
   2   0 -10  343.17   18.50
  -2   0  10  326.07   16.20
   1   0 -10  224.88   10.90
  -1   0  10  224.08   11.20
   1   0 -10  202.08   14.30
  -1   0  10  216.88   12.50
   0   0 -10   17.60    4.30
   0   0  10    9.50    4.30
   0   0 -10    5.90    4.80
  -1   0 -10  463.25   18.00
  -1   0 -10  436.86   21.10
   1   0  10  461.05   19.10
  -2   0 -10   94.09    8.80
   2   0  10   92.89    8.70
  -2   0 -10  105.79   10.60
   3  -1 -10  175.48   14.10
  -3  -1  10  171.28   12.10
  -3   1  10  173.18   11.60
   3   1 -10  173.08   13.70
   2  -1 -10  639.64   27.10
  -2  -1  10  627.24   23.30
  -2  -1  10  644.54   24.90
   2   1 -10  584.84   26.30
  -2   1  10  653.53   23.80
   2   1 -10  509.95   21.90
   1  -1 -10   41.40    7.40
  -1  -1  10   45.80    6.60
  -1  -1  10   44.30    6.30
   1   1 -10   58.79    6.30
   1   1 -10   58.09    8.90
  -1   1  10   52.49    7.30
   0  -1 -10   86.59    7.20
   0  -1  10   78.99    8.70
   0  -1  10   71.39    7.70
   0  -1 -10   91.09   10.70
   0   1  10   65.59    7.80
   0   1 -10   88.49    7.60
   0   1 -10   79.89    9.80
   1  -1  10    0.70    5.30
   1  -1  10    0.90    3.90
  -1  -1 -10    4.50    4.90
  -1  -1 -10    1.90    3.90
  -1   1 -10   -1.60    4.50
  -1   1 -10    4.80    4.00
   1   1  10    3.50    3.50
  -2  -1 -10  771.62   30.60
   2  -1  10  787.42   28.50
  -2  -1 -10  750.82   27.00
  -2   1 -10  753.62   27.20
  -2   1 -10  745.73   29.70
   2  -2 -10  219.58   16.50
  -2  -2  10  221.18   14.00
  -2  -2  10  238.58   13.60
  -2   2  10  230.38   12.50
   2   2 -10  231.18   11.30
   2   2 -10  189.68   15.20
   1  -2 -10  244.88   16.60
  -1  -2  10  243.08   14.70
  -1  -2  10  237.78   13.60
   1   2 -10  266.97   16.70
   1   2 -10  256.27   12.50
  -1   2  10  255.67   12.80
   0  -2 -10   20.60    6.80
   0  -2  10   27.60    6.20
   0  -2  10   23.90    5.70
   0  -2 -10   18.00    5.30
   0   2 -10   25.10    6.70
   0   2  10   27.80    5.10
   0   2 -10   26.50    5.40
   1  -2  10  535.25   20.80
  -1  -2 -10  545.65   25.60
   1  -2  10  568.34   23.40
  -1   2 -10  554.54   21.70
   1   2  10  549.95   20.30
  -1   2 -10  544.35   24.50
   0   0   0    0.00    0.00

_computing_structure_solution     'SHELXT 2014/5 (Sheldrick, 2014)'
;
_shelx_hkl_checksum              22832
loop_
_space_group_symop_operation_xyz
'x, y, z'
'-x, y+1/2, -z'
'-x, -y, -z'
'x, -y-1/2, z'
loop_
_atom_site_type_symbol
_atom_site_label
_atom_site_fract_x
_atom_site_fract_y
_atom_site_fract_z
_atom_site_U_iso_or_equiv
_atom_site_adp_type
_atom_site_calc_flag
_atom_site_refinement_flags_adp
_atom_site_refinement_flags_occupancy
_atom_site_refinement_flags_posn
_atom_site_occupancy
_atom_site_disorder_assembly
_atom_site_disorder_group
Ba Ba01 0.08179(3) 0.75 0.34252(3) 0.01176(7) Uani d T P S 1 . .
Ba Ba2 0.33658(3) 0.75 0.82153(3) 0.01631(8) Uani d T P S 1 . .
Sb Sb03 0.36350(3) 1.25 0.53647(3) 0.01139(8) Uani d T P S 1 . .
I I004 0.13342(4) 0.25 0.10076(3) 0.02283(8) Uani d T P S 1 . .
S S005 0.52969(13) 1.25 0.79907(12) 0.0177(2) Uani d T P S 1 . .
O O6 0.2047(3) 1.0131(3) 0.5845(2) 0.0141(4) Uani d . . . 1 . .
loop_
_atom_site_aniso_label
_atom_site_aniso_U_11
_atom_site_aniso_U_22
_atom_site_aniso_U_33
_atom_site_aniso_U_12
_atom_site_aniso_U_13
_atom_site_aniso_U_23
Ba01 0.01143(12) 0.01082(12) 0.01300(12) 0 0.00032(8) 0
Ba2 0.02087(14) 0.01515(13) 0.01256(12) 0 -0.00254(9) 0
Sb03 0.01062(13) 0.01112(13) 0.01248(13) 0 0.00108(9) 0
I004 0.02627(16) 0.01831(15) 0.02364(15) 0 -0.00103(12) 0
S005 0.0142(5) 0.0241(5) 0.0142(4) 0 -0.0037(4) 0
O6 0.0140(9) 0.0099(9) 0.0182(9) -0.0004(7) -0.0003(7) 0.0000(7)
loop_
_atom_type_symbol
_atom_type_description
_atom_type_scat_dispersion_real
_atom_type_scat_dispersion_imag
_atom_type_scat_source
Ba Ba -0.3244 2.2819 'International Tables Vol C Tables 4.2.6.8 and 6.1.1.4'
Cu Cu 0.3201 1.2651 'International Tables Vol C Tables 4.2.6.8 and 6.1.1.4'
I I -0.4742 1.8119 'International Tables Vol C Tables 4.2.6.8 and 6.1.1.4'
O O 0.0106 0.0060 'International Tables Vol C Tables 4.2.6.8 and 6.1.1.4'
S S 0.1246 0.1234 'International Tables Vol C Tables 4.2.6.8 and 6.1.1.4'
Sb Sb -0.5866 1.5461 'International Tables Vol C Tables 4.2.6.8 and 6.1.1.4'
loop_
_geom_angle_atom_site_label_1
_geom_angle_atom_site_label_2
_geom_angle_atom_site_label_3
_geom_angle_site_symmetry_1
_geom_angle_site_symmetry_3
_geom_angle
O6 Ba01 O6 4_575 . 74.13(8)
O6 Ba01 O6 4_575 2_546 77.78(6)
O6 Ba01 O6 . 2_546 115.08(3)
O6 Ba01 O6 4_575 3_576 115.08(3)
O6 Ba01 O6 . 3_576 77.78(6)
O6 Ba01 O6 2_546 3_576 63.63(8)
O6 Ba01 S005 4_575 3_676 87.39(5)
O6 Ba01 S005 . 3_676 87.39(5)
O6 Ba01 S005 2_546 3_676 147.73(4)
O6 Ba01 S005 3_576 3_676 147.73(4)
O6 Ba01 Sb03 4_575 3_576 96.44(4)
O6 Ba01 Sb03 . 3_576 96.44(4)
O6 Ba01 Sb03 2_546 3_576 31.83(4)
O6 Ba01 Sb03 3_576 3_576 31.83(4)
S005 Ba01 Sb03 3_676 3_576 175.191(19)
O6 Ba01 I004 4_575 1_565 148.06(4)
O6 Ba01 I004 . 1_565 80.91(4)
O6 Ba01 I004 2_546 1_565 131.90(4)
O6 Ba01 I004 3_576 1_565 77.72(4)
S005 Ba01 I004 3_676 1_565 71.675(10)
Sb03 Ba01 I004 3_576 1_565 105.989(7)
O6 Ba01 I004 4_575 . 80.91(4)
O6 Ba01 I004 . . 148.06(4)
O6 Ba01 I004 2_546 . 77.72(4)
O6 Ba01 I004 3_576 . 131.90(4)
S005 Ba01 I004 3_676 . 71.675(10)
Sb03 Ba01 I004 3_576 . 105.989(7)
I004 Ba01 I004 1_565 . 113.249(14)
O6 Ba01 I004 4_575 3_565 142.92(4)
O6 Ba01 I004 . 3_565 142.92(4)
O6 Ba01 I004 2_546 3_565 83.26(4)
O6 Ba01 I004 3_576 3_565 83.26(4)
S005 Ba01 I004 3_676 3_565 92.22(2)
Sb03 Ba01 I004 3_576 3_565 82.973(11)
I004 Ba01 I004 1_565 3_565 63.965(8)
I004 Ba01 I004 . 3_565 63.965(8)
O6 Ba01 Sb03 4_575 . 90.37(4)
O6 Ba01 Sb03 . . 24.74(4)
O6 Ba01 Sb03 2_546 . 138.33(4)
O6 Ba01 Sb03 3_576 . 86.96(4)
S005 Ba01 Sb03 3_676 . 69.160(13)
Sb03 Ba01 Sb03 3_576 . 113.594(8)
I004 Ba01 Sb03 1_565 . 60.059(10)
I004 Ba01 Sb03 . . 140.182(10)
I004 Ba01 Sb03 3_565 . 123.990(6)
O6 Ba01 Sb03 4_575 1_545 24.74(4)
O6 Ba01 Sb03 . 1_545 90.37(4)
O6 Ba01 Sb03 2_546 1_545 86.96(4)
O6 Ba01 Sb03 3_576 1_545 138.33(4)
S005 Ba01 Sb03 3_676 1_545 69.160(13)
Sb03 Ba01 Sb03 3_576 1_545 113.594(8)
I004 Ba01 Sb03 1_565 1_545 140.182(10)
I004 Ba01 Sb03 . 1_545 60.059(10)
I004 Ba01 Sb03 3_565 1_545 123.990(6)
Sb03 Ba01 Sb03 . 1_545 98.703(13)
O6 Ba01 Ba01 4_575 3_576 95.92(4)
O6 Ba01 Ba01 . 3_576 39.57(4)
O6 Ba01 Ba01 2_546 3_576 88.78(4)
O6 Ba01 Ba01 3_576 3_576 38.21(4)
S005 Ba01 Ba01 3_676 3_576 121.482(12)
Sb03 Ba01 Ba01 3_576 3_576 61.135(7)
I004 Ba01 Ba01 1_565 3_576 76.194(11)
I004 Ba01 Ba01 . 3_576 166.495(10)
I004 Ba01 Ba01 3_565 3_576 115.366(10)
Sb03 Ba01 Ba01 . 3_576 52.459(9)
Sb03 Ba01 Ba01 1_545 3_576 119.401(12)
O6 Ba2 O6 . 4_575 74.29(8)
O6 Ba2 S005 . 3_677 141.76(4)
O6 Ba2 S005 4_575 3_677 141.77(4)
O6 Ba2 S005 . 1_545 131.00(4)
O6 Ba2 S005 4_575 1_545 64.84(4)
S005 Ba2 S005 3_677 1_545 85.926(19)
O6 Ba2 S005 . . 64.84(4)
O6 Ba2 S005 4_575 . 131.00(5)
S005 Ba2 S005 3_677 . 85.925(19)
S005 Ba2 S005 1_545 . 127.05(3)
O6 Ba2 I004 . 3_566 77.19(4)
O6 Ba2 I004 4_575 3_566 77.19(4)
S005 Ba2 I004 3_677 3_566 96.36(2)
S005 Ba2 I004 1_545 3_566 116.438(16)
S005 Ba2 I004 . 3_566 116.439(17)
O6 Ba2 Sb03 . 3_676 71.49(4)
O6 Ba2 Sb03 4_575 3_676 71.49(4)
S005 Ba2 Sb03 3_677 3_676 123.26(2)
S005 Ba2 Sb03 1_545 3_676 70.791(17)
S005 Ba2 Sb03 . 3_676 70.791(17)
I004 Ba2 Sb03 3_566 3_676 140.378(10)
O6 Ba2 Sb03 . . 28.29(4)
O6 Ba2 Sb03 4_575 . 94.65(4)
S005 Ba2 Sb03 3_677 . 123.484(9)
S005 Ba2 Sb03 1_545 . 130.001(19)
S005 Ba2 Sb03 . . 38.485(17)
I004 Ba2 Sb03 3_566 . 100.687(7)
Sb03 Ba2 Sb03 3_676 . 59.333(7)
O6 Ba2 Sb03 . 1_545 94.65(4)
O6 Ba2 Sb03 4_575 1_545 28.29(4)
S005 Ba2 Sb03 3_677 1_545 123.484(9)
S005 Ba2 Sb03 1_545 1_545 38.485(17)
S005 Ba2 Sb03 . 1_545 130.001(19)
I004 Ba2 Sb03 3_566 1_545 100.687(7)
Sb03 Ba2 Sb03 3_676 1_545 59.333(8)
Sb03 Ba2 Sb03 . 1_545 105.553(14)
O6 Ba2 Ba01 . . 37.16(4)
O6 Ba2 Ba01 4_575 . 37.16(4)
S005 Ba2 Ba01 3_677 . 171.31(2)
S005 Ba2 Ba01 1_545 . 97.859(17)
S005 Ba2 Ba01 . . 97.860(17)
I004 Ba2 Ba01 3_566 . 74.946(10)
Sb03 Ba2 Ba01 3_676 . 65.432(11)
Sb03 Ba2 Ba01 . . 59.477(7)
Sb03 Ba2 Ba01 1_545 . 59.478(7)
O6 Ba2 Ba01 . 3_566 87.42(4)
O6 Ba2 Ba01 4_575 3_566 32.19(4)
S005 Ba2 Ba01 3_677 3_566 117.803(13)
S005 Ba2 Ba01 1_545 3_566 72.342(18)
S005 Ba2 Ba01 . 3_566 152.190(17)
I004 Ba2 Ba01 3_566 3_566 50.722(7)
Sb03 Ba2 Ba01 3_676 3_566 103.495(10)
Sb03 Ba2 Ba01 . 3_566 114.590(10)
Sb03 Ba2 Ba01 1_545 3_566 50.170(8)
Ba01 Ba2 Ba01 . 3_566 56.668(6)
O6 Ba2 Ba01 . 3_576 32.19(4)
O6 Ba2 Ba01 4_575 3_576 87.42(4)
S005 Ba2 Ba01 3_677 3_576 117.803(13)
S005 Ba2 Ba01 1_545 3_576 152.190(17)
S005 Ba2 Ba01 . 3_576 72.343(18)
I004 Ba2 Ba01 3_566 3_576 50.722(7)
Sb03 Ba2 Ba01 3_676 3_576 103.495(10)
Sb03 Ba2 Ba01 . 3_576 50.170(8)
Sb03 Ba2 Ba01 1_545 3_576 114.590(10)
Ba01 Ba2 Ba01 . 3_576 56.668(6)
Ba01 Ba2 Ba01 3_566 3_576 83.132(13)
O6 Sb03 O6 . 4_585 95.59(12)
O6 Sb03 S005 . . 98.02(6)
O6 Sb03 S005 4_585 . 98.02(6)
O6 Sb03 Ba01 . 3_576 47.82(6)
O6 Sb03 Ba01 4_585 3_576 47.82(6)
S005 Sb03 Ba01 . 3_576 103.61(3)
O6 Sb03 Ba2 . 3_676 124.67(6)
O6 Sb03 Ba2 4_585 3_676 124.67(6)
S005 Sb03 Ba2 . 3_676 110.14(3)
Ba01 Sb03 Ba2 3_576 3_676 146.252(9)
O6 Sb03 Ba2 . 1_565 114.57(6)
O6 Sb03 Ba2 4_585 1_565 40.20(6)
S005 Sb03 Ba2 . 1_565 61.252(13)
Ba01 Sb03 Ba2 3_576 1_565 75.913(7)
Ba2 Sb03 Ba2 3_676 1_565 120.666(7)
O6 Sb03 Ba2 . . 40.20(5)
O6 Sb03 Ba2 4_585 . 114.57(6)
S005 Sb03 Ba2 . . 61.252(13)
Ba01 Sb03 Ba2 3_576 . 75.913(6)
Ba2 Sb03 Ba2 3_676 . 120.667(8)
Ba2 Sb03 Ba2 1_565 . 105.553(14)
O6 Sb03 Ba01 . . 34.81(5)
O6 Sb03 Ba01 4_585 . 107.64(6)
S005 Sb03 Ba01 . . 126.420(10)
Ba01 Sb03 Ba01 3_576 . 66.406(8)
Ba2 Sb03 Ba01 3_676 . 92.710(9)
Ba2 Sb03 Ba01 1_565 . 142.313(10)
Ba2 Sb03 Ba01 . . 65.358(10)
O6 Sb03 Ba01 . 1_565 107.64(6)
O6 Sb03 Ba01 4_585 1_565 34.81(5)
S005 Sb03 Ba01 . 1_565 126.421(10)
Ba01 Sb03 Ba01 3_576 1_565 66.407(8)
Ba2 Sb03 Ba01 3_676 1_565 92.710(10)
Ba2 Sb03 Ba01 1_565 1_565 65.358(10)
Ba2 Sb03 Ba01 . 1_565 142.313(10)
Ba01 Sb03 Ba01 . 1_565 98.703(13)
Ba01 I004 Ba01 1_545 . 113.249(14)
Ba01 I004 Ba2 1_545 3_566 76.981(7)
Ba01 I004 Ba2 . 3_566 76.981(7)
Ba01 I004 Ba01 1_545 3_565 116.035(8)
Ba01 I004 Ba01 . 3_565 116.035(8)
Ba2 I004 Ba01 3_566 3_565 77.099(10)
Sb03 S005 Ba2 . 3_677 166.88(4)
Sb03 S005 Ba01 . 3_676 98.80(3)
Ba2 S005 Ba01 3_677 3_676 94.32(3)
Sb03 S005 Ba2 . 1_565 80.263(19)
Ba2 S005 Ba2 3_677 1_565 94.075(19)
Ba01 S005 Ba2 3_676 1_565 115.688(17)
Sb03 S005 Ba2 . . 80.263(19)
Ba2 S005 Ba2 3_677 . 94.075(19)
Ba01 S005 Ba2 3_676 . 115.688(17)
Ba2 S005 Ba2 1_565 . 127.05(3)
Sb03 O6 Ba2 . . 111.51(8)
Sb03 O6 Ba01 . . 120.45(8)
Ba2 O6 Ba01 . . 105.76(7)
Sb03 O6 Ba01 . 3_576 100.36(7)
Ba2 O6 Ba01 . 3_576 116.73(7)
Ba01 O6 Ba01 . 3_576 102.22(6)
loop_
_geom_bond_atom_site_label_1
_geom_bond_atom_site_label_2
_geom_bond_site_symmetry_2
_geom_bond_distance
Ba01 O6 4_575 2.6524(19)
Ba01 O6 . 2.6524(19)
Ba01 O6 2_546 2.732(2)
Ba01 O6 3_576 2.732(2)
Ba01 S005 3_676 3.2675(11)
Ba01 Sb03 3_576 3.6263(6)
Ba01 I004 1_565 3.6389(5)
Ba01 I004 . 3.6389(4)
Ba01 I004 3_565 3.8470(6)
Ba01 Sb03 . 4.0051(4)
Ba01 Sb03 1_545 4.0051(4)
Ba01 Ba01 3_576 4.1910(5)
Ba2 O6 . 2.6475(19)
Ba2 O6 4_575 2.6475(19)
Ba2 S005 3_677 3.1636(11)
Ba2 S005 1_545 3.3947(6)
Ba2 S005 . 3.3947(6)
Ba2 I004 3_566 3.7192(6)
Ba2 Sb03 3_676 3.7870(5)
Ba2 Sb03 . 3.8162(5)
Ba2 Sb03 1_545 3.8162(4)
Ba2 Ba01 3_566 4.5800(5)
Ba2 Ba01 3_576 4.5800(5)
Sb03 O6 . 1.9440(19)
Sb03 O6 4_585 1.9440(19)
Sb03 S005 . 2.4096(10)
Sb03 Ba01 3_576 3.6262(6)
Sb03 Ba2 3_676 3.7870(5)
Sb03 Ba2 1_565 3.8162(4)
Sb03 Ba01 1_565 4.0051(4)
I004 Ba01 1_545 3.6388(5)
I004 Ba2 3_566 3.7193(6)
I004 Ba01 3_565 3.8469(6)
S005 Ba2 3_677 3.1636(11)
S005 Ba01 3_676 3.2675(11)
S005 Ba2 1_565 3.3947(6)
O6 Ba01 3_576 2.732(2)
