#------------------------------------------------------------------------------
#$Date: 2021-04-16 11:20:33 +0300 (Fri, 16 Apr 2021) $
#$Revision: 264238 $
#$URL: file:///home/coder/svn-repositories/cod/cif/1/56/18/1561846.cif $
#------------------------------------------------------------------------------
#
# This file is available in the Crystallography Open Database (COD),
# http://www.crystallography.net/
#
# All data on this site have been placed in the public domain by the
# contributors.
#
data_1561846
loop_
_publ_author_name
'Iyer, Abishek K.'
'Rudyk, Brent W.'
'Lin, Xinsong'
'Singh, Harpreet'
'Sharma, Arzoo Z.'
'Wiebe, Christopher R.'
'Mar, Arthur'
_publ_section_title
;
 Noncentrosymmetric rare-earth copper gallium chalcogenides RE3CuGaCh7
 (RE=La--Nd; Ch=S, Se): An unexpected combination
;
_journal_name_full               'Journal of Solid State Chemistry'
_journal_page_first              150
_journal_page_last               159
_journal_paper_doi               10.1016/j.jssc.2015.05.016
_journal_volume                  229
_journal_year                    2015
_chemical_formula_structural     'Ce3 Cu Ga Se7'
_chemical_formula_sum            'Ce3 Cu Ga Se7'
_chemical_formula_weight         1106.34
_chemical_name_common            'cerium copper gallium selenide (3/1/1/7)'
_chemical_name_systematic        'cerium copper gallium selenide (3/1/1/7)'
_space_group_crystal_system      hexagonal
_space_group_IT_number           173
_space_group_name_Hall           'P 6c'
_space_group_name_H-M_alt        'P 63'
_atom_sites_solution_hydrogens   .
_atom_sites_solution_primary     direct
_atom_sites_solution_secondary   difmap
_audit_creation_method           SHELXL-2013
_cell_angle_alpha                90
_cell_angle_beta                 90
_cell_angle_gamma                120
_cell_formula_units_Z            2
_cell_length_a                   10.6007(6)
_cell_length_b                   10.6007(6)
_cell_length_c                   6.3775(4)
_cell_measurement_reflns_used    4040
_cell_measurement_temperature    296(2)
_cell_measurement_theta_max      29.03
_cell_measurement_theta_min      3.89
_cell_volume                     620.65(6)
_computing_cell_refinement       'Bruker SAINT 8.34A (Bruker, 2013)'
_computing_data_collection       'Bruker APEX 2 (Bruker, 2008)'
_computing_data_reduction        'Bruker SAINT 8.34A'
_computing_molecular_graphics    'ATOMS 5.1 (Dowty, 1999)'
_computing_publication_material  'Bruker SHELXTL'
_computing_structure_refinement  'Bruker SHELXTL'
_computing_structure_solution    'Bruker SHELXTL'
_diffrn_ambient_temperature      296(2)
_diffrn_measured_fraction_theta_full 1.000
_diffrn_measured_fraction_theta_max 1.000
_diffrn_measurement_device_type  'Bruker PLATFORM/SMART APEX II CCD'
_diffrn_measurement_method       '\w and \f scans'
_diffrn_radiation_type           MoK\a
_diffrn_radiation_wavelength     0.71073
_diffrn_reflns_av_R_equivalents  0.0504
_diffrn_reflns_av_unetI/netI     0.0311
_diffrn_reflns_Laue_measured_fraction_full 1.000
_diffrn_reflns_Laue_measured_fraction_max 1.000
_diffrn_reflns_limit_h_max       16
_diffrn_reflns_limit_h_min       -16
_diffrn_reflns_limit_k_max       16
_diffrn_reflns_limit_k_min       -16
_diffrn_reflns_limit_l_max       9
_diffrn_reflns_limit_l_min       -9
_diffrn_reflns_number            9058
_diffrn_reflns_point_group_measured_fraction_full 1.000
_diffrn_reflns_point_group_measured_fraction_max 1.000
_diffrn_reflns_theta_full        25.242
_diffrn_reflns_theta_max         33.097
_diffrn_reflns_theta_min         2.218
_diffrn_source                   'fine-focus sealed tube'
_exptl_absorpt_coefficient_mu    35.076
_exptl_absorpt_correction_T_max  0.4065
_exptl_absorpt_correction_T_min  0.2948
_exptl_absorpt_correction_type   numerical
_exptl_absorpt_process_details   'Bruker SHELXTL (Sheldrick, 2013)'
_exptl_crystal_colour            grey
_exptl_crystal_density_diffrn    5.920
_exptl_crystal_density_method    'not measured'
_exptl_crystal_description       irregular
_exptl_crystal_F_000             944
_exptl_crystal_size_max          0.050
_exptl_crystal_size_mid          0.049
_exptl_crystal_size_min          0.045
_refine_diff_density_max         3.254
_refine_diff_density_min         -1.483
_refine_diff_density_rms         0.318
_refine_ls_abs_structure_details
;
 Refined as an inversion twin.
;
_refine_ls_abs_structure_Flack   0.00(5)
_refine_ls_extinction_coef       0.0011(3)
_refine_ls_extinction_expression Fc^*^=kFc[1+0.001xFc^2^\l^3^/sin(2\q)]^-1/4^
_refine_ls_extinction_method     SHELXL
_refine_ls_goodness_of_fit_ref   1.055
_refine_ls_hydrogen_treatment    undef
_refine_ls_matrix_type           full
_refine_ls_number_parameters     41
_refine_ls_number_reflns         1575
_refine_ls_number_restraints     1
_refine_ls_restrained_S_all      1.054
_refine_ls_R_factor_all          0.0379
_refine_ls_R_factor_gt           0.0304
_refine_ls_shift/su_max          0.000
_refine_ls_shift/su_mean         0.000
_refine_ls_structure_factor_coef Fsqd
_refine_ls_weighting_details
'w=1/[\s^2^(Fo^2^)+(0.0264P)^2^+7.2482P] where P=(Fo^2^+2Fc^2^)/3'
_refine_ls_weighting_scheme      calc
_refine_ls_wR_factor_gt          0.0675
_refine_ls_wR_factor_ref         0.0706
_reflns_Friedel_coverage         0.857
_reflns_Friedel_fraction_full    1.000
_reflns_Friedel_fraction_max     1.000
_reflns_number_gt                1422
_reflns_number_total             1575
_reflns_threshold_expression     'I > 2\s(I)'
_cod_data_source_file            JSSC-2015-229-150.cif
_cod_data_source_block           Ce3CuGaSe7
_cod_original_cell_volume        620.65(8)
_cod_database_code               1561846
_shelx_space_group_comment
;
The symmetry employed for this shelxl refinement is uniquely defined
by the following loop, which should always be used as a source of
symmetry information in preference to the above space-group names.
They are only intended as comments.
;
_shelx_estimated_absorpt_t_min   0.273
_shelx_estimated_absorpt_t_max   0.301
_shelxl_version_number           2013-4
_shelx_res_file
;
TITL Ce3CuGaSe7 P6(3) lsf final refinement
CELL 0.71073  10.60070  10.60070   6.37750  90.0000  90.0000 120.0000
ZERR    2.00   0.00060   0.00060   0.00040   0.0000   0.0000   0.0000
LATT -1
SYMM -Y, X-Y, Z
SYMM -X+Y, -X, Z
SYMM -X, -Y, 0.5+Z
SYMM Y, -X+Y, 0.5+Z
SYMM X-Y, X, 0.5+Z
SFAC CU GA SE CE
UNIT 2 2 14 6
TEMP 23
SIZE 0.045 0.049 0.05

L.S. 4
ACTA

TWIN
EADP CU1A CU1B
WGHT    0.026400    7.248199
EXTI    0.001089
BASF   0.00275
FVAR       0.08069   0.67045
CE    4    0.147724    0.370630    0.056697    11.00000    0.01917    0.01436 =
         0.02542    0.00265    0.00271    0.00832
CU1A  1    0.000000    0.000000    0.000000    20.33333    0.01266    0.01266 =
         0.03672    0.00000    0.00000    0.00633
CU1B  1    0.000000    0.000000   -0.094305   -20.33333    0.01266    0.01266 =
         0.03672    0.00000    0.00000    0.00633
GA    2    0.333333    0.666667    0.643187    10.33333    0.02231    0.02231 =
         0.01184    0.00000    0.00000    0.01116
SE1   3    0.253969    0.150574    0.019517    11.00000    0.01350    0.01286 =
         0.02242    0.00434    0.00289    0.00710
SE2   3    0.521346    0.092087    0.289066    11.00000    0.01449    0.01417 =
         0.01533    0.00031   -0.00131    0.00494
SE3   3    0.333333    0.666667    0.270756    10.33333    0.01509    0.01509 =
         0.01063    0.00000    0.00000    0.00755
HKLF 4

REM  Ce3CuGaSe7 P6(3) lsf final refinement
REM R1 =  0.0304 for    1422 Fo > 4sig(Fo)  and  0.0379 for all    1575 data
REM     41 parameters refined using      1 restraints

END

WGHT      0.0264      7.2645

REM Highest difference peak  3.254,  deepest hole -1.483,  1-sigma level  0.318
Q1    1   0.3851 -0.0965  0.4701  11.00000  0.05    3.25
Q2    1   0.1171  0.6460  0.4230  11.00000  0.05    3.00
Q3    1   0.4485  0.1043  0.2049  11.00000  0.05    1.20
Q4    1   0.1046  0.4872  0.1372  11.00000  0.05    1.15
Q5    1   0.2352  0.4769  0.0162  11.00000  0.05    1.06
Q6    1   0.6175  0.1063  0.1392  11.00000  0.05    1.05
Q7    1   0.2346  0.0560  0.1227  11.00000  0.05    1.04
Q8    1   0.5447 -0.0823  0.1540  11.00000  0.05    1.03
Q9    1   0.1469  0.4755  0.3053  11.00000  0.05    1.02
Q10   1   0.2037  0.3728  0.0054  11.00000  0.05    1.01
Q11   1   0.2527  0.1365  0.2017  11.00000  0.05    0.99
Q12   1   0.0000  0.0000 -0.1945  10.33333  0.05    0.97
Q13   1   0.5511  0.2212  0.3936  11.00000  0.05    0.97
Q14   1   0.4636  0.7934  0.5428  11.00000  0.05    0.94
Q15   1   0.1192  0.2488 -0.1718  11.00000  0.05    0.88
Q16   1  -0.0182  0.2580  0.1777  11.00000  0.05    0.87
Q17   1   0.3841  0.1162 -0.1119  11.00000  0.05    0.86
Q18   1   0.0426  0.0084  0.1792  11.00000  0.05    0.84
Q19   1   0.5544  0.0637  0.2493  11.00000  0.05    0.83
Q20   1   0.3764  0.5577  0.4076  11.00000  0.05    0.82
;
_shelx_res_checksum              55820
_shelx_hkl_file
;
   1  -6  -9   -1.50    2.17
   2  -6  -9    1.18    2.56
   0  -5  -9    5.71    3.38
   1  -5  -9    0.76    1.64
   2  -5  -9    1.03    1.54
   3  -5  -9    0.13    1.35
   4  -5  -9    8.65    2.45
   5  -5  -9   11.39    4.33
  -1  -4  -9   15.94    2.99
   0  -4  -9    1.46    1.64
   1  -4  -9    5.37    1.97
   2  -4  -9    0.20    1.45
   3  -4  -9    1.04    1.54
   4  -4  -9    0.94    1.54
   5  -4  -9    1.34    1.90
   6  -4  -9    0.11    2.53
  -3  -3  -9    2.57    2.66
  -2  -3  -9    0.84    1.20
  -1  -3  -9   -0.23    1.13
   0  -3  -9    8.63    2.37
   1  -3  -9   10.50    2.21
   2  -3  -9    9.82    2.51
   3  -3  -9    8.47    2.42
   4  -3  -9    7.10    2.23
   5  -3  -9    1.52    1.72
   6  -3  -9    3.30    2.82
  -4  -2  -9   -0.06    2.08
  -3  -2  -9    3.11    1.36
  -2  -2  -9    1.67    1.23
  -1  -2  -9   17.00    2.33
   0  -2  -9   10.61    1.87
   1  -2  -9    4.10    1.79
   2  -2  -9   12.80    2.73
   3  -2  -9   14.73    2.75
   4  -2  -9   -0.09    1.56
   5  -2  -9    0.76    1.67
   6  -2  -9    1.16    2.59
  -5  -1  -9   -0.77    2.03
  -4  -1  -9    0.38    1.46
  -3  -1  -9    5.48    1.58
  -2  -1  -9   19.57    2.46
  -1  -1  -9    3.55    1.46
   0  -1  -9    2.44    1.31
   1  -1  -9    2.74    1.54
   2  -1  -9    4.20    1.91
   3  -1  -9   17.47    3.24
   4  -1  -9    0.08    1.41
   5  -1  -9   12.76    2.53
   6  -1  -9   -0.18    2.32
  -4   0  -9   -0.25    1.28
  -3   0  -9    2.56    1.63
  -2   0  -9   18.08    2.94
  -1   0  -9    1.07    1.43
   0   0  -9    0.80    1.32
   1   0  -9    2.54    1.69
   2   0  -9    9.04    2.43
   3   0  -9    8.47    3.42
   4   0  -9   -0.51    2.09
  -5   1  -9   22.85    4.95
  -4   1  -9   -0.53    1.31
  -3   1  -9   16.52    2.84
  -2   1  -9    3.60    1.79
  -1   1  -9    1.83    1.48
   0   1  -9    2.98    1.71
   1   1  -9    1.87    1.59
   2   1  -9   21.02    4.86
   3   1  -9    1.88    2.83
   4   1  -9   -0.84    2.49
  -5   2  -9    0.03    1.46
  -4   2  -9   -0.05    1.33
  -3   2  -9   15.12    2.83
  -2   2  -9   15.19    2.82
  -1   2  -9    5.50    2.01
   0   2  -9   12.76    2.51
   1   2  -9   14.93    2.99
   2   2  -9    1.15    2.30
   3   2  -9    0.89    2.44
  -5   3  -9    1.14    1.48
  -4   3  -9    4.15    1.89
  -3   3  -9    6.13    2.04
  -2   3  -9   18.50    3.08
  -1   3  -9   15.32    2.84
   0   3  -9    7.55    2.33
   1   3  -9   -0.10    1.42
   2   3  -9    1.06    2.14
  -5   4  -9    0.09    1.58
  -4   4  -9   -0.05    1.42
  -3   4  -9    1.37    1.41
  -2   4  -9    3.37    1.97
  -1   4  -9    4.90    1.99
   0   4  -9   -0.19    1.49
   1   4  -9   20.17    4.58
  -5   5  -9    7.72    3.09
  -4   5  -9   13.84    3.03
  -3   5  -9   -0.67    1.37
  -2   5  -9    1.42    1.72
  -1   5  -9   -0.68    1.55
   0   5  -9   11.08    4.03
   1   5  -9   -1.08    2.08
  -3   6  -9    9.88    3.79
  -2   6  -9    6.91    3.45
   2  -8  -8    4.31    2.97
   3  -8  -8    1.79    2.47
   4  -8  -8    3.37    2.70
   5  -8  -8    9.45    3.77
   6  -8  -8    7.38    3.68
  -1  -7  -8   11.69    3.55
   0  -7  -8   -1.00    1.21
   1  -7  -8    0.30    1.37
   2  -7  -8    4.85    2.70
   3  -7  -8    5.37    2.73
   4  -7  -8   24.73    5.30
   5  -7  -8    1.18    2.25
   6  -7  -8   11.93    3.90
   7  -7  -8   -1.86    1.82
  -2  -6  -8    6.59    2.14
  -1  -6  -8   13.46    2.50
   0  -6  -8    1.29    1.48
   1  -6  -8   29.20    3.56
   2  -6  -8    4.76    1.81
   3  -6  -8   41.46    4.17
   4  -6  -8    0.21    1.33
   5  -6  -8    2.49    2.37
   6  -6  -8    0.83    1.92
   7  -6  -8    2.38    2.56
   8  -6  -8    5.81    3.41
  -3  -5  -8    8.46    2.36
  -2  -5  -8    1.90    1.53
  -1  -5  -8    3.34    1.63
   0  -5  -8   13.24    2.45
   1  -5  -8   14.41    2.62
   2  -5  -8   19.15    2.96
   3  -5  -8    7.14    2.18
   4  -5  -8   29.40    3.65
   5  -5  -8   14.42    2.67
   6  -5  -8   27.76    3.69
   7  -5  -8   10.11    3.83
   8  -5  -8    2.74    2.36
  -4  -4  -8    2.15    1.61
  -3  -4  -8   22.38    3.19
  -2  -4  -8    1.99    1.34
  -1  -4  -8   35.41    3.77
   0  -4  -8    3.79    1.45
   1  -4  -8    4.38    1.35
   2  -4  -8   25.03    3.26
   3  -4  -8   15.65    2.68
   4  -4  -8    4.23    1.78
   5  -4  -8   10.34    2.44
   6  -4  -8    7.08    2.24
   7  -4  -8    1.02    1.56
   8  -4  -8    2.87    1.89
  -5  -3  -8    1.13    1.33
  -4  -3  -8    2.39    1.55
  -3  -3  -8   40.51    4.01
  -2  -3  -8    5.49    1.73
  -1  -3  -8   19.16    2.83
   0  -3  -8   10.82    1.72
   1  -3  -8    6.09    1.34
   2  -3  -8   22.21    3.05
   3  -3  -8   10.75    2.30
   4  -3  -8    3.66    1.59
   5  -3  -8   15.20    2.75
   6  -3  -8   37.37    4.34
   7  -3  -8   14.32    2.81
   8  -3  -8   10.09    2.79
   9  -3  -8    9.07    3.67
  -6  -2  -8    3.93    1.77
  -5  -2  -8    4.24    1.68
  -4  -2  -8    5.84    1.66
  -3  -2  -8   19.82    2.88
  -2  -2  -8   25.41    3.20
  -1  -2  -8   26.33    2.54
   0  -2  -8    0.14    0.78
   1  -2  -8   14.87    1.96
   2  -2  -8    1.24    1.33
   3  -2  -8    5.75    1.78
   4  -2  -8   32.19    3.93
   5  -2  -8    6.59    2.17
   6  -2  -8    0.82    1.39
   7  -2  -8    0.68    1.52
   8  -2  -8    9.04    2.32
  -7  -1  -8   27.91    5.02
  -6  -1  -8    2.30    1.47
  -5  -1  -8   25.30    3.34
  -4  -1  -8   11.64    2.33
  -3  -1  -8    4.66    1.64
  -2  -1  -8    7.52    1.43
  -1  -1  -8   13.79    1.95
   0  -1  -8    1.83    1.03
   1  -1  -8    2.59    1.12
   2  -1  -8   17.40    2.73
   3  -1  -8   20.39    2.82
   4  -1  -8   16.30    2.91
   5  -1  -8   28.43    3.68
   6  -1  -8    4.37    1.91
   7  -1  -8    8.43    2.28
   8  -1  -8   17.07    3.24
  -8   0  -8    0.23    2.15
  -7   0  -8    3.26    1.61
  -6   0  -8    0.99    1.29
  -5   0  -8   15.89    2.60
  -4   0  -8    4.37    1.28
  -3   0  -8   10.57    1.77
  -2   0  -8    0.22    0.88
  -1   0  -8    2.32    0.99
   0   0  -8  148.18    5.08
   1   0  -8    2.44    1.11
   2   0  -8   -0.11    0.95
   3   0  -8    9.40    2.21
   4   0  -8    2.92    1.66
   5   0  -8    9.83    2.41
   6   0  -8    0.23    1.26
   7   0  -8    5.69    2.11
   8   0  -8    1.87    2.37
  -8   1  -8   11.41    3.92
  -7   1  -8   13.33    2.57
  -6   1  -8    3.14    1.50
  -5   1  -8   33.86    3.64
  -4   1  -8   21.96    2.40
  -3   1  -8   21.94    2.34
  -2   1  -8   13.04    1.87
  -1   1  -8    1.42    1.00
   0   1  -8    1.95    0.99
   1   1  -8   15.18    2.02
   2   1  -8    9.46    1.78
   3   1  -8    1.96    1.48
   4   1  -8   14.83    2.65
   5   1  -8   21.10    3.18
   6   1  -8    1.45    2.41
   7   1  -8   33.80    5.74
  -8   2  -8    5.78    1.88
  -7   2  -8    1.55    1.35
  -6   2  -8    0.46    1.21
  -5   2  -8    7.73    2.04
  -4   2  -8   22.77    3.01
  -3   2  -8    6.90    1.83
  -2   2  -8    0.60    1.10
  -1   2  -8   15.62    2.45
   0   2  -8    1.03    1.23
   1   2  -8   24.06    3.28
   2   2  -8   28.39    3.42
   3   2  -8    9.72    3.36
   4   2  -8    7.20    3.09
   5   2  -8    3.08    2.56
   6   2  -8    3.06    2.41
  -8   3  -8    9.78    2.21
  -7   3  -8   14.01    2.47
  -6   3  -8   35.43    3.77
  -5   3  -8   13.97    2.53
  -4   3  -8    4.39    1.74
  -3   3  -8   11.02    2.30
  -2   3  -8   21.29    2.94
  -1   3  -8    5.20    1.72
   0   3  -8   13.08    2.55
   1   3  -8   18.17    2.92
   2   3  -8    8.26    2.18
   3   3  -8   46.73    6.77
   4   3  -8    3.13    2.18
   5   3  -8    3.68    2.55
  -9   4  -8   10.28    3.56
  -8   4  -8    1.41    1.53
  -7   4  -8    2.11    1.55
  -6   4  -8    4.27    1.68
  -5   4  -8   11.69    2.32
  -4   4  -8    4.77    1.75
  -3   4  -8   14.98    2.54
  -2   4  -8   32.00    3.71
  -1   4  -8    4.81    1.73
   0   4  -8    3.16    1.55
   1   4  -8   32.47    3.99
   2   4  -8   -0.59    1.35
   3   4  -8   25.31    5.06
   4   4  -8    0.36    2.23
  -9   5  -8    0.46    1.96
  -8   5  -8    0.90    1.53
  -7   5  -8    7.85    2.30
  -6   5  -8   27.20    3.51
  -5   5  -8    7.12    2.17
  -4   5  -8   37.16    4.04
  -3   5  -8    6.41    1.71
  -2   5  -8   12.94    2.52
  -1   5  -8   10.60    2.45
   0   5  -8   17.65    3.02
   1   5  -8    2.09    1.55
   2   5  -8    2.46    1.76
   3   5  -8    9.28    3.22
  -9   6  -8   10.13    3.38
  -8   6  -8    3.45    1.83
  -7   6  -8    1.45    1.63
  -6   6  -8    1.71    1.51
  -5   6  -8    0.09    1.36
  -4   6  -8    0.47    1.31
  -3   6  -8   43.35    4.53
  -2   6  -8    7.36    1.69
  -1   6  -8   28.25    2.97
   0   6  -8    0.56    1.49
   1   6  -8   13.46    2.59
   2   6  -8   11.60    2.61
   3   6  -8   15.32    4.53
  -8   7  -8   35.86    6.54
  -7   7  -8    1.23    1.68
  -6   7  -8   11.56    2.45
  -5   7  -8    1.71    1.31
  -4   7  -8   23.47    2.79
  -3   7  -8    1.85    1.34
  -2   7  -8    6.47    1.75
  -1   7  -8    2.46    1.73
   0   7  -8    1.35    1.60
   1   7  -8   13.77    2.92
  -6   8  -8    9.57    2.69
  -5   8  -8    9.74    2.03
  -4   8  -8    0.19    1.40
  -3   8  -8    1.68    1.43
  -2   8  -8    4.16    2.11
  -1   8  -8   28.18    3.76
  -5   9  -8    3.31    3.19
  -4   9  -8    3.61    2.80
  -3   9  -8    8.68    3.51
   3 -11  -7   18.05    4.60
   4 -11  -7    3.66    2.46
   5 -11  -7    9.93    2.62
   6 -11  -7   -0.90    1.54
   7 -11  -7    5.55    2.67
   8 -11  -7    1.60    2.24
   1 -10  -7    5.08    2.65
   2 -10  -7    7.20    2.29
   3 -10  -7    1.74    1.62
   4 -10  -7   12.60    2.70
   5 -10  -7   -0.06    1.52
   6 -10  -7   -0.60    1.40
   7 -10  -7    0.17    1.38
   8 -10  -7   18.94    3.33
   9 -10  -7    7.12    3.38
  -1  -9  -7    3.84    2.41
   0  -9  -7   -0.13    1.41
   1  -9  -7   13.78    2.66
   2  -9  -7    0.08    1.15
   3  -9  -7    4.29    1.95
   4  -9  -7   13.19    2.49
   5  -9  -7   41.50    4.31
   6  -9  -7   31.79    3.86
   7  -9  -7    5.26    1.92
   8  -9  -7    2.57    1.76
   9  -9  -7    1.65    1.72
  10  -9  -7    7.55    3.22
  -3  -8  -7    1.01    2.19
  -2  -8  -7   18.10    2.88
  -1  -8  -7    0.24    1.34
   0  -8  -7    2.71    1.65
   1  -8  -7   30.43    3.65
   2  -8  -7    3.75    1.65
   3  -8  -7    9.86    2.23
   4  -8  -7   -0.23    1.18
   5  -8  -7    2.99    1.48
   6  -8  -7   15.54    2.73
   7  -8  -7   -1.42    1.02
   8  -8  -7    8.20    2.22
   9  -8  -7   17.88    5.19
  10  -8  -7    6.04    3.37
  -4  -7  -7    5.17    2.68
  -3  -7  -7    0.48    1.34
  -2  -7  -7    3.50    1.54
  -1  -7  -7    0.94    1.35
   0  -7  -7    2.85    1.48
   1  -7  -7   13.90    2.37
   2  -7  -7    5.08    1.55
   3  -7  -7   20.39    2.90
   4  -7  -7    1.68    2.05
   5  -7  -7    1.70    1.95
   6  -7  -7   10.57    3.66
   7  -7  -7    0.56    2.06
   8  -7  -7   24.48    5.32
   9  -7  -7    0.00    2.26
  10  -7  -7    1.20    2.39
  -5  -6  -7   -0.41    1.92
  -4  -6  -7    0.14    1.24
  -3  -6  -7   28.23    3.50
  -2  -6  -7   13.99    2.56
  -1  -6  -7   17.59    2.60
   0  -6  -7   18.22    2.58
   1  -6  -7    2.81    1.33
   2  -6  -7   12.13    2.32
   3  -6  -7   10.15    1.96
   4  -6  -7    9.00    2.07
   5  -6  -7    1.70    1.22
   6  -6  -7   15.89    4.10
   7  -6  -7   13.64    4.19
   8  -6  -7    2.26    2.29
   9  -6  -7    2.11    2.85
  10  -6  -7   15.43    4.92
  -5  -5  -7   -0.58    1.23
  -4  -5  -7   34.17    3.75
  -3  -5  -7    2.83    1.57
  -2  -5  -7    2.94    1.42
  -1  -5  -7    0.64    1.00
   0  -5  -7   13.30    2.14
   1  -5  -7    6.20    1.64
   2  -5  -7   57.04    4.44
   3  -5  -7    5.48    1.66
   4  -5  -7   16.12    2.63
   5  -5  -7   13.20    2.13
   6  -5  -7    5.64    1.98
   7  -5  -7    7.74    2.29
   8  -5  -7   11.52    3.92
   9  -5  -7   20.56    5.09
  10  -5  -7    0.07    2.44
  -6  -4  -7   14.32    2.64
  -5  -4  -7   15.94    2.68
  -4  -4  -7    0.51    1.09
  -3  -4  -7    2.38    1.36
  -2  -4  -7    9.33    1.93
  -1  -4  -7   17.59    2.42
   0  -4  -7   17.32    2.47
   1  -4  -7   21.34    2.68
   2  -4  -7   -0.52    0.79
   3  -4  -7    0.08    0.94
   4  -4  -7   13.97    2.46
   5  -4  -7    7.32    1.97
   6  -4  -7   15.36    2.70
   7  -4  -7   21.53    3.20
   8  -4  -7    3.37    1.61
   9  -4  -7   39.89    4.27
  10  -4  -7    2.13    2.28
  -7  -3  -7    1.00    1.36
  -6  -3  -7    3.32    1.49
  -5  -3  -7   13.32    2.45
  -4  -3  -7   19.15    2.73
  -3  -3  -7   12.91    2.22
  -2  -3  -7    7.58    1.78
  -1  -3  -7    1.50    1.05
   0  -3  -7   35.85    3.40
   1  -3  -7    7.31    1.77
   2  -3  -7    6.11    1.24
   3  -3  -7   32.14    3.53
   4  -3  -7   22.74    3.01
   5  -3  -7   61.40    5.04
   6  -3  -7    4.93    1.58
   7  -3  -7    2.52    1.47
   8  -3  -7    2.53    1.71
   9  -3  -7   26.23    3.47
  10  -3  -7    1.73    1.74
  -8  -2  -7    5.85    1.93
  -7  -2  -7    2.63    1.39
  -6  -2  -7    3.31    1.48
  -5  -2  -7    3.14    1.46
  -4  -2  -7   16.43    2.36
  -3  -2  -7   58.29    4.37
  -2  -2  -7   -0.04    0.83
  -1  -2  -7    7.07    1.57
   0  -2  -7   45.15    3.79
   1  -2  -7    1.82    0.87
   2  -2  -7   52.56    3.02
   3  -2  -7    8.93    1.92
   4  -2  -7    1.31    1.03
   5  -2  -7    5.20    1.75
   6  -2  -7    8.67    2.22
   7  -2  -7    5.69    1.85
   8  -2  -7   20.20    3.05
   9  -2  -7    1.79    1.79
  10  -2  -7   16.54    2.90
  -9  -1  -7    3.39    2.92
  -8  -1  -7   16.14    2.83
  -7  -1  -7   27.00    3.31
  -6  -1  -7   17.49    2.66
  -5  -1  -7    2.89    1.34
  -4  -1  -7    6.26    1.53
  -3  -1  -7   24.20    2.90
  -2  -1  -7    6.04    1.54
  -1  -1  -7    2.59    0.91
   0  -1  -7   25.30    2.26
   1  -1  -7   23.50    2.22
   2  -1  -7    3.05    1.01
   3  -1  -7    6.17    1.26
   4  -1  -7    1.03    1.24
   5  -1  -7   18.35    2.84
   6  -1  -7    2.10    1.31
   7  -1  -7   19.19    3.14
   8  -1  -7    1.26    1.45
   9  -1  -7    2.67    1.70
  10  -1  -7    7.99    2.31
  -9   0  -7    0.80    1.34
  -8   0  -7    3.95    1.61
  -7   0  -7    0.82    1.22
  -6   0  -7   23.24    2.81
  -5   0  -7   12.47    2.12
  -4   0  -7   21.09    2.64
  -3   0  -7   36.64    3.40
  -2   0  -7   45.82    3.01
  -1   0  -7   17.60    1.88
   0   0  -7   -0.18    0.64
   1   0  -7   17.72    2.00
   2   0  -7   46.58    3.10
   3   0  -7   36.69    2.87
   4   0  -7   20.40    2.96
   5   0  -7   19.05    2.91
   6   0  -7   17.03    2.72
   7   0  -7    1.98    1.55
   8   0  -7    3.39    1.75
   9   0  -7    0.20    1.48
 -10   1  -7    7.51    3.00
  -9   1  -7    2.65    1.66
  -8   1  -7    2.87    1.39
  -7   1  -7   11.45    2.00
  -6   1  -7    1.92    1.21
  -5   1  -7   22.40    2.77
  -4   1  -7    1.53    0.86
  -3   1  -7    7.40    1.33
  -2   1  -7    2.31    0.89
  -1   1  -7   23.07    2.14
   0   1  -7   22.05    2.12
   1   1  -7    3.32    1.07
   2   1  -7    8.66    1.49
   3   1  -7   28.16    2.57
   4   1  -7    5.16    1.61
   5   1  -7    3.15    1.50
   6   1  -7   15.80    2.69
   7   1  -7   26.40    3.47
   8   1  -7   15.97    2.91
   9   1  -7    7.86    3.40
 -10   2  -7   14.32    3.62
  -9   2  -7    2.07    1.79
  -8   2  -7   23.11    4.04
  -7   2  -7    9.18    2.81
  -6   2  -7    9.43    1.85
  -5   2  -7    2.30    0.97
  -4   2  -7    1.41    0.83
  -3   2  -7    7.55    1.35
  -2   2  -7   47.42    3.10
  -1   2  -7    2.50    0.99
   0   2  -7   47.80    3.17
   1   2  -7    8.30    1.48
   2   2  -7   -0.11    0.75
   3   2  -7   67.54    4.04
   4   2  -7   16.37    2.65
   5   2  -7    3.67    1.46
   6   2  -7    6.25    1.99
   7   2  -7    0.61    2.18
   8   2  -7    8.62    3.21
 -10   3  -7    0.44    1.40
  -9   3  -7   25.68    3.24
  -8   3  -7    4.40    1.65
  -7   3  -7    0.88    1.17
  -6   3  -7    9.81    1.96
  -5   3  -7   52.50    4.22
  -4   3  -7   24.45    2.83
  -3   3  -7   29.58    3.11
  -2   3  -7    5.55    1.38
  -1   3  -7    6.74    1.73
   0   3  -7   32.40    3.47
   1   3  -7    2.39    1.26
   2   3  -7    3.39    1.55
   3   3  -7    5.87    1.89
   4   3  -7   23.74    4.49
   5   3  -7    9.65    3.12
   6   3  -7    1.42    1.87
   7   3  -7    0.29    2.05
 -11   4  -7    6.65    2.13
 -10   4  -7    0.38    1.21
  -9   4  -7   38.48    3.82
  -8   4  -7    1.05    1.12
  -7   4  -7   24.47    3.06
  -6   4  -7   18.07    2.56
  -5   4  -7    9.96    1.99
  -4   4  -7   19.08    2.63
  -3   4  -7    1.63    1.09
  -2   4  -7    0.35    1.00
  -1   4  -7   22.22    2.97
   0   4  -7   17.35    2.55
   1   4  -7   23.11    3.10
   2   4  -7   12.01    2.40
   3   4  -7    0.98    1.23
   4   4  -7    0.59    1.27
   5   4  -7   15.23    4.06
   6   4  -7   13.42    3.82
 -11   5  -7    1.03    1.53
 -10   5  -7    0.62    1.38
  -9   5  -7   15.94    2.66
  -8   5  -7    7.35    1.86
  -7   5  -7    6.32    1.71
  -6   5  -7    4.91    1.64
  -5   5  -7   14.25    2.29
  -4   5  -7   17.02    2.49
  -3   5  -7    1.60    1.18
  -2   5  -7   60.75    4.90
  -1   5  -7    7.75    1.93
   0   5  -7   16.45    2.14
   1   5  -7   -0.44    1.07
   2   5  -7    3.81    1.73
   3   5  -7    2.72    1.65
   4   5  -7   28.45    3.48
   5   5  -7    0.52    1.84
 -11   6  -7    7.50    2.91
 -10   6  -7   23.71    4.71
  -9   6  -7    2.35    1.55
  -8   6  -7    3.51    1.67
  -7   6  -7   12.88    2.39
  -6   6  -7   16.37    2.56
  -5   6  -7    1.57    1.26
  -4   6  -7   10.32    2.19
  -3   6  -7   16.08    2.59
  -2   6  -7   17.89    2.28
  -1   6  -7    5.33    1.40
   0   6  -7   18.94    2.40
   1   6  -7   20.26    3.02
   2   6  -7   19.03    2.90
   3   6  -7   19.36    3.02
   4   6  -7   -1.80    1.33
 -11   7  -7   -0.56    2.30
 -10   7  -7    0.70    2.19
  -9   7  -7    0.06    1.85
  -8   7  -7   27.96    5.37
  -7   7  -7    1.81    1.30
  -6   7  -7   22.65    3.04
  -5   7  -7    5.66    1.42
  -4   7  -7    3.50    1.27
  -3   7  -7   23.98    2.60
  -2   7  -7    2.65    1.34
  -1   7  -7   19.78    2.35
   0   7  -7    1.15    1.41
   1   7  -7    2.28    1.69
   2   7  -7    3.36    1.66
   3   7  -7    1.76    1.60
   4   7  -7   11.32    3.75
 -10   8  -7    6.80    2.25
  -9   8  -7   16.64    3.05
  -8   8  -7    4.55    1.95
  -7   8  -7    1.19    1.44
  -6   8  -7   17.42    2.99
  -5   8  -7    3.53    1.40
  -4   8  -7    1.35    1.15
  -3   8  -7    9.75    1.75
  -2   8  -7    5.47    1.54
  -1   8  -7   29.96    3.73
   0   8  -7    0.18    1.43
   1   8  -7    5.51    1.81
   2   8  -7   17.96    3.05
   3   8  -7    3.29    2.66
 -10   9  -7    2.74    2.84
  -9   9  -7    1.86    1.86
  -8   9  -7    2.43    1.76
  -7   9  -7    4.91    2.06
  -6   9  -7   31.74    3.96
  -5   9  -7   32.58    4.07
  -4   9  -7   12.14    2.61
  -3   9  -7    3.08    1.48
  -2   9  -7    0.04    1.19
  -1   9  -7   23.09    3.35
   0   9  -7    2.12    1.71
   1   9  -7    6.80    2.15
  -9  10  -7    4.05    2.61
  -8  10  -7   18.90    3.40
  -7  10  -7    0.12    1.60
  -6  10  -7   -1.04    1.49
  -5  10  -7    0.32    1.76
  -4  10  -7   20.51    3.48
  -3  10  -7   -0.42    1.46
  -2  10  -7    6.25    3.07
  -5  11  -7    7.47    3.40
  -4  11  -7    8.02    3.54
  -3  11  -7   14.93    4.82
   2 -12  -6    6.75    3.62
   3 -12  -6    0.95    1.75
   4 -12  -6    4.24    2.16
   5 -12  -6    4.20    1.97
   6 -12  -6    6.72    2.28
   7 -12  -6    1.20    1.57
   8 -12  -6   14.63    2.73
   9 -12  -6    3.04    2.03
  10 -12  -6    6.18    4.22
   0 -11  -6    0.58    2.21
   1 -11  -6   16.17    2.97
   2 -11  -6    2.81    1.83
   3 -11  -6    1.19    1.57
   4 -11  -6   53.90    5.05
   5 -11  -6    2.51    1.75
   6 -11  -6    5.43    2.18
   7 -11  -6   24.15    3.57
   8 -11  -6    0.66    1.56
   9 -11  -6    2.08    1.74
  10 -11  -6   -0.68    1.50
  11 -11  -6    2.66    3.28
  -1 -10  -6   -0.36    1.31
   0 -10  -6    6.00    2.13
   1 -10  -6   -0.87    1.22
   2 -10  -6    7.57    2.09
   3 -10  -6   10.89    2.34
   4 -10  -6    2.81    1.58
   5 -10  -6    8.69    2.21
   6 -10  -6   43.27    4.46
   7 -10  -6    0.34    1.21
   8 -10  -6   37.17    4.19
   9 -10  -6    1.88    1.43
  10 -10  -6    8.01    2.44
  11 -10  -6   15.85    3.19
  -3  -9  -6    4.22    1.88
  -2  -9  -6    0.25    1.44
  -1  -9  -6    1.67    1.42
   0  -9  -6    4.97    1.89
   1  -9  -6   14.87    2.64
   2  -9  -6    3.69    1.51
   3  -9  -6   15.79    2.44
   4  -9  -6    6.26    1.90
   5  -9  -6    2.66    1.45
   6  -9  -6   13.45    2.54
   7  -9  -6    1.95    1.43
   8  -9  -6   39.76    4.34
   9  -9  -6    3.29    1.66
  10  -9  -6    1.66    1.59
  11  -9  -6    1.62    1.79
  12  -9  -6    4.15    2.03
  -4  -8  -6   12.18    2.03
  -3  -8  -6    0.03    1.01
  -2  -8  -6   34.67    2.99
  -1  -8  -6   46.79    3.35
   0  -8  -6   36.95    2.95
   1  -8  -6   22.83    2.30
   2  -8  -6   11.95    2.17
   3  -8  -6    6.54    1.78
   4  -8  -6    2.47    1.19
   5  -8  -6    7.82    1.87
   6  -8  -6    1.68    1.20
   7  -8  -6   19.70    2.89
   8  -8  -6   35.57    3.90
   9  -8  -6   17.74    2.92
  10  -8  -6    7.15    2.14
  11  -8  -6    1.19    1.50
  12  -8  -6    2.93    1.76
  -5  -7  -6    1.98    1.28
  -4  -7  -6   20.05    2.48
  -3  -7  -6    2.27    1.11
  -2  -7  -6    0.30    0.87
  -1  -7  -6   23.62    2.36
   0  -7  -6   10.07    1.59
   1  -7  -6    5.98    1.23
   2  -7  -6   18.14    1.99
   3  -7  -6    1.46    0.81
   4  -7  -6   72.76    3.44
   5  -7  -6    5.07    1.54
   6  -7  -6    3.90    1.39
   7  -7  -6   11.17    2.15
   8  -7  -6   19.90    2.93
   9  -7  -6    6.02    1.91
  10  -7  -6   11.00    2.53
  11  -7  -6   52.75    5.23
  12  -7  -6    7.12    2.44
  -6  -6  -6   10.46    1.97
  -5  -6  -6   10.07    1.85
  -4  -6  -6   35.04    3.06
  -3  -6  -6   11.93    1.79
  -2  -6  -6    1.10    0.82
  -1  -6  -6    3.49    1.05
   0  -6  -6    1.72    0.82
   1  -6  -6   53.49    3.15
   2  -6  -6    5.90    1.16
   3  -6  -6   50.40    3.12
   4  -6  -6   35.59    2.62
   5  -6  -6   38.01    2.82
   6  -6  -6    1.17    0.90
   7  -6  -6    7.44    1.81
   8  -6  -6   16.64    2.71
   9  -6  -6   16.13    2.66
  10  -6  -6    4.46    1.74
  11  -6  -6    3.34    1.80
  12  -6  -6   13.03    3.00
  -7  -5  -6    8.42    2.24
  -6  -5  -6    3.01    1.35
  -5  -5  -6    9.81    1.73
  -4  -5  -6    9.10    1.62
  -3  -5  -6    9.92    1.56
  -2  -5  -6    3.90    1.05
  -1  -5  -6   41.18    2.75
   0  -5  -6   39.13    2.65
   1  -5  -6   35.82    2.49
   2  -5  -6   28.43    2.22
   3  -5  -6   56.14    2.79
   4  -5  -6   25.94    2.20
   5  -5  -6   34.15    2.67
   6  -5  -6   56.74    3.20
   7  -5  -6   18.13    2.10
   8  -5  -6   12.07    1.72
   9  -5  -6    3.99    1.66
  10  -5  -6   12.38    2.29
  11  -5  -6    8.83    2.34
  12  -5  -6    2.71    1.89
  -8  -4  -6    4.60    1.87
  -7  -4  -6   61.69    5.09
  -6  -4  -6    5.13    1.64
  -5  -4  -6    6.79    1.79
  -4  -4  -6    4.02    1.13
  -3  -4  -6   71.50    3.18
  -2  -4  -6   34.43    2.46
  -1  -4  -6   25.07    2.10
   0  -4  -6    4.73    1.05
   1  -4  -6    9.88    1.32
   2  -4  -6    9.69    1.30
   3  -4  -6    6.11    1.13
   4  -4  -6    2.56    0.90
   5  -4  -6   33.34    2.49
   6  -4  -6    7.35    1.31
   7  -4  -6    0.59    0.84
   8  -4  -6    4.39    1.24
   9  -4  -6    9.43    1.68
  10  -4  -6   33.58    4.00
  11  -4  -6   24.10    5.48
  12  -4  -6    8.64    3.86
  -8  -3  -6    2.25    1.67
  -7  -3  -6   11.90    2.32
  -6  -3  -6   16.96    2.59
  -5  -3  -6    9.47    1.89
  -4  -3  -6    1.38    1.00
  -3  -3  -6   45.05    3.67
  -2  -3  -6   57.81    3.65
  -1  -3  -6    8.49    1.59
   0  -3  -6    6.84    1.47
   1  -3  -6    3.04    1.09
   2  -3  -6   85.50    4.17
   3  -3  -6   11.74    1.44
   4  -3  -6    5.87    1.61
   5  -3  -6   30.36    3.32
   6  -3  -6   57.27    4.63
   7  -3  -6   77.28    5.60
   8  -3  -6    6.05    1.96
   9  -3  -6   12.15    2.34
  10  -3  -6    0.20    1.44
  11  -3  -6   -0.58    1.43
  -9  -2  -6    3.77    1.65
  -8  -2  -6    6.82    1.93
  -7  -2  -6    1.11    1.21
  -6  -2  -6   16.02    2.45
  -5  -2  -6   19.68    2.56
  -4  -2  -6    7.17    1.59
  -3  -2  -6   34.75    3.08
  -2  -2  -6    9.23    1.72
  -1  -2  -6   92.16    4.18
   0  -2  -6   54.11    3.37
   1  -2  -6   28.46    2.75
   2  -2  -6   57.92    2.83
   3  -2  -6    2.23    0.78
   4  -2  -6    8.05    1.73
   5  -2  -6   52.29    4.33
   6  -2  -6   38.71    3.84
   7  -2  -6    5.83    1.73
   8  -2  -6    3.43    1.50
   9  -2  -6    0.65    1.15
  10  -2  -6   29.43    3.80
  11  -2  -6    1.66    1.53
  12  -2  -6   10.10    3.69
 -10  -1  -6   19.18    3.08
  -9  -1  -6    1.65    1.27
  -8  -1  -6   16.07    2.36
  -7  -1  -6   16.78    2.58
  -6  -1  -6   11.53    1.97
  -5  -1  -6   61.56    3.89
  -4  -1  -6   37.76    3.29
  -3  -1  -6    9.27    1.63
  -2  -1  -6    2.93    1.04
  -1  -1  -6   32.99    2.84
   0  -1  -6   48.79    2.58
   1  -1  -6   49.56    2.61
   2  -1  -6   34.86    2.44
   3  -1  -6   92.14    3.41
   4  -1  -6    7.60    1.27
   5  -1  -6   28.48    3.31
   6  -1  -6   40.85    3.98
   7  -1  -6    5.42    1.73
   8  -1  -6   17.15    2.77
   9  -1  -6   37.84    4.14
  10  -1  -6    5.37    1.90
  11  -1  -6   -0.98    1.43
 -11   0  -6   -0.95    1.93
 -10   0  -6    6.59    2.06
  -9   0  -6    7.64    1.90
  -8   0  -6   33.58    3.49
  -7   0  -6    7.07    1.71
  -6   0  -6    0.71    0.86
  -5   0  -6   39.56    3.33
  -4   0  -6    4.66    1.27
  -3   0  -6    9.77    1.62
  -2   0  -6   57.41    3.20
  -1   0  -6   48.85    2.61
   0   0  -6    7.99    1.14
   1   0  -6   48.96    2.68
   2   0  -6   60.14    2.90
   3   0  -6   10.54    1.52
   4   0  -6    4.31    1.10
   5   0  -6   30.33    3.26
   6   0  -6    2.63    1.51
   7   0  -6    5.62    1.68
   8   0  -6   39.53    4.20
   9   0  -6    6.32    2.00
  10   0  -6    5.12    2.03
 -11   1  -6   -0.73    1.24
 -10   1  -6    5.78    1.77
  -9   1  -6   39.56    3.81
  -8   1  -6   21.87    2.81
  -7   1  -6    5.21    1.47
  -6   1  -6   36.91    3.31
  -5   1  -6   25.06    2.64
  -4   1  -6    5.64    1.30
  -3   1  -6   87.25    3.90
  -2   1  -6   30.05    2.19
  -1   1  -6   45.84    2.55
   0   1  -6   44.31    2.52
   1   1  -6   33.40    2.42
   2   1  -6    4.11    1.05
   3   1  -6    9.26    1.41
   4   1  -6   35.61    2.72
   5   1  -6   60.47    4.71
   6   1  -6    7.00    1.81
   7   1  -6   18.05    2.75
   8   1  -6   15.18    2.73
   9   1  -6    0.37    1.31
  10   1  -6   14.17    2.80
 -11   2  -6    0.38    1.26
 -10   2  -6   31.54    3.41
  -9   2  -6   -0.18    0.98
  -8   2  -6    1.96    1.14
  -7   2  -6    5.62    1.43
  -6   2  -6   31.43    2.90
  -5   2  -6   54.11    3.29
  -4   2  -6    8.71    1.27
  -3   2  -6    4.70    0.99
  -2   2  -6   58.00    2.65
  -1   2  -6   30.79    2.24
   0   2  -6   55.96    2.74
   1   2  -6   91.70    3.47
   2   2  -6   11.14    1.62
   3   2  -6   33.57    2.55
   4   2  -6    3.74    1.10
   5   2  -6   20.44    2.84
   6   2  -6   18.20    2.73
   7   2  -6    4.01    1.58
   8   2  -6    5.26    1.81
   9   2  -6    4.16    1.86
  10   2  -6   13.96    4.27
 -12   3  -6    4.49    2.44
 -11   3  -6    3.87    2.37
 -10   3  -6    0.78    1.60
  -9   3  -6   18.54    3.55
  -8   3  -6    7.10    2.32
  -7   3  -6   69.11    4.08
  -6   3  -6   47.02    2.90
  -5   3  -6   30.06    2.23
  -4   3  -6    7.89    1.21
  -3   3  -6    9.73    1.30
  -2   3  -6   88.76    3.24
  -1   3  -6    3.40    0.91
   0   3  -6   12.73    1.60
   1   3  -6    6.65    1.26
   2   3  -6   50.46    3.25
   3   3  -6   49.50    3.27
   4   3  -6    2.01    1.04
   5   3  -6   13.49    1.86
   6   3  -6   20.94    2.96
   7   3  -6   11.62    2.43
   8   3  -6   -0.85    1.81
 -12   4  -6   14.30    2.66
 -11   4  -6   23.96    3.05
 -10   4  -6   32.67    3.45
  -9   4  -6   10.05    1.97
  -8   4  -6    2.59    1.13
  -7   4  -6    0.77    0.95
  -6   4  -6    7.00    1.58
  -5   4  -6   34.87    3.08
  -4   4  -6    5.25    1.31
  -3   4  -6    2.86    1.06
  -2   4  -6    9.58    1.76
  -1   4  -6   10.08    1.76
   0   4  -6    4.55    1.42
   1   4  -6   22.97    2.83
   2   4  -6   27.63    3.17
   3   4  -6   76.27    5.31
   4   4  -6    1.12    1.07
   5   4  -6    9.53    2.17
   6   4  -6    4.60    2.72
   7   4  -6   51.72    7.01
   8   4  -6    5.67    3.07
 -12   5  -6    5.67    2.66
 -11   5  -6   13.23    2.36
 -10   5  -6    8.81    1.89
  -9   5  -6   10.59    1.96
  -8   5  -6    8.30    1.74
  -7   5  -6   19.81    2.45
  -6   5  -6   60.08    4.29
  -5   5  -6   36.75    3.34
  -4   5  -6   22.44    2.65
  -3   5  -6   49.72    3.89
  -2   5  -6   31.69    3.24
  -1   5  -6   32.05    3.39
   0   5  -6   37.34    2.93
   1   5  -6   43.38    3.10
   2   5  -6    5.06    1.76
   3   5  -6    1.95    1.23
   4   5  -6    3.76    1.61
   5   5  -6    6.98    1.94
   6   5  -6    8.83    3.18
   7   5  -6    9.10    3.32
 -12   6  -6   14.73    3.75
 -11   6  -6    1.17    1.80
 -10   6  -6    4.58    2.26
  -9   6  -6   24.05    2.87
  -8   6  -6   18.65    2.59
  -7   6  -6   10.37    2.00
  -6   6  -6    2.31    1.17
  -5   6  -6   43.69    3.73
  -4   6  -6   30.72    3.21
  -3   6  -6   44.82    3.95
  -2   6  -6    4.79    1.29
  -1   6  -6   59.15    3.70
   0   6  -6    2.39    1.08
   1   6  -6    4.04    1.61
   2   6  -6    1.12    1.17
   3   6  -6   11.44    2.26
   4   6  -6   32.26    3.69
   5   6  -6   11.30    2.41
   6   6  -6   14.03    4.08
 -12   7  -6    3.21    1.98
 -11   7  -6   57.12    5.27
 -10   7  -6    7.47    2.15
  -9   7  -6    5.34    2.60
  -8   7  -6   17.51    2.59
  -7   7  -6    8.59    1.81
  -6   7  -6    4.95    1.30
  -5   7  -6    2.61    1.08
  -4   7  -6   71.10    4.18
  -3   7  -6    1.64    0.98
  -2   7  -6   20.18    2.27
  -1   7  -6    9.74    1.66
   0   7  -6    8.41    1.56
   1   7  -6   19.42    2.91
   2   7  -6    0.06    1.09
   3   7  -6    0.97    1.36
   4   7  -6   20.16    3.08
   5   7  -6    1.29    1.54
 -12   8  -6    5.81    2.04
 -11   8  -6    2.55    1.71
 -10   8  -6    6.74    2.08
  -9   8  -6   17.59    2.88
  -8   8  -6   34.55    3.88
  -7   8  -6   23.18    3.23
  -6   8  -6    2.63    1.49
  -5   8  -6    7.88    1.51
  -4   8  -6    3.05    1.16
  -3   8  -6    9.12    1.70
  -2   8  -6   14.59    2.05
  -1   8  -6   18.50    2.19
   0   8  -6   44.29    4.26
   1   8  -6   37.11    3.89
   2   8  -6   25.21    3.38
   3   8  -6    1.21    1.48
   4   8  -6   13.97    2.86
 -12   9  -6    4.83    2.14
 -11   9  -6    3.20    1.79
 -10   9  -6    0.05    1.47
  -9   9  -6    6.29    2.04
  -8   9  -6   37.36    4.15
  -7   9  -6    1.94    1.54
  -6   9  -6   16.71    2.79
  -5   9  -6    3.94    1.69
  -4   9  -6    6.65    1.91
  -3   9  -6   20.15    2.42
  -2   9  -6    2.65    1.30
  -1   9  -6   16.65    2.19
   0   9  -6    5.54    1.85
   1   9  -6    4.22    1.76
   2   9  -6    1.99    1.48
   3   9  -6    3.02    1.82
 -11  10  -6   16.56    3.23
 -10  10  -6    6.10    2.23
  -9  10  -6    3.09    1.78
  -8  10  -6   32.79    4.05
  -7  10  -6    0.14    1.30
  -6  10  -6   34.22    3.99
  -5  10  -6    8.74    2.21
  -4  10  -6    3.49    1.79
  -3  10  -6   11.91    2.52
  -2  10  -6    6.35    2.04
  -1  10  -6    1.05    1.92
   0  10  -6    6.00    2.05
   1  10  -6   -0.16    1.58
   2  10  -6   10.44    3.54
 -11  11  -6    3.85    2.69
 -10  11  -6   -1.33    1.61
  -9  11  -6   -0.05    1.52
  -8  11  -6    3.69    1.97
  -7  11  -6   21.85    3.23
  -6  11  -6    7.40    2.28
  -5  11  -6    6.25    2.09
  -4  11  -6   62.27    5.29
  -3  11  -6    2.50    1.72
  -2  11  -6    2.60    2.36
  -1  11  -6   11.62    3.67
 -10  12  -6    9.89    3.81
  -9  12  -6    2.46    2.73
  -8  12  -6   17.56    3.20
  -7  12  -6    2.95    1.75
  -6  12  -6    9.42    2.48
  -5  12  -6    3.86    1.94
  -4  12  -6    4.39    1.94
  -3  12  -6   -1.74    2.31
   4 -13  -5   10.89    3.96
   5 -13  -5   -0.74    1.70
   6 -13  -5    5.12    2.96
   7 -13  -5    0.49    2.14
   8 -13  -5    1.17    2.00
   9 -13  -5    7.87    3.13
   0 -12  -5   11.95    4.24
   1 -12  -5    0.04    1.47
   2 -12  -5   10.96    2.75
   3 -12  -5   -0.05    1.48
   4 -12  -5   11.98    2.68
   5 -12  -5    3.92    1.77
   6 -12  -5    9.44    2.54
   7 -12  -5   25.59    3.72
   8 -12  -5   29.15    3.92
   9 -12  -5    1.05    1.55
  10 -12  -5    4.66    2.24
  11 -12  -5    1.25    1.66
  12 -12  -5   15.50    5.12
  -1 -11  -5    3.80    1.95
   0 -11  -5   10.92    2.57
   1 -11  -5   17.79    3.11
   2 -11  -5    7.17    2.03
   3 -11  -5   14.74    2.54
   4 -11  -5   10.55    2.35
   5 -11  -5   34.52    3.98
   6 -11  -5    4.45    1.78
   7 -11  -5   14.00    2.60
   8 -11  -5   41.28    4.46
   9 -11  -5    2.10    1.71
  10 -11  -5   10.99    2.52
  11 -11  -5   13.54    2.85
  12 -11  -5   -0.79    1.60
  13 -11  -5   10.51    4.31
  -3 -10  -5   -0.19    1.53
  -2 -10  -5    2.77    1.59
  -1 -10  -5    9.06    2.27
   0 -10  -5   51.94    4.69
   1 -10  -5   49.74    4.60
   2 -10  -5    3.99    1.63
   3 -10  -5   25.40    3.22
   4 -10  -5    3.27    1.50
   5 -10  -5    1.83    1.32
   6 -10  -5    9.90    2.18
   7 -10  -5    3.48    1.61
   8 -10  -5   17.03    2.80
   9 -10  -5    9.68    2.16
  10 -10  -5   55.23    5.19
  11 -10  -5   23.18    3.54
  12 -10  -5    8.90    2.44
  13 -10  -5    4.17    1.91
  -4  -9  -5    6.16    2.30
  -3  -9  -5    2.18    1.23
  -2  -9  -5    0.09    1.00
  -1  -9  -5    7.59    1.56
   0  -9  -5    0.11    0.96
   1  -9  -5    4.39    1.59
   2  -9  -5   11.96    2.30
   3  -9  -5    1.76    1.11
   4  -9  -5   52.24    4.38
   5  -9  -5    6.13    1.76
   6  -9  -5   17.68    2.64
   7  -9  -5    5.91    1.68
   8  -9  -5   22.71    3.18
   9  -9  -5    1.09    1.18
  10  -9  -5   55.92    4.99
  11  -9  -5    3.37    1.76
  12  -9  -5    1.09    1.09
  13  -9  -5   16.92    3.34
  -5  -8  -5    1.78    1.83
  -4  -8  -5   29.76    3.84
  -3  -8  -5   35.60    3.11
  -2  -8  -5   16.09    2.07
  -1  -8  -5   25.44    2.36
   0  -8  -5    2.26    1.02
   1  -8  -5   24.42    2.24
   2  -8  -5   68.29    3.26
   3  -8  -5  102.04    4.87
   4  -8  -5   56.43    4.30
   5  -8  -5    2.85    1.33
   6  -8  -5   26.39    3.06
   7  -8  -5    5.37    1.59
   8  -8  -5    2.75    1.33
   9  -8  -5    7.06    2.01
  10  -8  -5    3.38    1.19
  11  -8  -5   16.74    2.16
  12  -8  -5   20.68    3.44
  13  -8  -5   -1.92    1.23
  -6  -7  -5   -0.35    1.41
  -5  -7  -5   14.85    2.76
  -4  -7  -5   16.21    2.82
  -3  -7  -5    2.37    1.09
  -2  -7  -5    6.45    1.35
  -1  -7  -5    5.38    1.21
   0  -7  -5   13.20    1.64
   1  -7  -5    7.02    1.24
   2  -7  -5   59.16    2.81
   3  -7  -5   18.42    1.77
   4  -7  -5   19.68    1.89
   5  -7  -5   23.38    2.69
   6  -7  -5  165.18    6.36
   7  -7  -5    8.33    1.56
   8  -7  -5   22.28    2.96
   9  -7  -5   10.05    1.64
  10  -7  -5   24.54    2.45
  11  -7  -5    7.67    2.03
  12  -7  -5    2.20    1.66
  13  -7  -5    6.27    2.11
  -7  -6  -5    7.40    2.38
  -6  -6  -5    5.94    2.00
  -5  -6  -5    4.82    1.68
  -4  -6  -5   11.10    2.22
  -3  -6  -5   17.11    1.98
  -2  -6  -5   28.19    2.42
  -1  -6  -5  166.04    4.86
   0  -6  -5    0.40    0.62
   1  -6  -5   41.03    2.56
   2  -6  -5   10.86    1.36
   3  -6  -5   26.08    2.09
   4  -6  -5    2.23    0.79
   5  -6  -5   10.31    1.42
   6  -6  -5    0.41    0.73
   7  -6  -5    7.80    1.64
   8  -6  -5   63.13    3.04
   9  -6  -5    0.85    1.15
  10  -6  -5    4.18    1.77
  11  -6  -5   32.11    3.80
  12  -6  -5    6.06    2.08
  13  -6  -5   -1.14    1.24
  -8  -5  -5    0.17    1.57
  -7  -5  -5    3.53    1.80
  -6  -5  -5   31.23    3.68
  -5  -5  -5    4.23    1.55
  -4  -5  -5    4.48    1.48
  -3  -5  -5    6.29    1.23
  -2  -5  -5   21.76    1.98
  -1  -5  -5    9.86    1.35
   0  -5  -5   58.06    2.64
   1  -5  -5    9.53    1.29
   2  -5  -5   88.28    3.09
   3  -5  -5    9.73    1.27
   4  -5  -5  115.98    3.65
   5  -5  -5   58.21    2.80
   6  -5  -5   45.80    2.93
   7  -5  -5   59.14    3.16
   8  -5  -5   93.09    3.76
   9  -5  -5   49.34    3.53
  10  -5  -5    2.06    1.38
  11  -5  -5    6.34    1.94
  12  -5  -5   22.62    3.13
  13  -5  -5   -0.36    1.44
  -9  -4  -5   12.39    2.75
  -8  -4  -5   14.10    2.62
  -7  -4  -5    8.51    2.11
  -6  -4  -5    6.75    1.86
  -5  -4  -5   44.75    3.96
  -4  -4  -5   53.47    3.25
  -3  -4  -5   19.79    1.90
  -2  -4  -5    2.21    0.76
  -1  -4  -5  115.10    3.55
   0  -4  -5    2.62    0.75
   1  -4  -5  120.27    3.56
   2  -4  -5   10.63    1.22
   3  -4  -5   16.04    1.54
   4  -4  -5    1.60    0.55
   5  -4  -5    8.11    1.23
   6  -4  -5   13.78    1.62
   7  -4  -5   16.14    1.82
   8  -4  -5   55.02    3.45
   9  -4  -5    4.83    1.28
  10  -4  -5   12.15    1.82
  11  -4  -5   13.87    2.77
  12  -4  -5   32.01    4.06
  13  -4  -5    6.65    2.30
 -10  -3  -5    4.44    3.26
  -9  -3  -5    0.62    1.28
  -8  -3  -5   17.34    2.91
  -7  -3  -5   27.49    3.32
  -6  -3  -5    1.19    1.06
  -5  -3  -5   92.17    4.55
  -4  -3  -5   18.98    1.89
  -3  -3  -5   30.42    2.20
  -2  -3  -5    7.76    1.08
  -1  -3  -5   14.76    1.43
   0  -3  -5   87.94    2.91
   1  -3  -5   70.15    2.52
   2  -3  -5   95.58    3.01
   3  -3  -5   95.81    2.54
   4  -3  -5  126.45    3.10
   5  -3  -5   83.99    3.18
   6  -3  -5   27.25    2.25
   7  -3  -5   20.72    2.01
   8  -3  -5    5.55    1.22
   9  -3  -5   18.02    2.10
  10  -3  -5    1.13    1.00
  11  -3  -5   42.15    3.42
  12  -3  -5    0.97    1.16
  13  -3  -5   -1.64    2.13
 -10  -2  -5    9.67    2.51
  -9  -2  -5   10.47    2.39
  -8  -2  -5    5.28    1.67
  -7  -2  -5   12.51    2.18
  -6  -2  -5   73.24    4.17
  -5  -2  -5   57.69    3.02
  -4  -2  -5   11.17    1.35
  -3  -2  -5   87.65    3.06
  -2  -2  -5    9.48    1.17
  -1  -2  -5   95.46    2.89
   0  -2  -5   38.76    1.91
   1  -2  -5   20.35    1.56
   2  -2  -5   35.73    1.57
   3  -2  -5   69.20    2.14
   4  -2  -5   10.19    1.05
   5  -2  -5    8.54    1.23
   6  -2  -5    2.58    0.92
   7  -2  -5   28.29    2.43
   8  -2  -5   37.59    2.91
   9  -2  -5    9.74    1.55
  10  -2  -5   19.73    2.34
  11  -2  -5    1.84    1.18
  12  -2  -5    1.45    1.33
  13  -2  -5    1.00    1.78
 -11  -1  -5   -0.79    1.73
 -10  -1  -5   17.97    4.12
  -9  -1  -5   58.12    4.91
  -8  -1  -5    3.46    1.46
  -7  -1  -5   23.88    2.80
  -6  -1  -5    6.68    1.20
  -5  -1  -5   39.02    2.52
  -4  -1  -5    7.91    1.05
  -3  -1  -5  128.38    3.57
  -2  -1  -5   69.31    2.37
  -1  -1  -5   21.17    1.51
   0  -1  -5   49.18    1.88
   1  -1  -5   49.44    1.68
   2  -1  -5   21.22    1.31
   3  -1  -5   90.90    2.52
   4  -1  -5   16.67    1.34
   5  -1  -5  115.49    3.76
   6  -1  -5    9.86    1.42
   7  -1  -5  168.86    5.12
   8  -1  -5    4.97    1.13
   9  -1  -5   23.07    2.47
  10  -1  -5    8.77    1.81
  11  -1  -5    9.56    1.87
  12  -1  -5    1.52    1.64
 -11   0  -5    9.28    3.43
 -10   0  -5   42.14    5.95
  -9   0  -5    0.64    1.55
  -8   0  -5    2.29    1.09
  -7   0  -5    9.23    1.70
  -6   0  -5   -0.51    0.63
  -5   0  -5   53.42    3.04
  -4   0  -5    0.61    0.72
  -3   0  -5   91.35    3.67
  -2   0  -5   36.30    2.70
  -1   0  -5   50.29    2.59
   0   0  -5   -0.38    0.40
   1   0  -5   45.73    2.22
   2   0  -5   31.82    2.11
   3   0  -5   88.40    3.22
   4   0  -5    1.91    0.79
   5   0  -5   63.00    2.43
   6   0  -5   -0.57    0.63
   7   0  -5   11.73    1.62
   8   0  -5    4.59    1.58
   9   0  -5    0.88    1.12
  10   0  -5   35.75    4.03
  11   0  -5   10.35    2.31
 -12   1  -5    0.33    1.94
 -11   1  -5   10.17    3.27
 -10   1  -5   10.58    1.98
  -9   1  -5   26.17    2.88
  -8   1  -5    2.64    1.15
  -7   1  -5  175.60    5.93
  -6   1  -5   10.63    1.72
  -5   1  -5  108.91    4.24
  -4   1  -5   14.59    1.77
  -3   1  -5   88.47    3.53
  -2   1  -5   16.12    1.44
  -1   1  -5   46.77    2.06
   0   1  -5   48.90    2.14
   1   1  -5   19.78    1.69
   2   1  -5   70.60    2.80
   3   1  -5  129.93    4.03
   4   1  -5    7.80    1.28
   5   1  -5   45.90    2.94
   6   1  -5    5.68    1.64
   7   1  -5   21.16    2.89
   8   1  -5    8.93    2.10
   9   1  -5   64.42    5.31
  10   1  -5   15.55    2.85
  11   1  -5   -0.04    1.45
 -13   2  -5    1.68    2.23
 -12   2  -5    0.79    1.30
 -11   2  -5    0.75    1.15
 -10   2  -5   18.90    2.51
  -9   2  -5    6.73    1.55
  -8   2  -5   31.05    2.90
  -7   2  -5   28.61    2.65
  -6   2  -5    3.76    1.10
  -5   2  -5    6.78    1.23
  -4   2  -5    6.72    1.21
  -3   2  -5   66.99    2.50
  -2   2  -5   33.05    1.91
  -1   2  -5   21.71    1.69
   0   2  -5   32.75    2.13
   1   2  -5   94.31    3.24
   2   2  -5    8.69    1.27
   3   2  -5   92.40    3.46
   4   2  -5    9.93    1.42
   5   2  -5   58.31    3.14
   6   2  -5   58.19    4.59
   7   2  -5   14.39    2.40
   8   2  -5    1.41    1.40
   9   2  -5    7.38    2.10
  10   2  -5   11.88    2.70
 -13   3  -5    0.33    1.72
 -12   3  -5    1.25    1.27
 -11   3  -5   46.34    3.98
 -10   3  -5    4.09    1.29
  -9   3  -5   19.92    2.38
  -8   3  -5    3.62    1.11
  -7   3  -5   21.73    2.31
  -6   3  -5   30.69    2.49
  -5   3  -5   87.95    2.99
  -4   3  -5  130.24    3.64
  -3   3  -5   86.28    2.84
  -2   3  -5   92.33    2.96
  -1   3  -5   68.46    2.60
   0   3  -5   93.63    3.19
   1   3  -5   15.27    1.63
   2   3  -5    8.25    1.27
   3   3  -5   29.97    2.35
   4   3  -5   14.84    1.77
   5   3  -5  100.59    3.85
   6   3  -5    1.92    0.97
   7   3  -5   24.85    3.21
   8   3  -5   14.83    2.62
   9   3  -5   -0.01    1.29
  10   3  -5    4.60    2.73
 -12   4  -5   33.08    4.72
 -11   4  -5   11.56    2.92
 -10   4  -5   17.23    3.39
  -9   4  -5    7.54    2.26
  -8   4  -5   55.13    3.80
  -7   4  -5   18.11    2.16
  -6   4  -5   10.50    1.63
  -5   4  -5    6.90    1.39
  -4   4  -5    1.41    0.82
  -3   4  -5   14.11    1.83
  -2   4  -5    7.91    1.37
  -1   4  -5  133.65    3.91
   0   4  -5    0.62    0.62
   1   4  -5  114.83    3.80
   2   4  -5    3.13    0.80
   3   4  -5   21.31    2.06
   4   4  -5   54.94    3.40
   5   4  -5   55.52    3.55
   6   4  -5    3.61    1.15
   7   4  -5    8.17    2.02
   8   4  -5   17.78    4.35
   9   4  -5   14.99    4.38
 -12   5  -5   16.45    3.87
 -11   5  -5    8.65    1.97
 -10   5  -5    2.34    1.12
  -9   5  -5   54.66    3.47
  -8   5  -5   88.79    4.11
  -7   5  -5   51.93    3.61
  -6   5  -5   45.93    3.38
  -5   5  -5   63.06    3.32
  -4   5  -5  102.51    4.29
  -3   5  -5    5.26    1.22
  -2   5  -5   84.87    4.11
  -1   5  -5    7.96    1.57
   0   5  -5   68.84    3.03
   1   5  -5    7.84    1.32
   2   5  -5   23.20    2.83
   3   5  -5    6.28    1.54
   4   5  -5    5.46    1.70
   5   5  -5    2.37    1.30
   6   5  -5   33.49    3.54
   7   5  -5    0.72    1.95
   8   5  -5    1.62    2.43
 -12   6  -5    5.49    1.94
 -11   6  -5   36.09    5.17
 -10   6  -5    4.75    1.48
  -9   6  -5   -0.31    0.77
  -8   6  -5   67.85    3.57
  -7   6  -5    6.30    1.45
  -6   6  -5    0.14    0.64
  -5   6  -5   13.76    1.97
  -4   6  -5    1.37    0.84
  -3   6  -5   28.61    2.42
  -2   6  -5   10.69    1.54
  -1   6  -5   41.03    2.90
   0   6  -5    1.32    0.89
   1   6  -5  177.85    5.12
   2   6  -5   30.83    3.32
   3   6  -5   13.29    2.30
   4   6  -5   12.82    2.33
   5   6  -5    8.83    2.10
   6   6  -5    9.12    2.26
   7   6  -5    3.02    2.70
 -12   7  -5    2.76    1.48
 -11   7  -5    5.84    1.83
 -10   7  -5   23.54    3.00
  -9   7  -5    9.93    2.11
  -8   7  -5   24.48    2.38
  -7   7  -5   11.44    1.66
  -6   7  -5  173.59    5.11
  -5   7  -5   26.54    2.42
  -4   7  -5   20.74    2.15
  -3   7  -5   14.86    1.80
  -2   7  -5   52.38    3.33
  -1   7  -5    5.50    1.23
   0   7  -5   12.20    1.73
   1   7  -5    5.52    1.64
   2   7  -5   11.31    2.19
   3   7  -5    1.99    1.29
   4   7  -5   15.68    2.70
   5   7  -5   23.22    3.29
   6   7  -5    1.01    1.47
 -13   8  -5    0.88    2.42
 -12   8  -5   13.48    4.13
 -11   8  -5   16.73    2.79
 -10   8  -5    4.66    1.70
  -9   8  -5    8.33    2.04
  -8   8  -5    3.44    1.49
  -7   8  -5    6.53    1.61
  -6   8  -5   34.46    3.67
  -5   8  -5    6.37    1.37
  -4   8  -5   60.77    3.73
  -3   8  -5   96.50    3.88
  -2   8  -5   65.99    3.59
  -1   8  -5   22.29    2.26
   0   8  -5    4.31    1.19
   1   8  -5   24.75    3.17
   2   8  -5   25.89    3.26
   3   8  -5   41.56    4.17
   4   8  -5   37.69    4.07
   5   8  -5    3.41    1.85
 -13   9  -5   15.99    2.97
 -12   9  -5    3.25    2.90
 -11   9  -5    7.63    2.18
 -10   9  -5   52.49    4.88
  -9   9  -5    1.64    1.39
  -8   9  -5   26.13    3.40
  -7   9  -5    4.30    1.77
  -6   9  -5   11.78    2.32
  -5   9  -5    3.97    1.41
  -4   9  -5   53.86    4.59
  -3   9  -5    0.82    0.84
  -2   9  -5    8.62    1.51
  -1   9  -5    8.06    1.48
   0   9  -5    2.65    1.35
   1   9  -5    7.96    1.90
   2   9  -5    0.51    1.31
   3   9  -5    2.32    1.69
   4   9  -5    8.64    2.37
 -13  10  -5    3.20    1.92
 -12  10  -5    5.99    3.02
 -11  10  -5   19.18    3.10
 -10  10  -5   43.78    4.61
  -9  10  -5   12.56    2.36
  -8  10  -5   19.37    2.95
  -7  10  -5    2.01    1.46
  -6  10  -5    6.63    2.05
  -5  10  -5    2.25    1.54
  -4  10  -5    3.28    1.46
  -3  10  -5   22.93    3.11
  -2  10  -5    6.50    1.93
  -1  10  -5   57.00    4.71
   0  10  -5   49.90    4.46
   1  10  -5   13.92    2.67
   2  10  -5    1.98    1.62
   3  10  -5    2.27    1.76
 -12  11  -5    3.26    2.86
 -11  11  -5    9.65    3.42
 -10  11  -5    5.84    2.06
  -9  11  -5    0.92    1.52
  -8  11  -5   40.34    4.28
  -7  11  -5   10.87    2.39
  -6  11  -5    4.17    1.62
  -5  11  -5   36.62    4.05
  -4  11  -5    3.55    1.63
  -3  11  -5   14.71    2.66
  -2  11  -5    7.87    2.11
  -1  11  -5   24.77    4.90
   0  11  -5    7.99    3.11
   1  11  -5    1.40    2.31
 -11  12  -5    0.48    2.28
 -10  12  -5    2.39    1.82
  -9  12  -5    3.51    1.96
  -8  12  -5   37.99    4.39
  -7  12  -5   22.24    3.46
  -6  12  -5    6.45    2.13
  -5  12  -5    1.76    1.61
  -4  12  -5   17.82    2.96
  -3  12  -5   -0.20    1.33
  -2  12  -5    7.19    2.24
  -1  12  -5   -2.50    1.67
  -9  13  -5   10.25    2.62
  -8  13  -5    2.05    1.83
  -7  13  -5    0.69    1.59
  -6  13  -5   11.00    2.52
  -5  13  -5   -1.22    1.54
  -4  13  -5   22.46    3.38
  -3  13  -5    4.66    2.96
   5 -14  -4    3.95    2.84
   6 -14  -4    6.90    3.41
   7 -14  -4    5.85    3.23
   8 -14  -4   32.00    6.03
   9 -14  -4    2.64    2.21
   2 -13  -4    2.63    2.80
   3 -13  -4   15.29    4.31
   4 -13  -4   47.31    7.08
   5 -13  -4   33.57    5.84
   6 -13  -4    3.24    2.39
   7 -13  -4   23.34    4.83
   8 -13  -4    2.45    2.32
   9 -13  -4   14.60    4.15
  10 -13  -4   -2.70    1.73
  11 -13  -4    7.58    2.12
  12 -13  -4    0.65    1.78
   0 -12  -4    5.98    2.97
   1 -12  -4    0.88    1.73
   2 -12  -4    6.70    1.95
   3 -12  -4    5.27    2.02
   4 -12  -4    1.45    1.41
   5 -12  -4    4.24    1.74
   6 -12  -4    6.85    2.03
   7 -12  -4    5.62    1.95
   8 -12  -4    1.71    1.98
   9 -12  -4    0.76    1.09
  10 -12  -4  107.14    5.38
  11 -12  -4    2.02    1.41
  12 -12  -4    6.32    1.94
  13 -12  -4   13.94    3.43
  -3 -11  -4   11.78    4.20
  -2 -11  -4    5.88    2.13
  -1 -11  -4    6.44    2.05
   0 -11  -4    2.10    1.60
   1 -11  -4   15.55    2.71
   2 -11  -4   16.92    2.74
   3 -11  -4   39.29    4.15
   4 -11  -4    1.12    1.23
   5 -11  -4   40.55    3.99
   6 -11  -4   62.01    5.09
   7 -11  -4   30.39    3.63
   8 -11  -4   20.17    2.27
   9 -11  -4    7.48    1.49
  10 -11  -4    1.42    1.07
  11 -11  -4    1.05    1.12
  12 -11  -4    1.26    1.18
  13 -11  -4    1.11    1.22
  14 -11  -4    4.30    1.95
  -4 -10  -4   -0.92    1.48
  -3 -10  -4    3.27    1.90
  -2 -10  -4   98.74    6.92
  -1 -10  -4    1.08    1.38
   0 -10  -4    2.29    1.35
   1 -10  -4   21.44    2.92
   2 -10  -4   16.46    2.64
   3 -10  -4    4.80    1.62
   4 -10  -4   14.84    2.33
   5 -10  -4    9.38    2.01
   6 -10  -4   82.85    3.61
   7 -10  -4   11.63    1.63
   8 -10  -4    3.60    1.12
   9 -10  -4   14.56    1.91
  10 -10  -4    5.28    1.35
  11 -10  -4   14.55    2.04
  12 -10  -4    6.29    1.71
  13 -10  -4   13.26    2.16
  14 -10  -4    4.73    1.61
  -5  -9  -4    3.58    2.04
  -4  -9  -4   15.48    2.94
  -3  -9  -4    2.77    1.70
  -2  -9  -4    5.72    1.87
  -1  -9  -4   17.59    2.78
   0  -9  -4    6.37    1.24
   1  -9  -4   21.88    2.74
   2  -9  -4   74.33    4.62
   3  -9  -4   49.61    4.07
   4  -9  -4    3.71    1.38
   5  -9  -4   34.65    2.45
   6  -9  -4   18.60    1.84
   7  -9  -4   15.58    1.75
   8  -9  -4   10.45    1.54
   9  -9  -4    3.55    1.05
  10  -9  -4   19.56    2.13
  11  -9  -4   13.28    1.93
  12  -9  -4    4.15    1.36
  13  -9  -4   25.45    2.88
  14  -9  -4    1.47    1.35
  -6  -8  -4   25.38    3.82
  -5  -8  -4   -0.82    1.28
  -4  -8  -4    3.30    1.71
  -3  -8  -4   18.77    2.96
  -2  -8  -4    2.66    1.23
  -1  -8  -4   11.59    2.16
   0  -8  -4   36.96    2.59
   1  -8  -4   29.63    2.25
   2  -8  -4   10.22    1.30
   3  -8  -4   10.48    1.85
   4  -8  -4   24.99    1.96
   5  -8  -4   37.82    2.26
   6  -8  -4   42.90    2.45
   7  -8  -4   57.46    2.92
   8  -8  -4   33.28    2.47
   9  -8  -4   18.47    1.95
  10  -8  -4   13.47    1.86
  11  -8  -4   39.69    3.11
  12  -8  -4    0.04    0.87
  13  -8  -4   36.56    3.31
  14  -8  -4    2.86    1.86
  -7  -7  -4   10.33    2.70
  -6  -7  -4   16.65    3.07
  -5  -7  -4    5.98    1.90
  -4  -7  -4   26.91    3.44
  -3  -7  -4   11.50    2.13
  -2  -7  -4   16.30    2.39
  -1  -7  -4   45.57    3.75
   0  -7  -4    9.44    1.34
   1  -7  -4   13.97    1.51
   2  -7  -4   21.07    1.78
   3  -7  -4   12.62    1.37
   4  -7  -4   60.86    2.06
   5  -7  -4    1.57    0.67
   6  -7  -4   95.27    3.26
   7  -7  -4    8.63    1.27
   8  -7  -4   27.78    2.22
   9  -7  -4   72.73    3.35
  10  -7  -4    2.46    0.96
  11  -7  -4   -0.08    0.81
  12  -7  -4    1.99    1.16
  13  -7  -4    3.85    1.85
  14  -7  -4   15.67    3.16
  -8  -6  -4    3.60    1.95
  -7  -6  -4    5.85    2.13
  -6  -6  -4    7.24    2.05
  -5  -6  -4   63.98    5.11
  -4  -6  -4   85.05    4.69
  -3  -6  -4   21.32    2.76
  -2  -6  -4   39.83    3.50
  -1  -6  -4   94.02    4.34
   0  -6  -4    7.06    1.06
   1  -6  -4   77.22    2.75
   2  -6  -4   27.93    1.94
   3  -6  -4   74.39    2.12
   4  -6  -4    9.84    0.96
   5  -6  -4   13.03    1.12
   6  -6  -4    6.86    0.92
   7  -6  -4   13.94    1.30
   8  -6  -4    8.32    1.24
   9  -6  -4   53.74    2.99
  10  -6  -4    7.84    1.40
  11  -6  -4   35.36    3.95
  12  -6  -4   11.01    2.38
  13  -6  -4   21.49    3.37
  14  -6  -4   23.95    3.75
  -9  -5  -4    1.76    1.75
  -8  -5  -4   34.74    4.20
  -7  -5  -4    2.72    1.59
  -6  -5  -4   30.08    3.53
  -5  -5  -4   10.27    2.04
  -4  -5  -4   30.36    3.24
  -3  -5  -4   30.63    3.02
  -2  -5  -4    0.70    0.76
  -1  -5  -4   13.95    1.42
   0  -5  -4   12.32    1.30
   1  -5  -4   19.28    1.61
   2  -5  -4   57.78    1.72
   3  -5  -4   45.35    1.56
   4  -5  -4   52.73    1.75
   5  -5  -4   11.64    1.04
   6  -5  -4   74.89    2.35
   7  -5  -4   18.04    1.45
   8  -5  -4    8.26    1.10
   9  -5  -4    3.33    0.86
  10  -5  -4   10.92    2.21
  11  -5  -4   62.56    5.23
  12  -5  -4    6.51    2.17
  13  -5  -4    0.55    1.45
  14  -5  -4    5.27    2.27
 -10  -4  -4    4.11    3.02
  -9  -4  -4   28.28    3.89
  -8  -4  -4    1.62    1.47
  -7  -4  -4    0.82    1.22
  -6  -4  -4   11.79    2.13
  -5  -4  -4    4.27    1.36
  -4  -4  -4   19.17    2.31
  -3  -4  -4   59.46    3.49
  -2  -4  -4    9.71    1.58
  -1  -4  -4   51.24    2.17
   0  -4  -4   39.56    2.06
   1  -4  -4   31.82    1.76
   2  -4  -4  158.48    2.99
   3  -4  -4  129.93    2.72
   4  -4  -4   32.42    1.51
   5  -4  -4   20.51    1.41
   6  -4  -4   23.84    1.60
   7  -4  -4   14.19    1.34
   8  -4  -4   24.64    2.18
   9  -4  -4   29.78    2.51
  10  -4  -4   77.20    3.73
  11  -4  -4   31.17    2.81
  12  -4  -4    1.59    1.36
  13  -4  -4   12.42    2.67
  14  -4  -4    3.14    2.61
 -11  -3  -4   -1.56    2.52
 -10  -3  -4    8.50    2.36
  -9  -3  -4    3.64    1.80
  -8  -3  -4   38.40    4.06
  -7  -3  -4    1.89    1.19
  -6  -3  -4   47.50    3.92
  -5  -3  -4   10.53    1.80
  -4  -3  -4   14.02    1.92
  -3  -3  -4   70.64    3.42
  -2  -3  -4   41.84    1.95
  -1  -3  -4  127.59    3.41
   0  -3  -4   83.99    2.60
   1  -3  -4    8.68    0.67
   2  -3  -4   33.17    1.20
   3  -3  -4   84.83    2.10
   4  -3  -4   31.37    1.22
   5  -3  -4   61.98    2.62
   6  -3  -4   74.71    2.93
   7  -3  -4   61.65    2.91
   8  -3  -4   39.96    2.73
   9  -3  -4   14.90    1.73
  10  -3  -4   11.28    1.73
  11  -3  -4   21.01    2.36
  12  -3  -4   -0.75    1.01
  13  -3  -4    0.57    1.49
 -11  -2  -4    0.22    1.58
 -10  -2  -4    3.45    1.71
  -9  -2  -4   12.06    2.49
  -8  -2  -4   16.85    2.71
  -7  -2  -4   72.43    4.50
  -6  -2  -4    6.99    1.51
  -5  -2  -4   21.97    2.35
  -4  -2  -4   27.20    2.40
  -3  -2  -4   58.61    2.30
  -2  -2  -4  153.44    3.80
  -1  -2  -4   36.93    1.82
   0  -2  -4   11.75    1.08
   1  -2  -4   41.87    1.70
   2  -2  -4   12.15    1.13
   3  -2  -4    9.53    0.87
   4  -2  -4  156.46    3.31
   5  -2  -4   41.95    1.76
   6  -2  -4    8.43    1.24
   7  -2  -4    1.34    0.73
   8  -2  -4   45.51    2.98
   9  -2  -4   21.19    2.26
  10  -2  -4    4.70    1.35
  11  -2  -4    8.44    1.77
  12  -2  -4   98.39    4.82
  13  -2  -4    5.17    1.68
 -12  -1  -4   13.70    3.10
 -11  -1  -4    1.32    1.41
 -10  -1  -4   10.52    2.30
  -9  -1  -4   18.11    2.83
  -8  -1  -4   16.93    2.55
  -7  -1  -4   29.20    3.00
  -6  -1  -4   15.55    2.10
  -5  -1  -4   72.91    3.41
  -4  -1  -4   20.73    2.06
  -3  -1  -4   31.28    1.72
  -2  -1  -4    6.54    0.83
  -1  -1  -4   39.33    1.58
   0  -1  -4    8.46    0.85
   1  -1  -4    8.85    0.88
   2  -1  -4   45.04    1.49
   3  -1  -4   34.33    1.48
   4  -1  -4  130.99    3.02
   5  -1  -4   55.51    2.02
   6  -1  -4   15.06    1.61
   7  -1  -4   92.72    3.53
   8  -1  -4   66.72    3.42
   9  -1  -4   13.93    1.90
  10  -1  -4   17.09    2.21
  11  -1  -4    3.31    1.31
  12  -1  -4    4.68    1.45
  13  -1  -4    4.40    1.99
 -12   0  -4    3.77    1.83
 -11   0  -4    1.55    1.52
 -10   0  -4    8.68    2.13
  -9   0  -4    5.71    1.63
  -8   0  -4   38.55    3.49
  -7   0  -4   10.39    1.85
  -6   0  -4    7.14    1.40
  -5   0  -4   14.61    1.71
  -4   0  -4   36.55    1.91
  -3   0  -4   85.54    2.48
  -2   0  -4   14.62    1.12
  -1   0  -4   10.04    0.87
   0   0  -4  980.51   11.70
   1   0  -4    9.43    0.75
   2   0  -4   14.34    1.01
   3   0  -4   86.36    2.34
   4   0  -4   37.71    1.80
   5   0  -4   13.83    1.24
   6   0  -4    6.71    0.94
   7   0  -4   10.33    1.51
   8   0  -4   34.00    2.72
   9   0  -4    5.48    1.38
  10   0  -4    5.72    1.51
  11   0  -4    1.29    1.12
  12   0  -4    4.24    1.53
 -13   1  -4    2.35    1.58
 -12   1  -4    5.43    1.95
 -11   1  -4    3.48    1.55
 -10   1  -4   14.97    2.41
  -9   1  -4   12.71    2.19
  -8   1  -4   61.66    3.81
  -7   1  -4   87.56    3.98
  -6   1  -4   14.37    1.41
  -5   1  -4   48.40    2.01
  -4   1  -4  130.32    3.20
  -3   1  -4   34.45    1.44
  -2   1  -4   42.43    1.41
  -1   1  -4   10.46    0.62
   0   1  -4    8.76    0.64
   1   1  -4   43.71    1.37
   2   1  -4    8.18    0.82
   3   1  -4   28.97    1.53
   4   1  -4   21.27    1.50
   5   1  -4   73.82    2.43
   6   1  -4   15.26    1.42
   7   1  -4   26.33    2.34
   8   1  -4   18.14    2.03
   9   1  -4   22.77    2.48
  10   1  -4   11.27    1.92
  11   1  -4    1.04    1.52
  12   1  -4    9.63    2.58
 -13   2  -4    8.25    3.14
 -12   2  -4   88.55    5.61
 -11   2  -4    6.30    1.78
 -10   2  -4    6.75    1.71
  -9   2  -4   20.89    2.51
  -8   2  -4   46.59    3.50
  -7   2  -4    1.92    0.69
  -6   2  -4    8.10    1.04
  -5   2  -4   45.95    1.83
  -4   2  -4  165.60    3.49
  -3   2  -4    8.67    0.75
  -2   2  -4   11.83    1.11
  -1   2  -4   43.80    1.78
   0   2  -4   10.74    1.10
   1   2  -4   34.29    1.34
   2   2  -4  155.30    3.30
   3   2  -4   56.09    2.05
   4   2  -4   29.09    1.79
   5   2  -4   21.68    1.66
   6   2  -4    7.18    1.11
   7   2  -4   67.74    3.58
   8   2  -4   19.48    2.23
   9   2  -4   14.37    2.67
  10   2  -4    6.85    2.00
  11   2  -4    1.57    1.49
 -14   3  -4   11.63    3.53
 -13   3  -4    3.16    2.16
 -12   3  -4    1.01    1.61
 -11   3  -4   13.40    2.95
 -10   3  -4   10.68    1.97
  -9   3  -4   14.66    1.64
  -8   3  -4   37.69    2.43
  -7   3  -4   65.80    2.46
  -6   3  -4   71.50    2.41
  -5   3  -4   58.74    2.56
  -4   3  -4   32.30    1.73
  -3   3  -4   81.60    2.47
  -2   3  -4   35.15    1.63
  -1   3  -4    8.25    0.97
   0   3  -4   83.00    2.76
   1   3  -4  125.38    3.64
   2   3  -4   44.39    1.93
   3   3  -4   73.96    2.36
   4   3  -4   15.32    1.68
   5   3  -4    9.02    1.39
   6   3  -4   47.89    3.20
   7   3  -4    4.72    1.62
   8   3  -4   34.87    3.78
   9   3  -4    5.72    1.93
  10   3  -4   14.52    2.89
  11   3  -4    4.06    2.64
 -13   4  -4   20.25    4.17
 -12   4  -4    1.29    1.67
 -11   4  -4   34.26    3.16
 -10   4  -4   85.28    3.92
  -9   4  -4   37.80    2.94
  -8   4  -4   21.37    2.13
  -7   4  -4   17.40    1.53
  -6   4  -4   23.79    1.69
  -5   4  -4   19.79    1.49
  -4   4  -4   36.02    1.76
  -3   4  -4  130.10    3.22
  -2   4  -4  159.32    3.73
  -1   4  -4   33.30    1.81
   0   4  -4   40.82    2.11
   1   4  -4   50.40    2.05
   2   4  -4   11.07    1.12
   3   4  -4   61.96    2.74
   4   4  -4   21.12    2.01
   5   4  -4    2.66    0.93
   6   4  -4   10.42    1.61
   7   4  -4    0.81    0.87
   8   4  -4   -0.20    1.11
   9   4  -4   30.45    3.78
  10   4  -4   -0.70    2.07
 -11   5  -4   62.90    3.51
 -10   5  -4   13.24    1.89
  -9   5  -4    2.02    1.00
  -8   5  -4    9.99    1.55
  -7   5  -4   23.36    2.24
  -6   5  -4   75.46    3.23
  -5   5  -4   11.29    1.44
  -4   5  -4   50.49    2.88
  -3   5  -4   43.60    3.08
  -2   5  -4   49.94    3.03
  -1   5  -4   18.64    1.75
   0   5  -4    9.83    1.33
   1   5  -4   13.99    1.57
   2   5  -4    1.80    0.65
   3   5  -4   39.81    2.67
   4   5  -4   32.43    2.54
   5   5  -4   10.79    1.65
   6   5  -4   41.89    3.16
   7   5  -4    0.93    1.33
   8   5  -4   33.61    5.78
   9   5  -4    3.68    2.84
 -12   6  -4    4.59    2.69
 -11   6  -4   39.78    3.78
 -10   6  -4    9.04    2.50
  -9   6  -4   50.49    3.03
  -8   6  -4    7.09    1.35
  -7   6  -4   13.26    1.73
  -6   6  -4    8.56    1.40
  -5   6  -4   13.42    1.71
  -4   6  -4   12.27    1.42
  -3   6  -4   74.67    2.96
  -2   6  -4   23.43    2.07
  -1   6  -4   69.42    2.93
   0   6  -4    8.46    1.31
   1   6  -4   90.85    3.38
   2   6  -4   48.35    3.05
   3   6  -4   13.38    2.26
   4   6  -4   85.21    4.66
   5   6  -4   64.08    4.97
   6   6  -4    8.07    2.09
   7   6  -4    2.07    1.60
   8   6  -4    2.05    2.47
 -12   7  -4    1.37    2.18
 -11   7  -4    2.20    1.28
 -10   7  -4    0.83    1.11
  -9   7  -4   65.44    4.16
  -8   7  -4   26.70    2.97
  -7   7  -4   10.40    1.41
  -6   7  -4   96.63    3.41
  -5   7  -4    2.29    0.81
  -4   7  -4   66.81    2.85
  -3   7  -4   16.99    1.85
  -2   7  -4   21.45    2.01
  -1   7  -4   11.50    1.52
   0   7  -4    9.33    1.41
   1   7  -4   60.42    3.13
   2   7  -4   17.06    2.49
   3   7  -4   15.89    2.60
   4   7  -4   37.85    3.86
   5   7  -4    4.44    1.67
   6   7  -4   18.17    2.88
   7   7  -4   17.65    3.09
 -13   8  -4   35.19    4.94
 -12   8  -4   -0.51    2.01
 -11   8  -4   53.65    4.52
 -10   8  -4   20.72    2.78
  -9   8  -4   20.85    2.76
  -8   8  -4   35.37    3.45
  -7   8  -4   57.19    4.47
  -6   8  -4   42.52    3.81
  -5   8  -4   34.17    2.59
  -4   8  -4   22.51    2.11
  -3   8  -4    9.12    1.46
  -2   8  -4   10.60    1.56
  -1   8  -4   28.12    2.34
   0   8  -4   38.68    2.87
   1   8  -4   12.12    1.66
   2   8  -4    5.86    1.67
   3   8  -4   19.64    2.93
   4   8  -4    3.02    1.64
   5   8  -4   -0.42    1.32
   6   8  -4   30.96    3.95
 -14   9  -4    2.94    2.38
 -13   9  -4   27.51    3.50
 -12   9  -4    3.23    1.69
 -11   9  -4   17.92    4.51
 -10   9  -4   20.14    2.79
  -9   9  -4    7.87    1.89
  -8   9  -4   16.27    2.54
  -7   9  -4   12.51    2.26
  -6   9  -4   16.98    2.56
  -5   9  -4   34.66    3.63
  -4   9  -4    3.91    1.44
  -3   9  -4   49.42    3.22
  -2   9  -4   75.74    3.50
  -1   9  -4   20.00    2.04
   0   9  -4    3.82    1.14
   1   9  -4   15.63    2.44
   2   9  -4    5.71    1.86
   3   9  -4    2.20    1.46
   4   9  -4   16.09    2.95
   5   9  -4    3.59    1.91
 -14  10  -4    3.71    2.49
 -13  10  -4    9.65    2.40
 -12  10  -4    4.56    1.78
 -11  10  -4   12.77    4.07
 -10  10  -4    5.40    1.82
  -9  10  -4   16.63    2.80
  -8  10  -4    4.37    1.67
  -7  10  -4   11.32    2.37
  -6  10  -4   90.43    5.32
  -5  10  -4   11.56    2.18
  -4  10  -4    8.23    1.87
  -3  10  -4    0.32    1.01
  -2  10  -4   13.65    2.36
  -1  10  -4   24.89    3.07
   0  10  -4    7.96    1.90
   1  10  -4    1.94    1.45
   2  10  -4  100.60    5.60
   3  10  -4    1.54    1.61
   4  10  -4    0.13    1.61
 -13  11  -4    3.36    1.77
 -12  11  -4    2.44    1.62
 -11  11  -4    1.94    1.45
 -10  11  -4    2.70    1.59
  -9  11  -4    7.16    2.03
  -8  11  -4   16.65    2.74
  -7  11  -4   34.39    3.93
  -6  11  -4   57.04    4.99
  -5  11  -4   37.77    4.05
  -4  11  -4    0.90    1.26
  -3  11  -4   39.02    3.95
  -2  11  -4   16.15    2.59
  -1  11  -4   15.16    2.64
   0  11  -4    0.85    1.65
   1  11  -4    6.75    3.08
   2  11  -4    4.40    3.15
 -13  12  -4   14.26    3.17
 -12  12  -4    6.65    2.24
 -11  12  -4    7.63    2.16
 -10  12  -4   88.54    6.48
  -9  12  -4    2.77    1.65
  -8  12  -4    2.41    1.74
  -7  12  -4    9.51    2.15
  -6  12  -4   10.73    2.27
  -5  12  -4    4.33    1.78
  -4  12  -4   -1.69    1.17
  -3  12  -4    6.79    1.92
  -2  12  -4    7.84    2.23
  -1  12  -4   -0.80    1.66
   0  12  -4    9.89    3.37
 -12  13  -4    6.89    3.57
 -11  13  -4    4.09    1.97
 -10  13  -4    1.03    1.56
  -9  13  -4   15.75    2.40
  -8  13  -4    0.77    1.28
  -7  13  -4   23.80    2.82
  -6  13  -4    2.45    1.40
  -5  13  -4   35.63    3.26
  -4  13  -4   36.98    4.12
  -3  13  -4   12.25    2.72
  -2  13  -4    2.43    1.51
 -10  14  -4   -2.52    1.93
  -9  14  -4    4.48    2.08
  -8  14  -4   25.32    2.88
  -7  14  -4   18.50    2.58
  -6  14  -4    4.23    1.59
  -5  14  -4    6.68    2.17
  -4  14  -4    6.38    2.16
  -3  14  -4    5.23    3.17
   7 -15  -3    3.96    3.09
   8 -15  -3    7.54    2.20
   9 -15  -3   -0.67    1.88
  10 -15  -3   -0.15    2.18
   3 -14  -3    5.02    3.25
   4 -14  -3    5.07    3.03
   5 -14  -3   11.39    3.93
   6 -14  -3   13.29    2.61
   7 -14  -3   43.26    4.25
   8 -14  -3    1.55    1.45
   9 -14  -3    1.31    1.54
  10 -14  -3   30.28    3.63
  11 -14  -3    3.09    1.79
  12 -14  -3   24.98    4.57
   0 -13  -3    0.15    2.17
   1 -13  -3   18.63    4.67
   2 -13  -3   16.66    4.55
   3 -13  -3   54.37    7.10
   4 -13  -3    6.79    3.04
   5 -13  -3    1.03    1.22
   6 -13  -3    3.47    1.56
   7 -13  -3   56.47    4.59
   8 -13  -3    0.36    1.05
   9 -13  -3    5.80    1.68
  10 -13  -3   12.47    2.40
  11 -13  -3    6.39    1.90
  12 -13  -3    7.21    2.01
  13 -13  -3   -0.11    1.44
  -1 -12  -3    9.72    3.54
   0 -12  -3   10.95    3.61
   1 -12  -3    0.45    1.89
   2 -12  -3   23.11    4.95
   3 -12  -3    1.22    1.86
   4 -12  -3   17.87    2.53
   5 -12  -3   -0.98    0.96
   6 -12  -3    4.37    1.37
   7 -12  -3   15.76    2.33
   8 -12  -3    9.36    1.77
   9 -12  -3    2.96    1.40
  10 -12  -3    3.02    1.42
  11 -12  -3   37.55    3.77
  12 -12  -3   14.29    2.56
  13 -12  -3   25.88    3.54
  14 -12  -3   22.93    4.32
  -3 -11  -3   -1.48    1.59
  -2 -11  -3    9.01    2.38
  -1 -11  -3   44.46    4.50
   0 -11  -3   13.81    2.54
   1 -11  -3    9.88    2.16
   2 -11  -3    2.63    0.98
   3 -11  -3   89.05    3.82
   4 -11  -3   13.78    1.76
   5 -11  -3   32.93    2.64
   6 -11  -3    2.71    0.98
   7 -11  -3   15.34    1.84
   8 -11  -3   12.58    1.76
   9 -11  -3   42.03    3.12
  10 -11  -3   27.69    2.57
  11 -11  -3   11.07    1.80
  12 -11  -3    1.66    1.43
  13 -11  -3   22.52    3.20
  14 -11  -3    2.12    1.69
  -5 -10  -3    4.26    3.35
  -4 -10  -3   24.07    3.62
  -3 -10  -3   10.18    2.29
  -2 -10  -3    2.81    1.73
  -1 -10  -3   25.00    3.19
   0 -10  -3   22.92    2.92
   1 -10  -3   77.58    3.52
   2 -10  -3   23.17    2.15
   3 -10  -3   22.26    2.06
   4 -10  -3    5.03    1.08
   5 -10  -3    3.37    1.02
   6 -10  -3   20.05    2.04
   7 -10  -3    9.86    1.46
   8 -10  -3   26.20    2.35
   9 -10  -3   53.38    3.09
  10 -10  -3   23.65    2.37
  11 -10  -3    9.25    1.64
  12 -10  -3   20.42    2.34
  13 -10  -3   49.76    3.78
  14 -10  -3    6.26    1.69
  15 -10  -3   14.40    4.30
  -6  -9  -3    0.92    2.60
  -5  -9  -3    3.90    1.91
  -4  -9  -3    9.17    2.35
  -3  -9  -3    4.23    1.74
  -2  -9  -3   41.04    3.95
  -1  -9  -3   52.25    4.46
   0  -9  -3    5.64    1.15
   1  -9  -3   78.67    3.14
   2  -9  -3    8.13    1.26
   3  -9  -3    7.29    1.14
   4  -9  -3   13.31    1.50
   5  -9  -3  123.52    3.85
   6  -9  -3   66.15    2.94
   7  -9  -3   12.08    1.55
   8  -9  -3    4.28    1.05
   9  -9  -3    4.38    1.11
  10  -9  -3   74.26    3.75
  11  -9  -3    3.28    1.16
  12  -9  -3    0.77    0.93
  13  -9  -3    9.77    1.90
  14  -9  -3   10.96    2.04
  15  -9  -3    9.77    2.37
  -7  -8  -3    6.02    2.36
  -6  -8  -3    2.46    1.79
  -5  -8  -3   -0.41    1.19
  -4  -8  -3   14.26    2.57
  -3  -8  -3   16.74    2.77
  -2  -8  -3   24.98    2.94
  -1  -8  -3    5.90    1.20
   0  -8  -3    0.24    0.57
   1  -8  -3   93.64    3.22
   2  -8  -3   69.73    2.19
   3  -8  -3  144.33    3.99
   4  -8  -3    8.92    1.19
   5  -8  -3   32.09    2.16
   6  -8  -3    5.18    0.98
   7  -8  -3   11.57    1.43
   8  -8  -3    0.38    0.67
   9  -8  -3   72.88    3.33
  10  -8  -3   18.80    2.09
  11  -8  -3   85.70    3.90
  12  -8  -3   16.88    2.13
  13  -8  -3    1.81    1.12
  14  -8  -3   14.67    2.22
  15  -8  -3    5.80    2.35
  -8  -7  -3    8.57    2.58
  -7  -7  -3   42.88    4.82
  -6  -7  -3   50.75    4.88
  -5  -7  -3   17.26    2.81
  -4  -7  -3   14.59    2.47
  -3  -7  -3    8.90    1.64
  -2  -7  -3   13.12    1.56
  -1  -7  -3   13.03    1.49
   0  -7  -3    8.12    1.11
   1  -7  -3  101.10    3.12
   2  -7  -3   55.30    1.84
   3  -7  -3  114.23    2.67
   4  -7  -3   41.32    1.65
   5  -7  -3   50.43    2.28
   6  -7  -3  193.67    4.86
   7  -7  -3   10.59    1.31
   8  -7  -3   96.94    3.42
   9  -7  -3    8.86    1.38
  10  -7  -3   25.79    2.26
  11  -7  -3   13.25    1.84
  12  -7  -3    2.00    1.03
  13  -7  -3    2.87    1.22
  14  -7  -3   45.72    5.00
  15  -7  -3    5.01    2.16
  -9  -6  -3   12.63    3.10
  -8  -6  -3   12.91    2.86
  -7  -6  -3    1.79    1.57
  -6  -6  -3    5.32    1.75
  -5  -6  -3    3.97    1.51
  -4  -6  -3   17.86    2.39
  -3  -6  -3   67.46    3.03
  -2  -6  -3    5.35    1.01
  -1  -6  -3  203.70    4.85
   0  -6  -3   40.49    2.00
   1  -6  -3   68.34    1.94
   2  -6  -3   29.26    1.30
   3  -6  -3   50.29    1.66
   4  -6  -3   82.59    2.17
   5  -6  -3   20.88    1.35
   6  -6  -3   40.71    1.70
   7  -6  -3   98.24    2.66
   8  -6  -3   73.50    2.90
   9  -6  -3    7.87    1.26
  10  -6  -3    5.47    1.19
  11  -6  -3   29.47    2.63
  12  -6  -3    3.12    1.53
  13  -6  -3   49.75    4.95
  14  -6  -3    1.24    1.64
  15  -6  -3    0.13    1.55
  -9  -5  -3   10.83    2.59
  -8  -5  -3    1.50    1.54
  -7  -5  -3    0.51    1.21
  -6  -5  -3   33.99    3.70
  -5  -5  -3    1.05    1.17
  -4  -5  -3  124.41    3.99
  -3  -5  -3   34.36    2.29
  -2  -5  -3   48.49    2.22
  -1  -5  -3   23.27    1.64
   0  -5  -3  117.18    3.03
   1  -5  -3   23.38    1.15
   2  -5  -3  137.94    2.73
   3  -5  -3    1.73    0.45
   4  -5  -3  157.87    3.14
   5  -5  -3  116.95    2.71
   6  -5  -3   64.08    2.03
   7  -5  -3   57.51    2.04
   8  -5  -3  144.43    3.49
   9  -5  -3   11.62    1.23
  10  -5  -3    2.63    0.96
  11  -5  -3    2.50    1.41
  12  -5  -3   17.43    2.92
  13  -5  -3    1.30    1.32
  14  -5  -3    8.24    2.47
 -10  -4  -3    5.80    2.20
  -9  -4  -3   10.08    2.43
  -8  -4  -3   18.44    2.97
  -7  -4  -3   16.65    2.67
  -6  -4  -3    8.58    1.84
  -5  -4  -3   11.14    1.50
  -4  -4  -3    7.88    1.21
  -3  -4  -3   43.26    2.20
  -2  -4  -3   79.99    2.55
  -1  -4  -3  150.16    3.49
   0  -4  -3  127.62    2.51
   1  -4  -3  160.41    2.83
   2  -4  -3    4.31    0.53
   3  -4  -3   40.03    1.36
   4  -4  -3  125.47    2.66
   5  -4  -3   25.38    0.97
   6  -4  -3   29.77    1.66
   7  -4  -3  111.07    2.93
   8  -4  -3    9.71    1.09
   9  -4  -3  124.18    3.40
  10  -4  -3   24.17    2.26
  11  -4  -3   17.40    2.04
  12  -4  -3    7.55    2.06
  13  -4  -3    7.26    2.28
  14  -4  -3   23.12    3.66
 -11  -3  -3    3.02    2.00
 -10  -3  -3   39.91    4.44
  -9  -3  -3    1.53    1.27
  -8  -3  -3   79.38    5.16
  -7  -3  -3   25.24    3.04
  -6  -3  -3    9.69    1.43
  -5  -3  -3  146.40    4.26
  -4  -3  -3  107.42    3.36
  -3  -3  -3   54.91    2.09
  -2  -3  -3    2.07    0.55
  -1  -3  -3   43.33    1.45
   0  -3  -3  244.20    3.71
   1  -3  -3   68.60    1.55
   2  -3  -3  154.27    2.71
   3  -3  -3  248.29    3.95
   4  -3  -3  155.71    2.57
   5  -3  -3  143.37    2.47
   6  -3  -3   53.51    1.88
   7  -3  -3   42.22    2.03
   8  -3  -3   32.44    2.37
   9  -3  -3   66.28    3.12
  10  -3  -3   13.37    1.75
  11  -3  -3   20.10    2.27
  12  -3  -3    3.20    1.27
  13  -3  -3   12.61    1.97
  14  -3  -3    0.92    1.57
 -12  -2  -3   15.95    4.98
 -11  -2  -3   19.02    3.28
 -10  -2  -3   16.91    2.85
  -9  -2  -3    2.19    1.40
  -8  -2  -3   21.43    2.77
  -7  -2  -3   10.12    1.51
  -6  -2  -3   70.25    2.94
  -5  -2  -3   60.32    2.50
  -4  -2  -3   27.71    1.85
  -3  -2  -3  135.87    3.24
  -2  -2  -3    4.82    0.60
  -1  -2  -3  155.05    2.51
   0  -2  -3  194.25    3.77
   1  -2  -3   10.60    0.57
   2  -2  -3  199.07    3.13
   3  -2  -3   69.56    1.50
   4  -2  -3    4.26    0.48
   5  -2  -3    1.86    0.45
   6  -2  -3   83.08    2.15
   7  -2  -3   50.82    2.67
   8  -2  -3    5.34    1.09
   9  -2  -3   14.62    1.76
  10  -2  -3   27.35    2.60
  11  -2  -3   38.37    3.12
  12  -2  -3    0.91    1.03
  13  -2  -3    6.37    1.74
  14  -2  -3   19.19    3.23
 -12  -1  -3   20.25    3.37
 -11  -1  -3    2.73    1.59
 -10  -1  -3   11.91    2.46
  -9  -1  -3   70.20    5.16
  -8  -1  -3   74.55    3.25
  -7  -1  -3   91.53    3.32
  -6  -1  -3   96.74    3.20
  -5  -1  -3   67.88    2.41
  -4  -1  -3   26.32    1.61
  -3  -1  -3  160.40    3.32
  -2  -1  -3   68.71    1.46
  -1  -1  -3    9.97    0.86
   0  -1  -3   26.18    1.15
   1  -1  -3   24.35    1.19
   2  -1  -3   10.44    0.77
   3  -1  -3  157.62    3.00
   4  -1  -3   40.52    1.57
   5  -1  -3  154.85    3.26
   6  -1  -3   23.38    1.31
   7  -1  -3  203.25    5.26
   8  -1  -3    9.71    1.43
   9  -1  -3    5.11    1.27
  10  -1  -3   42.63    3.23
  11  -1  -3   30.13    2.94
  12  -1  -3   39.74    3.44
  13  -1  -3    6.42    1.81
 -13   0  -3   -0.24    1.59
 -12   0  -3   12.62    2.72
 -11   0  -3    4.55    1.65
 -10   0  -3   24.68    3.21
  -9   0  -3    3.00    0.99
  -8   0  -3    0.17    0.65
  -7   0  -3    9.41    1.26
  -6   0  -3   42.36    2.00
  -5   0  -3  112.59    3.00
  -4   0  -3  125.64    2.87
  -3   0  -3  244.18    3.71
  -2   0  -3  205.10    3.72
  -1   0  -3   25.35    1.03
   0   0  -3    0.07    0.23
   1   0  -3   23.76    0.95
   2   0  -3  201.03    3.36
   3   0  -3  244.93    4.21
   4   0  -3  125.70    2.86
   5   0  -3  119.32    2.88
   6   0  -3   41.65    1.89
   7   0  -3    8.49    1.00
   8   0  -3    0.37    0.72
   9   0  -3    3.48    1.15
  10   0  -3   28.53    2.78
  11   0  -3   14.46    2.18
  12   0  -3   18.75    2.52
  13   0  -3    0.22    1.64
 -13   1  -3    4.20    1.96
 -12   1  -3   34.27    4.03
 -11   1  -3   26.44    5.14
 -10   1  -3   46.12    5.97
  -9   1  -3    6.79    1.51
  -8   1  -3   10.83    1.69
  -7   1  -3  199.10    4.73
  -6   1  -3   24.37    1.67
  -5   1  -3  163.85    3.54
  -4   1  -3   47.65    2.08
  -3   1  -3  155.02    3.19
  -2   1  -3   11.23    0.79
  -1   1  -3   23.71    0.78
   0   1  -3   24.41    0.83
   1   1  -3   10.06    0.71
   2   1  -3   66.24    1.82
   3   1  -3  154.50    3.22
   4   1  -3   21.71    1.05
   5   1  -3   65.81    2.20
   6   1  -3  101.06    2.88
   7   1  -3   91.95    2.89
   8   1  -3   77.62    3.64
   9   1  -3   73.54    3.97
  10   1  -3   13.21    1.95
  11   1  -3    0.98    1.44
  12   1  -3   23.30    3.51
 -14   2  -3   19.23    3.21
 -13   2  -3    6.97    3.51
 -12   2  -3    1.06    2.16
 -11   2  -3   36.55    5.66
 -10   2  -3   22.84    2.68
  -9   2  -3   12.18    1.81
  -8   2  -3    4.00    1.08
  -7   2  -3   49.22    2.06
  -6   2  -3   82.31    3.27
  -5   2  -3    0.97    0.41
  -4   2  -3    4.10    0.59
  -3   2  -3   69.95    1.79
  -2   2  -3  194.04    3.71
  -1   2  -3    9.10    0.84
   0   2  -3  192.18    3.95
   1   2  -3  153.86    2.90
   2   2  -3    3.36    0.54
   3   2  -3  139.04    2.62
   4   2  -3   29.86    1.29
   5   2  -3   58.78    2.17
   6   2  -3   67.57    2.54
   7   2  -3    9.52    1.18
   8   2  -3   22.37    2.29
   9   2  -3    5.99    1.76
  10   2  -3   17.61    2.83
  11   2  -3   18.87    3.09
  12   2  -3   21.31    3.54
 -14   3  -3   -0.58    2.25
 -13   3  -3    9.41    3.63
 -12   3  -3    2.84    2.44
 -11   3  -3   15.49    2.31
 -10   3  -3    5.74    1.41
  -9   3  -3   68.39    3.54
  -8   3  -3   33.65    4.28
  -7   3  -3   43.09    3.21
  -6   3  -3   49.43    2.24
  -5   3  -3  140.36    3.84
  -4   3  -3  150.00    3.29
  -3   3  -3  255.18    3.66
  -2   3  -3  150.95    3.21
  -1   3  -3   68.49    2.06
   0   3  -3  250.05    4.95
   1   3  -3   42.13    1.56
   2   3  -3    1.50    0.47
   3   3  -3   50.71    1.85
   4   3  -3  112.30    3.61
   5   3  -3  144.40    4.31
   6   3  -3    7.22    1.25
   7   3  -3   22.15    2.12
   8   3  -3   85.46    5.10
   9   3  -3    1.20    1.33
  10   3  -3   39.88    4.22
  11   3  -3    3.07    1.80
 -14   4  -3   21.59    4.88
 -13   4  -3    3.29    2.46
 -12   4  -3    8.06    1.94
 -11   4  -3   11.46    2.00
  -7   4  -3  122.99    3.76
  -6   4  -3   29.70    1.57
  -5   4  -3   23.00    1.26
  -4   4  -3  126.38    2.83
  -3   4  -3   40.32    1.44
  -2   4  -3    4.61    0.63
  -1   4  -3  158.06    3.54
   0   4  -3  123.09    2.80
   1   4  -3  160.25    3.41
   2   4  -3   83.79    2.38
   3   4  -3   39.75    1.86
   4   4  -3    7.19    1.17
   5   4  -3   13.36    1.65
   6   4  -3    6.11    1.25
   7   4  -3   10.67    1.62
   8   4  -3   15.15    2.05
   9   4  -3    6.89    1.95
  10   4  -3    9.66    2.47
 -14   5  -3    2.60    2.72
 -13   5  -3   -0.46    2.15
 -12   5  -3   22.20    3.58
 -11   5  -3    2.42    1.25
 -10   5  -3    3.12    1.55
  -9   5  -3   14.30    1.68
  -8   5  -3  148.06    3.66
  -7   5  -3   58.98    2.08
  -6   5  -3   65.10    2.05
  -5   5  -3  121.34    2.80
  -4   5  -3  164.34    3.28
  -3   5  -3    2.32    0.42
  -2   5  -3  140.44    2.76
  -1   5  -3   24.02    1.24
   0   5  -3  121.31    2.85
   1   5  -3   22.94    1.50
   2   5  -3   52.28    2.06
   3   5  -3   34.66    2.38
   4   5  -3  123.82    4.05
   5   5  -3    0.53    0.83
   6   5  -3   30.30    2.62
   7   5  -3    1.14    0.90
   8   5  -3    2.82    1.14
   9   5  -3   10.26    2.52
  10   5  -3   11.80    3.89
 -13   6  -3   54.94    5.82
 -12   6  -3    4.16    1.24
 -11   6  -3   33.88    3.15
 -10   6  -3    5.07    1.38
  -9   6  -3   10.49    1.33
  -8   6  -3   65.84    2.56
  -7   6  -3   96.28    3.06
  -6   6  -3   45.30    2.19
  -5   6  -3   22.62    1.73
  -4   6  -3   83.80    2.84
  -3   6  -3   47.84    2.44
  -2   6  -3   28.76    2.09
  -1   6  -3   69.46    2.72
   0   6  -3   40.17    2.47
   1   6  -3  205.74    5.07
   2   6  -3    7.16    1.19
   3   6  -3   67.40    3.14
   4   6  -3   22.21    2.12
   5   6  -3    5.96    1.30
   6   6  -3    3.26    1.49
   7   6  -3    2.55    1.59
   8   6  -3   14.22    2.54
 -14   7  -3   33.34    4.83
 -13   7  -3    3.52    1.35
 -12   7  -3    0.68    1.10
 -11   7  -3   17.00    2.42
 -10   7  -3   22.00    2.63
  -9   7  -3    8.20    1.75
  -8   7  -3   93.74    4.27
  -7   7  -3    9.37    1.21
  -6   7  -3  201.00    4.86
  -5   7  -3   49.26    2.52
  -4   7  -3   38.67    2.49
  -3   7  -3  109.38    3.56
  -2   7  -3   57.14    2.67
  -1   7  -3  102.65    3.46
   0   7  -3    9.83    1.37
   1   7  -3   13.23    1.52
   2   7  -3   12.24    1.53
   3   7  -3    6.26    1.63
   4   7  -3   10.53    2.06
   5   7  -3   22.17    2.99
   6   7  -3   51.25    4.64
   7   7  -3   39.69    4.33
   8   7  -3    6.39    2.16
 -14   8  -3   22.22    3.85
 -13   8  -3    2.54    1.81
 -12   8  -3   16.90    2.54
 -11   8  -3   79.11    4.74
 -10   8  -3   20.28    2.72
  -9   8  -3   78.60    4.63
  -8   8  -3    1.01    0.96
  -7   8  -3    9.90    1.88
  -6   8  -3    2.39    1.05
  -5   8  -3   33.42    3.26
  -4   8  -3   10.13    1.37
  -3   8  -3  140.91    4.20
  -2   8  -3   71.72    2.96
  -1   8  -3   87.82    3.32
   0   8  -3    0.77    0.74
   1   8  -3    4.64    1.09
   2   8  -3   26.12    3.00
   3   8  -3   15.25    2.48
   4   8  -3    9.68    1.99
   5   8  -3    2.08    1.57
   6   8  -3    2.23    1.67
   7   8  -3    9.96    2.38
 -15   9  -3   12.21    3.30
 -14   9  -3   11.13    2.12
 -13   9  -3   11.41    2.94
 -12   9  -3    0.41    1.14
 -11   9  -3    4.22    1.61
 -10   9  -3   77.17    4.74
  -9   9  -3    0.86    1.17
  -8   9  -3    8.48    1.81
  -7   9  -3   16.89    2.46
  -6   9  -3   62.28    4.04
  -5   9  -3  121.76    5.30
  -4   9  -3   10.86    1.98
  -3   9  -3    8.03    1.72
  -2   9  -3    9.67    1.42
  -1   9  -3   83.18    3.39
   0   9  -3    3.50    1.07
   1   9  -3   53.46    3.39
   2   9  -3   33.42    3.52
   3   9  -3    1.71    1.49
   4   9  -3    5.44    1.88
   5   9  -3    6.63    2.04
   6   9  -3   -1.50    1.39
 -15  10  -3   11.11    2.17
 -14  10  -3    6.27    2.58
 -13  10  -3   48.68    4.32
 -12  10  -3   14.92    2.47
 -11  10  -3   10.56    2.17
 -10  10  -3   26.70    3.30
  -9  10  -3   52.37    4.40
  -8  10  -3   30.61    3.37
  -7  10  -3    8.63    1.98
  -6  10  -3   21.92    2.98
  -5  10  -3    1.22    1.04
  -4  10  -3    5.80    1.65
  -3  10  -3   22.39    2.79
  -2  10  -3   20.52    2.69
  -1  10  -3   75.10    4.64
   0  10  -3   22.15    2.35
   1  10  -3   27.71    3.19
   2  10  -3    4.59    1.75
   3  10  -3    9.72    2.41
   4  10  -3   30.75    3.79
   5  10  -3    4.39    2.86
 -14  11  -3    0.99    1.84
 -13  11  -3   21.65    3.18
 -12  11  -3    2.06    1.41
 -11  11  -3   11.52    2.36
 -10  11  -3   28.77    3.48
  -9  11  -3   35.88    3.10
  -8  11  -3   17.51    2.18
  -7  11  -3   14.79    2.42
  -6  11  -3    2.22    1.28
  -5  11  -3   29.53    3.33
  -4  11  -3   15.75    2.54
  -3  11  -3   94.06    4.96
  -2  11  -3    2.12    1.32
  -1  11  -3   11.00    2.20
   0  11  -3   16.12    2.61
   1  11  -3   41.50    6.03
   2  11  -3    8.32    3.34
   3  11  -3   -0.03    2.36
 -14  12  -3   16.50    3.94
 -13  12  -3   20.68    3.19
 -12  12  -3   10.64    2.54
 -11  12  -3   32.77    3.93
 -10  12  -3    1.35    1.46
  -9  12  -3    3.50    1.36
  -8  12  -3    5.33    1.46
  -7  12  -3   19.41    2.30
  -6  12  -3    6.77    1.57
  -5  12  -3    1.01    1.00
  -4  12  -3   17.85    2.24
  -3  12  -3   -0.35    1.03
  -2  12  -3   19.08    2.93
  -1  12  -3    1.58    1.56
   0  12  -3   16.99    4.29
   1  12  -3    6.97    3.06
 -13  13  -3   -0.49    1.35
 -12  13  -3    7.64    2.40
 -11  13  -3    7.61    2.30
 -10  13  -3    9.77    2.39
  -9  13  -3    6.62    2.07
  -8  13  -3   -0.38    1.00
  -7  13  -3   49.45    3.70
  -6  13  -3    2.45    1.41
  -5  13  -3    1.58    1.32
  -4  13  -3    5.27    1.95
  -3  13  -3   56.69    5.11
  -2  13  -3   20.04    3.18
  -1  13  -3   29.56    5.77
   0  13  -3    2.57    2.35
 -12  14  -3   17.11    4.69
 -11  14  -3   -0.85    1.47
 -10  14  -3   27.50    3.74
  -9  14  -3    5.02    1.99
  -8  14  -3    1.40    1.29
  -7  14  -3   46.52    3.81
  -6  14  -3   15.36    2.33
  -5  14  -3   15.77    2.96
  -4  14  -3    3.94    2.08
  -3  14  -3    5.46    2.21
  -2  14  -3   21.06    5.08
  -9  15  -3    1.81    2.32
  -8  15  -3    8.94    2.62
  -7  15  -3   13.62    2.25
  -6  15  -3   13.80    3.05
  -5  15  -3   14.45    3.24
   3 -15  -2   19.37    4.32
   4 -15  -2   22.21    3.41
   5 -15  -2    3.31    1.85
   6 -15  -2   16.61    2.80
   7 -15  -2   11.05    2.58
   8 -15  -2    4.99    2.00
   9 -15  -2   14.97    2.76
  10 -15  -2    5.84    2.11
  11 -15  -2   -2.42    1.26
   2 -14  -2    3.66    1.96
   3 -14  -2    6.25    2.06
   4 -14  -2    8.72    2.22
   5 -14  -2   14.76    2.59
   6 -14  -2   -0.82    1.24
   7 -14  -2    2.46    1.56
   8 -14  -2   21.32    3.06
   9 -14  -2   45.81    4.28
  10 -14  -2   60.63    5.13
  11 -14  -2    0.71    1.49
  12 -14  -2   16.02    2.96
  13 -14  -2    1.96    2.29
   0 -13  -2   28.50    5.55
   1 -13  -2    3.30    1.62
   2 -13  -2   37.96    3.96
   3 -13  -2    9.41    2.11
   4 -13  -2    8.24    2.04
   5 -13  -2   65.17    5.10
   6 -13  -2    2.45    1.42
   7 -13  -2    9.21    2.07
   8 -13  -2    3.85    1.44
   9 -13  -2    5.86    1.77
  10 -13  -2    8.01    2.10
  11 -13  -2    9.54    2.17
  12 -13  -2   17.32    2.78
  13 -13  -2   29.15    3.60
  -2 -12  -2   21.68    5.05
  -1 -12  -2   12.76    2.60
   0 -12  -2    7.92    1.99
   1 -12  -2    1.29    1.33
   2 -12  -2   22.96    3.04
   3 -12  -2    0.58    1.06
   4 -12  -2   21.22    2.73
   5 -12  -2   16.20    2.44
   6 -12  -2   27.14    2.99
   7 -12  -2    8.49    1.32
   8 -12  -2   46.80    3.04
   9 -12  -2    1.90    1.14
  10 -12  -2   29.16    3.23
  11 -12  -2   46.70    4.22
  12 -12  -2    9.73    2.21
  13 -12  -2    0.24    1.34
  14 -12  -2    5.81    1.94
  -3 -11  -2    4.20    2.47
  -2 -11  -2    8.03    2.26
  -1 -11  -2   49.36    4.54
   0 -11  -2    7.10    1.86
   1 -11  -2   38.33    3.66
   2 -11  -2    4.64    1.41
   3 -11  -2   13.47    2.18
   4 -11  -2  137.59    5.49
   5 -11  -2   13.43    2.03
   6 -11  -2   62.29    2.82
   7 -11  -2  129.39    4.11
   8 -11  -2    5.20    1.10
   9 -11  -2    1.13    1.06
  10 -11  -2    2.00    1.17
  11 -11  -2    4.33    1.36
  12 -11  -2    1.70    1.25
  13 -11  -2   30.16    3.58
  14 -11  -2    3.57    1.71
  15 -11  -2   20.01    5.35
  -5 -10  -2    3.27    2.09
  -4 -10  -2   50.99    4.98
  -3 -10  -2   10.60    1.95
  -2 -10  -2   34.68    3.03
  -1 -10  -2    1.99    1.03
   0 -10  -2   33.64    2.72
   1 -10  -2    3.88    1.09
   2 -10  -2    4.68    1.06
   3 -10  -2   28.55    2.30
   4 -10  -2   11.04    1.41
   5 -10  -2    1.54    0.62
   6 -10  -2  186.75    4.13
   7 -10  -2    9.61    1.18
   8 -10  -2   76.53    3.23
   9 -10  -2   27.28    2.40
  10 -10  -2   29.24    2.45
  11 -10  -2   34.45    2.89
  12 -10  -2   26.63    2.69
  13 -10  -2   11.12    1.93
  14 -10  -2    8.36    2.12
  15 -10  -2    2.95    1.73
  -6  -9  -2   16.95    3.20
  -5  -9  -2   45.52    4.73
  -4  -9  -2    5.81    1.48
  -3  -9  -2    2.42    1.12
  -2  -9  -2    1.23    0.98
  -1  -9  -2   27.15    2.43
   0  -9  -2    3.47    1.03
   1  -9  -2   23.00    1.97
   2  -9  -2   35.85    2.44
   3  -9  -2   94.97    3.26
   4  -9  -2   42.48    1.92
   5  -9  -2   18.75    1.40
   6  -9  -2   11.74    1.13
   7  -9  -2    6.14    0.90
   8  -9  -2  122.44    4.02
   9  -9  -2    3.68    0.98
  10  -9  -2    3.83    1.05
  11  -9  -2    4.30    1.09
  12  -9  -2    0.11    0.85
  13  -9  -2    7.14    1.63
  14  -9  -2   12.96    2.06
  15  -9  -2   14.71    2.34
  -7  -8  -2    1.27    1.65
  -6  -8  -2   13.10    2.70
  -5  -8  -2    5.52    1.39
  -4  -8  -2   43.40    3.34
  -3  -8  -2    4.41    1.21
  -2  -8  -2   83.32    3.58
  -1  -8  -2  122.28    4.09
   0  -8  -2  174.82    4.79
   1  -8  -2   14.34    1.49
   2  -8  -2   58.63    2.46
   3  -8  -2   66.48    2.01
   4  -8  -2    6.75    0.81
   5  -8  -2   13.85    1.14
   6  -8  -2   24.45    1.55
   7  -8  -2   18.31    1.69
   8  -8  -2  187.90    4.92
   9  -8  -2   21.38    1.97
  10  -8  -2    2.49    0.95
  11  -8  -2   14.17    1.82
  12  -8  -2   22.78    2.29
  13  -8  -2   72.00    4.38
  14  -8  -2    1.47    1.20
  15  -8  -2   10.69    2.12
  -8  -7  -2   10.41    2.71
  -7  -7  -2    3.29    1.72
  -6  -7  -2   10.52    1.92
  -5  -7  -2    7.04    1.51
  -4  -7  -2  136.77    4.71
  -3  -7  -2    7.72    1.35
  -2  -7  -2    4.23    1.02
  -1  -7  -2   17.32    1.72
   0  -7  -2   20.65    1.68
   1  -7  -2   29.10    1.96
   2  -7  -2   45.98    1.59
   3  -7  -2   19.56    0.94
   4  -7  -2  289.49    4.02
   5  -7  -2   28.85    1.44
   6  -7  -2   35.25    2.15
   7  -7  -2   19.98    1.69
   8  -7  -2   12.15    1.44
   9  -7  -2   30.89    2.38
  10  -7  -2   27.83    2.35
  11  -7  -2  137.75    4.68
  12  -7  -2   18.45    2.21
  13  -7  -2    5.57    1.44
  14  -7  -2    1.72    1.54
  15  -7  -2    3.68    1.89
  -9  -6  -2   12.74    2.73
  -8  -6  -2    1.12    1.36
  -7  -6  -2    4.19    1.35
  -6  -6  -2   21.99    2.46
  -5  -6  -2   63.01    3.81
  -4  -6  -2  178.04    6.29
  -3  -6  -2   11.64    1.47
  -2  -6  -2   24.36    1.97
  -1  -6  -2   39.07    2.17
   0  -6  -2   13.55    1.31
   1  -6  -2  125.35    2.49
   2  -6  -2   22.26    1.08
   3  -6  -2   29.87    1.02
   4  -6  -2  142.07    2.40
   5  -6  -2  161.31    3.07
   6  -6  -2   12.84    0.93
   7  -6  -2   28.88    1.37
   8  -6  -2   65.65    2.66
   9  -6  -2   84.29    3.23
  10  -6  -2    9.14    1.46
  11  -6  -2    8.51    1.43
  12  -6  -2   23.55    2.42
  13  -6  -2   10.95    2.41
  14  -6  -2   12.58    2.76
  15  -6  -2   20.19    3.57
 -10  -5  -2    2.84    1.87
  -9  -5  -2   14.32    2.86
  -8  -5  -2   78.32    4.73
  -7  -5  -2   16.38    2.10
  -6  -5  -2    8.35    1.47
  -5  -5  -2    1.17    0.84
  -4  -5  -2   14.18    1.62
  -3  -5  -2   14.63    1.55
  -2  -5  -2   27.66    1.94
  -1  -5  -2  159.65    3.90
   0  -5  -2   94.92    2.70
   1  -5  -2   43.49    1.23
   2  -5  -2   82.11    1.82
   3  -5  -2  170.95    2.93
   4  -5  -2    3.41    0.49
   5  -5  -2   97.73    2.23
   6  -5  -2  123.97    2.68
   7  -5  -2   42.90    1.68
   8  -5  -2   62.51    2.06
   9  -5  -2   42.11    1.99
  10  -5  -2    0.67    0.54
  11  -5  -2   64.66    3.48
  12  -5  -2    4.54    1.61
  13  -5  -2    5.98    1.84
  14  -5  -2   43.59    4.87
  15  -5  -2    6.17    2.18
 -11  -4  -2   22.01    5.84
 -10  -4  -2    5.42    2.13
  -9  -4  -2    5.02    1.54
  -8  -4  -2   17.88    2.22
  -7  -4  -2  134.00    4.83
  -6  -4  -2    3.95    1.13
  -5  -4  -2   39.25    2.65
  -4  -4  -2    7.77    1.20
  -3  -4  -2  287.39    5.99
  -2  -4  -2  144.12    3.59
  -1  -4  -2    4.17    0.69
   0  -4  -2   47.51    1.68
   1  -4  -2   73.30    2.01
   2  -4  -2  168.46    2.79
   3  -4  -2   60.95    1.52
   4  -4  -2   50.13    1.46
   5  -4  -2   42.65    1.43
   6  -4  -2   25.91    1.42
   7  -4  -2   15.82    1.19
   8  -4  -2    8.39    0.97
   9  -4  -2   19.04    1.50
  10  -4  -2  180.75    4.31
  11  -4  -2  141.29    4.61
  12  -4  -2   45.90    3.27
  13  -4  -2    3.45    1.72
  14  -4  -2   48.19    5.16
  15  -4  -2   -1.68    2.29
 -11  -3  -2    5.28    2.07
 -10  -3  -2    8.00    1.81
  -9  -3  -2   -0.87    1.19
  -8  -3  -2   10.67    2.16
  -7  -3  -2   26.39    2.89
  -6  -3  -2   86.47    4.18
  -5  -3  -2   65.56    2.77
  -4  -3  -2   19.37    1.66
  -3  -3  -2   29.42    1.90
  -2  -3  -2  168.04    3.71
  -1  -3  -2   64.76    1.90
   0  -3  -2   31.78    1.18
   1  -3  -2    9.29    0.62
   2  -3  -2  347.49    4.59
   3  -3  -2   31.09    1.08
   4  -3  -2   74.26    1.37
   5  -3  -2   78.42    2.00
   6  -3  -2   29.64    1.56
   7  -3  -2  285.58    5.05
   8  -3  -2   15.21    1.30
   9  -3  -2   11.97    1.51
  10  -3  -2    7.75    1.36
  11  -3  -2    3.15    1.09
  12  -3  -2    1.44    1.09
  13  -3  -2    8.24    1.75
  14  -3  -2    1.34    1.70
 -12  -2  -2    2.08    1.75
 -11  -2  -2   29.74    3.99
 -10  -2  -2   24.63    3.40
  -9  -2  -2    6.26    1.78
  -8  -2  -2    6.61    1.67
  -7  -2  -2   36.31    3.16
  -6  -2  -2   57.84    3.34
  -5  -2  -2   48.00    2.83
  -4  -2  -2   22.93    0.94
  -3  -2  -2   74.01    2.32
  -2  -2  -2  166.80    3.43
  -1  -2  -2  343.35    5.32
   0  -2  -2  344.97    4.39
   1  -2  -2   71.95    1.41
   2  -2  -2  342.56    4.51
   3  -2  -2    9.60    0.52
   4  -2  -2  169.31    2.51
   5  -2  -2  170.48    2.59
   6  -2  -2  139.07    2.41
   7  -2  -2   28.67    1.29
   8  -2  -2   21.59    1.91
   9  -2  -2    3.88    0.98
  10  -2  -2   70.80    3.60
  11  -2  -2    3.16    1.08
  12  -2  -2   30.93    2.91
  13  -2  -2    7.17    1.66
  14  -2  -2   13.72    2.17
 -12  -1  -2    1.71    2.23
 -11  -1  -2    2.11    1.59
 -10  -1  -2   33.61    3.56
  -9  -1  -2    3.40    1.42
  -8  -1  -2   22.47    2.60
  -7  -1  -2   13.33    1.82
  -6  -1  -2   31.94    1.56
  -5  -1  -2  124.11    2.77
  -4  -1  -2   43.85    1.32
  -3  -1  -2   71.28    2.02
  -2  -1  -2   10.38    0.75
  -1  -1  -2   72.94    1.51
   0  -1  -2  253.33    4.04
   1  -1  -2  252.18    3.35
   2  -1  -2   71.78    1.33
   3  -1  -2  342.62    4.85
   4  -1  -2   58.71    1.59
   5  -1  -2    3.16    0.47
   6  -1  -2  159.22    3.22
   7  -1  -2   34.21    1.57
   8  -1  -2   17.42    1.78
   9  -1  -2  121.46    4.22
  10  -1  -2   27.40    2.51
  11  -1  -2    0.11    0.82
  12  -1  -2   48.39    3.69
  13  -1  -2   10.54    2.03
  14  -1  -2    4.28    2.67
 -13   0  -2   26.08    5.70
 -12   0  -2    9.69    2.35
 -11   0  -2    1.29    1.32
 -10   0  -2   28.71    3.19
  -9   0  -2    2.44    1.14
  -8   0  -2  179.13    5.98
  -7   0  -2   21.25    1.48
  -6   0  -2   12.26    1.04
  -5   0  -2   99.97    2.36
  -4   0  -2   51.27    2.01
  -3   0  -2   29.98    1.13
  -2   0  -2  341.94    4.97
  -1   0  -2  253.13    3.96
   0   0  -2  431.31    5.96
   1   0  -2  254.12    3.51
   2   0  -2  337.03    4.74
   3   0  -2   28.68    1.19
   4   0  -2   48.55    1.53
   5   0  -2   96.78    2.39
   6   0  -2   10.64    0.99
   7   0  -2   19.16    1.40
   8   0  -2  186.28    4.13
   9   0  -2    5.68    1.23
  10   0  -2   25.08    2.45
  11   0  -2    2.99    1.18
  12   0  -2    9.56    1.83
  13   0  -2   25.28    3.50
 -14   1  -2    0.22    2.59
 -13   1  -2   14.90    2.84
 -12   1  -2   52.71    4.75
 -11   1  -2    2.64    1.34
 -10   1  -2   28.81    3.05
  -9   1  -2  118.12    4.84
  -8   1  -2   20.45    1.58
  -7   1  -2   34.75    1.71
  -6   1  -2  161.45    4.63
  -5   1  -2    5.23    0.86
  -4   1  -2   61.73    3.50
  -3   1  -2  349.41    6.67
  -2   1  -2   73.29    1.66
  -1   1  -2  246.91    4.89
   0   1  -2  260.71    3.40
   1   1  -2   73.85    1.61
   2   1  -2    9.20    0.74
   3   1  -2   73.53    1.55
   4   1  -2   45.32    1.06
   5   1  -2  118.51    2.89
   6   1  -2   32.65    1.84
   7   1  -2   11.93    1.21
   8   1  -2   23.15    1.72
   9   1  -2    2.38    1.01
  10   1  -2   36.32    3.13
  11   1  -2    3.85    1.65
  12   1  -2    1.09    1.60
  13   1  -2    1.06    2.07
 -14   2  -2   11.85    2.77
 -13   2  -2    8.99    2.24
 -12   2  -2   32.67    3.64
 -11   2  -2    1.51    1.20
 -10   2  -2   74.72    4.23
  -9   2  -2    7.59    1.24
  -8   2  -2   25.11    1.97
  -3   2  -2   10.39    0.93
  -2   2  -2  338.98    5.17
  -1   2  -2   76.22    2.08
   0   2  -2  340.90    5.54
   1   2  -2  342.33    5.89
   2   2  -2  171.95    2.72
   3   2  -2   77.78    1.70
   4   2  -2   23.16    0.95
   5   2  -2   47.20    1.85
   6   2  -2   59.91    2.22
   7   2  -2   33.11    2.07
   8   2  -2    4.04    0.94
   9   2  -2    5.27    1.65
  10   2  -2   22.04    3.09
  11   2  -2   34.58    4.11
  12   2  -2    3.30    1.92
 -14   3  -2    2.22    1.70
 -13   3  -2    8.67    2.10
 -12   3  -2    3.02    1.46
 -11   3  -2    5.20    1.23
 -10   3  -2   11.42    1.55
  -9   3  -2   14.24    1.31
  -4   3  -2   71.40    1.85
  -3   3  -2   30.87    1.07
  -2   3  -2  346.40    5.24
  -1   3  -2   10.72    0.80
   0   3  -2   32.55    1.21
   1   3  -2   57.57    1.68
   2   3  -2  166.82    3.18
   3   3  -2   30.61    1.39
   4   3  -2   17.64    1.06
   5   3  -2   59.51    2.56
   6   3  -2   84.04    3.20
   7   3  -2   25.42    2.17
   8   3  -2   12.95    1.65
   9   3  -2    0.35    1.08
  10   3  -2   11.68    2.50
  11   3  -2    5.04    1.94
 -15   4  -2   -0.33    1.51
 -14   4  -2   53.05    4.77
 -13   4  -2    8.69    2.08
 -12   4  -2   43.71    3.38
 -11   4  -2  142.24    4.86
 -10   4  -2  182.56    5.22
  -6   4  -2   23.72    2.66
  -5   4  -2   46.02    1.89
  -4   4  -2   48.35    1.41
  -3   4  -2   63.99    1.50
  -2   4  -2  165.38    3.66
  -1   4  -2   76.37    1.76
   0   4  -2   47.13    1.48
   1   4  -2    4.49    0.62
   2   4  -2  142.04    3.01
   3   4  -2  294.84    4.92
   4   4  -2    6.43    1.02
   5   4  -2   41.25    2.67
   6   4  -2    8.39    1.32
   7   4  -2  140.04    4.68
   8   4  -2   18.17    2.12
   9   4  -2    4.52    1.68
  10   4  -2    4.67    2.06
  11   4  -2    9.33    3.63
 -15   5  -2    9.28    2.50
 -14   5  -2   52.03    6.21
 -13   5  -2    4.10    1.32
 -12   5  -2    9.75    1.68
 -11   5  -2   67.52    3.19
 -10   5  -2    0.74    0.80
  -9   5  -2   35.63    2.50
  -8   5  -2   61.67    3.17
  -7   5  -2   49.36    1.97
  -6   5  -2  120.18    3.04
  -5   5  -2   99.10    2.62
  -4   5  -2    4.31    0.41
  -3   5  -2  171.64    3.83
  -2   5  -2   81.02    2.55
  -1   5  -2   45.09    1.34
   0   5  -2   97.15    2.30
   1   5  -2  165.96    3.34
   2   5  -2   27.99    1.61
   3   5  -2   16.26    1.30
   4   5  -2   18.05    1.82
   5   5  -2    1.00    0.79
   6   5  -2    8.80    1.44
   7   5  -2   17.64    2.11
   8   5  -2   76.37    4.10
   9   5  -2   12.05    2.00
  10   5  -2    3.85    1.90
 -15   6  -2   11.37    3.48
 -14   6  -2   18.66    2.56
 -13   6  -2    6.97    1.65
 -12   6  -2   24.77    2.50
 -11   6  -2    9.42    1.75
 -10   6  -2    8.26    1.54
  -9   6  -2   85.09    3.67
  -8   6  -2   62.34    2.32
  -7   6  -2   31.40    1.66
  -6   6  -2   10.07    1.05
  -5   6  -2  162.90    3.76
  -4   6  -2  144.59    3.56
  -3   6  -2   28.10    1.71
  -2   6  -2   21.23    1.67
  -1   6  -2  125.39    2.57
   0   6  -2   11.44    0.98
   1   6  -2   35.71    1.72
   2   6  -2   22.78    1.56
   3   6  -2   15.89    1.36
   4   6  -2  184.74    5.17
   5   6  -2   64.87    3.49
   6   6  -2   25.64    2.51
   7   6  -2    3.69    1.24
   8   6  -2    1.89    1.22
   9   6  -2   12.43    2.12
 -15   7  -2    5.61    2.49
 -14   7  -2    2.70    1.32
 -13   7  -2    3.52    1.25
 -12   7  -2   14.34    1.98
 -11   7  -2  141.35    5.29
 -10   7  -2   25.53    2.62
  -9   7  -2   33.87    2.34
  -8   7  -2   11.93    1.78
  -7   7  -2   19.80    2.32
  -6   7  -2   37.64    1.88
  -5   7  -2   26.02    1.79
  -4   7  -2  284.32    5.81
  -3   7  -2   18.22    1.58
  -2   7  -2   49.60    2.42
  -1   7  -2   27.95    2.05
   0   7  -2   21.44    1.84
   1   7  -2   19.18    1.79
   2   7  -2    3.91    0.98
   3   7  -2    8.60    1.56
   4   7  -2  137.58    5.78
   5   7  -2    5.32    1.50
   6   7  -2   12.24    2.33
   7   7  -2    1.89    1.59
   8   7  -2   10.11    2.44
 -15   8  -2   12.69    2.26
 -14   8  -2    4.03    2.10
 -13   8  -2   67.54    3.79
 -12   8  -2   23.21    3.72
 -11   8  -2   15.47    2.22
 -10   8  -2    2.02    1.14
  -9   8  -2   22.80    2.03
  -8   8  -2  174.57    6.08
  -7   8  -2   21.56    2.45
  -6   8  -2   25.65    2.70
  -5   8  -2   14.33    2.14
  -4   8  -2    6.77    1.09
  -3   8  -2   65.51    2.58
  -2   8  -2   60.90    2.68
  -1   8  -2   10.45    1.37
   0   8  -2  182.06    4.86
   1   8  -2  124.93    4.05
   2   8  -2   79.77    3.26
   3   8  -2    9.58    2.00
   4   8  -2   49.40    4.30
   5   8  -2    6.86    1.88
   6   8  -2   15.19    2.77
   7   8  -2    6.02    2.01
 -15   9  -2   13.51    3.46
 -14   9  -2   11.78    2.13
 -13   9  -2    8.36    2.63
 -12   9  -2   -1.06    0.91
 -11   9  -2    5.65    1.57
 -10   9  -2    2.48    1.22
  -9   9  -2    5.72    1.20
  -8   9  -2  126.60    4.21
  -7   9  -2    5.68    1.49
  -6   9  -2   13.12    2.06
  -5   9  -2   18.46    2.36
  -4   9  -2   42.52    3.55
  -3   9  -2   85.93    4.20
  -2   9  -2   39.15    2.57
  -1   9  -2   22.22    2.01
   0   9  -2    6.08    1.15
   1   9  -2   27.66    2.37
   2   9  -2    0.30    0.97
   3   9  -2    1.12    1.27
   4   9  -2    6.15    1.80
   5   9  -2   44.03    4.49
   6   9  -2   16.62    2.94
 -15  10  -2    3.26    1.69
 -14  10  -2    9.20    1.98
 -13  10  -2   11.33    3.12
 -12  10  -2   20.79    2.79
 -11  10  -2   27.63    3.22
 -10  10  -2   28.15    3.15
  -9  10  -2   27.76    3.15
  -8  10  -2   78.39    3.65
  -7  10  -2    8.65    1.44
  -6  10  -2  181.22    5.27
  -5  10  -2    1.86    0.89
  -4  10  -2   10.67    1.50
  -3  10  -2   29.48    2.46
  -2  10  -2    5.34    1.20
  -1  10  -2    6.08    1.65
   0  10  -2   32.46    3.30
   1  10  -2    2.15    1.08
   2  10  -2   28.35    3.34
   3  10  -2    9.52    2.29
   4  10  -2   50.58    4.75
   5  10  -2    7.45    2.23
 -15  11  -2   19.65    2.94
 -14  11  -2    4.78    1.67
 -13  11  -2   39.61    3.98
 -12  11  -2    3.08    1.53
 -11  11  -2    3.45    1.48
 -10  11  -2    0.86    1.03
  -9  11  -2   -0.23    0.88
  -8  11  -2    5.44    1.30
  -7  11  -2  139.72    4.75
  -6  11  -2   71.30    4.05
  -5  11  -2    7.11    1.27
  -4  11  -2  140.87    4.71
  -3  11  -2   15.10    1.83
  -2  11  -2    5.80    1.76
  -1  11  -2   32.51    3.55
   0  11  -2    6.67    1.93
   1  11  -2   42.49    6.22
   2  11  -2   10.45    3.55
   3  11  -2    5.79    3.08
   4  11  -2   -0.83    2.35
 -14  12  -2    2.84    2.27
 -13  12  -2    2.53    1.49
 -12  12  -2   12.83    2.50
 -11  12  -2   38.56    4.08
 -10  12  -2   37.42    3.81
  -9  12  -2    3.74    1.63
  -8  12  -2   42.64    3.25
  -7  12  -2    5.90    1.36
  -6  12  -2   21.56    2.38
  -5  12  -2   15.01    2.01
  -4  12  -2   22.29    2.43
  -3  12  -2    0.79    1.21
  -2  12  -2   21.05    3.07
  -1  12  -2    1.29    1.43
   0  12  -2   10.78    2.40
   1  12  -2   10.74    3.65
   2  12  -2   20.00    4.86
 -13  13  -2   31.32    3.94
 -12  13  -2   11.44    2.48
 -11  13  -2   11.60    2.36
 -10  13  -2    7.05    1.99
  -9  13  -2   10.28    2.32
  -8  13  -2    6.67    1.95
  -7  13  -2    7.16    1.51
  -6  13  -2    6.98    1.64
  -5  13  -2   72.44    4.37
  -4  13  -2    5.39    1.99
  -3  13  -2   15.34    2.81
  -2  13  -2   40.17    4.37
  -1  13  -2    2.07    1.78
   0  13  -2   25.14    5.20
 -13  14  -2   -0.06    1.90
 -12  14  -2   11.54    2.69
 -11  14  -2    4.07    1.85
 -10  14  -2   54.07    5.00
  -9  14  -2   33.10    3.97
  -8  14  -2   15.45    2.82
  -7  14  -2    3.02    1.43
  -6  14  -2    2.16    1.33
  -5  14  -2   13.66    2.84
  -4  14  -2   10.79    2.65
  -3  14  -2    0.60    1.60
  -2  14  -2    2.32    1.89
 -11  15  -2   -0.72    1.51
 -10  15  -2    5.32    2.03
  -9  15  -2   13.54    2.80
  -8  15  -2    4.41    2.05
  -7  15  -2   11.93    2.66
  -6  15  -2   15.44    3.24
  -5  15  -2    2.06    1.81
  -4  15  -2   17.51    3.26
  -3  15  -2    8.01    3.93
   7 -16  -1    9.71    4.00
   8 -16  -1   12.98    4.23
   9 -16  -1   15.99    4.62
   3 -15  -1    3.56    2.06
   4 -15  -1    2.61    1.78
   5 -15  -1   15.49    2.96
   6 -15  -1   21.24    3.26
   7 -15  -1    5.81    1.85
   8 -15  -1    4.00    1.83
   9 -15  -1   -1.21    1.25
  10 -15  -1    8.80    1.70
  11 -15  -1    0.98    1.28
  12 -15  -1    5.53    3.42
   0 -14  -1   -0.41    2.27
   1 -14  -1    0.15    1.60
   2 -14  -1   24.75    3.57
   3 -14  -1    2.76    1.77
   4 -14  -1   10.74    2.39
   5 -14  -1   22.64    3.20
   6 -14  -1   14.20    2.66
   7 -14  -1   50.13    4.58
   8 -14  -1    2.01    1.41
   9 -14  -1   10.95    1.82
  10 -14  -1   36.98    3.07
  11 -14  -1   -0.26    1.06
  12 -14  -1   31.24    3.81
  13 -14  -1    3.92    1.86
  -1 -13  -1    3.42    1.98
   0 -13  -1    1.00    1.40
   1 -13  -1   45.74    4.58
   2 -13  -1   24.60    3.31
   3 -13  -1   32.76    3.73
   4 -13  -1   13.63    2.43
   5 -13  -1    0.89    1.08
   6 -13  -1    7.22    1.79
   7 -13  -1   12.32    1.73
   8 -13  -1    0.79    0.86
   9 -13  -1    2.29    1.07
  10 -13  -1   20.77    2.23
  11 -13  -1    7.39    1.55
  12 -13  -1    6.02    1.96
  13 -13  -1    2.82    1.71
  14 -13  -1    1.34    1.69
  -3 -12  -1   10.58    2.66
  -2 -12  -1   29.11    3.81
  -1 -12  -1    3.17    1.73
   0 -12  -1   27.10    3.42
   1 -12  -1    2.19    1.38
   2 -12  -1   13.61    2.39
   3 -12  -1   -0.50    0.99
   4 -12  -1   17.23    2.61
   5 -12  -1    2.56    1.20
   6 -12  -1    2.88    0.95
   7 -12  -1   19.36    1.94
   8 -12  -1   13.06    1.71
   9 -12  -1   -0.12    0.62
  10 -12  -1    0.31    0.72
  11 -12  -1   21.71    2.31
  12 -12  -1   22.82    3.03
  13 -12  -1   43.39    4.23
  14 -12  -1   34.02    4.04
  15 -12  -1    3.12    2.91
  -4 -11  -1    1.57    1.71
  -3 -11  -1    0.13    1.43
  -2 -11  -1    2.33    1.54
  -1 -11  -1   24.23    3.23
   0 -11  -1   15.79    2.65
   1 -11  -1   31.34    3.34
   2 -11  -1    6.41    1.69
   3 -11  -1  122.47    5.39
   4 -11  -1   10.62    1.91
   5 -11  -1   69.97    2.97
   6 -11  -1    0.80    0.65
   7 -11  -1   25.92    2.11
   8 -11  -1   25.91    2.25
   9 -11  -1    4.64    1.09
  10 -11  -1   26.92    2.27
  11 -11  -1   11.48    1.65
  12 -11  -1    1.42    1.40
  13 -11  -1   28.32    3.39
  14 -11  -1    5.71    1.97
  15 -11  -1    5.11    1.94
  -6 -10  -1    6.30    3.40
  -5 -10  -1    8.85    2.52
  -4 -10  -1   41.44    4.44
  -3 -10  -1   21.50    3.06
  -2 -10  -1    1.13    1.24
  -1 -10  -1   32.01    3.45
   0 -10  -1   35.46    3.54
   1 -10  -1   69.53    4.27
   2 -10  -1   13.06    2.01
   3 -10  -1   25.10    1.91
   4 -10  -1    3.87    0.90
   5 -10  -1    3.70    0.86
   6 -10  -1   12.10    1.40
   7 -10  -1    1.77    0.69
   8 -10  -1    6.62    1.09
   9 -10  -1   82.42    3.25
  10 -10  -1   30.32    2.37
  11 -10  -1   27.80    3.06
  12 -10  -1    7.39    1.70
  13 -10  -1   44.10    4.21
  14 -10  -1   10.88    2.31
  15 -10  -1   19.41    3.10
  -7  -9  -1   27.59    3.95
  -6  -9  -1    0.03    1.19
  -5  -9  -1   13.19    2.19
  -4  -9  -1    5.71    1.52
  -3  -9  -1    0.02    0.89
  -2  -9  -1    4.51    1.16
  -1  -9  -1   89.22    3.62
   0  -9  -1    4.65    1.10
   1  -9  -1   84.70    3.21
   2  -9  -1    4.95    0.77
   3  -9  -1    7.66    0.91
   4  -9  -1   15.25    1.24
   5  -9  -1   75.35    2.29
   6  -9  -1   42.78    1.90
   7  -9  -1   37.70    2.01
   8  -9  -1   30.15    1.87
   9  -9  -1    3.69    0.82
  10  -9  -1   75.79    2.65
  11  -9  -1    9.39    1.52
  12  -9  -1    1.18    0.91
  13  -9  -1    8.56    1.60
  14  -9  -1   21.53    2.40
  15  -9  -1   21.24    3.21
  -8  -8  -1    8.90    2.63
  -7  -8  -1    1.93    1.33
  -6  -8  -1    3.66    1.40
  -5  -8  -1    1.47    1.08
  -4  -8  -1   13.44    1.88
  -3  -8  -1   31.16    2.60
  -2  -8  -1    3.96    1.05
  -1  -8  -1   30.63    2.37
   0  -8  -1   13.87    1.50
   1  -8  -1   85.97    2.37
   2  -8  -1   78.70    2.17
   3  -8  -1  160.91    3.26
   4  -8  -1   57.10    1.82
   5  -8  -1    0.93    0.42
   6  -8  -1   17.43    1.28
   7  -8  -1   20.99    1.44
   8  -8  -1    9.67    1.04
   9  -8  -1   82.28    2.65
  10  -8  -1   14.19    1.62
  11  -8  -1  124.03    4.34
  12  -8  -1   15.36    1.86
  13  -8  -1    2.38    1.09
  14  -8  -1   14.85    2.14
  15  -8  -1    7.00    1.75
  16  -8  -1    9.72    3.89
  -9  -7  -1   16.04    3.07
  -8  -7  -1    4.57    1.56
  -7  -7  -1   52.19    3.99
  -6  -7  -1   10.38    1.89
  -5  -7  -1   20.09    2.28
  -4  -7  -1   25.82    2.39
  -3  -7  -1    2.83    1.02
  -2  -7  -1   41.05    2.69
  -1  -7  -1   18.35    1.70
   0  -7  -1    1.70    0.44
   1  -7  -1  123.72    2.72
   2  -7  -1  114.92    2.52
   3  -7  -1  197.97    3.56
   4  -7  -1   12.58    0.99
   5  -7  -1   80.00    2.15
   6  -7  -1  266.07    4.68
   7  -7  -1    0.98    0.47
   8  -7  -1   85.22    2.54
   9  -7  -1    2.71    0.87
  10  -7  -1   21.77    2.01
  11  -7  -1   15.15    1.82
  12  -7  -1    1.86    0.86
  13  -7  -1    8.20    1.57
  14  -7  -1   51.71    3.82
  15  -7  -1    4.65    1.89
  16  -7  -1   19.81    5.15
 -10  -6  -1    3.13    2.84
  -9  -6  -1   23.21    2.90
  -8  -6  -1   10.89    1.92
  -7  -6  -1    8.83    1.68
  -6  -6  -1    3.81    1.09
  -5  -6  -1    0.78    0.85
  -4  -6  -1   10.92    1.53
  -3  -6  -1   47.84    2.71
  -2  -6  -1   18.20    1.68
  -1  -6  -1  275.05    4.49
   0  -6  -1   16.31    1.05
   1  -6  -1   29.65    1.22
   2  -6  -1  101.04    2.21
   3  -6  -1   68.50    1.39
   4  -6  -1   45.87    1.47
   5  -6  -1    7.38    0.77
   6  -6  -1   15.78    1.13
   7  -6  -1  120.06    2.25
   8  -6  -1   65.12    2.63
   9  -6  -1    8.40    1.24
  10  -6  -1    3.68    0.98
  11  -6  -1   65.90    3.23
  12  -6  -1    1.61    0.91
  13  -6  -1    7.72    1.61
  14  -6  -1    1.88    1.45
  15  -6  -1   -0.17    1.19
 -10  -5  -1   16.94    2.53
  -9  -5  -1   20.05    3.20
  -8  -5  -1    1.09    1.30
  -7  -5  -1    1.85    1.32
  -6  -5  -1   65.58    4.77
  -5  -5  -1    3.76    1.30
  -4  -5  -1   72.68    3.03
  -3  -5  -1    1.27    0.67
  -2  -5  -1   78.49    2.00
  -1  -5  -1    5.75    0.61
   0  -5  -1  210.93    3.43
   1  -5  -1   27.14    1.01
   2  -5  -1  161.48    2.79
   3  -5  -1   10.51    0.53
   4  -5  -1  304.78    4.52
   5  -5  -1  211.98    2.94
   6  -5  -1   30.71    1.04
   7  -5  -1  112.92    2.49
   8  -5  -1  154.60    3.24
   9  -5  -1   16.15    1.28
  10  -5  -1    4.27    0.81
  11  -5  -1    0.27    0.65
  12  -5  -1   14.75    1.91
  13  -5  -1    2.23    1.34
  14  -5  -1   11.63    2.63
  15  -5  -1    8.44    2.53
 -11  -4  -1    3.73    1.98
 -10  -4  -1    4.54    1.75
  -9  -4  -1    9.33    2.23
  -8  -4  -1   19.26    2.81
  -7  -4  -1    9.77    2.04
  -6  -4  -1    1.10    1.03
  -5  -4  -1   14.71    2.08
  -4  -4  -1   47.66    3.39
  -3  -4  -1   15.17    1.18
  -2  -4  -1   48.07    1.40
  -1  -4  -1  307.60    4.35
   0  -4  -1  110.56    2.05
   1  -4  -1  211.13    3.14
   2  -4  -1   11.39    0.68
   3  -4  -1    2.76    0.32
   4  -4  -1  106.84    1.80
   5  -4  -1   26.30    0.98
   6  -4  -1  102.20    2.25
   7  -4  -1  195.55    3.64
   8  -4  -1   56.58    1.98
   9  -4  -1   71.65    2.35
  10  -4  -1   11.33    1.21
  11  -4  -1   28.59    2.39
  12  -4  -1   13.33    1.73
  13  -4  -1    5.03    1.85
  14  -4  -1   33.99    4.35
  15  -4  -1    2.78    1.82
 -12  -3  -1    3.19    2.75
 -11  -3  -1    2.24    1.67
 -10  -3  -1   39.63    4.27
  -9  -3  -1   -0.07    1.09
  -8  -3  -1  119.81    5.63
  -7  -3  -1   25.55    2.88
  -6  -3  -1    8.21    1.68
  -5  -3  -1  158.26    3.83
  -4  -3  -1  192.40    4.10
  -3  -3  -1   66.57    1.98
  -2  -3  -1   11.16    0.67
  -1  -3  -1    2.46    0.31
   0  -3  -1  432.72    5.23
   1  -3  -1  138.05    2.11
   2  -3  -1  145.99    1.97
   3  -3  -1  427.71    4.75
   4  -3  -1  210.69    3.24
   5  -3  -1  159.47    2.90
   6  -3  -1   69.26    1.37
   7  -3  -1   13.13    0.71
   8  -3  -1    0.64    0.42
   9  -3  -1   40.23    2.15
  10  -3  -1    2.65    0.86
  11  -3  -1   25.00    2.27
  12  -3  -1   -0.70    0.70
  13  -3  -1   24.59    2.67
  14  -3  -1    0.39    1.18
 -12  -2  -1   20.47    3.33
 -11  -2  -1   29.99    3.88
 -10  -2  -1    9.31    2.04
  -9  -2  -1    6.10    1.72
  -8  -2  -1   12.64    2.01
  -7  -2  -1    4.02    1.17
  -6  -2  -1   76.68    2.47
  -5  -2  -1  116.87    2.91
  -4  -2  -1  103.15    2.51
  -3  -2  -1  159.63    3.12
  -2  -2  -1   12.79    0.71
  -1  -2  -1  147.33    2.88
   0  -2  -1  126.37    1.81
   1  -2  -1   32.14    0.77
   2  -2  -1  123.81    1.96
   3  -2  -1  133.52    2.26
   4  -2  -1   11.50    0.78
   5  -2  -1   11.25    0.56
   6  -2  -1   48.40    1.26
   7  -2  -1   80.13    1.85
   8  -2  -1   18.37    1.24
   9  -2  -1   38.51    2.58
  10  -2  -1    8.27    1.32
  11  -2  -1    5.46    1.27
  12  -2  -1    0.36    0.92
  13  -2  -1    5.14    1.46
  14  -2  -1   20.94    2.70
 -13  -1  -1    1.21    1.76
 -12  -1  -1   47.72    4.82
 -11  -1  -1    0.54    1.25
 -10  -1  -1   27.20    3.19
  -9  -1  -1   72.02    4.38
  -8  -1  -1   79.98    4.02
  -7  -1  -1   87.97    2.79
  -6  -1  -1  118.63    3.09
  -5  -1  -1   29.84    0.98
  -4  -1  -1   24.55    1.14
  -3  -1  -1  207.05    3.50
  -2  -1  -1  134.57    2.28
  -1  -1  -1   33.36    1.02
   0  -1  -1   18.03    0.56
   1  -1  -1   18.21    0.53
   2  -1  -1   32.46    0.71
   3  -1  -1  146.10    2.06
   4  -1  -1    2.74    0.34
   5  -1  -1  308.25    4.56
   6  -1  -1    5.46    0.64
   7  -1  -1  269.03    4.66
   8  -1  -1   22.43    1.33
   9  -1  -1   32.79    2.52
  10  -1  -1   84.51    3.60
  11  -1  -1   31.80    2.80
  12  -1  -1   20.92    2.48
  13  -1  -1    2.78    1.36
  14  -1  -1    3.64    1.88
 -14   0  -1   -2.71    2.19
 -13   0  -1    4.86    2.08
 -12   0  -1   23.50    3.36
 -11   0  -1   12.17    2.34
 -10   0  -1   29.48    3.26
  -9   0  -1    2.94    1.16
  -8   0  -1   11.18    1.27
  -7   0  -1    1.31    0.55
  -6   0  -1   16.19    0.89
  -5   0  -1  211.28    4.49
  -4   0  -1  113.14    2.70
  -3   0  -1  425.53    7.70
  -2   0  -1  123.41    2.70
  -1   0  -1   18.05    0.79
   0   0  -1   -0.26    0.14
   1   0  -1   17.96    0.60
   2   0  -1  125.37    2.09
   3   0  -1  432.63    5.58
   4   0  -1  106.00    2.26
   5   0  -1  208.95    3.72
   6   0  -1   12.89    1.04
   7   0  -1    1.15    0.50
   8   0  -1   11.16    1.14
   9   0  -1    2.57    0.74
  10   0  -1   35.35    2.88
  11   0  -1   13.56    2.00
  12   0  -1   26.76    3.36
  13   0  -1    0.53    1.42
 -14   1  -1    4.32    2.15
 -13   1  -1    2.32    1.52
 -12   1  -1   25.37    3.36
 -11   1  -1   37.42    3.69
 -10   1  -1   89.62    3.41
  -9   1  -1   27.13    2.23
  -8   1  -1   21.17    1.91
  -7   1  -1  278.04    4.76
  -6   1  -1    5.88    0.67
  -5   1  -1  304.44    5.85
  -1   1  -1   17.94    0.60
   0   1  -1   17.79    0.70
   1   1  -1   33.68    0.81
   2   1  -1  134.27    1.96
   3   1  -1  209.49    2.79
   4   1  -1   25.59    1.25
   5   1  -1   30.60    1.48
   6   1  -1  126.68    3.02
   7   1  -1   86.90    2.61
   8   1  -1   82.15    2.71
   9   1  -1   76.35    2.88
  10   1  -1   23.38    2.89
  11   1  -1    6.16    1.87
  12   1  -1   40.83    4.33
  13   1  -1    2.92    1.81
 -14   2  -1   21.63    3.38
 -13   2  -1    5.97    1.92
 -12   2  -1    1.19    1.10
 -11   2  -1    5.85    1.25
 -10   2  -1   11.00    1.54
  -9   2  -1   38.75    2.33
  -8   2  -1   21.27    1.41
  -7   2  -1   78.14    2.57
  -2   2  -1  123.22    2.66
  -1   2  -1   31.49    1.25
   0   2  -1  124.95    2.09
   1   2  -1  144.44    2.44
   2   2  -1   12.82    0.78
   3   2  -1  162.04    2.78
   4   2  -1  101.23    1.94
   5   2  -1  115.92    2.17
   6   2  -1   72.82    2.68
   7   2  -1    2.66    0.82
   8   2  -1   19.11    1.87
   9   2  -1    7.88    1.31
  10   2  -1    9.60    1.97
  11   2  -1   29.47    3.69
  12   2  -1   25.19    3.52
 -15   3  -1    6.11    2.28
 -14   3  -1    1.05    1.56
 -13   3  -1   20.26    2.98
 -12   3  -1    0.40    0.90
 -11   3  -1   30.79    2.69
 -10   3  -1    2.80    0.94
  -9   3  -1   46.88    1.69
  -8   3  -1    1.22    0.57
  -7   3  -1   13.83    1.95
  -4   3  -1  213.04    6.35
  -3   3  -1  422.37    6.15
  -2   3  -1  148.46    2.82
  -1   3  -1  137.11    2.83
   0   3  -1  431.35    5.48
   1   3  -1    2.48    0.43
   2   3  -1   10.65    0.82
   3   3  -1   68.15    1.77
   4   3  -1  193.88    3.51
   5   3  -1  152.48    4.06
   6   3  -1    6.90    1.05
   7   3  -1   25.40    2.19
   8   3  -1  121.38    4.24
   9   3  -1    1.29    0.92
  10   3  -1   41.24    4.24
  11   3  -1    3.29    1.73
  12   3  -1    4.70    2.93
 -15   4  -1    0.44    1.54
 -14   4  -1   33.53    5.09
 -13   4  -1    3.66    1.33
 -12   4  -1   15.77    2.02
 -11   4  -1   24.12    2.32
 -10   4  -1    9.45    1.31
  -9   4  -1   76.83    2.49
  -8   4  -1   58.19    2.58
  -7   4  -1  197.08    5.13
  -6   4  -1  102.25    3.21
  -5   4  -1   25.50    1.61
  -4   4  -1  107.69    2.35
  -3   4  -1    2.18    0.45
  -2   4  -1   11.94    0.96
  -1   4  -1  207.84    3.15
   0   4  -1  111.72    2.19
   1   4  -1  309.89    4.59
   2   4  -1   49.22    1.56
   3   4  -1   12.23    0.99
   4   4  -1   53.12    1.77
   5   4  -1   16.37    1.66
   6   4  -1    2.94    0.81
   7   4  -1   12.43    1.66
   8   4  -1   18.14    2.04
   9   4  -1   13.39    1.96
  10   4  -1    7.60    2.14
  11   4  -1    2.60    1.70
 -15   5  -1    7.70    2.90
 -14   5  -1   16.06    2.28
 -13   5  -1    0.44    0.86
 -12   5  -1   15.14    1.98
 -11   5  -1   -0.50    0.60
 -10   5  -1    4.01    0.83
  -9   5  -1   15.26    1.35
  -8   5  -1  151.57    3.63
  -7   5  -1  114.54    2.99
  -6   5  -1   29.35    1.26
  -5   5  -1  209.42    3.85
  -4   5  -1  316.35    5.14
  -3   5  -1   10.51    0.90
  -2   5  -1  163.73    3.49
  -1   5  -1   25.57    1.43
   0   5  -1  210.09    3.55
   1   5  -1    6.61    0.71
   2   5  -1   80.41    2.20
   3   5  -1    1.04    0.45
   4   5  -1   71.54    2.28
   5   5  -1    5.24    1.08
   6   5  -1   68.53    3.12
   7   5  -1    3.36    1.08
   8   5  -1    0.22    0.91
   9   5  -1   23.24    2.65
  10   5  -1   13.99    2.65
 -15   6  -1    0.10    1.20
 -14   6  -1    3.85    1.40
 -13   6  -1    7.64    1.71
 -12   6  -1    1.82    0.98
 -11   6  -1   64.98    3.20
 -10   6  -1    4.74    1.22
  -9   6  -1    8.87    1.45
  -8   6  -1   70.25    2.47
  -7   6  -1  123.95    2.58
  -6   6  -1   14.67    0.86
  -5   6  -1    7.35    0.74
  -4   6  -1   49.10    1.69
  -3   6  -1   70.57    2.11
  -2   6  -1  105.16    2.75
  -1   6  -1   29.85    1.63
   0   6  -1   13.30    0.99
   1   6  -1  275.49    4.03
   2   6  -1   18.54    1.34
   3   6  -1   44.40    1.97
   4   6  -1   11.53    1.50
   5   6  -1   -0.41    0.65
   6   6  -1    2.45    0.99
   7   6  -1    7.65    1.59
   8   6  -1   18.39    2.30
   9   6  -1   21.13    2.64
  10   6  -1   -0.37    2.70
 -16   7  -1   26.82    4.48
 -15   7  -1    1.99    1.37
 -14   7  -1   52.55    4.12
 -13   7  -1    9.59    1.74
 -12   7  -1    0.02    0.75
 -11   7  -1   12.51    1.76
 -10   7  -1   25.07    2.51
  -9   7  -1    3.61    1.08
  -8   7  -1   89.52    2.96
  -7   7  -1    1.47    0.60
  -6   7  -1  283.50    5.77
  -5   7  -1   77.20    2.74
  -4   7  -1   12.69    1.07
  -3   7  -1  193.78    4.14
  -2   7  -1  116.42    3.09
  -1   7  -1  123.30    2.85
   0   7  -1    1.49    0.49
   1   7  -1   19.30    1.38
   2   7  -1   39.97    1.97
   3   7  -1    2.37    0.66
   4   7  -1   27.31    2.36
   5   7  -1   20.30    2.19
   6   7  -1    9.17    1.70
   7   7  -1   61.04    4.11
   8   7  -1    5.40    1.70
   9   7  -1   14.95    3.05
 -16   8  -1   12.67    2.54
 -15   8  -1    3.68    1.49
 -14   8  -1   16.48    2.37
 -13   8  -1    1.91    1.15
 -12   8  -1   16.76    2.22
 -11   8  -1  130.25    4.99
 -10   8  -1   10.90    1.77
  -9   8  -1   87.11    3.95
  -8   8  -1   10.64    1.36
  -7   8  -1   22.94    1.91
  -6   8  -1   17.94    1.68
  -5   8  -1   -0.20    0.50
  -4   8  -1   56.65    2.55
  -3   8  -1  158.03    3.28
  -2   8  -1   76.37    2.22
  -1   8  -1   86.72    2.47
   0   8  -1   11.77    1.14
   1   8  -1   28.93    2.18
   2   8  -1    9.13    1.33
   3   8  -1   30.68    3.11
   4   8  -1   15.98    2.50
   5   8  -1   -1.15    0.92
   6   8  -1    0.25    1.05
   7   8  -1    1.73    1.46
   8   8  -1   12.61    3.95
 -16   9  -1   10.46    3.11
 -15   9  -1   19.91    3.89
 -14   9  -1   16.45    2.42
 -13   9  -1   14.56    2.26
 -12   9  -1    1.08    0.87
 -11   9  -1    7.22    1.67
 -10   9  -1   71.02    3.76
  -9   9  -1    2.22    1.06
  -8   9  -1   25.40    2.07
  -7   9  -1   40.59    2.58
  -6   9  -1   45.62    2.73
  -5   9  -1   72.84    2.92
  -4   9  -1   14.88    1.64
  -3   9  -1    8.41    1.23
  -2   9  -1    4.12    0.96
  -1   9  -1   83.74    2.58
   0   9  -1    2.83    0.86
   1   9  -1   89.80    3.46
   2   9  -1    5.81    1.26
   3   9  -1   -0.66    0.92
   4   9  -1    5.26    1.75
   5   9  -1   11.77    2.48
   6   9  -1    1.34    1.53
 -15  10  -1   14.66    2.45
 -14  10  -1    5.89    1.74
 -13  10  -1   39.88    3.59
 -12  10  -1   10.60    2.00
 -11  10  -1   31.47    3.12
 -10  10  -1   32.50    3.16
  -9  10  -1   88.74    4.33
  -8  10  -1    6.43    1.62
  -7  10  -1    1.11    0.76
  -6  10  -1    9.46    1.31
  -5  10  -1    3.72    0.99
  -4  10  -1    5.34    1.13
  -3  10  -1   23.35    2.06
  -2  10  -1   15.92    1.72
  -1  10  -1   82.07    4.27
   0  10  -1   35.30    3.50
   1  10  -1   35.99    2.77
   2  10  -1    1.44    1.18
   3  10  -1   17.81    2.90
   4  10  -1   38.35    4.03
   5  10  -1    9.52    2.42
   6  10  -1    2.05    2.91
 -15  11  -1    3.56    1.70
 -14  11  -1    1.49    1.32
 -13  11  -1   31.96    3.33
 -12  11  -1    5.99    1.71
 -11  11  -1   13.40    2.32
 -10  11  -1   29.62    3.23
  -9  11  -1    5.55    1.43
  -8  11  -1   25.42    2.90
  -7  11  -1   24.01    2.24
  -6  11  -1    0.53    0.77
  -5  11  -1   62.82    3.41
  -4  11  -1   15.14    1.83
  -3  11  -1  128.56    4.33
  -2  11  -1    9.00    1.83
  -1  11  -1   34.81    3.71
   0  11  -1    9.97    2.16
   1  11  -1   22.71    2.97
   2  11  -1    6.74    2.78
   3  11  -1    1.31    2.13
   4  11  -1    0.70    2.39
 -15  12  -1    1.04    2.30
 -14  12  -1   27.07    3.28
 -13  12  -1   51.06    6.59
 -12  12  -1   21.64    3.02
 -11  12  -1   21.50    2.93
 -10  12  -1    0.92    1.07
  -9  12  -1    0.01    0.99
  -8  12  -1   12.29    2.22
  -7  12  -1   19.29    2.18
  -6  12  -1    3.09    1.07
  -5  12  -1    0.85    0.97
  -4  12  -1   21.24    2.25
  -3  12  -1    0.47    1.00
  -2  12  -1    9.71    2.19
  -1  12  -1    5.44    1.87
   0  12  -1   26.85    3.46
   1  12  -1    3.06    2.33
   2  12  -1   34.36    6.07
 -14  13  -1    1.17    1.36
 -13  13  -1    1.43    1.54
 -12  13  -1    3.82    1.79
 -11  13  -1    7.37    2.06
 -10  13  -1   21.38    2.96
  -9  13  -1    3.30    1.48
  -8  13  -1    0.40    1.10
  -7  13  -1   12.20    2.25
  -6  13  -1    9.60    1.72
  -5  13  -1    0.99    1.03
  -4  13  -1   13.89    2.59
  -3  13  -1   41.75    4.22
  -2  13  -1   26.71    3.65
  -1  13  -1   45.60    4.58
   0  13  -1    0.46    1.57
   1  13  -1    8.10    3.75
 -13  14  -1    3.58    1.78
 -12  14  -1   20.50    3.07
 -11  14  -1    0.26    1.40
 -10  14  -1   32.14    3.51
  -9  14  -1   12.67    2.61
  -8  14  -1    0.70    1.57
  -7  14  -1   53.38    4.82
  -6  14  -1   14.74    2.22
  -5  14  -1   14.91    2.91
  -4  14  -1    6.67    2.24
  -3  14  -1    2.45    1.75
  -2  14  -1   26.92    3.87
  -1  14  -1    0.69    1.76
 -12  15  -1   12.36    4.07
 -11  15  -1    0.94    1.61
 -10  15  -1    6.49    2.16
  -9  15  -1   -1.31    1.41
  -8  15  -1    2.49    1.69
  -7  15  -1    4.39    2.05
  -6  15  -1   17.87    4.87
  -5  15  -1   15.96    3.08
  -4  15  -1    4.01    2.05
  -3  15  -1    5.03    2.23
  -9  16  -1   20.74    4.63
  -8  16  -1   19.91    4.57
   6 -16   0    2.78    3.16
   7 -16   0    3.55    2.97
   8 -16   0    4.79    3.11
   9 -16   0    3.00    3.12
  10 -16   0   -1.00    1.60
   2 -15   0    2.22    2.81
   3 -15   0   10.70    2.49
   4 -15   0   36.08    4.35
   5 -15   0    1.76    1.64
   6 -15   0    3.05    1.95
   7 -15   0    2.47    1.61
   8 -15   0    0.24    1.38
   9 -15   0   82.26    4.73
  10 -15   0    1.07    1.16
  11 -15   0    0.84    1.21
  12 -15   0   13.38    2.63
  13 -15   0   14.89    4.40
   0 -14   0    6.34    3.37
   1 -14   0   23.12    3.52
   2 -14   0   14.52    2.90
   3 -14   0   10.41    2.49
   4 -14   0   16.94    2.90
   5 -14   0   -0.22    1.28
   6 -14   0   10.04    2.30
   7 -14   0    4.19    1.25
   8 -14   0   54.22    3.69
   9 -14   0    8.10    1.64
  10 -14   0    5.63    1.44
  11 -14   0   17.72    2.21
  12 -14   0    0.05    1.09
  13 -14   0    4.36    1.50
  14 -14   0    3.41    3.14
  -1 -13   0    4.01    2.02
   0 -13   0   12.22    2.67
   1 -13   0   28.43    3.73
   2 -13   0    1.87    1.53
   3 -13   0    5.11    1.73
   4 -13   0   56.54    4.62
   5 -13   0  140.92    6.18
   6 -13   0    3.19    1.08
   7 -13   0   36.29    2.84
   8 -13   0    2.30    1.00
   9 -13   0   40.41    3.02
  10 -13   0   -0.05    0.88
  11 -13   0   28.40    2.73
  12 -13   0   -0.15    0.93
  13 -13   0   12.12    1.93
  14 -13   0   19.06    3.18
  -3 -12   0   19.06    3.24
  -2 -12   0    0.16    1.49
  -1 -12   0    2.85    1.54
   0 -12   0   14.11    2.54
   1 -12   0    2.35    1.39
   2 -12   0    4.16    1.51
   3 -12   0    2.73    1.42
   4 -12   0    0.75    0.78
   5 -12   0    0.30    0.70
   6 -12   0    0.03    0.72
   7 -12   0    4.94    1.16
   8 -12   0    1.15    0.82
   9 -12   0    4.86    1.20
  10 -12   0  180.19    5.40
  11 -12   0    2.99    1.11
  12 -12   0    7.22    1.49
  13 -12   0   31.43    2.90
  14 -12   0   18.54    3.03
  15 -12   0   14.60    4.66
  -4 -11   0    2.75    1.91
  -3 -11   0   17.70    2.92
  -2 -11   0   26.66    3.51
  -1 -11   0    3.17    1.57
   0 -11   0    0.00    0.98
   1 -11   0   44.25    4.04
   2 -11   0   21.80    2.79
   3 -11   0   81.76    3.27
   4 -11   0   15.33    1.66
   5 -11   0   57.67    2.90
   6 -11   0  140.51    4.25
   7 -11   0  172.41    4.80
   8 -11   0   29.70    2.37
   9 -11   0    9.46    1.39
  10 -11   0    3.02    1.07
  11 -11   0   -1.00    0.72
  12 -11   0    1.45    0.94
  13 -11   0    3.25    1.45
  14 -11   0    9.92    2.31
  15 -11   0   34.11    4.00
  -5 -10   0   -0.35    1.46
  -4 -10   0    5.47    1.92
  -3 -10   0    1.46    1.44
  -2 -10   0  189.35    7.44
  -1 -10   0    2.78    1.33
   0 -10   0   11.43    2.09
   1 -10   0   40.33    3.65
   2 -10   0    0.83    0.67
   3 -10   0    2.15    0.72
   4 -10   0   21.05    1.76
   5 -10   0   78.81    2.90
   6 -10   0  182.99    4.69
   7 -10   0   18.18    1.68
   8 -10   0    2.77    0.81
   9 -10   0   35.29    2.43
  10 -10   0   15.87    1.73
  11 -10   0   52.72    3.33
  12 -10   0    8.47    1.47
  13 -10   0    3.73    1.55
  14 -10   0    9.89    2.28
  15 -10   0    1.97    1.62
  -7  -9   0    1.44    2.42
  -6  -9   0   89.11    6.37
  -5  -9   0    8.55    2.20
  -4  -9   0   34.99    3.82
  -3  -9   0    5.86    1.80
  -2  -9   0   12.42    2.21
  -1  -9   0   37.66    3.57
   0  -9   0   60.26    4.40
   1  -9   0    1.71    0.74
   2  -9   0  146.16    3.98
   3  -9   0  231.12    5.20
   4  -9   0   10.90    1.29
   5  -9   0   50.95    2.27
   6  -9   0    4.34    0.82
   7  -9   0   35.42    2.20
   8  -9   0   13.10    1.43
   9  -9   0   58.27    2.73
  10  -9   0   39.70    2.60
  11  -9   0   25.36    2.27
  12  -9   0    5.74    1.64
  13  -9   0   56.63    4.51
  14  -9   0    0.33    1.39
  15  -9   0    4.14    1.68
  16  -9   0    5.01    3.37
  -8  -8   0    2.71    1.92
  -7  -8   0    0.41    1.29
  -6  -8   0   57.68    4.07
  -5  -8   0    0.18    0.84
  -4  -8   0    1.95    1.00
  -3  -8   0   31.31    2.58
  -2  -8   0    1.21    0.72
  -1  -8   0   14.11    1.60
   0  -8   0  101.28    2.75
   1  -8   0   57.86    1.93
   2  -8   0    7.21    0.83
   3  -8   0   32.84    1.45
   4  -8   0   -0.08    0.31
   5  -8   0   55.82    1.76
   6  -8   0  103.10    2.57
   7  -8   0  269.80    4.81
   8  -8   0  102.66    2.76
   9  -8   0    2.97    0.70
  10  -8   0    0.78    0.54
  11  -8   0   77.65    2.83
  12  -8   0   -0.04    0.77
  13  -8   0  135.27    4.82
  14  -8   0    5.12    1.42
  15  -8   0    2.34    1.71
  16  -8   0   12.19    5.01
  -9  -7   0    5.85    2.17
  -8  -7   0    2.07    1.38
  -7  -7   0    5.08    1.54
  -6  -7   0   43.53    4.20
  -5  -7   0    6.31    1.37
  -4  -7   0  175.96    5.31
  -3  -7   0   14.29    1.59
  -2  -7   0   39.13    2.56
  -1  -7   0  275.25    4.92
   0  -7   0    6.72    0.80
   1  -7   0   12.76    1.01
   2  -7   0    0.27    0.31
   3  -7   0   29.67    1.27
   4  -7   0  150.97    2.96
   5  -7   0   55.55    1.71
   6  -7   0  174.10    3.42
   7  -7   0    6.46    0.81
   8  -7   0   57.31    1.99
   9  -7   0  143.86    3.42
  10  -7   0    1.37    0.58
  11  -7   0   11.78    1.56
  12  -7   0    0.52    0.77
  13  -7   0    4.68    1.25
  14  -7   0    7.65    1.69
  15  -7   0    0.58    1.62
  16  -7   0    1.30    2.31
  -9  -6   0    1.72    1.71
  -8  -6   0    8.31    2.25
  -7  -6   0    3.55    1.59
  -6  -6   0    0.02    1.04
  -5  -6   0  137.70    5.79
  -4  -6   0  178.49    6.44
  -3  -6   0    4.43    0.90
  -2  -6   0  100.67    2.67
  -1  -6   0  179.68    3.52
   0  -6   0   19.64    1.21
   1  -6   0  117.15    2.47
   2  -6   0   58.20    1.56
   3  -6   0  376.88    5.28
   4  -6   0    9.06    0.73
   5  -6   0    8.17    0.76
   6  -6   0   18.65    1.16
   7  -6   0   10.78    0.65
   8  -6   0    7.91    0.78
   9  -6   0  238.80    4.61
  10  -6   0   19.58    1.85
  11  -6   0   55.14    3.01
  12  -6   0    1.12    0.83
  13  -6   0   38.54    3.18
  14  -6   0   52.96    5.10
  15  -6   0   85.00    6.72
  16  -6   0    1.64    2.64
 -10  -5   0    0.54    1.57
  -9  -5   0    0.56    1.35
  -8  -5   0  129.07    6.17
  -7  -5   0    0.71    1.01
  -6  -5   0   49.56    3.96
  -5  -5   0   77.07    4.10
  -4  -5   0   50.70    2.48
  -3  -5   0   52.26    2.28
  -2  -5   0   52.71    2.06
  -1  -5   0    7.52    0.76
   0  -5   0    1.04    0.32
   1  -5   0  265.44    4.01
   2  -5   0   59.65    1.46
   3  -5   0   23.10    0.92
   4  -5   0   16.47    0.94
   5  -5   0    0.33    0.28
   6  -5   0  114.60    2.02
   7  -5   0   -0.13    0.23
   8  -5   0   32.91    1.32
   9  -5   0    9.44    0.95
  10  -5   0   77.18    2.45
  11  -5   0  143.19    3.65
  12  -5   0    5.23    1.29
  13  -5   0    2.68    1.56
  14  -5   0    5.65    1.94
  15  -5   0    2.48    1.69
 -11  -4   0   32.43    4.20
 -10  -4   0   15.42    2.89
  -9  -4   0   53.07    4.73
  -8  -4   0   -0.23    1.03
  -7  -4   0   13.39    2.15
  -6  -4   0   19.76    2.51
  -5  -4   0   10.22    1.31
  -4  -4   0    0.69    0.58
  -3  -4   0  156.88    3.77
  -2  -4   0   10.35    1.03
  -1  -4   0   18.47    1.25
   0  -4   0  109.88    2.12
   1  -4   0   79.05    1.61
   2  -4   0  913.71   10.48
   3  -4   0  322.50    4.32
   4  -4   0  110.78    1.67
   5  -4   0  273.59    3.49
   6  -4   0   55.50    1.35
   7  -4   0   31.43    1.03
   8  -4   0    0.33    0.26
   9  -4   0   50.04    1.98
  10  -4   0  182.86    4.12
  11  -4   0  177.04    4.29
  12  -4   0    2.44    0.97
  13  -4   0   41.60    3.29
  14  -4   0    6.04    2.21
  15  -4   0    3.87    2.04
 -12  -3   0   18.12    4.79
 -11  -3   0    9.35    2.40
 -10  -3   0    2.94    1.80
  -9  -3   0    4.07    1.52
  -8  -3   0   75.61    4.76
  -7  -3   0    1.32    0.97
  -6  -3   0  220.41    5.26
  -5  -3   0   30.47    1.98
  -4  -3   0   31.62    1.71
  -3  -3   0  379.02    6.48
  -2  -3   0   25.35    1.35
  -1  -3   0  314.51    5.17
   0  -3   0   19.99    0.77
   1  -3   0   21.65    0.69
   2  -3   0   43.41    1.02
   3  -3   0   18.80    0.52
   4  -3   0   77.19    1.38
   5  -3   0   60.38    1.14
   6  -3   0  381.27    4.29
   7  -3   0  155.96    2.64
   8  -3   0   51.55    1.54
   9  -3   0    3.54    0.56
  10  -3   0   17.31    1.76
  11  -3   0   28.04    2.40
  12  -3   0    3.51    1.12
  13  -3   0    1.53    1.04
  14  -3   0   12.00    2.01
  15  -3   0   10.98    2.94
 -12  -2   0   13.50    2.88
 -11  -2   0    3.38    1.68
 -10  -2   0    5.47    1.73
  -9  -2   0   19.82    2.71
  -8  -2   0    0.78    0.93
  -7  -2   0  145.49    4.00
  -6  -2   0    6.52    0.98
  -5  -2   0    0.17    0.40
  -4  -2   0   55.04    1.90
  -3  -2   0   62.52    1.85
  -2  -2   0  895.28   12.36
  -1  -2   0   47.06    1.60
   0  -2   0   31.91    0.75
   1  -2   0    3.83    0.29
   2  -2   0   31.92    0.80
   3  -2   0   20.85    0.57
   4  -2   0  930.71    8.57
   5  -2   0   21.96    0.79
   6  -2   0    9.22    0.66
   7  -2   0   56.19    1.52
   8  -2   0  107.34    2.64
   9  -2   0   33.86    1.72
  10  -2   0    1.55    0.79
  11  -2   0   10.71    1.58
  12  -2   0  183.73    5.87
  13  -2   0   30.16    3.02
  14  -2   0    0.92    1.16
  15  -2   0   10.32    3.16
 -13  -1   0   20.96    3.41
 -12  -1   0   27.85    3.57
 -11  -1   0    4.22    1.66
 -10  -1   0   57.53    4.66
  -9  -1   0   40.81    2.64
  -8  -1   0    1.75    0.67
  -7  -1   0   53.79    2.32
  -6  -1   0   13.44    1.24
  -5  -1   0  116.76    2.10
  -4  -1   0  270.99    3.73
  -3  -1   0   79.11    2.23
  -2  -1   0   22.87    0.91
  -1  -1   0    4.92    0.48
   0  -1   0    2.48    0.22
   1  -1   0    2.45    0.16
   2  -1   0    4.51    0.25
   3  -1   0   44.36    0.82
   4  -1   0  320.49    3.50
   5  -1   0   16.31    0.67
   6  -1   0    8.98    0.67
   7  -1   0  180.29    2.97
   8  -1   0  277.36    4.99
   9  -1   0   15.38    1.35
  10  -1   0   38.64    2.91
  11  -1   0    3.53    1.15
  12  -1   0    4.60    1.36
  13  -1   0    2.34    1.58
  14  -1   0    4.33    1.99
 -13   0   0   17.52    3.11
 -12   0   0   12.80    2.49
 -11   0   0   -0.89    0.80
 -10   0   0   14.88    1.71
  -9   0   0   53.16    2.74
  -8   0   0  101.01    3.66
  -7   0   0    5.62    0.97
  -6   0   0   20.75    1.05
  -5   0   0    0.73    0.29
  -4   0   0  111.59    2.12
  -3   0   0   19.37    0.68
  -2   0   0   32.18    0.75
  -1   0   0    3.14    0.27
   1   0   0    2.23    0.18
   2   0   0   32.17    0.66
   3   0   0   19.26    0.63
   4   0   0  109.08    1.82
   5   0   0    0.69    0.27
   6   0   0   19.08    0.94
   7   0   0    5.07    0.74
   8   0   0   99.40    2.86
   9   0   0   54.60    2.35
  10   0   0   13.43    1.43
  11   0   0   -0.29    0.92
  12   0   0   12.50    2.45
  13   0   0   13.23    2.66
 -14   1   0    4.27    1.95
 -13   1   0    0.59    1.29
 -12   1   0    2.77    1.54
 -11   1   0    2.19    0.93
 -10   1   0   35.77    2.83
  -9   1   0   16.29    1.88
  -8   1   0  267.51    6.50
  -7   1   0  177.21    3.56
  -6   1   0    8.49    0.81
  -5   1   0   16.32    0.87
  -4   1   0  322.22    5.67
  -3   1   0   44.28    1.31
  -2   1   0    4.75    0.51
  -1   1   0    2.39    0.27
   0   1   0    2.64    0.18
   1   1   0    4.42    0.35
   2   1   0   22.28    0.73
   3   1   0   77.62    1.44
   4   1   0  270.82    3.61
   5   1   0  116.24    2.17
   6   1   0   12.47    0.86
   7   1   0   50.09    2.10
   8   1   0    2.68    0.80
   9   1   0   40.91    2.71
  10   1   0   54.07    3.05
  11   1   0   -0.24    1.04
  12   1   0   27.34    3.51
  13   1   0   26.71    3.80
 -14   2   0   -1.19    1.25
 -13   2   0   28.54    3.61
 -12   2   0  196.89    6.43
 -11   2   0    8.48    1.56
 -10   2   0    2.81    0.97
  -9   2   0   36.96    2.63
  -8   2   0  106.38    2.76
  -7   2   0   55.34    1.51
  -6   2   0    9.13    0.79
  -5   2   0   21.81    0.95
  -4   2   0  947.74   14.57
  -3   2   0   24.08    1.07
  -2   2   0   31.74    0.91
  -1   2   0    3.85    0.43
   0   2   0   31.71    0.64
   1   2   0   45.16    0.82
   2   2   0  937.96   10.59
   3   2   0   59.09    1.45
   4   2   0   56.27    1.54
   5   2   0    0.17    0.33
   6   2   0    8.63    0.84
   7   2   0  142.85    4.06
   8   2   0    0.50    0.61
   9   2   0   25.75    2.32
  10   2   0    7.84    1.49
  11   2   0    1.22    1.25
  12   2   0   18.11    3.15
 -15   3   0   15.19    3.06
 -14   3   0   15.64    3.69
 -13   3   0    0.67    0.99
 -12   3   0    6.37    1.50
 -11   3   0   29.07    2.60
 -10   3   0   14.96    1.82
  -9   3   0    5.69    0.81
  -8   3   0   50.36    1.75
  -7   3   0  154.23    3.20
  -6   3   0  380.97    5.89
  -5   3   0   58.71    2.04
  -4   3   0   80.85    1.79
  -3   3   0   17.37    0.90
  -2   3   0   43.88    1.56
  -1   3   0   21.76    0.67
   0   3   0   17.20    0.59
   1   3   0  320.54    3.73
   2   3   0   21.56    1.00
   3   3   0  374.66    5.37
   4   3   0   31.42    1.33
   5   3   0   31.77    1.50
   6   3   0  225.69    5.38
   7   3   0    1.32    0.66
   8   3   0   77.80    3.29
   9   3   0    5.00    1.17
  10   3   0    6.42    1.46
  11   3   0    5.90    2.04
  12   3   0   11.12    4.30
 -15   4   0    1.22    1.92
 -14   4   0    4.56    1.63
 -13   4   0   39.55    3.50
 -12   4   0    1.86    0.92
 -11   4   0  172.54    5.56
 -10   4   0  182.68    5.14
  -9   4   0   51.76    2.44
  -8   4   0    0.14    0.35
  -7   4   0   33.10    1.14
  -6   4   0   55.68    1.64
  -5   4   0  269.16    4.52
  -4   4   0  110.48    2.46
  -3   4   0  323.05    5.10
  -2   4   0  940.98   10.39
  -1   4   0   77.37    1.56
   0   4   0  110.57    2.01
   1   4   0   16.05    0.71
   2   4   0    9.67    0.51
   3   4   0  149.44    3.03
   4   4   0   -0.11    0.34
   5   4   0   11.75    1.09
   6   4   0   18.59    1.82
   7   4   0   16.08    1.83
   8   4   0    0.12    0.71
   9   4   0   52.65    3.66
  10   4   0   13.31    2.00
  11   4   0   33.74    4.24
 -15   5   0    1.42    1.42
 -14   5   0    7.67    1.68
 -13   5   0    2.62    1.23
 -12   5   0    4.00    1.19
 -11   5   0  141.71    4.75
 -10   5   0   76.96    3.24
  -9   5   0   11.12    1.17
  -8   5   0   33.66    1.78
  -7   5   0    0.18    0.34
  -6   5   0  114.67    2.76
  -5   5   0    1.53    0.22
  -4   5   0   14.95    1.08
  -3   5   0   22.32    1.31
  -2   5   0   60.62    1.53
  -1   5   0  266.73    3.92
   0   5   0    0.40    0.27
   1   5   0    8.50    0.65
   2   5   0   56.44    1.33
   3   5   0   50.82    1.80
   4   5   0   48.57    1.86
   5   5   0   78.19    3.10
   6   5   0   58.59    3.15
   7   5   0   -0.78    0.57
   8   5   0  126.30    4.73
   9   5   0    0.99    1.01
  10   5   0   -0.32    1.13
 -16   6   0   -0.34    2.03
 -15   6   0   87.36    5.18
 -14   6   0   52.93    4.14
 -13   6   0   41.35    3.45
 -12   6   0    0.74    0.84
 -11   6   0   57.55    3.02
 -10   6   0   19.19    2.00
  -9   6   0  238.28    4.93
  -8   6   0    6.94    1.14
  -7   6   0   11.19    1.10
  -6   6   0   18.56    1.36
  -5   6   0   10.72    1.05
  -4   6   0    9.70    0.97
  -3   6   0  382.25    5.11
  -2   6   0   55.22    1.46
  -1   6   0  113.73    2.36
   0   6   0   19.78    1.15
   1   6   0  181.19    3.25
   2   6   0  100.21    2.60
   3   6   0    5.47    0.81
   4   6   0  180.98    4.05
   5   6   0  136.42    4.40
   6   6   0    0.28    0.74
   7   6   0    3.24    1.14
   8   6   0    7.05    1.63
   9   6   0    0.36    1.09
  10   6   0    5.00    2.04
 -16   7   0   -0.46    1.87
 -15   7   0   -0.19    1.15
 -14   7   0    3.16    1.38
 -13   7   0    2.37    1.17
 -12   7   0    0.65    0.84
 -11   7   0   14.05    1.88
 -10   7   0    1.71    0.73
  -9   7   0  134.36    4.56
  -8   7   0   52.53    2.70
  -7   7   0    5.05    0.81
  -6   7   0  174.24    3.97
  -5   7   0   52.25    2.01
  -4   7   0  154.47    3.67
  -3   7   0   33.81    1.19
  -2   7   0   -0.02    0.28
  -1   7   0   10.70    0.90
   0   7   0    5.75    0.70
   1   7   0  276.10    5.66
   2   7   0   35.91    2.31
   3   7   0   20.07    1.58
   4   7   0  171.76    5.00
   5   7   0    4.11    1.11
   6   7   0   28.11    2.64
   7   7   0    2.57    1.26
   8   7   0    3.40    1.51
   9   7   0    3.95    2.01
 -16   8   0    5.82    2.61
 -15   8   0    4.05    1.59
 -14   8   0    5.97    1.63
 -13   8   0  123.96    5.14
 -12   8   0    0.73    0.88
 -11   8   0   71.44    3.59
 -10   8   0    0.67    0.78
  -9   8   0    2.52    0.98
  -8   8   0  107.43    4.05
  -7   8   0  269.93    5.51
  -6   8   0  106.08    3.11
  -5   8   0   50.80    2.13
  -4   8   0    0.02    0.45
  -3   8   0   30.38    2.00
  -2   8   0    8.08    0.84
  -1   8   0   52.31    1.85
   0   8   0  105.71    2.66
   1   8   0   15.55    1.57
   2   8   0    2.68    0.82
   3   8   0   28.76    2.33
   4   8   0    0.93    0.99
   5   8   0    2.16    1.06
   6   8   0   52.87    3.83
   7   8   0    0.21    1.00
   8   8   0    2.74    2.72
 -16   9   0    2.66    2.43
 -15   9   0    0.51    1.52
 -14   9   0   -0.42    1.00
 -13   9   0   57.93    4.26
 -12   9   0    2.68    1.16
 -11   9   0   24.61    2.05
 -10   9   0   39.58    3.25
  -9   9   0   64.83    3.65
  -8   9   0   11.15    1.69
  -7   9   0   36.26    2.29
  -6   9   0    4.45    0.94
  -5   9   0   45.73    2.42
  -4   9   0    9.31    1.24
  -3   9   0  228.27    5.30
  -2   9   0  142.84    3.98
  -1   9   0    2.29    0.63
   0   9   0   58.64    2.69
   1   9   0   35.90    2.48
   2   9   0   10.23    1.43
   3   9   0    3.77    1.34
   4   9   0   35.78    3.69
   5   9   0    8.27    2.08
   6   9   0   87.52    6.41
   7   9   0    4.95    2.91
 -15  10   0    1.67    1.48
 -14  10   0   12.99    2.25
 -13  10   0    5.53    1.61
 -12  10   0    7.70    1.75
 -11  10   0   56.82    4.20
 -10  10   0   13.14    2.10
  -9  10   0   30.03    2.91
  -8  10   0    2.34    1.09
  -7  10   0   19.32    2.40
  -6  10   0  183.20    4.80
  -5  10   0   76.12    2.98
  -4  10   0   18.83    1.80
  -3  10   0   -0.40    0.52
  -2  10   0    0.67    0.66
  -1  10   0   38.77    3.51
   0  10   0   13.83    2.20
   1  10   0    4.01    1.49
   2  10   0  198.29    5.68
   3  10   0    2.17    1.32
   4  10   0    5.48    1.79
   5  10   0    2.23    1.72
   6  10   0    3.38    2.85
 -15  11   0   36.02    3.68
 -14  11   0   10.02    2.21
 -13  11   0    4.36    1.48
 -12  11   0    1.19    0.90
 -11  11   0   -0.36    0.86
 -10  11   0    3.38    1.29
  -9  11   0   10.50    2.03
  -8  11   0   29.11    3.15
  -7  11   0  175.16    6.28
  -6  11   0  132.72    4.29
  -5  11   0   60.62    3.17
  -4  11   0   13.31    1.65
  -3  11   0   77.84    3.28
  -2  11   0   27.92    3.07
  -1  11   0   54.92    4.43
   0  11   0   -1.64    0.82
   1  11   0    3.80    1.54
   2  11   0   23.78    4.90
   3  11   0   11.91    3.55
   4  11   0    2.35    2.35
 -15  12   0    8.89    3.07
 -14  12   0   18.40    2.77
 -13  12   0   29.85    3.28
 -12  12   0   14.31    1.90
 -11  12   0    4.12    1.45
 -10  12   0  184.20    6.92
  -9  12   0    6.39    1.69
  -8  12   0    0.30    0.96
  -7  12   0    5.78    1.63
  -6  12   0    0.58    0.81
  -5  12   0    0.04    0.82
  -4  12   0    0.26    0.82
  -3  12   0    2.43    1.41
  -2  12   0    6.86    1.93
  -1  12   0   -0.01    1.16
   0  12   0   14.04    2.73
   1  12   0    2.11    1.71
   2  12   0    0.16    1.78
 -14  13   0   16.58    2.78
 -13  13   0   15.67    2.62
 -12  13   0    1.73    1.48
 -11  13   0   30.08    3.46
 -10  13   0    3.48    1.55
  -9  13   0   30.13    3.40
  -8  13   0    2.53    1.42
  -7  13   0   36.69    3.76
  -6  13   0    2.69    1.15
  -5  13   0  128.15    4.69
  -4  13   0   52.94    4.69
  -3  13   0    0.88    1.36
  -2  13   0    2.52    1.54
  -1  13   0   29.47    3.93
   0  13   0   17.65    3.08
   1  13   0    7.34    3.18
 -13  14   0    3.31    1.37
 -12  14   0    0.59    1.40
 -11  14   0   11.71    2.48
 -10  14   0    3.74    1.76
  -9  14   0    9.99    2.31
  -8  14   0   46.69    4.51
  -7  14   0    2.30    1.57
  -6  14   0    5.77    1.99
  -5  14   0   -1.65    1.16
  -4  14   0   11.44    2.54
  -3  14   0    7.76    2.29
  -2  14   0   16.08    3.10
  -1  14   0   18.78    3.23
 -12  15   0   13.47    2.96
 -11  15   0    1.20    1.64
 -10  15   0    2.42    1.75
  -9  15   0   79.83    6.18
  -8  15   0   -0.96    1.28
  -7  15   0    0.37    1.64
  -6  15   0    8.27    3.28
  -5  15   0    1.98    2.48
  -4  15   0   28.41    4.02
  -3  15   0   11.22    2.83
  -9  16   0    0.70    2.57
  -8  16   0    4.69    3.20
   9 -16   1   16.63    3.89
  10 -16   1    5.80    3.02
   4 -15   1    3.51    2.94
   5 -15   1   14.87    3.81
   6 -15   1   18.30    4.48
   7 -15   1    6.68    1.92
   8 -15   1    3.40    1.63
   9 -15   1    0.95    1.35
  10 -15   1    5.79    1.95
  11 -15   1    0.46    1.30
  12 -15   1   11.72    3.78
   1 -14   1    1.75    2.45
   2 -14   1   17.94    4.32
   3 -14   1    2.45    2.65
   4 -14   1    3.71    2.27
   5 -14   1   17.50    4.01
   6 -14   1   14.48    2.47
   7 -14   1   61.95    4.70
   8 -14   1    1.75    1.38
   9 -14   1   10.11    2.12
  10 -14   1   38.10    3.84
  11 -14   1    1.22    1.33
  12 -14   1   23.50    3.08
  13 -14   1    2.06    1.65
  -1 -13   1    2.07    1.84
   0 -13   1    2.43    1.81
   1 -13   1   39.97    4.19
   2 -13   1   27.90    3.47
   3 -13   1   51.15    4.54
   4 -13   1    8.71    1.63
   5 -13   1    1.65    0.91
   6 -13   1   10.45    1.63
   7 -13   1   16.87    2.01
   8 -13   1   -0.53    0.72
   9 -13   1    1.60    0.97
  10 -13   1   20.02    2.24
  11 -13   1    6.12    1.48
  12 -13   1    2.77    1.16
  13 -13   1    2.21    1.22
  14 -13   1    2.48    1.55
  -3 -12   1   11.67    3.86
  -2 -12   1   23.26    3.41
  -1 -12   1    2.40    1.65
   0 -12   1   22.80    3.35
   1 -12   1    6.29    1.85
   2 -12   1    6.86    1.81
   3 -12   1    0.13    0.83
   4 -12   1   18.04    1.95
   5 -12   1    1.84    0.89
   6 -12   1    2.17    0.93
   7 -12   1   16.03    1.84
   8 -12   1   11.46    1.62
   9 -12   1   -0.29    0.71
  10 -12   1    0.60    0.82
  11 -12   1   20.84    2.23
  12 -12   1   26.32    2.62
  13 -12   1   48.09    3.54
  14 -12   1   27.81    2.79
  15 -12   1    1.89    2.78
  -4 -11   1    0.46    1.61
  -3 -11   1    1.67    1.54
  -2 -11   1    6.46    1.92
  -1 -11   1   26.49    3.35
   0 -11   1   10.17    2.11
   1 -11   1   29.35    3.32
   2 -11   1    7.11    1.31
   3 -11   1  131.98    4.26
   4 -11   1   13.46    1.62
   5 -11   1   61.11    3.11
   6 -11   1    0.26    0.59
   7 -11   1   27.13    2.22
   8 -11   1   23.36    2.12
   9 -11   1    5.60    1.09
  10 -11   1   38.06    2.78
  11 -11   1    9.49    1.53
  12 -11   1    5.30    1.34
  13 -11   1   29.64    2.75
  14 -11   1    4.22    1.30
  15 -11   1    3.67    1.93
  -6 -10   1    2.46    2.81
  -5 -10   1    5.81    2.16
  -4 -10   1   37.46    3.99
  -3 -10   1   23.88    3.20
  -2 -10   1   -1.65    0.97
  -1 -10   1   33.65    3.55
   0 -10   1   30.42    3.28
   1 -10   1   76.17    3.31
   2 -10   1   13.23    1.55
   3 -10   1   23.74    2.05
   4 -10   1    3.77    0.92
   5 -10   1    2.04    0.78
   6 -10   1   10.40    1.36
   7 -10   1    3.22    0.88
   8 -10   1    7.40    1.22
   9 -10   1   85.28    3.30
  10 -10   1   35.82    2.66
  11 -10   1   25.54    2.35
  12 -10   1    7.68    1.42
  13 -10   1   50.93    3.49
  14 -10   1    6.77    2.05
  15 -10   1   16.54    3.13
  16 -10   1    2.10    3.24
  -7  -9   1   19.39    4.66
  -6  -9   1    1.09    1.58
  -5  -9   1   12.17    2.47
  -4  -9   1    1.19    1.23
  -3  -9   1   -0.66    1.06
  -2  -9   1    8.03    1.97
  -1  -9   1   90.23    3.48
   0  -9   1    3.70    0.94
   1  -9   1   81.93    3.10
   2  -9   1    2.70    0.79
   3  -9   1    7.90    1.08
   4  -9   1   13.21    1.34
   5  -9   1   79.64    2.79
   6  -9   1   49.58    2.23
   7  -9   1   38.94    2.40
   8  -9   1   28.06    2.07
   9  -9   1    2.66    0.79
  10  -9   1   67.69    3.10
  11  -9   1    7.15    1.29
  12  -9   1    1.54    0.87
  13  -9   1   10.22    1.58
  14  -9   1   19.75    2.98
  15  -9   1   25.11    3.55
  16  -9   1    6.42    3.98
  -8  -8   1   12.57    4.06
  -7  -8   1    1.87    1.61
  -6  -8   1    4.41    1.83
  -5  -8   1    0.28    1.17
  -4  -8   1   11.48    2.23
  -3  -8   1   27.39    2.37
  -2  -8   1    9.38    1.16
  -1  -8   1   26.69    1.77
   0  -8   1   10.85    1.35
   1  -8   1   91.96    3.09
   2  -8   1   68.86    2.19
   3  -8   1  149.32    3.31
   4  -8   1   48.33    1.84
   5  -8   1    1.50    0.51
   6  -8   1   17.02    1.29
   7  -8   1   22.16    1.73
   8  -8   1    9.05    1.15
   9  -8   1   87.18    3.12
  10  -8   1   19.81    1.88
  11  -8   1  123.89    4.10
  12  -8   1   13.55    1.74
  13  -8   1    0.22    1.08
  14  -8   1   14.49    2.52
  15  -8   1    6.84    2.12
  16  -8   1    0.96    3.17
  -8  -7   1    6.47    2.03
  -7  -7   1   59.28    5.03
  -6  -7   1   17.16    2.67
  -5  -7   1   22.46    2.95
  -4  -7   1   27.99    2.90
  -3  -7   1    2.65    0.89
  -2  -7   1   40.35    2.54
  -1  -7   1   23.10    1.55
   0  -7   1    2.22    0.47
   1  -7   1  130.48    2.46
   2  -7   1  112.72    2.16
   3  -7   1  196.86    2.95
   4  -7   1   14.23    1.08
   5  -7   1   83.27    1.72
   6  -7   1  265.91    3.94
   7  -7   1    1.87    0.44
   8  -7   1   90.86    2.44
   9  -7   1    4.19    0.73
  10  -7   1   23.40    1.67
  11  -7   1   14.43    1.43
  12  -7   1    1.76    0.92
  13  -7   1    8.07    1.53
  14  -7   1   55.16    3.93
  15  -7   1    1.50    1.82
  16  -7   1   33.11    7.18
  -9  -6   1   21.83    3.45
  -8  -6   1   22.03    3.07
  -7  -6   1    6.14    1.78
  -6  -6   1    2.90    1.40
  -5  -6   1    1.48    1.16
  -4  -6   1   12.38    1.54
  -3  -6   1   45.69    2.46
  -2  -6   1   19.41    1.67
  -1  -6   1  270.98    4.57
   0  -6   1   17.16    1.00
   1  -6   1   29.42    1.09
   2  -6   1  102.47    1.87
   3  -6   1   71.81    1.87
   4  -6   1   51.99    1.17
   5  -6   1    7.28    0.60
   6  -6   1   17.98    1.00
   7  -6   1  128.24    2.52
   8  -6   1   73.15    1.77
   9  -6   1    7.90    0.74
  10  -6   1    4.29    0.82
  11  -6   1   61.36    3.00
  12  -6   1    1.36    0.91
  13  -6   1   14.22    1.98
  14  -6   1    5.33    1.93
  15  -6   1    1.21    1.78
  16  -6   1    8.50    3.49
 -10  -5   1   13.07    2.60
  -9  -5   1   11.90    2.33
  -8  -5   1    1.68    1.34
  -7  -5   1    1.27    1.31
  -6  -5   1   67.39    4.77
  -5  -5   1    3.84    1.02
  -4  -5   1   80.75    3.00
  -3  -5   1    0.70    0.57
  -2  -5   1   81.95    2.07
  -1  -5   1    7.68    0.75
   0  -5   1  210.51    3.61
   1  -5   1   26.34    0.92
   2  -5   1  168.32    2.92
   3  -5   1   11.13    0.82
   4  -5   1  301.46    3.84
   5  -5   1  213.90    3.10
   6  -5   1   32.22    0.97
   7  -5   1  109.41    1.98
   8  -5   1  151.71    2.78
   9  -5   1   13.70    0.90
  10  -5   1    2.57    0.59
  11  -5   1    0.62    0.60
  12  -5   1   18.56    2.01
  13  -5   1    0.41    1.13
  14  -5   1   16.02    2.94
  15  -5   1    7.86    2.26
 -11  -4   1    2.03    1.84
 -10  -4   1    6.28    2.12
  -9  -4   1   10.85    2.38
  -8  -4   1   17.56    2.69
  -7  -4   1   15.76    2.41
  -6  -4   1    4.85    1.02
  -5  -4   1   13.34    1.51
  -4  -4   1   55.93    2.37
  -3  -4   1   13.39    0.80
  -2  -4   1   49.83    1.48
  -1  -4   1  303.48    4.55
   0  -4   1  114.59    2.28
   1  -4   1  214.46    3.09
   2  -4   1   11.85    0.76
   3  -4   1    2.84    0.29
   4  -4   1  115.30    1.88
   5  -4   1   25.33    0.79
   6  -4   1  100.31    1.63
   7  -4   1  199.13    2.63
   8  -4   1   54.23    1.41
   9  -4   1   82.13    1.86
  10  -4   1   10.73    1.17
  11  -4   1   23.53    1.82
  12  -4   1   13.71    1.72
  13  -4   1    1.62    1.07
  14  -4   1   35.04    4.17
  15  -4   1    3.93    2.07
 -11  -3   1    1.02    1.56
 -10  -3   1   47.88    4.65
  -9  -3   1    1.13    1.25
  -8  -3   1  125.77    4.30
  -7  -3   1   21.15    1.95
  -6  -3   1    9.35    1.29
  -5  -3   1  144.50    3.97
  -4  -3   1  196.64    4.48
  -3  -3   1   69.08    1.69
  -2  -3   1   11.78    0.80
  -1  -3   1    3.46    0.48
   0  -3   1  420.95    6.19
   1  -3   1  133.53    2.22
   2  -3   1  152.71    2.34
   3  -3   1  414.41    4.31
   4  -3   1  209.75    2.23
   5  -3   1  167.15    1.99
   6  -3   1   69.10    1.24
   7  -3   1   14.35    0.72
   8  -3   1    1.28    0.37
   9  -3   1   46.03    1.54
  10  -3   1    2.76    0.68
  11  -3   1   29.57    2.43
  12  -3   1    0.59    0.87
  13  -3   1   20.73    2.43
  14  -3   1    1.65    1.21
  15  -3   1   18.98    5.15
 -12  -2   1   27.38    3.85
 -11  -2   1   31.33    3.73
 -10  -2   1   11.30    2.26
  -9  -2   1    5.09    1.11
  -8  -2   1   17.27    1.75
  -7  -2   1    3.45    0.87
  -6  -2   1   69.41    2.61
  -5  -2   1  102.85    3.05
  -4  -2   1  103.59    2.12
  -3  -2   1  167.89    2.82
  -2  -2   1   12.24    0.78
  -1  -2   1  149.26    2.47
   0  -2   1  126.93    2.05
   1  -2   1   31.25    0.73
   2  -2   1  125.29    1.55
   3  -2   1  135.17    1.51
   4  -2   1   11.41    0.50
   5  -2   1   10.67    0.53
   6  -2   1   51.84    1.05
   7  -2   1   80.71    1.74
   8  -2   1   18.87    1.07
   9  -2   1   38.60    1.95
  10  -2   1    7.82    1.05
  11  -2   1    7.08    1.32
  12  -2   1    1.37    1.02
  13  -2   1    7.51    1.65
  14  -2   1   19.84    3.10
 -13  -1   1    2.42    1.73
 -12  -1   1   41.80    4.44
 -11  -1   1    5.20    1.76
 -10  -1   1   24.27    2.27
  -9  -1   1   73.06    3.25
  -8  -1   1   83.88    3.12
  -7  -1   1   88.11    3.49
  -6  -1   1  126.42    4.00
  -5  -1   1   32.14    1.24
  -4  -1   1   26.34    1.07
  -3  -1   1  212.45    3.54
  -2  -1   1  134.85    2.94
  -1  -1   1   29.27    0.84
   0  -1   1   18.32    0.65
   1  -1   1   18.59    0.52
   2  -1   1   30.19    0.55
   3  -1   1  149.84    1.62
   4  -1   1    3.20    0.27
   5  -1   1  302.54    3.08
   6  -1   1    7.04    0.57
   7  -1   1  272.57    4.17
   8  -1   1   21.23    1.27
   9  -1   1   27.42    1.81
  10  -1   1   89.84    2.99
  11  -1   1   34.71    2.86
  12  -1   1   24.87    3.03
  13  -1   1    0.34    1.30
  14  -1   1    2.55    1.67
 -13   0   1    1.69    1.66
 -12   0   1   28.30    3.50
 -11   0   1   13.40    1.81
 -10   0   1   35.44    2.65
  -9   0   1    2.73    0.94
  -8   0   1   12.47    1.60
  -7   0   1    0.49    0.57
  -6   0   1   18.48    1.20
  -5   0   1  212.78    3.78
  -4   0   1  112.60    2.32
  -3   0   1  421.47    5.95
  -2   0   1  126.78    2.21
  -1   0   1   18.59    0.52
   0   0   1   -0.22    0.15
   1   0   1   18.06    0.39
   2   0   1  123.57    1.33
   3   0   1  419.99    3.95
   4   0   1  114.29    1.74
   5   0   1  214.94    2.82
   6   0   1   17.19    1.03
   7   0   1    1.23    0.44
   8   0   1   12.56    1.21
   9   0   1    3.57    0.89
  10   0   1   34.45    2.54
  11   0   1   12.84    2.11
  12   0   1   21.51    3.07
  13   0   1    2.11    1.63
 -14   1   1    1.68    1.68
 -13   1   1    3.20    1.68
 -12   1   1   22.85    2.38
 -11   1   1   43.21    3.52
 -10   1   1   90.99    4.01
  -9   1   1   26.32    2.37
  -8   1   1   22.95    1.52
  -7   1   1  274.55    4.95
  -6   1   1    7.81    0.81
  -5   1   1  299.81    4.91
  -4   1   1    3.41    0.49
  -3   1   1  150.71    2.36
  -2   1   1   29.37    0.81
  -1   1   1   17.86    0.49
   0   1   1   17.84    0.44
   1   1   1   31.84    0.80
   2   1   1  132.20    1.90
   3   1   1  210.28    2.75
   4   1   1   25.60    0.83
   5   1   1   30.51    0.94
   6   1   1  127.62    2.80
   7   1   1   85.37    2.38
   8   1   1   93.57    3.23
   9   1   1   72.01    3.18
  10   1   1   31.14    2.58
  11   1   1    4.14    1.19
  12   1   1   49.10    4.65
  13   1   1    1.34    1.66
 -14   2   1   22.90    3.46
 -13   2   1    4.74    1.69
 -12   2   1    0.96    1.05
 -11   2   1    5.85    1.37
 -10   2   1    7.55    1.42
  -9   2   1   37.02    2.01
  -8   2   1   20.45    1.48
  -7   2   1   82.85    2.34
  -6   2   1   49.91    1.30
  -5   2   1   10.45    0.64
  -4   2   1   11.68    0.65
  -3   2   1  138.29    2.37
  -2   2   1  125.63    1.77
  -1   2   1   31.61    0.73
   0   2   1  125.31    1.89
   1   2   1  147.98    2.23
   2   2   1   11.29    0.60
   3   2   1  169.81    2.37
   4   2   1  104.59    2.30
   5   2   1  111.52    2.59
   6   2   1   74.96    2.17
   7   2   1    4.22    0.92
   8   2   1   19.87    1.90
   9   2   1    5.63    1.15
  10   2   1    9.25    1.42
  11   2   1   31.64    2.94
  12   2   1   28.22    3.76
 -14   3   1    0.98    1.19
 -13   3   1   26.89    2.89
 -12   3   1    0.13    0.90
 -11   3   1   26.77    2.68
 -10   3   1    2.74    1.00
  -9   3   1   42.45    1.97
  -8   3   1    1.48    0.60
  -7   3   1   14.73    1.00
  -6   3   1   70.64    1.80
  -5   3   1  168.25    3.06
  -4   3   1  213.34    3.54
  -3   3   1  422.15    5.03
  -2   3   1  152.17    2.59
  -1   3   1  134.34    2.06
   0   3   1  422.67    5.20
   1   3   1    3.08    0.38
   2   3   1   10.50    0.62
   3   3   1   66.90    1.80
   4   3   1  199.44    3.66
   5   3   1  150.06    3.27
   6   3   1    7.51    0.88
   7   3   1   20.97    1.98
   8   3   1  136.71    4.43
   9   3   1    0.30    0.84
  10   3   1   51.06    3.60
  11   3   1    3.42    1.33
 -15   4   1    2.67    1.63
 -14   4   1   34.76    3.44
 -13   4   1    2.28    1.24
 -12   4   1   12.02    1.95
 -11   4   1   27.60    2.64
 -10   4   1   11.45    1.30
  -9   4   1   79.13    3.08
  -8   4   1   55.35    1.79
  -7   4   1  197.55    3.78
  -6   4   1  101.69    2.43
  -5   4   1   23.09    1.18
  -4   4   1  114.50    2.16
  -3   4   1    3.18    0.43
  -2   4   1   11.42    0.57
  -1   4   1  209.02    3.06
   0   4   1  116.92    2.07
   1   4   1  303.13    4.26
   2   4   1   52.13    1.25
   3   4   1   13.90    1.06
   4   4   1   50.82    1.82
   5   4   1   12.63    1.14
   6   4   1    3.63    0.87
   7   4   1   10.77    1.55
   8   4   1   16.49    1.95
   9   4   1    5.92    1.41
  10   4   1    7.68    1.65
  11   4   1    3.55    1.42
 -15   5   1    6.09    1.76
 -14   5   1    9.99    2.07
 -13   5   1    0.47    0.94
 -12   5   1   18.45    2.27
 -11   5   1    0.93    0.78
 -10   5   1    3.50    0.92
  -9   5   1   10.70    1.43
  -8   5   1  146.33    3.39
  -7   5   1  110.73    2.78
  -6   5   1   30.25    0.84
  -5   5   1  213.49    3.64
  -4   5   1  302.62    4.90
  -3   5   1   10.40    0.85
  -2   5   1  167.41    2.66
  -1   5   1   26.12    1.00
   0   5   1  211.57    3.37
   1   5   1    6.62    0.66
   2   5   1   81.12    1.89
   3   5   1    0.78    0.44
   4   5   1   79.17    2.40
   5   5   1    3.19    0.71
   6   5   1   61.81    3.25
   7   5   1    2.83    1.03
   8   5   1    0.94    0.89
   9   5   1   19.40    2.39
  10   5   1   14.51    2.27
 -16   6   1    7.55    2.76
 -15   6   1   -0.24    1.16
 -14   6   1    0.91    1.25
 -13   6   1   16.41    2.17
 -12   6   1    1.89    1.00
 -11   6   1   60.62    3.13
 -10   6   1    4.55    1.11
  -9   6   1    7.34    0.95
  -8   6   1   72.82    2.36
  -7   6   1  124.68    3.12
  -6   6   1   18.92    0.98
  -5   6   1    8.34    0.79
  -4   6   1   50.80    1.68
  -3   6   1   68.72    1.52
  -2   6   1  104.83    2.11
  -1   6   1   29.16    1.19
   0   6   1   16.47    1.06
   1   6   1  267.51    4.32
   2   6   1   14.08    1.32
   3   6   1   49.53    2.26
   4   6   1   11.92    1.19
   5   6   1    0.36    0.60
   6   6   1    0.79    0.80
   7   6   1    9.27    1.69
   8   6   1   18.01    2.38
   9   6   1   22.59    2.72
  10   6   1    1.67    2.58
 -16   7   1   13.81    4.18
 -15   7   1    0.71    1.31
 -14   7   1   55.42    4.24
 -13   7   1    6.96    1.60
 -12   7   1    3.78    1.20
 -11   7   1   10.46    1.63
 -10   7   1   22.36    2.26
  -9   7   1    4.45    0.85
  -8   7   1   90.90    2.81
  -7   7   1   -0.21    0.48
  -6   7   1  271.65    4.94
  -5   7   1   85.35    2.40
  -4   7   1   12.74    1.14
  -3   7   1  201.19    3.28
  -2   7   1  113.12    2.39
  -1   7   1  125.82    2.65
   0   7   1    1.34    0.43
   1   7   1   21.45    1.67
   2   7   1   36.98    2.33
   3   7   1    2.65    0.82
   4   7   1   24.98    2.09
   5   7   1   15.24    2.24
   6   7   1   14.49    2.33
   7   7   1   61.94    4.82
   8   7   1    5.34    1.91
   9   7   1   10.43    3.56
 -15   8   1    7.52    1.88
 -14   8   1   15.65    2.35
 -13   8   1    0.84    1.01
 -12   8   1   15.99    2.21
 -11   8   1  128.74    4.93
 -10   8   1   19.23    1.69
  -9   8   1   87.82    2.97
  -8   8   1   10.97    1.56
  -7   8   1   19.41    2.02
  -6   8   1   17.00    1.35
  -5   8   1    1.48    0.53
  -4   8   1   56.58    2.14
  -3   8   1  149.82    3.78
  -2   8   1   72.56    2.00
  -1   8   1   94.56    2.40
   0   8   1   10.43    1.18
   1   8   1   28.10    2.10
   2   8   1    7.70    1.18
   3   8   1   23.54    2.10
   4   8   1   12.06    1.61
   5   8   1    2.36    1.18
   6   8   1    1.57    1.26
   7   8   1    4.30    1.68
 -15   9   1   21.95    4.00
 -14   9   1   15.63    2.37
 -13   9   1   11.16    1.99
 -12   9   1    0.84    0.96
 -11   9   1    6.99    1.52
 -10   9   1   75.99    2.95
  -9   9   1    3.54    0.84
  -8   9   1   26.52    2.54
  -7   9   1   38.85    3.00
  -6   9   1   47.07    2.25
  -5   9   1   82.76    2.78
  -4   9   1   14.58    1.45
  -3   9   1    8.03    1.06
  -2   9   1    4.68    0.92
  -1   9   1   88.63    3.02
   0   9   1    3.45    0.90
   1   9   1   91.83    3.39
   2   9   1    6.87    1.29
   3   9   1    0.28    0.75
   4   9   1    3.41    1.46
   5   9   1    9.79    2.16
   6   9   1   -0.42    1.31
   7   9   1   16.35    4.26
 -15  10   1   16.45    2.75
 -14  10   1    5.11    1.60
 -13  10   1   43.86    3.74
 -12  10   1   12.75    2.07
 -11  10   1   31.87    2.45
 -10  10   1   32.39    2.45
  -9  10   1   83.42    3.95
  -8  10   1    9.01    1.68
  -7  10   1    2.77    1.04
  -6  10   1   15.05    1.60
  -5  10   1    2.27    0.80
  -4  10   1    3.56    0.93
  -3  10   1   25.57    2.06
  -2  10   1   16.01    1.64
  -1  10   1   69.97    4.20
   0  10   1   30.78    3.14
   1  10   1   47.17    4.03
   2  10   1   -0.64    0.78
   3  10   1   27.94    3.24
   4  10   1   36.30    3.92
   5  10   1    8.85    2.30
   6  10   1    6.47    3.26
 -15  11   1    5.58    1.74
 -14  11   1    3.34    1.47
 -13  11   1   30.32    3.30
 -12  11   1    6.43    1.59
 -11  11   1   11.10    1.61
 -10  11   1   37.65    2.75
  -9  11   1   11.19    1.89
  -8  11   1   20.90    2.59
  -7  11   1   29.17    2.98
  -6  11   1   -0.19    0.84
  -5  11   1   65.21    2.95
  -4  11   1   10.96    1.48
  -3  11   1  130.76    4.19
  -2  11   1    4.34    1.45
  -1  11   1   30.88    3.26
   0  11   1   14.66    2.41
   1  11   1   22.98    3.11
   2  11   1    8.10    2.04
   3  11   1    0.43    1.66
   4  11   1    3.90    2.82
 -15  12   1    0.41    1.80
 -14  12   1   20.33    2.96
 -13  12   1   45.83    4.10
 -12  12   1   19.33    2.70
 -11  12   1   20.00    2.18
 -10  12   1    0.44    0.79
  -9  12   1    0.13    0.94
  -8  12   1   12.29    2.11
  -7  12   1   15.84    2.31
  -6  12   1    1.75    1.18
  -5  12   1    0.90    0.88
  -4  12   1   19.52    2.06
  -3  12   1   -0.41    1.02
  -2  12   1    8.52    2.12
  -1  12   1    5.19    1.72
   0  12   1   24.51    3.21
   1  12   1   -0.58    1.49
   2  12   1   18.98    4.33
 -14  13   1    1.62    1.48
 -13  13   1   -0.09    1.14
 -12  13   1    3.05    1.21
 -11  13   1    4.25    1.29
 -10  13   1   24.57    3.09
  -9  13   1    1.90    1.38
  -8  13   1    0.02    1.06
  -7  13   1    8.95    2.06
  -6  13   1    7.36    1.94
  -5  13   1    1.48    1.03
  -4  13   1    8.15    2.02
  -3  13   1   45.84    4.27
  -2  13   1   32.97    3.86
  -1  13   1   52.85    4.83
   0  13   1    2.96    1.79
   1  13   1    4.46    2.02
 -13  14   1    1.60    1.45
 -12  14   1   25.58    2.73
 -11  14   1    0.30    1.02
 -10  14   1   33.44    3.85
  -9  14   1   10.08    2.37
  -8  14   1    0.70    1.30
  -7  14   1   56.13    4.83
  -6  14   1   15.66    2.72
  -5  14   1   16.79    4.25
  -4  14   1    5.94    2.01
  -3  14   1    2.13    1.60
  -2  14   1   25.01    3.56
  -1  14   1    0.79    1.69
   0  14   1   -4.88    2.38
 -12  15   1    8.27    2.14
 -11  15   1    2.58    1.31
 -10  15   1    9.21    1.86
  -9  15   1   -0.01    1.50
  -8  15   1    1.89    1.69
  -7  15   1    8.53    2.34
  -6  15   1   19.84    5.04
  -5  15   1   10.38    3.70
  -4  15   1    7.69    3.71
  -3  15   1    6.93    2.38
  -9  16   1   19.95    4.86
  -8  16   1   15.17    4.46
   5 -15   2    2.38    2.54
   6 -15   2   13.26    2.65
   7 -15   2    7.97    2.17
   8 -15   2    4.88    1.96
   9 -15   2   18.28    2.87
  10 -15   2    5.42    1.97
  11 -15   2    0.58    1.59
   2 -14   2    3.52    2.82
   3 -14   2    5.48    3.06
   4 -14   2    5.88    2.93
   5 -14   2   11.56    2.42
   6 -14   2    2.88    1.52
   7 -14   2    6.60    1.87
   8 -14   2   20.92    2.86
   9 -14   2   41.80    4.14
  10 -14   2   57.74    4.85
  11 -14   2    3.10    1.65
  12 -14   2    9.59    2.25
   0 -13   2   29.13    5.42
   1 -13   2   -0.19    1.97
   2 -13   2   28.70    5.44
   3 -13   2   10.56    2.10
   4 -13   2    6.06    1.76
   5 -13   2   70.63    5.08
   6 -13   2    4.47    1.58
   7 -13   2    6.17    1.82
   8 -13   2    7.32    1.77
   9 -13   2    7.24    1.82
  10 -13   2    9.42    2.07
  11 -13   2    6.60    1.67
  12 -13   2   16.31    2.73
  13 -13   2   28.85    3.39
  14 -13   2    1.71    2.34
  -2 -12   2   11.49    3.71
  -1 -12   2   10.95    3.66
   0 -12   2   11.33    3.63
   1 -12   2    2.35    1.97
   2 -12   2   29.97    3.23
   3 -12   2    0.03    0.98
   4 -12   2   14.57    2.29
   5 -12   2   17.71    2.46
   6 -12   2   22.48    2.73
   7 -12   2    5.81    1.57
   8 -12   2   39.39    3.53
   9 -12   2    0.98    1.12
  10 -12   2   30.52    3.20
  11 -12   2   41.54    3.82
  12 -12   2   11.14    2.12
  13 -12   2    0.85    1.21
  14 -12   2    6.08    1.82
  -3 -11   2    0.52    2.39
  -2 -11   2   15.08    3.75
  -1 -11   2   56.37    7.08
   0 -11   2    8.66    2.95
   1 -11   2   33.51    3.37
   2 -11   2    8.32    1.45
   3 -11   2   14.01    1.73
   4 -11   2  143.33    4.55
   5 -11   2    8.07    1.33
   6 -11   2   67.10    3.00
   7 -11   2  134.78    5.28
   8 -11   2    3.17    1.13
   9 -11   2    1.60    0.94
  10 -11   2    0.45    0.87
  11 -11   2    2.95    1.23
  12 -11   2    1.23    1.09
  13 -11   2   39.50    3.79
  14 -11   2    2.91    1.55
  15 -11   2   22.02    2.82
  -5 -10   2    8.47    3.45
  -4 -10   2   67.98    5.34
  -3 -10   2   10.36    2.27
  -2 -10   2   42.49    4.07
  -1 -10   2    2.86    1.11
   0 -10   2   31.85    2.62
   1 -10   2    4.48    1.09
   2 -10   2    4.58    0.91
   3 -10   2   27.76    1.89
   4 -10   2    6.88    0.99
   5 -10   2    1.86    0.68
   6 -10   2  185.77    4.26
   7 -10   2   11.47    1.20
   8 -10   2   80.85    2.78
   9 -10   2   28.05    2.26
  10 -10   2   29.47    2.41
  11 -10   2   34.28    2.74
  12 -10   2   28.62    2.52
  13 -10   2    8.68    1.63
  14 -10   2    9.24    2.05
  15 -10   2    0.65    2.17
  -6  -9   2   16.98    2.89
  -5  -9   2   49.16    4.53
  -4  -9   2    4.97    1.80
  -3  -9   2    1.81    1.37
  -2  -9   2    0.89    0.91
  -1  -9   2   25.28    2.28
   0  -9   2    3.50    1.00
   1  -9   2   22.07    1.66
   2  -9   2   32.38    1.95
   3  -9   2   81.03    2.60
   4  -9   2   41.58    2.03
   5  -9   2   14.13    1.26
   6  -9   2   13.57    1.27
   7  -9   2    4.60    0.87
   8  -9   2  123.94    3.35
   9  -9   2    6.06    0.92
  10  -9   2    4.84    1.07
  11  -9   2    5.79    1.14
  12  -9   2    0.05    0.77
  13  -9   2    6.22    1.44
  14  -9   2   13.19    1.92
  15  -9   2   15.85    2.95
  -7  -8   2    6.30    2.03
  -6  -8   2   19.58    3.02
  -5  -8   2    6.15    1.81
  -4  -8   2   49.50    4.14
  -3  -8   2    5.54    1.24
  -2  -8   2   82.96    3.47
  -1  -8   2  129.82    4.09
   0  -8   2  185.28    4.12
   1  -8   2   11.63    1.15
   2  -8   2   59.74    2.16
   3  -8   2   64.78    2.13
   4  -8   2    6.18    0.86
   5  -8   2   14.02    1.19
   6  -8   2   22.36    1.48
   7  -8   2   16.62    1.35
   8  -8   2  182.63    4.02
   9  -8   2   22.69    1.71
  10  -8   2    5.57    1.12
  11  -8   2   13.60    1.64
  12  -8   2   21.28    2.15
  13  -8   2   71.96    3.53
  14  -8   2    0.81    1.39
  15  -8   2   12.46    2.66
  -8  -7   2    9.93    2.47
  -7  -7   2    1.97    1.54
  -6  -7   2    9.74    2.06
  -5  -7   2    5.96    1.74
  -4  -7   2  144.11    4.55
  -3  -7   2    7.18    1.29
  -2  -7   2    5.42    1.11
  -1  -7   2   17.05    1.72
   0  -7   2   19.73    1.43
   1  -7   2   30.33    1.73
   2  -7   2   47.10    1.74
   3  -7   2   19.16    1.29
   4  -7   2  291.83    4.86
   5  -7   2   26.55    1.56
   6  -7   2   32.49    1.69
   7  -7   2   18.93    1.38
   8  -7   2    9.84    1.07
   9  -7   2   32.46    1.90
  10  -7   2   25.95    1.82
  11  -7   2  144.36    4.40
  12  -7   2   11.14    1.53
  13  -7   2    3.05    1.45
  14  -7   2    2.95    1.59
  15  -7   2    5.12    3.45
  -9  -6   2    9.76    2.53
  -8  -6   2    1.04    1.36
  -7  -6   2    2.03    1.47
  -6  -6   2   24.60    2.98
  -5  -6   2   73.28    3.57
  -4  -6   2  182.25    5.04
  -3  -6   2   13.89    1.48
  -2  -6   2   23.67    1.90
  -1  -6   2   31.47    1.63
   0  -6   2    9.18    0.95
   1  -6   2  118.37    2.77
   2  -6   2   22.20    1.30
   3  -6   2   30.76    1.42
   4  -6   2  140.90    2.89
   5  -6   2  168.27    3.25
   6  -6   2    9.46    0.71
   7  -6   2   30.05    1.29
   8  -6   2   60.10    1.76
   9  -6   2   85.92    1.98
  10  -6   2    7.76    0.91
  11  -6   2    8.14    1.11
  12  -6   2   23.84    2.26
  13  -6   2   10.03    1.67
  14  -6   2   23.27    3.38
  15  -6   2   19.81    3.38
 -10  -5   2    0.71    1.80
  -9  -5   2   15.30    2.83
  -8  -5   2   69.86    5.35
  -7  -5   2   15.79    1.97
  -6  -5   2    7.95    1.41
  -5  -5   2    1.26    0.81
  -4  -5   2   15.09    1.64
  -3  -5   2   18.08    1.68
  -2  -5   2   27.26    1.47
  -1  -5   2  165.92    3.35
   0  -5   2   95.28    2.36
   1  -5   2   39.36    1.43
   2  -5   2   75.99    2.15
   3  -5   2  169.65    3.47
   4  -5   2    3.39    0.48
   5  -5   2   99.20    1.78
   6  -5   2  125.86    2.20
   7  -5   2   49.71    1.26
   8  -5   2   65.09    1.45
   9  -5   2   41.12    1.28
  10  -5   2    1.06    0.41
  11  -5   2   70.98    2.26
  12  -5   2    7.18    1.18
  13  -5   2    4.00    1.79
  14  -5   2   47.21    4.68
  15  -5   2   11.00    2.87
 -11  -4   2   17.57    4.58
 -10  -4   2   13.87    2.79
  -9  -4   2    6.00    2.00
  -8  -4   2   17.82    2.10
  -7  -4   2  143.54    4.64
  -6  -4   2    7.87    1.28
  -5  -4   2   40.98    2.59
  -4  -4   2    4.25    0.95
  -3  -4   2  290.55    4.84
  -2  -4   2  145.12    3.00
  -1  -4   2    3.31    0.54
   0  -4   2   48.13    1.51
   1  -4   2   74.44    1.78
   2  -4   2  166.89    2.60
   3  -4   2   62.18    1.43
   4  -4   2   50.72    1.32
   5  -4   2   41.10    1.11
   6  -4   2   23.05    0.90
   7  -4   2   18.71    0.85
   8  -4   2    5.72    0.54
   9  -4   2   16.63    0.90
  10  -4   2  191.51    3.08
  11  -4   2  143.16    3.80
  12  -4   2   49.10    3.27
  13  -4   2    5.04    1.40
  14  -4   2   58.53    5.45
  15  -4   2   -1.11    2.08
 -11  -3   2    3.56    1.88
 -10  -3   2   12.51    2.52
  -9  -3   2    0.05    0.87
  -8  -3   2   15.21    1.89
  -7  -3   2   27.94    2.28
  -6  -3   2   87.14    3.25
  -5  -3   2   68.28    2.70
  -4  -3   2   19.18    1.26
  -3  -3   2   30.98    1.42
  -2  -3   2  168.23    3.17
  -1  -3   2   65.29    1.73
   0  -3   2   31.97    1.01
   1  -3   2    9.38    0.53
   2  -3   2  341.66    4.11
   3  -3   2   31.57    0.94
   4  -3   2   75.62    1.30
   5  -3   2   72.08    1.27
   6  -3   2   30.42    0.92
   7  -3   2  293.55    3.34
   8  -3   2   16.56    0.86
   9  -3   2   13.20    0.83
  10  -3   2    9.94    1.16
  11  -3   2    7.53    1.13
  12  -3   2    3.90    1.22
  13  -3   2    7.90    1.60
  14  -3   2    3.32    1.64
 -12  -2   2    3.22    1.89
 -11  -2   2   42.18    4.38
 -10  -2   2   23.81    2.47
  -9  -2   2    7.78    1.42
  -8  -2   2    5.45    1.19
  -7  -2   2   32.29    2.34
  -6  -2   2   61.04    2.56
  -5  -2   2   48.04    1.65
  -4  -2   2   22.99    1.31
  -3  -2   2   73.05    1.91
  -2  -2   2  167.57    3.01
  -1  -2   2  340.61    4.23
   0  -2   2  336.55    4.07
   1  -2   2   74.81    1.66
   2  -2   2  340.33    3.94
   3  -2   2   11.71    0.59
   4  -2   2  171.11    2.00
   5  -2   2  163.01    2.09
   6  -2   2  138.91    1.98
   7  -2   2   25.33    1.00
   8  -2   2   23.74    1.13
   9  -2   2    5.43    0.69
  10  -2   2   80.94    2.79
  11  -2   2    0.63    0.70
  12  -2   2   36.84    3.60
  13  -2   2   13.45    2.46
  14  -2   2   15.27    2.95
 -13  -1   2    4.48    3.31
 -12  -1   2    1.82    1.60
 -11  -1   2    1.32    1.11
 -10  -1   2   33.60    2.80
  -9  -1   2    4.79    1.10
  -8  -1   2   19.96    2.23
  -7  -1   2    9.93    1.52
  -6  -1   2   32.42    1.66
  -5  -1   2  124.90    3.00
  -4  -1   2   40.70    1.55
  -3  -1   2   75.06    2.06
  -2  -1   2   10.49    0.72
  -1  -1   2   74.10    1.65
   0  -1   2  250.24    3.58
   1  -1   2  248.73    3.10
   2  -1   2   71.81    1.29
   3  -1   2  344.61    3.69
   4  -1   2   61.22    1.06
   5  -1   2    2.89    0.32
   6  -1   2  161.73    2.34
   7  -1   2   36.25    1.28
   8  -1   2   15.84    1.03
   9  -1   2  118.84    3.72
  10  -1   2   26.69    2.17
  11  -1   2    2.23    0.85
  12  -1   2   39.58    3.92
  13  -1   2   12.53    2.52
  14  -1   2    2.72    2.26
 -13   0   2   27.93    3.65
 -12   0   2    9.88    1.77
 -11   0   2    3.95    1.24
 -10   0   2   30.66    3.01
  -9   0   2    3.25    1.11
  -8   0   2  178.51    5.61
  -7   0   2   19.43    1.46
  -6   0   2   10.78    1.06
  -5   0   2   94.62    2.47
  -4   0   2   49.33    1.61
  -3   0   2   32.02    0.93
  -2   0   2  340.38    4.97
  -1   0   2  259.71    3.45
   0   0   2  414.93    5.05
   1   0   2  254.27    3.52
   2   0   2  343.75    4.42
   3   0   2   30.68    0.80
   4   0   2   48.44    1.08
   5   0   2   97.14    1.69
   6   0   2    8.71    0.72
   7   0   2   19.83    1.14
   8   0   2  184.26    3.99
   9   0   2    4.38    1.03
  10   0   2   26.06    2.28
  11   0   2    4.29    1.21
  12   0   2   10.87    2.14
  13   0   2   32.41    3.95
 -13   1   2   10.82    1.87
 -12   1   2   42.28    3.78
 -11   1   2    1.67    1.16
 -10   1   2   28.17    2.78
  -9   1   2  126.15    4.64
  -8   1   2   15.70    1.37
  -7   1   2   36.62    1.76
  -6   1   2  166.17    3.59
  -5   1   2    3.61    0.57
  -4   1   2   61.18    1.31
  -3   1   2  345.91    4.41
  -2   1   2   72.45    1.41
  -1   1   2  254.34    3.40
   0   1   2  257.68    3.47
   1   1   2   74.22    1.31
   2   1   2   10.40    0.48
   3   1   2   75.55    1.28
   4   1   2   40.38    1.18
   5   1   2  125.09    2.31
   6   1   2   30.19    1.25
   7   1   2   12.47    1.17
   8   1   2   20.91    1.64
   9   1   2    4.51    0.97
  10   1   2   35.65    2.80
  11   1   2    2.59    1.15
  12   1   2    2.13    1.50
 -14   2   2   18.36    2.40
 -13   2   2    6.75    1.96
 -12   2   2   39.60    3.65
 -11   2   2    1.28    0.95
 -10   2   2   80.82    3.80
  -9   2   2    4.67    0.88
  -8   2   2   24.98    1.71
  -7   2   2   29.13    1.59
  -6   2   2  137.92    2.35
  -5   2   2  167.89    3.03
  -4   2   2  172.13    3.06
  -3   2   2   12.83    0.85
  -2   2   2  347.35    4.32
  -1   2   2   76.16    1.45
   0   2   2  339.70    3.89
   1   2   2  341.18    4.63
   2   2   2  166.90    2.87
   3   2   2   74.96    1.82
   4   2   2   21.27    1.01
   5   2   2   47.15    1.34
   6   2   2   56.37    2.02
   7   2   2   34.63    2.02
   8   2   2    7.30    1.23
   9   2   2    6.25    1.22
  10   2   2   23.39    2.22
  11   2   2   39.02    3.26
  12   2   2    1.83    1.59
 -15   3   2    3.72    2.48
 -14   3   2    4.90    1.68
 -13   3   2    9.50    1.95
 -12   3   2    2.51    1.27
 -11   3   2    2.37    1.08
 -10   3   2    8.90    1.21
  -9   3   2   13.50    1.34
  -8   3   2   14.76    1.35
  -7   3   2  290.45    6.54
  -6   3   2   31.97    1.31
  -5   3   2   75.28    1.93
  -4   3   2   74.86    1.89
  -3   3   2   31.85    0.89
  -2   3   2  340.58    4.42
  -1   3   2   12.12    0.68
   0   3   2   30.91    0.78
   1   3   2   62.84    1.55
   2   3   2  163.81    2.95
   3   3   2   28.03    1.22
   4   3   2   17.76    0.93
   5   3   2   65.59    2.14
   6   3   2   82.92    2.58
   7   3   2   29.19    1.96
   8   3   2   14.93    1.80
   9   3   2   -0.32    0.73
  10   3   2   11.31    1.82
  11   3   2    4.51    1.45
 -15   4   2   -0.05    1.71
 -14   4   2   54.34    4.54
 -13   4   2    6.93    1.76
 -12   4   2   44.37    3.71
 -11   4   2  132.81    5.10
 -10   4   2  189.42    4.66
  -9   4   2   15.76    1.46
  -8   4   2    9.60    1.31
  -7   4   2   18.06    1.11
  -6   4   2   23.04    1.26
  -5   4   2   40.34    1.45
  -4   4   2   49.57    1.16
  -3   4   2   61.38    1.40
  -2   4   2  167.58    2.69
  -1   4   2   74.62    1.39
   0   4   2   47.89    1.04
   1   4   2    3.46    0.49
   2   4   2  135.01    2.72
   3   4   2  288.94    4.57
   4   4   2    6.89    0.96
   5   4   2   41.49    2.19
   6   4   2    6.92    1.00
   7   4   2  136.12    4.46
   8   4   2   22.39    2.25
   9   4   2    5.36    1.27
  10   4   2   11.17    1.96
  11   4   2   13.38    2.89
 -15   5   2    3.83    1.72
 -14   5   2   45.90    4.06
 -13   5   2    3.62    1.36
 -12   5   2    7.67    1.50
 -11   5   2   65.83    2.74
 -10   5   2    1.00    0.76
  -9   5   2   39.33    2.76
  -8   5   2   67.06    2.13
  -7   5   2   47.68    1.76
  -6   5   2  124.57    2.97
  -5   5   2   97.80    1.82
  -4   5   2    2.91    0.39
  -3   5   2  163.14    2.79
  -2   5   2   75.20    1.69
  -1   5   2   43.34    1.08
   0   5   2   94.81    1.68
   1   5   2  161.81    3.06
   2   5   2   26.70    1.34
   3   5   2   18.47    1.55
   4   5   2   15.70    1.50
   5   5   2   -0.11    0.54
   6   5   2    7.96    1.31
   7   5   2   16.50    2.33
   8   5   2   69.71    5.03
   9   5   2    6.89    1.92
  10   5   2    2.06    1.40
 -15   6   2   13.64    2.42
 -14   6   2   16.50    2.48
 -13   6   2    7.74    1.73
 -12   6   2   25.98    2.20
 -11   6   2    8.90    1.53
 -10   6   2    8.44    1.43
  -9   6   2   86.34    3.53
  -8   6   2   58.88    2.15
  -7   6   2   30.54    1.82
  -6   6   2    9.69    1.02
  -5   6   2  165.23    2.86
  -4   6   2  141.85    2.64
  -3   6   2   31.02    1.17
  -2   6   2   21.95    1.09
  -1   6   2  122.30    2.55
   0   6   2   10.32    0.88
   1   6   2   33.85    1.47
   2   6   2   22.68    1.74
   3   6   2   12.95    1.38
   4   6   2  179.23    4.76
   5   6   2   67.26    2.89
   6   6   2   24.78    2.84
   7   6   2    5.84    1.71
   8   6   2    0.65    1.20
   9   6   2   11.62    2.48
 -15   7   2    5.28    1.64
 -14   7   2    7.20    1.79
 -13   7   2    2.98    1.04
 -12   7   2   12.24    1.93
 -11   7   2  135.11    5.00
 -10   7   2   27.91    2.56
  -9   7   2   35.46    1.97
  -8   7   2   13.28    1.30
  -7   7   2   19.17    1.48
  -6   7   2   34.01    1.94
  -5   7   2   25.72    1.21
  -4   7   2  286.19    4.51
  -3   7   2   20.66    1.45
  -2   7   2   49.16    1.56
  -1   7   2   28.66    1.40
   0   7   2   19.44    1.30
   1   7   2   14.67    1.41
   2   7   2    4.05    0.86
   3   7   2    7.84    1.23
   4   7   2  134.69    4.28
   5   7   2    8.59    1.37
   6   7   2    6.91    1.76
   7   7   2    1.74    1.33
   8   7   2    9.49    2.27
 -15   8   2   11.68    2.30
 -14   8   2    1.62    0.97
 -13   8   2   75.47    4.44
 -12   8   2   16.82    2.19
 -11   8   2   14.53    1.97
 -10   8   2    6.90    1.39
  -9   8   2   20.58    1.74
  -8   8   2  181.77    4.42
  -7   8   2   17.47    1.49
  -6   8   2   21.35    1.66
  -5   8   2   16.34    1.13
  -4   8   2    6.85    0.95
  -3   8   2   63.11    2.32
  -2   8   2   58.01    1.84
  -1   8   2   12.01    1.07
   0   8   2  177.11    4.41
   1   8   2  126.72    3.76
   2   8   2   76.43    3.04
   3   8   2    3.32    1.00
   4   8   2   46.67    3.14
   5   8   2    9.72    2.03
   6   8   2   20.54    2.97
   7   8   2    5.67    1.83
 -15   9   2   10.67    2.28
 -14   9   2   13.24    2.29
 -13   9   2    5.93    1.68
 -12   9   2    0.60    0.92
 -11   9   2    8.04    1.59
 -10   9   2    4.28    1.00
  -9   9   2    3.49    0.81
  -8   9   2  124.01    3.69
  -7   9   2    4.74    0.92
  -6   9   2   14.17    1.40
  -5   9   2   12.34    1.29
  -4   9   2   40.23    2.16
  -3   9   2   88.02    2.97
  -2   9   2   37.97    2.39
  -1   9   2   20.19    1.75
   0   9   2    3.28    0.89
   1   9   2   26.50    2.21
   2   9   2    1.33    0.78
   3   9   2    2.07    0.94
   4   9   2    3.79    1.22
   5   9   2   38.47    3.88
   6   9   2   14.97    2.75
 -15  10   2    1.20    1.33
 -14  10   2    8.48    2.03
 -13  10   2    9.39    1.91
 -12  10   2   29.92    3.05
 -11  10   2   32.28    3.08
 -10  10   2   31.44    2.41
  -9  10   2   24.71    2.11
  -8  10   2   84.46    3.12
  -7  10   2    8.14    1.21
  -6  10   2  188.38    6.07
  -5  10   2    0.21    0.60
  -4  10   2    9.52    1.29
  -3  10   2   25.40    2.05
  -2  10   2    4.87    1.07
  -1  10   2    4.19    1.31
   0  10   2   30.91    3.11
   1  10   2    2.39    1.21
   2  10   2   36.51    3.65
   3  10   2   10.09    1.76
   4  10   2   73.54    5.53
   5  10   2    6.70    2.12
 -15  11   2    9.99    3.10
 -14  11   2    3.26    1.49
 -13  11   2   36.41    3.65
 -12  11   2    1.56    1.19
 -11  11   2    5.51    1.58
 -10  11   2    2.35    0.93
  -9  11   2    1.38    0.81
  -8  11   2    2.81    0.93
  -7  11   2  136.03    4.16
  -6  11   2   69.26    4.19
  -5  11   2    8.14    1.66
  -4  11   2  140.50    4.29
  -3  11   2   16.83    1.81
  -2  11   2    5.16    1.51
  -1  11   2   27.91    3.20
   0  11   2    4.71    1.60
   1  11   2   55.17    4.66
   2  11   2    7.80    2.15
   3  11   2    2.38    1.99
 -14  12   2    4.56    1.59
 -13  12   2    2.02    1.36
 -12  12   2   11.57    2.20
 -11  12   2   49.39    3.30
 -10  12   2   35.58    2.73
  -9  12   2    2.67    0.99
  -8  12   2   41.42    2.89
  -7  12   2    8.66    1.48
  -6  12   2   24.42    2.78
  -5  12   2   17.19    2.51
  -4  12   2   18.58    1.94
  -3  12   2    0.19    0.96
  -2  12   2   23.68    3.02
  -1  12   2    2.68    1.29
   0  12   2   10.44    2.38
   1  12   2   12.17    2.57
   2  12   2   18.47    3.05
 -13  13   2   25.16    3.26
 -12  13   2   10.61    2.22
 -11  13   2    8.18    1.56
 -10  13   2   13.61    1.87
  -9  13   2    6.96    1.47
  -8  13   2    5.42    1.36
  -7  13   2    9.22    2.06
  -6  13   2    1.91    1.41
  -5  13   2   65.04    4.89
  -4  13   2    8.82    3.45
  -3  13   2    7.11    2.06
  -2  13   2   39.19    4.07
  -1  13   2   -0.37    1.60
   0  13   2   27.82    3.61
   1  13   2    3.42    1.71
 -13  14   2    1.03    1.95
 -12  14   2   15.21    2.62
 -11  14   2    1.96    1.16
 -10  14   2   62.25    3.96
  -9  14   2   43.05    4.23
  -8  14   2   15.41    2.69
  -7  14   2    1.72    1.49
  -6  14   2    2.31    1.60
  -5  14   2   12.28    3.80
  -4  14   2    2.06    2.95
  -3  14   2    3.49    1.86
  -2  14   2    2.94    1.80
  -1  14   2    3.10    1.93
 -12  15   2    4.99    1.97
 -11  15   2    2.08    1.26
 -10  15   2    9.69    2.34
  -9  15   2   12.56    2.68
  -8  15   2    3.73    2.05
  -7  15   2   12.75    2.58
  -6  15   2   12.31    3.90
  -5  15   2    0.31    2.52
  -4  15   2   25.52    6.05
   5 -15   3   18.92    4.23
   6 -15   3    8.37    3.24
   7 -15   3    5.07    1.98
   8 -15   3    8.32    2.30
   9 -15   3    0.51    1.50
   3 -14   3    4.02    2.06
   4 -14   3    2.24    1.59
   5 -14   3   11.93    2.52
   6 -14   3   15.13    2.56
   7 -14   3   41.80    4.28
   8 -14   3    1.46    1.58
   9 -14   3    0.79    1.44
  10 -14   3   27.59    3.56
  11 -14   3    1.38    1.54
  12 -14   3   26.63    5.10
   0 -13   3    1.21    2.27
   1 -13   3   19.60    4.36
   2 -13   3   19.36    3.02
   3 -13   3   39.27    4.02
   4 -13   3   11.00    2.28
   5 -13   3    0.83    1.34
   6 -13   3    4.62    1.69
   7 -13   3   48.69    4.32
   8 -13   3    0.33    1.22
   9 -13   3    1.32    1.24
  10 -13   3   12.72    2.38
  11 -13   3    6.28    1.91
  12 -13   3    7.78    2.10
  13 -13   3   -0.90    1.29
  -1 -12   3    5.75    2.93
   0 -12   3   15.67    3.59
   1 -12   3    4.27    1.65
   2 -12   3   11.60    2.37
   3 -12   3    1.69    1.27
   4 -12   3   18.77    2.18
   5 -12   3    2.81    1.11
   6 -12   3    3.77    1.22
   7 -12   3   19.12    2.16
   8 -12   3    9.74    1.70
   9 -12   3    1.66    1.02
  10 -12   3    2.26    1.29
  11 -12   3   41.92    3.84
  12 -12   3   19.88    2.73
  13 -12   3   23.88    3.10
  14 -12   3   19.91    3.17
  -3 -11   3   -0.27    1.93
  -2 -11   3    4.03    2.46
  -1 -11   3   39.94    6.05
   0 -11   3   14.50    2.52
   1 -11   3    6.55    1.89
   2 -11   3    4.79    1.54
   3 -11   3   93.16    3.81
   4 -11   3   14.23    1.83
   5 -11   3   34.13    2.76
   6 -11   3    2.89    1.01
   7 -11   3   15.65    1.90
   8 -11   3   18.27    1.94
   9 -11   3   28.87    2.53
  10 -11   3   28.22    2.52
  11 -11   3   15.61    2.37
  12 -11   3    2.42    1.28
  13 -11   3   25.80    3.07
  14 -11   3    5.10    1.85
  -4 -10   3   30.18    5.54
  -3 -10   3   19.84    4.44
  -2 -10   3    2.19    1.34
  -1 -10   3   25.74    3.04
   0 -10   3   28.30    3.26
   1 -10   3   88.59    4.51
   2 -10   3   16.44    1.87
   3 -10   3   25.85    2.28
   4 -10   3    4.54    1.13
   5 -10   3    2.80    0.95
   6 -10   3   18.19    1.91
   7 -10   3   12.99    1.63
   8 -10   3   23.39    2.17
   9 -10   3   49.78    3.15
  10 -10   3   30.41    2.56
  11 -10   3    8.41    1.52
  12 -10   3   13.27    2.19
  13 -10   3   38.64    3.63
  14 -10   3    6.54    1.90
  15 -10   3   12.57    2.46
  -5  -9   3    7.23    3.30
  -4  -9   3    4.38    2.46
  -3  -9   3    1.93    1.26
  -2  -9   3   39.66    3.66
  -1  -9   3   52.94    4.24
   0  -9   3    6.63    1.65
   1  -9   3   82.36    3.30
   2  -9   3    8.76    1.37
   3  -9   3    8.93    1.35
   4  -9   3   10.14    1.30
   5  -9   3  116.69    3.87
   6  -9   3   57.63    2.99
   7  -9   3    9.58    1.32
   8  -9   3    4.85    1.07
   9  -9   3    3.53    1.00
  10  -9   3   84.85    3.39
  11  -9   3    2.87    0.94
  12  -9   3    1.92    1.12
  13  -9   3   13.95    2.26
  14  -9   3   10.53    2.14
  15  -9   3   11.05    3.20
  -7  -8   3    2.39    2.85
  -6  -8   3    1.61    1.91
  -5  -8   3    2.65    2.27
  -4  -8   3   10.10    1.98
  -3  -8   3   25.70    2.90
  -2  -8   3   26.66    2.93
  -1  -8   3    2.23    1.14
   0  -8   3    0.92    0.75
   1  -8   3   86.54    3.28
   2  -8   3   71.78    2.93
   3  -8   3  152.76    4.27
   4  -8   3   11.80    1.47
   5  -8   3   31.32    2.24
   6  -8   3    4.15    0.97
   7  -8   3   12.29    1.43
   8  -8   3    0.46    0.63
   9  -8   3   73.68    3.01
  10  -8   3   19.26    1.89
  11  -8   3   88.99    3.47
  12  -8   3   14.39    2.16
  13  -8   3    2.29    1.26
  14  -8   3   17.14    2.48
  15  -8   3    7.91    3.15
  -8  -7   3    2.82    2.96
  -7  -7   3   37.55    5.90
  -6  -7   3   45.06    4.08
  -5  -7   3   22.21    2.31
  -4  -7   3   17.26    1.95
  -3  -7   3   10.73    1.55
  -2  -7   3   15.15    1.66
  -1  -7   3   12.86    1.26
   0  -7   3   10.47    1.09
   1  -7   3   97.78    2.69
   2  -7   3   62.47    2.05
   3  -7   3  111.61    3.45
   4  -7   3   36.22    2.22
   5  -7   3   51.06    1.90
   6  -7   3  210.69    4.09
   7  -7   3   11.08    1.13
   8  -7   3   92.15    2.69
   9  -7   3    8.30    1.06
  10  -7   3   25.62    1.83
  11  -7   3   10.32    1.31
  12  -7   3    0.95    0.85
  13  -7   3    4.66    1.42
  14  -7   3   57.46    6.45
  -9  -6   3   18.21    4.49
  -8  -6   3   21.82    3.20
  -7  -6   3    4.38    1.65
  -6  -6   3    4.85    1.32
  -5  -6   3    4.95    1.19
  -4  -6   3   20.16    1.98
  -3  -6   3   60.62    3.04
  -2  -6   3    5.15    1.03
  -1  -6   3  216.56    4.25
   0  -6   3   35.78    1.76
   1  -6   3   65.34    2.01
   2  -6   3   30.76    1.42
   3  -6   3   52.40    1.66
   4  -6   3   82.20    2.14
   5  -6   3   23.20    1.26
   6  -6   3   43.03    1.59
   7  -6   3   97.37    2.41
   8  -6   3   71.27    2.15
   9  -6   3    8.25    0.94
  10  -6   3    5.14    0.84
  11  -6   3   34.95    2.21
  12  -6   3    3.87    1.10
  13  -6   3   50.58    4.43
  14  -6   3    4.36    3.38
 -10  -5   3   14.04    4.30
  -9  -5   3   10.64    2.43
  -8  -5   3    2.93    1.27
  -7  -5   3    1.11    0.96
  -6  -5   3   33.94    2.65
  -5  -5   3    0.39    0.71
  -4  -5   3  117.27    3.85
  -3  -5   3   35.42    2.34
  -2  -5   3   50.94    1.99
  -1  -5   3   21.84    1.41
   0  -5   3  117.91    2.73
   1  -5   3   23.92    1.16
   2  -5   3  137.51    2.49
   3  -5   3    2.02    0.41
   4  -5   3  164.76    2.82
   5  -5   3  118.12    2.41
   6  -5   3   63.62    1.79
   7  -5   3   63.12    1.84
   8  -5   3  150.53    2.57
   9  -5   3   11.86    0.81
  10  -5   3    2.14    0.49
  11  -5   3    2.38    0.54
  12  -5   3   26.44    2.02
  13  -5   3    1.28    1.45
  14  -5   3    8.99    3.10
 -10  -4   3    3.58    1.76
  -9  -4   3   11.16    1.76
  -8  -4   3   15.73    2.07
  -7  -4   3   10.36    1.70
  -6  -4   3    5.31    1.19
  -5  -4   3   11.93    1.52
  -4  -4   3    8.36    1.23
  -3  -4   3   43.53    1.83
  -2  -4   3   86.09    2.36
  -1  -4   3  169.87    3.34
   0  -4   3  120.31    2.59
   1  -4   3  157.28    2.56
   2  -4   3    2.80    0.53
   3  -4   3   42.40    1.13
   4  -4   3  120.68    2.26
   5  -4   3   25.54    1.24
   6  -4   3   31.72    1.28
   7  -4   3  114.21    1.94
   8  -4   3   10.99    0.76
   9  -4   3  119.18    2.18
  10  -4   3   23.47    1.20
  11  -4   3   15.67    1.43
  12  -4   3    7.02    1.42
  13  -4   3    5.71    1.72
  14  -4   3   23.52    4.99
 -11  -3   3    5.00    2.00
 -10  -3   3   42.37    4.15
  -9  -3   3    1.48    0.98
  -8  -3   3   95.21    3.90
  -7  -3   3   20.98    2.08
  -6  -3   3    8.42    1.26
  -5  -3   3  146.68    4.19
  -4  -3   3  116.37    2.89
  -3  -3   3   51.31    1.86
  -2  -3   3    2.30    0.53
  -1  -3   3   42.32    1.33
   0  -3   3  250.58    3.52
   1  -3   3   67.48    1.89
   2  -3   3  154.71    2.96
   3  -3   3  254.09    4.03
   4  -3   3  155.93    2.37
   5  -3   3  137.07    2.28
   6  -3   3   53.38    1.28
   7  -3   3   43.24    1.18
   8  -3   3   33.14    1.26
   9  -3   3   59.93    1.58
  10  -3   3    6.67    0.95
  11  -3   3   21.96    2.07
  12  -3   3    1.23    1.14
  13  -3   3   12.88    2.34
  14  -3   3    0.17    1.30
 -12  -2   3   24.38    5.24
 -11  -2   3   20.12    2.53
 -10  -2   3   16.45    2.13
  -9  -2   3    1.86    1.04
  -8  -2   3   18.87    2.00
  -7  -2   3    8.37    1.29
  -6  -2   3   70.33    2.89
  -5  -2   3   62.07    2.37
  -4  -2   3   32.22    1.82
  -3  -2   3  132.25    3.45
  -2  -2   3    2.73    0.52
  -1  -2   3  157.83    2.55
   0  -2   3  189.18    2.71
   1  -2   3   10.98    0.83
   2  -2   3  189.07    2.88
   3  -2   3   67.96    1.49
   4  -2   3    3.69    0.45
   5  -2   3    2.01    0.37
   6  -2   3   81.85    1.60
   7  -2   3   52.56    1.32
   8  -2   3    4.71    0.59
   9  -2   3   12.82    1.09
  10  -2   3   21.86    1.78
  11  -2   3   34.84    2.63
  12  -2   3    3.12    1.11
  13  -2   3    5.52    1.80
  14  -2   3   21.01    3.15
 -12  -1   3   28.05    2.99
 -11  -1   3    2.98    1.18
 -10  -1   3    9.19    1.69
  -9  -1   3   77.48    3.60
  -8  -1   3   81.44    5.64
  -7  -1   3   87.11    3.94
  -6  -1   3  101.50    3.05
  -5  -1   3   65.36    2.32
  -4  -1   3   24.15    1.64
  -3  -1   3  156.53    2.93
  -2  -1   3   70.10    1.81
  -1  -1   3   12.09    0.89
   0  -1   3   21.75    1.03
   1  -1   3   25.27    0.89
   2  -1   3   10.87    0.55
   3  -1   3  155.86    2.38
   4  -1   3   42.86    1.07
   5  -1   3  162.63    2.44
   6  -1   3   22.48    1.02
   7  -1   3  214.79    3.22
   8  -1   3   13.37    1.09
   9  -1   3    3.84    0.82
  10  -1   3   53.26    3.19
  11  -1   3   30.36    2.51
  12  -1   3   35.91    2.95
  13  -1   3    8.79    2.25
 -13   0   3   -0.33    1.25
 -12   0   3   12.12    2.04
 -11   0   3   14.17    2.40
 -10   0   3   28.03    2.98
  -9   0   3    3.13    1.16
  -8   0   3    0.93    0.83
  -7   0   3   11.03    1.22
  -6   0   3   36.02    1.92
  -5   0   3  118.81    3.11
  -4   0   3  125.86    2.46
  -3   0   3  256.60    3.87
  -2   0   3  188.98    3.14
  -1   0   3   23.31    1.03
   0   0   3   -0.01    0.20
   1   0   3   23.96    1.14
   2   0   3  187.52    3.19
   3   0   3  247.88    3.48
   4   0   3  124.25    2.22
   5   0   3  121.02    2.22
   6   0   3   37.00    1.23
   7   0   3    9.39    0.88
   8   0   3    0.94    0.55
   9   0   3    3.77    0.85
  10   0   3   26.65    2.39
  11   0   3   13.22    1.86
  12   0   3   17.94    2.28
  13   0   3    0.39    1.50
 -13   1   3    6.76    1.66
 -12   1   3   40.18    3.86
 -11   1   3   28.60    3.01
 -10   1   3   44.24    3.59
  -9   1   3    4.08    1.19
  -8   1   3   12.66    1.36
  -7   1   3  214.78    4.66
  -6   1   3   22.67    1.59
  -5   1   3  165.31    2.85
  -4   1   3   42.70    1.28
  -3   1   3  157.40    2.70
  -2   1   3   10.07    0.70
  -1   1   3   22.76    0.78
   0   1   3   24.32    1.05
   1   1   3   10.56    0.77
   2   1   3   68.80    1.46
   3   1   3  159.67    2.47
   4   1   3   26.09    0.95
   5   1   3   60.66    1.91
   6   1   3   96.42    2.52
   7   1   3   85.81    2.72
   8   1   3   76.10    2.71
   9   1   3   80.29    3.41
  10   1   3    8.80    1.55
  11   1   3    1.97    1.07
  12   1   3   23.10    2.62
 -13   2   3    9.29    2.24
 -12   2   3    1.01    1.18
 -11   2   3   39.24    3.55
 -10   2   3   18.40    2.31
  -9   2   3   14.57    1.50
  -8   2   3    4.31    0.86
  -7   2   3   50.63    2.07
  -6   2   3   84.37    2.57
  -5   2   3    1.63    0.40
  -4   2   3    4.07    0.53
  -3   2   3   70.42    1.62
  -2   2   3  186.36    3.05
  -1   2   3    9.98    0.73
   0   2   3  186.98    3.14
   1   2   3  156.44    2.44
   2   2   3    4.32    0.37
   3   2   3  138.47    2.90
   4   2   3   32.46    1.65
   5   2   3   64.18    1.98
   6   2   3   71.72    2.72
   7   2   3    9.75    1.30
   8   2   3   17.55    1.63
   9   2   3    2.58    0.95
  10   2   3   19.84    2.32
  11   2   3   23.11    3.13
  12   2   3   25.69    4.82
 -14   3   3   -0.31    1.28
 -13   3   3   15.72    2.58
 -12   3   3    0.43    1.00
 -11   3   3   18.12    2.27
 -10   3   3    6.24    1.11
  -9   3   3   59.21    2.51
  -8   3   3   29.27    1.95
  -7   3   3   40.85    1.85
  -6   3   3   50.40    1.50
  -5   3   3  135.36    3.03
  -4   3   3  158.98    3.31
  -3   3   3  256.39    3.76
  -2   3   3  155.37    2.70
  -1   3   3   68.95    1.64
   0   3   3  250.09    3.78
   1   3   3   40.87    1.41
   2   3   3    1.47    0.44
   3   3   3   52.66    1.75
   4   3   3  113.13    2.72
   5   3   3  143.84    3.93
   6   3   3    7.27    1.17
   7   3   3   19.95    1.96
   8   3   3   89.67    4.45
   9   3   3    1.25    1.03
  10   3   3   41.49    4.03
  11   3   3   -0.33    1.24
 -14   4   3   24.87    3.06
 -13   4   3    6.53    1.75
 -12   4   3   11.13    2.00
 -11   4   3   17.00    2.20
 -10   4   3   20.20    1.84
  -9   4   3  111.95    3.49
  -8   4   3    9.26    1.13
  -7   4   3  117.08    3.99
  -6   4   3   31.20    1.52
  -5   4   3   23.94    1.37
  -4   4   3  123.75    2.34
  -3   4   3   43.62    1.29
  -2   4   3    4.55    0.51
  -1   4   3  158.10    2.77
   0   4   3  121.77    2.11
   1   4   3  161.79    3.17
   2   4   3   82.37    2.22
   3   4   3   40.14    1.75
   4   4   3    8.98    1.19
   5   4   3   10.72    1.36
   6   4   3    3.41    0.92
   7   4   3   13.33    1.74
   8   4   3   21.45    2.69
   9   4   3    9.53    2.05
  10   4   3    7.22    2.03
 -14   5   3    3.88    1.56
 -13   5   3    0.71    1.09
 -12   5   3   22.52    2.71
 -11   5   3    4.16    1.03
 -10   5   3    1.98    0.77
  -9   5   3   10.12    1.59
  -8   5   3  146.21    4.76
  -7   5   3   64.80    2.18
  -6   5   3   63.24    2.14
  -5   5   3  120.19    2.98
  -4   5   3  165.93    2.90
  -3   5   3    1.56    0.39
  -2   5   3  135.74    2.62
  -1   5   3   23.17    1.06
   0   5   3  115.25    2.60
   1   5   3   21.03    1.32
   2   5   3   51.36    1.79
   3   5   3   31.04    2.08
   4   5   3  113.06    3.63
   5   5   3    3.03    0.95
   6   5   3   29.73    2.37
   7   5   3    0.88    1.03
   8   5   3    1.60    1.26
   9   5   3   15.34    2.58
  10   5   3   13.20    3.83
 -15   6   3   -0.37    1.40
 -14   6   3   -0.13    1.21
 -13   6   3   43.27    3.82
 -12   6   3    4.32    1.14
 -11   6   3   31.01    2.36
 -10   6   3    5.11    1.26
  -9   6   3    9.07    1.52
  -8   6   3   69.41    2.51
  -7   6   3   98.70    2.87
  -6   6   3   34.05    1.96
  -5   6   3   22.36    1.57
  -4   6   3   83.10    2.01
  -3   6   3   53.40    1.59
  -2   6   3   29.41    1.23
  -1   6   3   66.36    1.93
   0   6   3   37.22    1.56
   1   6   3  215.54    4.05
   2   6   3    3.53    0.83
   3   6   3   58.96    2.55
   4   6   3   21.87    1.97
   5   6   3    3.95    1.08
   6   6   3    2.72    0.96
   7   6   3    2.13    1.31
   8   6   3   19.57    2.96
   9   6   3   21.37    4.52
 -15   7   3    8.34    2.11
 -14   7   3   35.96    3.67
 -13   7   3    2.26    1.03
 -12   7   3    1.21    0.88
 -11   7   3   11.87    1.94
 -10   7   3   21.24    2.38
  -9   7   3    9.19    1.53
  -8   7   3   88.53    2.91
  -7   7   3    9.55    1.13
  -6   7   3  211.70    4.58
  -5   7   3   48.74    1.99
  -4   7   3   40.59    1.54
  -3   7   3  116.84    2.56
  -2   7   3   64.69    2.33
  -1   7   3   97.83    2.52
   0   7   3    9.77    1.01
   1   7   3   12.06    1.34
   2   7   3   10.18    1.21
   3   7   3    8.10    1.25
   4   7   3   13.92    1.67
   5   7   3   23.73    2.25
   6   7   3   34.54    3.54
   7   7   3   37.08    3.89
   8   7   3    5.31    1.87
 -15   8   3    6.93    2.01
 -14   8   3   16.80    2.07
 -13   8   3    0.75    1.12
 -12   8   3   18.67    2.47
 -11   8   3   88.92    4.25
 -10   8   3   20.03    2.34
  -9   8   3   78.35    2.94
  -8   8   3    1.57    0.64
  -7   8   3   13.23    1.41
  -6   8   3    3.63    0.77
  -5   8   3   35.11    2.15
  -4   8   3    9.04    0.89
  -3   8   3  150.64    3.86
  -2   8   3   66.37    2.55
  -1   8   3   92.35    2.57
   0   8   3   -0.27    0.47
   1   8   3    5.50    1.04
   2   8   3   22.19    2.04
   3   8   3   17.89    1.93
   4   8   3    7.70    1.46
   5   8   3    0.94    0.98
   6   8   3    2.52    1.49
   7   8   3    9.14    2.32
 -15   9   3   15.97    3.75
 -14   9   3    9.89    2.10
 -13   9   3   11.60    2.09
 -12   9   3   -0.36    0.86
 -11   9   3    4.68    1.44
 -10   9   3   76.68    3.87
  -9   9   3    3.28    0.90
  -8   9   3    7.03    1.08
  -7   9   3   10.17    1.35
  -6   9   3   67.04    2.58
  -5   9   3  119.71    3.47
  -4   9   3   13.50    1.35
  -3   9   3    9.28    1.22
  -2   9   3    8.53    1.25
  -1   9   3   76.73    3.01
   0   9   3    2.56    0.86
   1   9   3   56.78    3.03
   2   9   3   34.97    2.72
   3   9   3    1.86    1.06
   4   9   3    5.91    1.37
   5   9   3    1.74    1.15
   6   9   3    0.08    1.54
 -15  10   3    9.83    3.39
 -14  10   3    6.75    1.87
 -13  10   3   42.68    3.87
 -12  10   3   19.65    2.59
 -11  10   3   10.21    1.85
 -10  10   3   30.45    2.98
  -9  10   3   55.47    2.90
  -8  10   3   22.00    1.96
  -7  10   3    6.66    1.15
  -6  10   3   22.62    1.91
  -5  10   3    1.13    0.97
  -4  10   3    6.15    1.13
  -3  10   3   25.50    2.09
  -2  10   3   20.77    1.97
  -1  10   3   79.00    4.10
   0  10   3   24.26    2.87
   1  10   3   30.10    3.36
   2  10   3    1.87    1.50
   3  10   3    9.45    2.13
   4  10   3   23.78    3.21
   5  10   3    3.19    2.55
 -14  11   3    2.79    1.58
 -13  11   3   23.49    3.02
 -12  11   3    1.49    1.22
 -11  11   3   12.05    2.01
 -10  11   3   27.17    2.38
  -9  11   3   33.63    2.53
  -8  11   3   17.72    1.86
  -7  11   3   14.75    1.67
  -6  11   3    5.35    1.59
  -5  11   3   27.93    3.05
  -4  11   3   13.49    2.16
  -3  11   3   93.92    3.60
  -2  11   3    3.18    1.32
  -1  11   3   10.89    2.13
   0  11   3   15.64    2.51
   1  11   3   43.20    4.15
   2  11   3    6.69    2.00
   3  11   3   -0.48    1.30
 -14  12   3   24.15    3.40
 -13  12   3   17.20    2.76
 -12  12   3   13.14    2.31
 -11  12   3   35.63    3.43
 -10  12   3    2.95    1.13
  -9  12   3    0.25    0.87
  -8  12   3   12.85    1.66
  -7  12   3   18.44    2.61
  -6  12   3    2.57    1.40
  -5  12   3    0.87    1.17
  -4  12   3   22.01    2.78
  -3  12   3    1.67    1.07
  -2  12   3   19.48    2.82
  -1  12   3    1.45    1.26
   0  12   3   20.55    3.05
   1  12   3    4.75    1.93
   2  12   3   16.05    3.03
 -13  13   3    0.01    1.34
 -12  13   3    5.01    1.69
 -11  13   3    5.70    1.76
 -10  13   3    8.85    1.60
  -9  13   3    5.70    1.82
  -8  13   3    1.74    1.35
  -7  13   3   55.35    4.54
  -6  13   3    4.25    1.70
  -5  13   3   -0.37    1.07
  -4  13   3    9.04    3.29
  -3  13   3   52.81    7.05
  -2  13   3   22.91    3.21
  -1  13   3   26.86    3.45
   0  13   3    1.02    1.64
 -12  14   3   21.98    3.99
 -11  14   3   -0.44    1.15
 -10  14   3   28.27    3.59
  -9  14   3    3.19    1.66
  -8  14   3    3.33    1.75
  -7  14   3   43.09    4.44
  -6  14   3   15.24    2.76
  -5  14   3   15.66    3.89
  -4  14   3    1.60    2.52
  -3  14   3    6.00    3.24
  -2  14   3   23.09    3.58
 -10  15   3   -0.26    2.37
  -9  15   3    0.81    1.58
  -8  15   3    8.56    2.34
  -7  15   3    4.81    2.92
   3 -14   4    3.26    2.81
   4 -14   4    3.90    1.90
   5 -14   4    4.17    1.84
   6 -14   4    1.09    1.59
   7 -14   4   11.00    2.28
   8 -14   4   21.80    3.27
   9 -14   4    7.35    2.19
  10 -14   4    0.28    2.07
  11 -14   4   10.57    3.57
   1 -13   4   13.16    2.69
   2 -13   4    2.49    1.78
   3 -13   4    7.40    2.09
   4 -13   4   30.42    3.81
   5 -13   4   33.48    3.16
   6 -13   4    3.68    1.36
   7 -13   4   19.15    2.47
   8 -13   4    0.25    1.12
   9 -13   4   16.82    2.32
  10 -13   4    1.54    1.21
  11 -13   4    6.39    2.06
  12 -13   4    3.11    2.55
  -1 -12   4    4.61    2.98
   0 -12   4    3.99    1.92
   1 -12   4    0.90    1.52
   2 -12   4    4.44    1.66
   3 -12   4    2.28    1.55
   4 -12   4   -0.13    1.02
   5 -12   4    1.06    1.10
   6 -12   4    6.16    1.52
   7 -12   4    4.74    1.42
   8 -12   4    2.41    1.13
   9 -12   4    0.82    1.04
  10 -12   4  110.37    4.56
  11 -12   4    4.36    1.43
  12 -12   4    2.95    1.61
  13 -12   4   14.00    2.65
  -2 -11   4    6.98    2.99
  -1 -11   4    5.74    1.90
   0 -11   4   -0.58    1.23
   1 -11   4   12.58    2.33
   2 -11   4   16.85    2.67
   3 -11   4   47.08    3.34
   4 -11   4    0.80    0.90
   5 -11   4   40.37    3.13
   6 -11   4   58.25    3.61
   7 -11   4   30.79    2.66
   8 -11   4   14.35    1.91
   9 -11   4    5.75    1.34
  10 -11   4    0.15    0.88
  11 -11   4    0.29    0.96
  12 -11   4    1.59    1.15
  13 -11   4    3.35    1.64
  -4 -10   4   -1.86    1.82
  -3 -10   4    4.60    1.88
  -2 -10   4  111.49    5.58
  -1 -10   4    4.09    1.73
   0 -10   4    4.31    1.65
   1 -10   4   19.32    2.69
   2 -10   4   16.22    1.99
   3 -10   4    1.14    0.87
   4 -10   4    8.33    1.46
   5 -10   4    8.00    1.46
   6 -10   4   78.54    3.47
   7 -10   4   12.93    1.72
   8 -10   4    5.50    1.26
   9 -10   4   14.16    1.77
  10 -10   4    9.32    1.54
  11 -10   4   11.43    1.82
  12 -10   4    4.43    1.40
  13 -10   4   14.22    3.39
  14 -10   4    2.38    2.31
  -5  -9   4    2.81    2.57
  -4  -9   4   22.68    3.16
  -3  -9   4    0.44    1.32
  -2  -9   4    4.07    1.64
  -1  -9   4   12.66    2.28
   0  -9   4    2.04    1.10
   1  -9   4   16.79    1.90
   2  -9   4   69.12    3.33
   3  -9   4   46.23    3.05
   4  -9   4    2.90    0.96
   5  -9   4   34.95    2.62
   6  -9   4   16.23    1.82
   7  -9   4   19.17    2.01
   8  -9   4   11.03    1.58
   9  -9   4    4.70    1.17
  10  -9   4   21.80    2.22
  11  -9   4   17.54    2.01
  12  -9   4    5.44    1.33
  13  -9   4   25.87    3.20
  14  -9   4    3.38    2.13
  -6  -8   4   26.17    5.07
  -5  -8   4    0.26    1.26
  -4  -8   4    2.65    1.46
  -3  -8   4   11.65    2.26
  -2  -8   4    3.88    1.47
  -1  -8   4   10.92    2.15
   0  -8   4   38.78    2.71
   1  -8   4   22.54    2.10
   2  -8   4    9.66    1.39
   3  -8   4    9.16    1.37
   4  -8   4   25.95    2.21
   5  -8   4   36.14    2.55
   6  -8   4   50.59    2.74
   7  -8   4   60.32    2.84
   8  -8   4   44.22    2.83
   9  -8   4   16.39    1.81
  10  -8   4   13.18    1.59
  11  -8   4   41.76    2.91
  12  -8   4    0.89    1.14
  13  -8   4   35.61    3.43
  -7  -7   4   14.61    4.11
  -6  -7   4   20.77    3.01
  -5  -7   4    7.64    1.92
  -4  -7   4   29.47    3.15
  -3  -7   4   10.88    1.92
  -2  -7   4   21.80    2.73
  -1  -7   4   62.41    3.13
   0  -7   4   11.80    1.50
   1  -7   4   12.50    1.56
   2  -7   4   15.80    1.70
   3  -7   4   19.67    1.83
   4  -7   4   66.10    2.73
   5  -7   4    1.70    0.72
   6  -7   4   92.57    2.90
   7  -7   4    8.78    1.14
   8  -7   4   19.91    1.64
   9  -7   4   75.16    2.77
  10  -7   4    2.54    0.86
  11  -7   4    0.27    0.72
  12  -7   4    0.70    1.09
  13  -7   4    3.48    2.29
  -8  -6   4    4.80    3.06
  -7  -6   4    2.39    1.57
  -6  -6   4    5.95    1.81
  -5  -6   4   69.90    4.92
  -4  -6   4   85.91    4.45
  -3  -6   4   16.89    2.28
  -2  -6   4   56.35    3.29
  -1  -6   4   97.20    3.42
   0  -6   4    7.00    1.17
   1  -6   4   65.80    2.75
   2  -6   4   23.71    1.91
   3  -6   4   70.89    2.43
   4  -6   4    9.34    1.07
   5  -6   4   11.55    1.15
   6  -6   4    4.39    0.80
   7  -6   4   12.14    1.25
   8  -6   4    8.55    1.09
   9  -6   4   47.79    2.35
  10  -6   4   12.36    1.39
  11  -6   4   35.29    2.70
  12  -6   4    7.42    1.54
  -9  -5   4    4.68    2.59
  -8  -5   4   46.13    6.21
  -7  -5   4   -0.01    1.08
  -6  -5   4   30.50    3.32
  -5  -5   4    9.67    1.95
  -4  -5   4   44.72    3.76
  -3  -5   4   33.70    3.03
  -2  -5   4    1.35    0.72
  -1  -5   4   13.16    1.44
   0  -5   4   10.35    1.26
   1  -5   4   18.38    1.44
   2  -5   4   57.91    2.08
   3  -5   4   38.69    1.89
   4  -5   4   49.02    2.00
   5  -5   4   10.90    1.09
   6  -5   4   66.84    2.22
   7  -5   4   21.31    1.55
   8  -5   4    9.40    1.10
   9  -5   4    3.80    0.73
  10  -5   4   10.89    1.30
  11  -5   4   64.11    3.71
  12  -5   4   10.02    1.91
 -10  -4   4    5.26    2.13
  -9  -4   4   27.88    3.51
  -8  -4   4    0.29    1.21
  -7  -4   4   -0.52    0.81
  -6  -4   4   11.30    1.63
  -5  -4   4    4.55    1.06
  -4  -4   4   23.32    1.99
  -3  -4   4   69.85    2.85
  -2  -4   4    9.11    1.22
  -1  -4   4   50.77    1.99
   0  -4   4   39.43    2.03
   1  -4   4   33.49    1.82
   2  -4   4  161.10    3.42
   3  -4   4  126.41    2.94
   4  -4   4   39.39    1.73
   5  -4   4   20.34    1.35
   6  -4   4   26.82    1.43
   7  -4   4   16.84    1.18
   8  -4   4   25.06    1.48
   9  -4   4   36.13    2.13
  10  -4   4   90.19    2.98
  11  -4   4   36.02    2.74
  12  -4   4    2.87    1.38
  13  -4   4   20.63    3.78
 -11  -3   4    7.19    3.54
 -10  -3   4    8.16    1.72
  -9  -3   4    3.97    1.35
  -8  -3   4   44.28    3.27
  -7  -3   4    2.45    0.98
  -6  -3   4   51.50    3.17
  -5  -3   4   11.95    1.48
  -4  -3   4   18.00    1.43
  -3  -3   4   72.04    2.25
  -2  -3   4   42.56    1.57
  -1  -3   4  131.45    2.54
   0  -3   4   83.07    2.34
   1  -3   4    8.39    0.90
   2  -3   4   26.39    1.35
   3  -3   4   87.25    2.20
   4  -3   4   32.83    1.33
   5  -3   4   57.65    1.63
   6  -3   4   73.53    1.93
   7  -3   4   63.42    1.84
   8  -3   4   39.81    1.75
   9  -3   4   15.20    1.46
  10  -3   4   10.70    1.56
  11  -3   4   14.95    1.86
  12  -3   4    0.36    1.04
  13  -3   4   -0.05    1.66
  14  -3   4   10.43    3.24
 -11  -2   4    2.85    1.45
 -10  -2   4    5.18    1.52
  -9  -2   4   13.09    1.88
  -8  -2   4   16.01    1.94
  -7  -2   4   82.48    3.39
  -6  -2   4    8.94    1.33
  -5  -2   4   22.81    1.86
  -4  -2   4   31.48    2.19
  -3  -2   4   56.99    1.93
  -2  -2   4  159.91    3.36
  -1  -2   4   28.56    1.63
   0  -2   4   13.58    1.08
   1  -2   4   42.00    1.55
   2  -2   4   12.65    0.90
   3  -2   4    9.04    0.69
   4  -2   4  159.95    2.74
   5  -2   4   41.78    1.39
   6  -2   4   10.47    0.80
   7  -2   4    1.79    0.49
   8  -2   4   52.03    2.37
   9  -2   4   18.25    1.87
  10  -2   4    3.97    1.11
  11  -2   4    7.61    1.62
  12  -2   4   94.82    4.94
  13  -2   4    6.39    2.62
 -12  -1   4   11.19    2.29
 -11  -1   4    0.80    1.21
 -10  -1   4   11.21    1.85
  -9  -1   4   27.57    2.58
  -8  -1   4   22.34    2.71
  -7  -1   4   19.63    2.35
  -6  -1   4   15.81    1.61
  -5  -1   4   70.06    2.67
  -4  -1   4   18.99    1.61
  -3  -1   4   34.06    1.60
  -2  -1   4    9.62    0.91
  -1  -1   4   40.50    1.57
   0  -1   4    9.56    0.84
   1  -1   4   10.76    0.70
   2  -1   4   43.33    1.09
   3  -1   4   29.22    0.96
   4  -1   4  126.31    3.24
   5  -1   4   49.89    1.59
   6  -1   4   11.73    0.94
   7  -1   4   98.32    2.82
   8  -1   4   62.41    2.33
   9  -1   4   10.72    1.52
  10  -1   4   16.36    1.94
  11  -1   4    1.30    1.09
  12  -1   4    3.92    1.59
  13  -1   4    1.79    2.11
 -12   0   4    3.95    1.47
 -11   0   4    1.20    1.41
 -10   0   4    4.60    1.52
  -9   0   4    4.42    1.44
  -8   0   4   39.89    3.39
  -7   0   4    9.95    1.33
  -6   0   4    9.46    1.23
  -5   0   4   10.14    1.23
  -4   0   4   37.79    1.59
  -3   0   4   89.31    2.20
  -2   0   4   12.42    0.96
  -1   0   4    9.68    0.82
   0   0   4  965.28   10.29
   1   0   4    9.85    0.92
   2   0   4   13.06    1.04
   3   0   4   87.51    2.19
   4   0   4   38.45    1.42
   5   0   4    8.71    0.98
   6   0   4    5.04    0.83
   7   0   4    9.52    1.11
   8   0   4   41.44    2.70
   9   0   4    4.44    1.12
  10   0   4    6.70    1.73
  11   0   4   -0.51    1.01
  12   0   4    3.54    1.67
 -13   1   4    0.91    1.68
 -12   1   4    3.89    1.76
 -11   1   4    2.84    1.42
 -10   1   4   15.01    2.39
  -9   1   4   13.38    2.09
  -8   1   4   60.13    2.78
  -7   1   4   98.14    3.23
  -6   1   4   12.46    1.34
  -5   1   4   44.18    2.08
  -4   1   4  129.13    2.70
  -3   1   4   28.61    1.34
  -2   1   4   42.42    1.39
  -1   1   4   11.63    0.75
   0   1   4    8.62    0.83
   1   1   4   41.65    1.55
   2   1   4    8.28    0.78
   3   1   4   31.70    1.22
   4   1   4   18.64    1.40
   5   1   4   63.85    2.21
   6   1   4   14.88    1.33
   7   1   4   26.02    2.12
   8   1   4   15.57    1.77
   9   1   4   22.49    2.22
  10   1   4   11.44    2.19
  11   1   4   -0.07    1.18
  12   1   4   14.66    2.83
 -13   2   4    6.74    2.03
 -12   2   4  116.87    7.97
 -11   2   4    6.29    1.77
 -10   2   4    6.76    1.65
  -9   2   4   17.03    1.69
  -8   2   4   47.85    2.49
  -7   2   4    0.62    0.54
  -6   2   4   12.20    1.29
  -5   2   4   39.71    1.53
  -4   2   4  161.27    3.05
  -3   2   4   10.46    0.84
  -2   2   4   13.57    0.79
  -1   2   4   44.29    1.10
   0   2   4   13.61    0.99
   1   2   4   28.72    1.34
   2   2   4  166.97    2.98
   3   2   4   57.05    1.97
   4   2   4   28.10    1.71
   5   2   4   18.75    1.45
   6   2   4    5.68    1.07
   7   2   4   70.76    3.06
   8   2   4   17.18    1.96
   9   2   4   11.48    2.12
  10   2   4    7.02    1.85
  11   2   4    0.89    1.26
 -13   3   4    0.69    1.44
 -12   3   4    2.61    1.46
 -11   3   4   15.30    2.39
 -10   3   4   15.65    1.62
  -9   3   4   16.39    1.57
  -8   3   4   41.80    2.56
  -7   3   4   60.59    2.44
  -6   3   4   71.17    2.53
  -5   3   4   60.18    1.77
  -4   3   4   31.73    1.34
  -3   3   4   85.92    1.76
  -2   3   4   27.83    1.33
  -1   3   4    8.77    0.82
   0   3   4   84.38    2.13
   1   3   4  125.38    3.39
   2   3   4   39.00    1.77
   3   3   4   67.00    2.22
   4   3   4   16.88    1.37
   5   3   4    7.97    1.23
   6   3   4   45.47    2.86
   7   3   4    1.33    0.89
   8   3   4   42.50    3.07
   9   3   4    3.43    1.48
  10   3   4   12.69    2.48
 -14   4   4    0.79    1.51
 -13   4   4   18.61    2.79
 -12   4   4    3.86    1.52
 -11   4   4   30.84    3.13
 -10   4   4   80.85    3.23
  -9   4   4   35.35    2.45
  -8   4   4   21.77    1.77
  -7   4   4   14.33    1.44
  -6   4   4   27.73    1.51
  -5   4   4   22.01    1.60
  -4   4   4   39.38    1.42
  -3   4   4  130.81    2.70
  -2   4   4  162.52    3.10
  -1   4   4   33.07    1.38
   0   4   4   33.63    1.87
   1   4   4   47.50    1.83
   2   4   4    9.15    1.04
   3   4   4   64.50    2.22
   4   4   4   21.50    1.85
   5   4   4    2.49    0.87
   6   4   4   10.28    1.55
   7   4   4   -0.67    0.68
   8   4   4    0.51    0.89
   9   4   4   38.77    3.99
  10   4   4    4.54    2.55
 -14   5   4    3.75    1.66
 -13   5   4    1.59    1.38
 -12   5   4    6.28    1.61
 -11   5   4   67.34    3.37
 -10   5   4    8.89    1.38
  -9   5   4    2.69    0.85
  -8   5   4    9.18    1.21
  -7   5   4   20.69    2.16
  -6   5   4   69.67    2.44
  -5   5   4   10.47    1.11
  -4   5   4   48.35    1.62
  -3   5   4   42.04    1.62
  -2   5   4   59.60    1.78
  -1   5   4   20.90    1.60
   0   5   4   10.18    1.16
   1   5   4   11.09    1.08
   2   5   4    2.15    0.62
   3   5   4   38.65    2.55
   4   5   4   33.40    2.46
   5   5   4    8.09    1.33
   6   5   4   41.61    3.03
   7   5   4    1.78    1.07
   8   5   4   29.88    3.52
   9   5   4    3.40    1.59
 -14   6   4   24.26    3.30
 -13   6   4   19.44    2.75
 -12   6   4    9.14    1.59
 -11   6   4   36.40    2.68
 -10   6   4   10.47    1.36
  -9   6   4   51.30    3.22
  -8   6   4    7.37    1.47
  -7   6   4   11.90    1.29
  -6   6   4    6.54    0.96
  -5   6   4   12.16    1.29
  -4   6   4   10.59    0.94
  -3   6   4   72.85    2.04
  -2   6   4   26.35    1.80
  -1   6   4   63.26    2.47
   0   6   4    6.42    0.84
   1   6   4   95.80    2.73
   2   6   4   47.20    2.54
   3   6   4   15.19    1.66
   4   6   4   80.38    3.34
   5   6   4   57.89    3.54
   6   6   4    5.95    1.30
   7   6   4    1.68    1.36
   8   6   4    2.09    1.54
 -14   7   4   13.14    2.42
 -13   7   4    1.80    1.05
 -12   7   4    1.81    1.00
 -11   7   4    0.42    0.74
 -10   7   4    2.17    0.98
  -9   7   4   64.90    3.55
  -8   7   4   23.57    2.47
  -7   7   4   10.22    1.25
  -6   7   4   96.09    3.07
  -5   7   4    0.89    0.56
  -4   7   4   64.67    2.42
  -3   7   4   13.85    1.34
  -2   7   4   19.11    1.63
  -1   7   4   13.34    1.43
   0   7   4    9.56    1.09
   1   7   4   61.06    2.64
   2   7   4   18.11    1.86
   3   7   4   11.56    1.61
   4   7   4   35.94    2.82
   5   7   4    5.43    1.29
   6   7   4   19.69    2.39
   7   7   4   15.08    2.64
 -14   8   4    3.12    1.37
 -13   8   4   36.09    2.94
 -12   8   4    0.67    0.86
 -11   8   4   43.66    3.71
 -10   8   4   11.98    1.94
  -9   8   4   11.75    1.91
  -8   8   4   43.99    2.63
  -7   8   4   64.49    2.61
  -6   8   4   48.95    2.49
  -5   8   4   35.45    2.22
  -4   8   4   23.13    2.37
  -3   8   4    9.39    1.18
  -2   8   4    8.61    1.20
  -1   8   4   25.21    2.08
   0   8   4   43.58    2.70
   1   8   4   12.93    1.57
   2   8   4    4.97    1.19
   3   8   4   14.04    1.82
   4   8   4    2.23    1.12
   5   8   4   -0.32    0.89
   6   8   4   30.85    3.71
 -14   9   4    4.02    1.33
 -13   9   4   29.36    2.63
 -12   9   4    4.18    1.46
 -11   9   4   12.26    2.06
 -10   9   4   21.12    2.55
  -9   9   4    3.81    1.27
  -8   9   4   11.21    1.47
  -7   9   4   19.99    1.86
  -6   9   4   15.83    1.64
  -5   9   4   34.09    3.12
  -4   9   4    3.61    1.24
  -3   9   4   46.35    2.59
  -2   9   4   76.80    3.06
  -1   9   4   20.51    2.43
   0   9   4    1.16    1.14
   1   9   4   15.16    1.84
   2   9   4    9.38    1.50
   3   9   4    0.69    0.93
   4   9   4   19.65    2.43
   5   9   4    5.85    1.97
 -14  10   4    3.33    1.26
 -13  10   4    9.71    2.16
 -12  10   4    4.66    1.55
 -11  10   4   13.99    2.29
 -10  10   4    8.24    1.72
  -9  10   4   18.24    1.93
  -8  10   4    5.50    1.13
  -7  10   4   11.42    1.43
  -6  10   4   83.38    4.15
  -5  10   4    7.02    1.58
  -4  10   4   13.36    2.16
  -3  10   4    2.10    0.86
  -2  10   4   17.33    1.85
  -1  10   4   23.68    2.79
   0  10   4    7.19    1.83
   1  10   4    1.80    1.39
   2  10   4   96.59    5.66
   3  10   4   -0.19    1.56
   4  10   4   -0.44    1.60
 -13  11   4    0.74    1.34
 -12  11   4   -0.99    1.07
 -11  11   4    1.37    1.19
 -10  11   4    2.87    1.32
  -9  11   4    8.38    1.43
  -8  11   4   17.21    1.85
  -7  11   4   27.65    3.07
  -6  11   4   59.10    4.42
  -5  11   4   32.67    3.31
  -4  11   4   -0.97    0.84
  -3  11   4   48.72    4.16
  -2  11   4   15.63    2.32
  -1  11   4   11.60    2.20
   0  11   4    0.20    1.16
   1  11   4    4.92    1.83
   2  11   4    6.07    2.05
   3  11   4    3.75    3.23
 -13  12   4   14.22    3.57
 -12  12   4    5.90    1.85
 -11  12   4    7.39    1.90
 -10  12   4  111.44    5.24
  -9  12   4    3.00    1.49
  -8  12   4    1.60    1.27
  -7  12   4    6.72    1.89
  -6  12   4   11.49    2.21
  -5  12   4    0.59    1.24
  -4  12   4    0.62    1.23
  -3  12   4    3.26    2.51
  -2  12   4    6.81    1.96
  -1  12   4    2.03    1.46
   0  12   4    3.93    1.78
   1  12   4    2.46    1.73
 -12  13   4    6.20    2.87
 -11  13   4    3.76    1.65
 -10  13   4    1.89    1.51
  -9  13   4   20.06    2.90
  -8  13   4    0.79    1.29
  -7  13   4   19.92    3.03
  -6  13   4    2.80    1.50
  -5  13   4   34.67    5.59
  -4  13   4   34.63    5.61
  -3  13   4   16.53    4.44
  -2  13   4    2.86    2.77
  -1  13   4   21.56    3.56
 -10  14   4   -0.47    1.47
  -9  14   4    3.38    1.77
  -8  14   4   29.90    3.80
  -7  14   4   15.21    2.79
  -6  14   4    5.04    2.78
  -5  14   4    1.54    2.22
   7 -14   5   16.44    3.12
   3 -13   5    3.54    1.86
   4 -13   5   12.65    2.64
   5 -13   5    0.96    1.28
   6 -13   5    4.53    1.58
   7 -13   5   -0.66    1.07
   8 -13   5    1.82    1.35
   9 -13   5    7.42    1.78
   0 -12   5    6.68    3.31
   1 -12   5    0.09    1.42
   2 -12   5   10.03    2.35
   3 -12   5   -0.28    1.27
   4 -12   5   16.01    2.22
   5 -12   5    2.28    1.25
   6 -12   5    5.59    1.52
   7 -12   5   21.35    2.50
   8 -12   5   29.68    2.90
   9 -12   5    1.09    1.19
  10 -12   5    1.96    1.59
  11 -12   5    4.42    2.00
  -2 -11   5    2.50    2.51
  -1 -11   5    3.18    1.70
   0 -11   5   13.79    2.69
   1 -11   5   12.33    2.49
   2 -11   5    6.72    1.79
   3 -11   5   14.38    1.97
   4 -11   5   11.96    1.90
   5 -11   5   25.17    2.53
   6 -11   5    3.86    1.30
   7 -11   5   15.10    2.08
   8 -11   5   36.95    3.09
   9 -11   5    0.06    1.25
  10 -11   5   11.51    2.37
  11 -11   5   13.40    2.43
  12 -11   5    0.54    1.39
  -3 -10   5    4.14    1.90
  -2 -10   5    2.64    1.60
  -1 -10   5   15.97    2.74
   0 -10   5   50.10    4.47
   1 -10   5   61.71    4.85
   2 -10   5    6.46    1.38
   3 -10   5   21.52    2.30
   4 -10   5    3.21    1.18
   5 -10   5    1.05    0.96
   6 -10   5   11.87    1.75
   7 -10   5    4.95    1.30
   8 -10   5   17.90    2.13
   9 -10   5    6.67    1.87
  10 -10   5   45.08    4.14
  11 -10   5   17.97    2.73
  12 -10   5    6.12    2.00
  13 -10   5    5.55    1.98
  -4  -9   5    6.99    2.20
  -3  -9   5   -0.05    1.36
  -2  -9   5    1.77    1.40
  -1  -9   5   11.02    2.28
   0  -9   5   -0.04    1.03
   1  -9   5    9.28    1.48
   2  -9   5   12.05    1.60
   3  -9   5    1.77    0.97
   4  -9   5   51.40    3.35
   5  -9   5    9.94    1.61
   6  -9   5   16.64    1.90
   7  -9   5    8.56    1.45
   8  -9   5   19.70    2.82
   9  -9   5    0.08    0.91
  10  -9   5   44.64    4.04
  11  -9   5    6.11    1.87
  12  -9   5    0.19    1.34
  13  -9   5   13.93    2.52
  -5  -8   5    2.22    1.73
  -4  -8   5   40.75    4.04
  -3  -8   5   37.30    3.74
  -2  -8   5   16.61    2.57
  -1  -8   5   29.01    3.12
   0  -8   5    2.47    1.05
   1  -8   5   25.25    2.34
   2  -8   5   63.98    3.18
   3  -8   5   97.13    3.73
   4  -8   5   47.51    3.04
   5  -8   5    4.66    1.10
   6  -8   5   28.70    2.29
   7  -8   5    5.65    1.21
   8  -8   5    2.31    1.24
   9  -8   5    8.84    1.92
  10  -8   5    4.96    1.55
  11  -8   5   14.71    2.18
  12  -8   5   17.23    2.60
  13  -8   5   -0.25    2.01
  -7  -7   5   16.55    3.71
  -6  -7   5   -0.42    1.24
  -5  -7   5   24.25    3.19
  -4  -7   5   12.20    2.20
  -3  -7   5    2.87    1.40
  -2  -7   5    5.96    1.65
  -1  -7   5    5.60    1.27
   0  -7   5   12.93    1.59
   1  -7   5    9.32    1.41
   2  -7   5   48.12    3.03
   3  -7   5   14.07    1.71
   4  -7   5   18.08    1.64
   5  -7   5   26.92    1.95
   6  -7   5  175.50    4.34
   7  -7   5   11.47    1.66
   8  -7   5   25.41    2.40
   9  -7   5   11.37    1.75
  10  -7   5   28.33    2.63
  11  -7   5    8.09    1.64
  12  -7   5    2.16    1.82
  -7  -6   5    7.27    2.14
  -6  -6   5    3.83    1.72
  -5  -6   5    4.62    1.68
  -4  -6   5   11.55    2.14
  -3  -6   5   15.45    2.37
  -2  -6   5   30.77    2.48
  -1  -6   5  173.16    4.91
   0  -6   5    0.01    0.62
   1  -6   5   41.47    2.73
   2  -6   5    9.95    1.16
   3  -6   5   25.16    1.82
   4  -6   5    4.09    0.84
   5  -6   5    9.07    1.06
   6  -6   5    0.71    0.73
   7  -6   5    9.40    1.56
   8  -6   5   62.70    3.33
   9  -6   5    1.99    0.94
  10  -6   5    4.52    1.18
  11  -6   5   26.06    3.41
  12  -6   5    7.37    2.24
  -8  -5   5   -0.87    1.41
  -7  -5   5    3.07    1.62
  -6  -5   5   29.33    3.33
  -5  -5   5    1.85    1.31
  -4  -5   5    7.29    1.76
  -3  -5   5    4.21    1.40
  -2  -5   5   27.88    2.28
  -1  -5   5    6.76    1.23
   0  -5   5   64.90    2.48
   1  -5   5    6.45    0.93
   2  -5   5   88.98    2.73
   3  -5   5    8.30    1.07
   4  -5   5  111.17    3.84
   5  -5   5   64.52    3.03
   6  -5   5   45.93    2.97
   7  -5   5   52.38    2.92
   8  -5   5   91.60    3.56
   9  -5   5   47.07    3.09
  10  -5   5    0.51    0.93
  11  -5   5    5.13    1.39
  12  -5   5   20.49    3.17
  -9  -4   5   15.97    4.13
  -8  -4   5   13.36    2.51
  -7  -4   5   11.36    2.22
  -6  -4   5    3.57    1.51
  -5  -4   5   48.43    3.96
  -4  -4   5   47.93    3.89
  -3  -4   5   19.57    1.91
  -2  -4   5    2.56    0.88
  -1  -4   5  113.44    3.12
   0  -4   5    3.63    0.73
   1  -4   5  128.67    3.28
   2  -4   5    9.90    1.06
   3  -4   5   10.71    1.47
   4  -4   5    1.67    0.77
   5  -4   5    8.26    1.24
   6  -4   5    8.90    1.26
   7  -4   5   15.53    1.46
   8  -4   5   52.80    2.51
   9  -4   5    5.72    1.38
  10  -4   5   10.04    1.76
  11  -4   5   15.70    2.66
  12  -4   5   23.19    4.28
 -10  -3   5    7.87    2.39
  -9  -3   5    0.08    1.55
  -8  -3   5   19.13    2.94
  -7  -3   5   26.69    3.25
  -6  -3   5   -1.10    0.90
  -5  -3   5  102.86    4.73
  -4  -3   5   17.80    1.85
  -3  -3   5   32.11    2.39
  -2  -3   5    9.33    1.07
  -1  -3   5   13.63    1.26
   0  -3   5   88.46    2.58
   1  -3   5   67.98    2.18
   2  -3   5   86.84    3.17
   3  -3   5   90.70    3.23
   4  -3   5  127.37    3.88
   5  -3   5   92.99    2.81
   6  -3   5   22.84    1.69
   7  -3   5   21.32    1.66
   8  -3   5    6.35    1.24
   9  -3   5   16.71    1.97
  10  -3   5    0.64    1.35
  11  -3   5   44.63    3.34
  12  -3   5   -0.26    1.17
  13  -3   5    2.10    1.55
 -10  -2   5    5.46    2.00
  -9  -2   5    7.46    2.02
  -8  -2   5    5.87    1.80
  -7  -2   5    9.04    2.03
  -6  -2   5   59.78    4.45
  -5  -2   5   53.58    2.90
  -4  -2   5   10.33    1.45
  -3  -2   5   93.08    3.24
  -2  -2   5    8.81    1.00
  -1  -2   5   94.77    2.60
   0  -2   5   28.33    1.55
   1  -2   5   20.62    1.82
   2  -2   5   30.86    2.18
   3  -2   5   65.37    2.28
   4  -2   5    7.20    1.00
   5  -2   5    7.72    0.98
   6  -2   5    3.08    0.69
   7  -2   5   23.37    2.15
   8  -2   5   28.30    2.42
   9  -2   5    8.67    1.53
  10  -2   5   17.64    2.12
  11  -2   5    0.22    1.12
  12  -2   5    3.65    1.52
  13  -2   5    2.33    2.31
 -11  -1   5   -0.04    1.47
 -10  -1   5   22.60    3.10
  -9  -1   5   45.42    4.25
  -8  -1   5    5.66    1.72
  -7  -1   5   26.00    3.00
  -6  -1   5    7.08    1.26
  -5  -1   5   52.83    3.05
  -4  -1   5    6.79    1.11
  -3  -1   5  134.33    3.20
  -2  -1   5   67.16    2.15
  -1  -1   5   19.79    1.33
   0  -1   5   46.13    2.41
   1  -1   5   45.06    2.23
   2  -1   5   16.98    1.36
   3  -1   5   87.98    2.58
   4  -1   5   16.64    1.31
   5  -1   5  107.80    3.68
   6  -1   5    9.17    1.33
   7  -1   5  170.38    4.95
   8  -1   5    8.21    1.42
   9  -1   5   26.34    2.46
  10  -1   5    9.56    1.62
  11  -1   5   12.59    2.33
  12  -1   5    1.16    1.40
 -11   0   5   16.54    2.72
 -10   0   5   44.57    4.31
  -9   0   5    1.62    1.32
  -8   0   5    4.53    1.51
  -7   0   5   12.40    1.60
  -6   0   5    0.84    0.72
  -5   0   5   59.47    2.86
  -4   0   5    0.92    0.63
  -3   0   5   92.43    2.51
  -2   0   5   29.34    1.54
  -1   0   5   45.89    2.18
   0   0   5    0.08    0.44
   1   0   5   53.05    1.98
   2   0   5   29.91    1.71
   3   0   5   86.69    2.46
   4   0   5    1.44    0.66
   5   0   5   62.90    2.77
   6   0   5    0.23    0.54
   7   0   5   11.01    1.30
   8   0   5    2.05    0.93
   9   0   5    0.43    0.91
  10   0   5   43.60    3.31
  11   0   5   15.49    2.71
  12   0   5    8.73    3.13
 -12   1   5    0.83    1.68
 -11   1   5   16.28    2.76
 -10   1   5    9.32    2.08
  -9   1   5   23.86    2.91
  -8   1   5    4.42    1.10
  -7   1   5  177.11    4.85
  -6   1   5   10.07    1.30
  -5   1   5  102.66    3.36
  -4   1   5   15.16    1.21
  -3   1   5   94.50    2.42
  -2   1   5   19.74    1.65
  -1   1   5   47.52    1.92
   0   1   5   45.07    1.82
   1   1   5   20.79    1.42
   2   1   5   65.11    2.07
   3   1   5  129.65    3.89
   4   1   5    9.03    1.30
   5   1   5   42.38    2.34
   6   1   5    7.47    1.13
   7   1   5   26.47    2.35
   8   1   5    4.64    1.22
   9   1   5   54.14    3.58
  10   1   5   21.17    2.88
  11   1   5   -0.60    1.18
 -12   2   5    1.50    1.61
 -11   2   5    2.70    1.50
 -10   2   5   19.36    2.60
  -9   2   5    9.07    1.43
  -8   2   5   28.56    2.31
  -7   2   5   25.99    2.07
  -6   2   5    2.36    0.74
  -5   2   5    7.45    1.09
  -4   2   5    7.02    0.85
  -3   2   5   68.12    2.51
  -2   2   5   29.76    1.67
  -1   2   5   19.33    1.37
   0   2   5   29.73    1.71
   1   2   5   89.24    2.44
   2   2   5    6.61    1.07
   3   2   5   87.50    3.18
   4   2   5    8.82    1.29
   5   2   5   55.14    2.47
   6   2   5   63.16    3.57
   7   2   5    9.46    1.51
   8   2   5    6.50    1.25
   9   2   5    5.70    1.46
  10   2   5    8.75    2.18
 -13   3   5    1.67    2.41
 -12   3   5    1.78    1.45
 -11   3   5   40.08    3.84
 -10   3   5    3.03    1.06
  -9   3   5   17.00    1.88
  -8   3   5    3.04    0.85
  -7   3   5   20.59    1.81
  -6   3   5   29.24    2.06
  -5   3   5   91.06    2.43
  -4   3   5  133.34    3.01
  -3   3   5   90.67    2.43
  -2   3   5   92.31    2.48
  -1   3   5   64.91    2.09
   0   3   5   91.27    2.47
   1   3   5   12.72    1.41
   2   3   5    8.84    1.21
   3   3   5   28.74    2.23
   4   3   5   15.89    1.49
   5   3   5   93.83    3.58
   6   3   5    0.54    0.77
   7   3   5   26.22    2.52
   8   3   5   21.26    2.29
   9   3   5    0.49    1.09
  10   3   5    7.11    2.84
 -13   4   5    9.20    2.31
 -12   4   5   35.93    3.77
 -11   4   5   13.14    2.29
 -10   4   5    9.73    1.42
  -9   4   5    5.96    1.15
  -8   4   5   45.00    2.77
  -7   4   5   17.64    1.68
  -6   4   5    9.51    1.20
  -5   4   5    8.27    0.92
  -4   4   5    4.09    0.85
  -3   4   5   14.66    1.19
  -2   4   5    8.02    0.88
  -1   4   5  133.45    3.70
   0   4   5    3.00    0.81
   1   4   5  107.17    3.50
   2   4   5    1.60    0.79
   3   4   5   18.39    1.45
   4   4   5   55.95    3.25
   5   4   5   51.81    3.22
   6   4   5    2.36    0.95
   7   4   5   10.06    1.70
   8   4   5   18.24    2.35
   9   4   5   16.01    2.71
 -13   5   5    1.92    1.52
 -12   5   5   18.59    2.72
 -11   5   5    3.50    1.16
 -10   5   5    2.96    0.99
  -9   5   5   54.56    2.91
  -8   5   5   94.02    3.39
  -7   5   5   49.07    2.55
  -6   5   5   47.97    1.93
  -5   5   5   59.76    2.55
  -4   5   5  113.27    3.35
  -3   5   5    9.08    0.97
  -2   5   5   97.72    3.07
  -1   5   5    8.48    1.21
   0   5   5   64.78    2.67
   1   5   5    6.57    1.13
   2   5   5   24.94    2.07
   3   5   5    3.64    1.03
   4   5   5    8.17    1.35
   5   5   5    1.48    0.91
   6   5   5   23.88    2.47
   7   5   5    4.83    1.48
   8   5   5   -0.20    1.28
 -13   6   5   -1.17    1.09
 -12   6   5    5.81    1.43
 -11   6   5   25.70    2.40
 -10   6   5    4.01    1.10
  -9   6   5    0.94    0.77
  -8   6   5   62.45    2.96
  -7   6   5    9.40    1.65
  -6   6   5    0.15    0.58
  -5   6   5    9.53    1.21
  -4   6   5    2.68    0.77
  -3   6   5   28.29    1.91
  -2   6   5    9.23    1.18
  -1   6   5   46.21    2.51
   0   6   5    1.28    0.75
   1   6   5  174.58    4.86
   2   6   5   28.99    2.32
   3   6   5   16.44    1.89
   4   6   5   10.59    1.55
   5   6   5    3.25    1.13
   6   6   5    4.81    1.40
   7   6   5    8.20    2.06
 -13   7   5    5.22    1.42
 -12   7   5    4.43    1.30
 -11   7   5    8.41    1.51
 -10   7   5   28.56    2.40
  -9   7   5   10.29    1.90
  -8   7   5   21.82    2.52
  -7   7   5   13.19    1.53
  -6   7   5  172.07    4.57
  -5   7   5   30.29    2.22
  -4   7   5   20.62    2.42
  -3   7   5   20.06    1.77
  -2   7   5   56.70    2.79
  -1   7   5    9.26    1.36
   0   7   5   11.30    1.41
   1   7   5    6.67    1.62
   2   7   5    6.59    1.28
   3   7   5    2.52    1.07
   4   7   5   13.00    1.86
   5   7   5   18.96    2.19
   6   7   5    0.28    1.03
 -13   8   5   -2.30    0.85
 -12   8   5   17.52    2.16
 -11   8   5   14.18    1.81
 -10   8   5    6.38    1.61
  -9   8   5    8.06    1.70
  -8   8   5   -0.30    0.85
  -7   8   5    5.38    1.15
  -6   8   5   28.30    2.21
  -5   8   5    5.78    1.43
  -4   8   5   47.95    3.71
  -3   8   5   91.00    4.36
  -2   8   5   66.68    3.20
  -1   8   5   26.80    2.29
   0   8   5    4.65    1.43
   1   8   5   22.57    2.74
   2   8   5   16.81    1.96
   3   8   5   37.08    3.03
   4   8   5   32.91    3.04
   5   8   5    1.95    1.22
 -13   9   5   18.25    2.30
 -12   9   5    0.55    1.04
 -11   9   5    5.44    1.75
 -10   9   5   56.15    4.34
  -9   9   5    1.57    1.16
  -8   9   5   24.54    2.19
  -7   9   5    8.02    1.27
  -6   9   5   17.84    2.36
  -5   9   5    5.78    1.58
  -4   9   5   60.76    4.42
  -3   9   5    1.16    1.14
  -2   9   5    9.55    1.48
  -1   9   5    7.24    1.71
   0   9   5    0.22    1.04
   1   9   5    2.81    1.37
   2   9   5    0.54    0.99
   3   9   5   -0.01    1.07
   4   9   5    5.44    1.68
 -13  10   5    4.06    1.47
 -12  10   5    8.19    2.10
 -11  10   5   18.08    2.71
 -10  10   5   46.42    4.03
  -9  10   5    9.64    1.95
  -8  10   5   15.79    2.34
  -7  10   5    1.76    1.17
  -6  10   5    8.52    1.79
  -5  10   5    1.32    1.17
  -4  10   5    3.47    1.48
  -3  10   5   26.00    3.11
  -2  10   5    4.33    2.22
  -1  10   5   48.48    4.12
   0  10   5   51.72    4.42
   1  10   5   13.70    2.46
   2  10   5    2.44    1.59
   3  10   5   -0.72    1.47
 -12  11   5    0.90    1.39
 -11  11   5   13.86    2.47
 -10  11   5   12.65    2.38
  -9  11   5    2.58    1.95
  -8  11   5   41.84    3.91
  -7  11   5    9.61    2.11
  -6  11   5    6.25    1.80
  -5  11   5   27.02    3.16
  -4  11   5    5.32    1.74
  -3  11   5   19.72    4.31
  -2  11   5    2.40    1.96
  -1  11   5   24.16    3.21
   0  11   5    9.88    2.37
   1  11   5    2.30    1.68
 -12  12   5   11.45    3.25
 -11  12   5    2.68    2.31
 -10  12   5    2.58    2.62
  -9  12   5    0.32    1.25
  -8  12   5   26.08    3.35
  -7  12   5   22.28    3.14
  -6  12   5    7.34    1.92
  -5  12   5    6.25    1.81
  -4  12   5   12.57    3.50
  -3  12   5    1.36    2.25
  -2  12   5    8.81    3.29
  -1  12   5   -0.54    2.26
   0  12   5   12.40    3.68
  -9  13   5    7.56    2.17
  -8  13   5    2.81    1.65
  -7  13   5   -0.94    1.28
  -6  13   5    7.90    2.33
  -5  13   5    0.47    1.88
  -4  13   5   12.24    3.82
  -7  14   5   26.32    5.23
   2 -12   6   14.71    4.09
   3 -12   6   -1.57    2.15
   4 -12   6    6.10    2.13
   5 -12   6    8.14    2.19
   6 -12   6   17.35    3.09
   7 -12   6    0.97    1.51
   8 -12   6   15.89    2.92
   0 -11   6   -1.73    2.19
   1 -11   6   11.32    2.36
   2 -11   6    4.77    1.97
   3 -11   6    1.35    1.54
   4 -11   6   58.73    5.04
   5 -11   6    6.15    2.04
   6 -11   6   11.79    2.67
   7 -11   6   23.59    3.40
   8 -11   6    0.40    1.34
   9 -11   6    0.44    1.35
  10 -11   6    1.19    1.56
  -2 -10   6    9.33    3.52
  -1 -10   6   -0.94    1.40
   0 -10   6    7.27    2.14
   1 -10   6    0.89    1.42
   2 -10   6    6.69    1.54
   3 -10   6   15.86    2.65
   4 -10   6    4.72    1.82
   5 -10   6    8.71    2.11
   6 -10   6   37.79    4.03
   7 -10   6    0.46    1.26
   8 -10   6   39.41    4.20
   9 -10   6    3.84    1.66
  10 -10   6    6.13    2.05
  11 -10   6   14.21    2.64
  12 -10   6    7.78    2.98
  -3  -9   6    2.46    1.67
  -2  -9   6    1.51    1.42
  -1  -9   6    5.35    1.90
   0  -9   6    3.51    1.67
   1  -9   6   13.31    2.02
   2  -9   6    3.31    1.28
   3  -9   6   17.34    2.64
   4  -9   6    5.11    1.75
   5  -9   6    7.11    1.96
   6  -9   6   13.17    2.39
   7  -9   6    1.32    1.21
   8  -9   6   37.57    3.85
   9  -9   6    7.29    1.95
  10  -9   6    0.20    1.25
  11  -9   6    2.50    1.52
  12  -9   6   -0.51    1.47
  -4  -8   6   16.02    2.78
  -3  -8   6    1.04    1.46
  -2  -8   6   41.50    4.01
  -1  -8   6   39.22    3.78
   0  -8   6   38.69    3.02
   1  -8   6   16.46    2.02
   2  -8   6   14.13    2.38
   3  -8   6   10.44    2.03
   4  -8   6    4.92    1.56
   5  -8   6    3.71    1.52
   6  -8   6    1.07    1.16
   7  -8   6   19.37    2.35
   8  -8   6   41.99    3.44
   9  -8   6   14.41    2.06
  10  -8   6    5.23    1.61
  11  -8   6    2.07    1.55
  12  -8   6   11.30    3.65
  -5  -7   6    1.20    1.39
  -4  -7   6   25.75    3.26
  -3  -7   6    2.13    1.46
  -2  -7   6    0.87    1.33
  -1  -7   6   17.86    2.10
   0  -7   6    5.61    1.36
   1  -7   6    3.79    1.40
   2  -7   6   20.13    2.66
   3  -7   6    1.65    1.25
   4  -7   6   71.72    3.80
   5  -7   6    3.46    1.21
   6  -7   6    3.60    1.16
   7  -7   6   10.29    1.74
   8  -7   6   16.63    2.13
   9  -7   6    5.02    1.40
  10  -7   6   13.05    2.02
  11  -7   6   61.31    5.45
  12  -7   6    6.15    2.36
  -6  -6   6   12.79    2.60
  -5  -6   6   10.37    2.31
  -4  -6   6   35.80    3.65
  -3  -6   6    7.43    1.74
  -2  -6   6    2.08    1.08
  -1  -6   6    2.34    0.99
   0  -6   6    2.36    1.32
   1  -6   6   56.39    3.55
   2  -6   6    3.52    1.05
   3  -6   6   42.73    3.08
   4  -6   6   35.96    2.81
   5  -6   6   39.28    2.98
   6  -6   6    2.48    1.02
   7  -6   6    7.15    1.48
   8  -6   6   16.56    2.10
   9  -6   6   18.40    2.12
  10  -6   6    2.13    1.52
  11  -6   6    2.97    1.84
  12  -6   6    9.36    4.01
  -7  -5   6    4.78    1.92
  -6  -5   6    3.81    1.62
  -5  -5   6    7.91    1.91
  -4  -5   6    8.63    1.96
  -3  -5   6    3.78    1.31
  -2  -5   6    3.56    1.13
  -1  -5   6   37.56    3.48
   0  -5   6   41.01    2.94
   1  -5   6   42.68    3.00
   2  -5   6   35.93    2.78
   3  -5   6   47.65    3.17
   4  -5   6   22.39    2.23
   5  -5   6   40.61    2.98
   6  -5   6   53.08    3.40
   7  -5   6   19.70    2.09
   8  -5   6   12.07    1.73
   9  -5   6    1.66    1.35
  10  -5   6   10.05    2.43
  11  -5   6   13.52    2.79
  12  -5   6   -0.74    2.90
  -8  -4   6    7.44    2.29
  -7  -4   6   68.82    7.48
  -6  -4   6    3.74    1.76
  -5  -4   6    8.13    1.92
  -4  -4   6    2.82    1.28
  -3  -4   6   75.69    3.40
  -2  -4   6   37.92    3.47
  -1  -4   6   24.13    2.18
   0  -4   6    4.91    1.11
   1  -4   6   11.26    1.59
   2  -4   6   11.20    1.58
   3  -4   6    6.45    1.26
   4  -4   6    4.05    1.15
   5  -4   6   35.84    2.70
   6  -4   6    6.49    1.34
   7  -4   6    0.52    0.88
   8  -4   6    4.61    1.25
   9  -4   6    6.45    1.49
  10  -4   6   40.43    3.34
  11  -4   6   23.05    3.35
  12  -4   6   15.13    3.02
  -9  -3   6    0.18    2.24
  -8  -3   6    1.21    1.72
  -7  -3   6    8.58    2.19
  -6  -3   6   19.97    2.85
  -5  -3   6   12.87    2.16
  -4  -3   6    2.65    1.00
  -3  -3   6   45.03    3.74
  -2  -3   6   45.64    3.77
  -1  -3   6    6.20    1.24
   0  -3   6   13.56    1.64
   1  -3   6    3.14    0.93
   2  -3   6   93.91    3.52
   3  -3   6   10.23    1.48
   4  -3   6   12.72    1.64
   5  -3   6   26.92    2.29
   6  -3   6   42.31    3.06
   7  -3   6   77.00    3.97
   8  -3   6    3.91    1.19
   9  -3   6    9.90    1.71
  10  -3   6    3.64    1.77
  11  -3   6    5.38    1.76
  12  -3   6   -0.17    2.08
 -10  -2   6    7.51    3.59
  -9  -2   6    2.17    1.79
  -8  -2   6    5.49    1.89
  -7  -2   6    5.54    1.79
  -6  -2   6   11.55    2.22
  -5  -2   6   25.27    2.31
  -4  -2   6    8.41    1.67
  -3  -2   6   31.90    3.22
  -2  -2   6   10.60    1.47
  -1  -2   6   91.67    3.40
   0  -2   6   59.46    2.90
   1  -2   6   35.79    2.56
   2  -2   6   57.62    2.80
   3  -2   6    3.44    0.95
   4  -2   6    8.47    1.13
   5  -2   6   50.31    3.27
   6  -2   6   33.86    2.74
   7  -2   6    2.12    0.86
   8  -2   6    1.52    1.09
   9  -2   6    0.24    1.13
  10  -2   6   41.13    4.20
  11  -2   6    0.85    1.58
 -10  -1   6    9.01    2.42
  -9  -1   6   -0.34    1.43
  -8  -1   6   15.36    2.62
  -7  -1   6   15.95    2.42
  -6  -1   6    9.22    1.55
  -5  -1   6   55.63    4.33
  -4  -1   6   37.56    3.40
  -3  -1   6    9.63    1.71
  -2  -1   6    2.84    0.92
  -1  -1   6   32.45    2.40
   0  -1   6   42.46    2.70
   1  -1   6   49.16    2.95
   2  -1   6   32.59    2.07
   3  -1   6   91.49    2.88
   4  -1   6    4.85    1.14
   5  -1   6   23.17    2.26
   6  -1   6   43.00    3.05
   7  -1   6    2.35    1.08
   8  -1   6   16.70    2.53
   9  -1   6   40.91    4.09
  10  -1   6    4.07    1.82
  11  -1   6   -0.24    1.63
 -11   0   6   -2.58    2.27
 -10   0   6    7.99    2.29
  -9   0   6    5.52    1.85
  -8   0   6   41.30    3.95
  -7   0   6    6.11    1.37
  -6   0   6    2.55    1.28
  -5   0   6   32.95    3.18
  -4   0   6    3.11    1.24
  -3   0   6   13.69    1.59
  -2   0   6   61.34    2.80
  -1   0   6   51.19    2.70
   0   0   6    8.17    1.28
   1   0   6   51.88    2.25
   2   0   6   61.86    2.44
   3   0   6   11.84    1.53
   4   0   6    4.60    1.17
   5   0   6   37.22    2.81
   6   0   6    1.18    0.90
   7   0   6    8.16    1.88
   8   0   6   39.16    3.87
   9   0   6    2.95    1.58
  10   0   6    9.10    2.27
 -11   1   6    0.32    1.58
 -10   1   6    2.47    1.65
  -9   1   6   46.80    4.12
  -8   1   6   20.35    2.23
  -7   1   6    2.55    1.35
  -6   1   6   43.08    3.73
  -5   1   6   26.57    2.89
  -4   1   6    6.62    1.61
  -3   1   6   91.64    3.27
  -2   1   6   32.07    2.31
  -1   1   6   50.20    2.70
   0   1   6   49.39    2.17
   1   1   6   32.92    1.92
   2   1   6    2.31    0.86
   3   1   6    8.71    1.39
   4   1   6   38.62    2.82
   5   1   6   54.35    3.44
   6   1   6    7.17    1.34
   7   1   6   17.95    2.67
   8   1   6   15.73    2.62
   9   1   6   -1.44    0.93
  10   1   6   10.85    2.30
 -12   2   6    7.74    3.52
 -11   2   6    1.23    1.56
 -10   2   6   33.12    3.64
  -9   2   6    0.53    0.93
  -8   2   6    2.54    1.30
  -7   2   6    2.34    1.32
  -6   2   6   34.03    3.29
  -5   2   6   51.92    4.06
  -4   2   6    7.42    1.20
  -3   2   6    2.30    0.85
  -2   2   6   61.43    2.81
  -1   2   6   32.66    1.96
   0   2   6   63.90    2.37
   1   2   6   92.10    3.39
   2   2   6    6.90    1.28
   3   2   6   28.34    2.39
   4   2   6    6.54    1.31
   5   2   6   21.82    2.19
   6   2   6   17.80    2.60
   7   2   6    1.85    1.23
   8   2   6    4.02    1.28
   9   2   6    2.87    1.30
 -12   3   6    4.21    2.62
 -11   3   6    0.62    1.47
 -10   3   6    1.47    1.30
  -9   3   6   11.34    2.22
  -8   3   6    3.10    1.37
  -7   3   6   80.17    4.28
  -6   3   6   47.06    3.78
  -5   3   6   27.56    2.85
  -4   3   6   11.29    1.43
  -3   3   6   12.39    1.47
  -2   3   6   87.71    2.72
  -1   3   6    2.28    0.79
   0   3   6   11.57    1.50
   1   3   6    5.54    1.14
   2   3   6   52.40    2.95
   3   3   6   41.72    2.92
   4   3   6    2.29    1.02
   5   3   6   12.24    2.21
   6   3   6   16.05    2.56
   7   3   6   11.74    1.88
   8   3   6    0.46    1.09
 -12   4   6   13.06    3.62
 -11   4   6   28.29    4.89
 -10   4   6   41.47    3.88
  -9   4   6    8.23    1.89
  -8   4   6    3.02    1.33
  -7   4   6    2.70    1.27
  -6   4   6    5.31    1.52
  -5   4   6   32.34    2.38
  -4   4   6    3.87    0.99
  -3   4   6    6.82    1.20
  -2   4   6    7.49    1.17
  -1   4   6    9.97    1.40
   0   4   6    3.94    1.02
   1   4   6   24.43    2.14
   2   4   6   33.29    2.48
   3   4   6   67.56    3.55
   4   4   6    1.96    1.21
   5   4   6    6.12    1.75
   6   4   6    1.97    1.12
   7   4   6   58.12    4.01
   8   4   6    6.14    1.72
 -12   5   6    2.49    2.23
 -11   5   6   12.66    2.28
 -10   5   6    7.70    1.91
  -9   5   6    7.04    1.77
  -8   5   6    9.92    1.95
  -7   5   6   24.89    2.83
  -6   5   6   61.28    3.78
  -5   5   6   42.05    2.72
  -4   5   6   27.24    2.17
  -3   5   6   50.83    3.78
  -2   5   6   28.34    2.19
  -1   5   6   34.24    2.47
   0   5   6   40.94    2.73
   1   5   6   35.91    2.70
   2   5   6    3.37    1.12
   3   5   6    6.50    1.70
   4   5   6    5.92    1.85
   5   5   6    6.47    1.87
   6   5   6    2.07    1.28
   7   5   6    4.14    1.43
 -12   6   6    9.34    2.22
 -11   6   6    2.01    1.44
 -10   6   6    4.55    1.68
  -9   6   6   19.85    2.65
  -8   6   6   16.79    2.49
  -7   6   6    6.90    1.66
  -6   6   6    2.41    0.94
  -5   6   6   43.74    2.79
  -4   6   6   31.43    3.01
  -3   6   6   47.79    3.77
  -2   6   6    6.27    1.17
  -1   6   6   49.96    3.09
   0   6   6    2.48    0.98
   1   6   6    3.41    0.99
   2   6   6    0.65    1.12
   3   6   6   11.73    2.18
   4   6   6   38.81    3.92
   5   6   6   13.20    2.05
   6   6   6   16.84    2.31
 -12   7   6    7.31    1.95
 -11   7   6   55.50    4.59
 -10   7   6    9.66    2.07
  -9   7   6    3.70    1.41
  -8   7   6   21.58    2.69
  -7   7   6    7.13    1.60
  -6   7   6    2.91    1.02
  -5   7   6    2.93    1.34
  -4   7   6   81.95    4.15
  -3   7   6    2.38    1.15
  -2   7   6   17.76    2.50
  -1   7   6    8.89    1.52
   0   7   6    6.02    1.33
   1   7   6   24.74    2.86
   2   7   6    1.45    1.10
   3   7   6    2.76    1.48
   4   7   6   20.67    3.08
   5   7   6    1.00    1.26
 -12   8   6    5.09    1.94
 -11   8   6   -0.48    1.35
 -10   8   6    9.19    2.02
  -9   8   6   15.60    2.34
  -8   8   6   40.84    3.67
  -7   8   6   14.74    2.37
  -6   8   6    2.24    1.21
  -5   8   6    3.49    1.26
  -4   8   6    3.52    1.33
  -3   8   6    8.98    1.79
  -2   8   6   14.85    2.40
  -1   8   6   15.59    1.94
   0   8   6   36.60    3.64
   1   8   6   39.55    3.79
   2   8   6   37.18    3.81
   3   8   6    0.78    1.13
   4   8   6    9.94    2.28
 -12   9   6    0.46    1.51
 -11   9   6    2.44    1.64
 -10   9   6   -0.59    1.20
  -9   9   6    5.28    1.73
  -8   9   6   34.09    5.22
  -7   9   6   -1.27    0.97
  -6   9   6    8.58    1.94
  -5   9   6    7.63    1.85
  -4   9   6    6.71    1.76
  -3   9   6   15.21    2.44
  -2   9   6    3.79    1.57
  -1   9   6   12.04    2.19
   0   9   6    7.18    1.89
   1   9   6    3.69    1.61
   2   9   6    0.99    1.47
   3   9   6    3.60    1.68
 -12  10   6   10.84    3.78
 -11  10   6   12.75    2.48
 -10  10   6    7.75    2.92
  -9  10   6    1.55    1.90
  -8  10   6   29.42    5.05
  -7  10   6    2.47    1.40
  -6  10   6   38.15    3.84
  -5  10   6   10.83    2.19
  -4  10   6    3.97    1.56
  -3  10   6   14.08    2.57
  -2  10   6   11.93    3.30
  -1  10   6   -0.19    1.93
   0  10   6    9.58    2.24
   1  10   6    0.26    1.37
 -10  11   6    1.32    1.90
  -9  11   6    2.47    2.23
  -8  11   6    1.28    1.44
  -7  11   6   22.88    3.12
  -6  11   6   12.22    2.37
  -5  11   6    2.17    1.57
  -4  11   6   56.40    4.77
  -3  11   6    2.64    2.02
  -2  11   6    5.38    2.70
  -1  11   6    7.23    3.39
  -8  12   6   13.77    2.78
  -7  12   6    2.56    1.64
  -6  12   6   13.02    2.68
  -5  12   6    6.75    2.14
  -4  12   6    6.24    2.67
   4 -11   7    8.24    3.05
   5 -11   7    9.38    3.41
   6 -11   7    0.82    2.63
   2 -10   7    8.71    3.27
   3 -10   7    0.28    1.36
   4 -10   7   15.78    2.85
   5 -10   7    0.13    1.37
   6 -10   7    1.91    1.65
   7 -10   7   -0.98    1.22
   8 -10   7   12.02    2.53
   9 -10   7   10.53    3.49
   0  -9   7   -0.59    1.99
   1  -9   7   18.39    4.14
   2  -9   7   -0.10    1.29
   3  -9   7    2.75    1.60
   4  -9   7   16.02    2.70
   5  -9   7   31.32    3.77
   6  -9   7   23.10    3.28
   7  -9   7    5.34    1.98
   8  -9   7    1.90    1.66
   9  -9   7    1.03    1.51
  10  -9   7    6.62    2.98
  -2  -8   7   13.87    3.72
  -1  -8   7    2.44    2.13
   0  -8   7    7.69    3.12
   1  -8   7   28.15    3.43
   2  -8   7    5.61    1.92
   3  -8   7   14.93    2.63
   4  -8   7    1.59    1.42
   5  -8   7    3.98    1.66
   6  -8   7   16.89    2.36
   7  -8   7    0.37    1.19
   8  -8   7    4.97    1.52
   9  -8   7   14.11    2.18
  10  -8   7    5.07    2.26
  -3  -7   7    2.57    2.37
  -2  -7   7    8.12    2.94
  -1  -7   7   -0.45    1.70
   0  -7   7    2.00    1.25
   1  -7   7   16.71    2.67
   2  -7   7    8.97    1.94
   3  -7   7   22.98    2.50
   4  -7   7    1.57    1.07
   5  -7   7    5.53    1.48
   6  -7   7   19.66    2.42
   7  -7   7    1.00    1.10
   8  -7   7   30.79    2.98
   9  -7   7   -0.62    1.52
  10  -7   7    4.98    2.06
  11  -7   7    4.27    3.46
  -4  -6   7    2.66    2.16
  -3  -6   7   24.32    4.46
  -2  -6   7   15.40    3.71
  -1  -6   7   20.44    2.77
   0  -6   7   14.00    2.39
   1  -6   7    2.52    1.08
   2  -6   7   19.72    2.33
   3  -6   7   11.68    1.87
   4  -6   7   10.37    1.77
   5  -6   7    1.69    1.02
   6  -6   7   22.34    2.46
   7  -6   7   16.36    2.16
   8  -6   7    5.01    1.93
   9  -6   7    3.12    1.85
  10  -6   7   15.86    3.19
  11  -6   7    3.95    2.19
  -5  -5   7    2.81    2.44
  -4  -5   7   37.44    5.68
  -3  -5   7    2.64    2.14
  -2  -5   7    3.75    1.57
  -1  -5   7    0.46    1.20
   0  -5   7   13.88    1.92
   1  -5   7    5.70    1.38
   2  -5   7   49.53    3.45
   3  -5   7    4.64    1.26
   4  -5   7   19.24    2.21
   5  -5   7   13.40    1.92
   6  -5   7    3.26    1.17
   7  -5   7    4.43    1.77
   8  -5   7   18.99    3.15
   9  -5   7   13.97    2.60
  10  -5   7    0.61    1.69
  11  -5   7    1.74    2.88
  -6  -4   7   20.74    4.73
  -5  -4   7   12.01    3.61
  -4  -4   7    3.13    2.13
  -3  -4   7    0.33    1.09
  -2  -4   7    8.09    1.91
  -1  -4   7   20.75    2.77
   0  -4   7   16.95    2.01
   1  -4   7   22.16    2.30
   2  -4   7   -0.23    0.82
   3  -4   7    0.89    0.87
   4  -4   7   19.87    2.21
   5  -4   7    7.87    1.53
   6  -4   7   18.76    2.91
   7  -4   7   23.45    3.33
   8  -4   7    2.46    1.61
   9  -4   7   36.89    4.29
  10  -4   7    0.00    1.75
  11  -4   7    4.64    3.48
  -7  -3   7    1.44    2.32
  -6  -3   7    7.94    3.32
  -5  -3   7   12.01    3.26
  -4  -3   7   22.54    2.93
  -3  -3   7   12.17    2.21
  -2  -3   7    2.84    1.25
  -1  -3   7    1.02    0.94
   0  -3   7   35.41    2.79
   1  -3   7    4.71    1.16
   2  -3   7    6.22    1.28
   3  -3   7   37.88    2.94
   4  -3   7   21.14    2.25
   5  -3   7   50.20    4.46
   6  -3   7   17.58    2.98
   7  -3   7    2.01    1.14
   8  -3   7    2.36    1.28
   9  -3   7   24.06    2.75
  10  -3   7   -0.29    1.43
  -8  -2   7    6.11    3.17
  -7  -2   7    0.23    2.10
  -6  -2   7    2.75    2.32
  -5  -2   7    9.83    2.15
  -4  -2   7   20.89    2.88
  -3  -2   7   51.40    4.24
  -2  -2   7    1.09    1.00
  -1  -2   7    6.76    1.29
   0  -2   7   40.96    2.98
   1  -2   7    1.67    1.01
   2  -2   7   42.59    3.03
   3  -2   7    7.49    1.36
   4  -2   7   -0.32    1.07
   5  -2   7    4.71    1.22
   6  -2   7   12.88    1.94
   7  -2   7    6.17    1.60
   8  -2   7   15.60    2.22
   9  -2   7    3.60    1.84
  10  -2   7   15.08    3.02
  -8  -1   7   22.94    4.73
  -7  -1   7   33.34    5.54
  -6  -1   7   18.55    2.67
  -5  -1   7    4.28    1.53
  -4  -1   7    8.28    1.93
  -3  -1   7   24.90    2.93
  -2  -1   7    6.66    1.33
  -1  -1   7    1.51    0.93
   0  -1   7   18.63    2.01
   1  -1   7   19.66    2.05
   2  -1   7    3.08    1.00
   3  -1   7    5.44    1.26
   4  -1   7    3.36    1.14
   5  -1   7   22.20    2.39
   6  -1   7    2.09    1.05
   7  -1   7   23.65    2.54
   8  -1   7    0.38    1.30
   9  -1   7    0.96    1.60
  10  -1   7    7.31    4.17
  -9   0   7   -1.20    2.13
  -8   0   7    2.66    2.64
  -7   0   7    3.35    1.64
  -6   0   7   18.48    2.85
  -5   0   7    9.81    2.07
  -4   0   7   20.50    2.72
  -3   0   7   32.83    3.36
  -2   0   7   44.10    3.01
  -1   0   7   21.43    2.12
   0   0   7    0.28    0.73
   1   0   7   20.88    2.09
   2   0   7   42.04    3.08
   3   0   7   34.93    2.79
   4   0   7   19.43    2.21
   5   0   7   13.43    1.94
   6   0   7   21.22    2.42
   7   0   7    1.14    1.29
   8   0   7    3.22    1.67
   9   0   7   -0.67    1.49
  -9   1   7    2.22    2.33
  -8   1   7    1.63    1.34
  -7   1   7   21.88    3.03
  -6   1   7    0.89    1.24
  -5   1   7   24.01    3.01
  -4   1   7    1.74    1.29
  -3   1   7    7.45    1.41
  -2   1   7    2.65    0.98
  -1   1   7   20.79    2.05
   0   1   7   20.91    2.75
   1   1   7    2.43    0.95
   2   1   7    7.36    1.26
   3   1   7   23.76    2.38
   4   1   7    4.98    1.27
   5   1   7    3.52    1.30
   6   1   7   15.39    2.51
   7   1   7   24.96    3.34
   8   1   7   19.79    3.12
   9   1   7   11.33    4.35
 -10   2   7   16.82    4.09
  -9   2   7    4.29    2.56
  -8   2   7   15.85    2.70
  -7   2   7    2.55    1.41
  -6   2   7   10.70    2.20
  -5   2   7    5.61    1.70
  -4   2   7    0.26    1.03
  -3   2   7    6.78    1.30
  -2   2   7   42.92    2.90
  -1   2   7    3.66    1.34
   0   2   7   40.39    2.87
   1   2   7    7.09    1.32
   2   2   7    0.82    0.83
   3   2   7   49.77    3.43
   4   2   7   20.46    2.29
   5   2   7    7.46    1.83
   6   2   7    1.40    1.11
   7   2   7    0.50    1.34
   8   2   7    6.97    2.09
 -10   3   7   -0.15    2.29
  -9   3   7   24.18    3.28
  -8   3   7    2.73    1.58
  -7   3   7    2.51    1.38
  -6   3   7   11.59    2.18
  -5   3   7   55.88    4.49
  -4   3   7   23.43    2.20
  -3   3   7   42.22    2.95
  -2   3   7    6.57    1.60
  -1   3   7   10.48    1.48
   0   3   7   39.22    2.90
   1   3   7    1.63    0.94
   2   3   7    3.95    1.20
   3   3   7   10.45    1.66
   4   3   7   23.56    2.44
   5   3   7   12.16    2.25
   6   3   7    1.09    1.56
   7   3   7   -0.22    1.31
 -10   4   7    1.78    1.67
  -9   4   7   28.15    3.53
  -8   4   7    0.51    1.27
  -7   4   7   27.08    3.27
  -6   4   7   21.51    2.85
  -5   4   7    9.14    1.94
  -4   4   7   20.31    2.09
  -3   4   7    1.00    1.10
  -2   4   7   -0.92    0.94
  -1   4   7   25.88    2.30
   0   4   7   17.80    1.99
   1   4   7   24.89    2.36
   2   4   7   12.40    1.86
   3   4   7    1.29    1.03
   4   4   7   -0.15    1.04
   5   4   7   13.21    2.46
   6   4   7   12.49    2.51
   7   4   7    2.86    2.74
 -11   5   7    0.55    2.02
 -10   5   7    0.36    1.49
  -9   5   7   17.32    2.88
  -8   5   7   10.93    2.25
  -7   5   7   12.52    2.43
  -6   5   7    4.18    1.60
  -5   5   7   15.10    1.95
  -4   5   7   22.07    2.58
  -3   5   7    4.42    1.42
  -2   5   7   50.10    4.19
  -1   5   7    5.77    1.23
   0   5   7   12.00    1.73
   1   5   7    0.09    0.75
   2   5   7    3.19    1.11
   3   5   7    2.89    1.37
   4   5   7   30.22    3.56
   5   5   7    0.98    1.46
   6   5   7    4.59    2.83
 -11   6   7    5.81    2.18
 -10   6   7   13.87    2.65
  -9   6   7   -0.21    1.33
  -8   6   7    4.55    1.75
  -7   6   7   10.01    2.16
  -6   6   7   15.63    3.84
  -5   6   7    1.02    1.16
  -4   6   7   11.30    2.05
  -3   6   7    9.48    1.97
  -2   6   7   18.60    2.52
  -1   6   7    4.28    1.25
   0   6   7   19.62    2.26
   1   6   7   25.78    2.59
   2   6   7   15.13    2.52
   3   6   7   25.09    3.36
   4   6   7    0.75    1.36
   5   6   7   -0.15    2.78
 -11   7   7    4.63    1.92
 -10   7   7    1.35    1.46
  -9   7   7    3.84    1.64
  -8   7   7   30.65    3.40
  -7   7   7    3.13    2.05
  -6   7   7   12.63    3.43
  -5   7   7    4.57    1.59
  -4   7   7    0.26    1.27
  -3   7   7   20.87    2.89
  -2   7   7    7.74    1.85
  -1   7   7   14.50    2.52
   0   7   7    2.46    1.16
   1   7   7    0.15    1.13
   2   7   7    9.37    2.23
   3   7   7    1.80    1.53
 -11   8   7   17.03    4.50
 -10   8   7   12.08    2.18
  -9   8   7   19.68    4.47
  -8   8   7    6.02    2.78
  -7   8   7    0.33    1.70
  -6   8   7   12.60    2.30
  -5   8   7    4.54    1.72
  -4   8   7   -0.30    1.12
  -3   8   7   10.33    2.24
  -2   8   7    5.36    1.83
  -1   8   7   30.53    3.65
   0   8   7    3.56    1.57
   1   8   7    2.88    1.56
   2   8   7   18.09    2.97
  -9   9   7    0.97    1.98
  -8   9   7    2.61    2.29
  -7   9   7    6.63    2.81
  -6   9   7   27.91    3.46
  -5   9   7   26.52    3.31
  -4   9   7   13.56    2.66
  -3   9   7    1.46    1.59
  -2   9   7    1.47    1.49
  -1   9   7   12.30    3.45
   0   9   7    1.41    2.42
   1   9   7    6.25    2.92
  -8  10   7   13.26    3.94
  -7  10   7    0.22    2.01
  -6  10   7    1.59    1.47
  -5  10   7    1.47    1.47
  -4  10   7   11.06    2.26
  -3  10   7    3.30    1.73
  -2  10   7    2.54    2.49
  -7  11   7    1.73    2.41
  -6  11   7   -0.53    1.45
  -5  11   7    7.28    2.24
  -4  11   7    8.10    3.49
   3  -9   8   10.20    3.50
   1  -8   8   20.22    4.36
   2  -8   8    4.11    1.90
   3  -8   8    2.71    1.70
   4  -8   8    2.77    1.77
   5  -8   8    7.89    2.29
   6  -8   8    7.30    1.83
   7  -8   8   16.80    3.89
   8  -8   8   -0.05    2.45
   0  -7   8    1.65    1.55
   1  -7   8    0.08    1.35
   2  -7   8    7.93    2.13
   3  -7   8    4.45    1.52
   4  -7   8   18.27    2.35
   5  -7   8    1.01    1.39
   6  -7   8   15.13    2.31
   7  -7   8    1.59    1.37
  -2  -6   8    7.62    3.14
  -1  -6   8   13.84    2.57
   0  -6   8    0.64    1.49
   1  -6   8   28.14    3.41
   2  -6   8   10.26    1.92
   3  -6   8   34.96    3.15
   4  -6   8    0.46    1.10
   5  -6   8    2.96    1.39
   6  -6   8    1.64    1.31
   7  -6   8    0.65    1.59
   8  -6   8    6.27    2.24
  -3  -5   8    8.48    3.30
  -2  -5   8   -0.05    1.25
  -1  -5   8    0.63    1.39
   0  -5   8   12.34    2.30
   1  -5   8   13.12    1.99
   2  -5   8   11.13    1.91
   3  -5   8    8.02    1.65
   4  -5   8   24.46    2.61
   5  -5   8   11.06    1.89
   6  -5   8   24.36    3.49
   7  -5   8    7.46    2.22
   8  -5   8    0.88    1.61
   9  -5   8   -1.36    2.25
  -4  -4   8    0.99    2.31
  -3  -4   8   18.18    2.77
  -2  -4   8    1.19    1.42
  -1  -4   8   32.90    3.73
   0  -4   8    4.29    1.69
   1  -4   8    2.41    1.31
   2  -4   8   21.84    2.41
   3  -4   8   13.19    2.01
   4  -4   8    6.41    1.56
   5  -4   8   14.62    2.79
   6  -4   8    5.66    1.98
   7  -4   8    5.35    2.08
   8  -4   8    1.09    1.80
   9  -4   8    8.73    3.75
  -5  -3   8   -0.40    2.15
  -4  -3   8    5.80    2.07
  -3  -3   8   39.01    3.97
  -2  -3   8    4.22    1.58
  -1  -3   8   16.80    2.77
   0  -3   8   11.24    1.88
   1  -3   8    5.70    1.41
   2  -3   8   18.98    2.31
   3  -3   8    8.03    2.04
   4  -3   8    3.06    1.60
   5  -3   8   11.73    2.52
   6  -3   8   33.65    3.95
   7  -3   8   15.41    2.96
   8  -3   8    9.20    2.49
  -6  -2   8    4.44    2.74
  -5  -2   8    5.59    2.00
  -4  -2   8    7.40    2.09
  -3  -2   8   11.13    2.34
  -2  -2   8   29.39    3.33
  -1  -2   8   17.41    2.75
   0  -2   8   -0.72    0.95
   1  -2   8   14.22    1.92
   2  -2   8    1.31    1.35
   3  -2   8    3.11    1.49
   4  -2   8   26.51    3.51
   5  -2   8    7.31    2.16
   6  -2   8    0.06    1.34
   7  -2   8    1.69    1.22
   8  -2   8    6.32    1.78
  -6  -1   8    1.98    1.71
  -5  -1   8   28.24    3.49
  -4  -1   8   12.72    2.39
  -3  -1   8    3.39    1.64
  -2  -1   8    7.01    1.97
  -1  -1   8   14.83    2.00
   0  -1   8    1.87    1.08
   1  -1   8    2.79    1.37
   2  -1   8   17.15    2.77
   3  -1   8   19.01    2.92
   4  -1   8   16.44    2.90
   5  -1   8   33.84    3.15
   6  -1   8    0.95    1.13
   7  -1   8   14.13    2.20
   8  -1   8    6.71    3.99
  -7   0   8    3.68    1.79
  -6   0   8    0.99    1.46
  -5   0   8    9.58    2.20
  -4   0   8    6.23    1.99
  -3   0   8    9.28    2.15
  -2   0   8   -0.06    1.09
  -1   0   8    2.23    1.06
   0   0   8  147.17    6.26
   1   0   8    0.69    1.21
   2   0   8   -0.04    1.23
   3   0   8   10.45    1.71
   4   0   8    5.15    1.43
   5   0   8   11.92    1.99
   6   0   8   -0.11    1.33
   7   0   8    5.71    2.08
  -8   1   8   13.38    3.97
  -7   1   8   12.16    2.57
  -6   1   8    2.54    1.71
  -5   1   8   29.31    3.63
  -4   1   8   10.79    2.40
  -3   1   8   18.61    2.75
  -2   1   8   15.29    1.95
  -1   1   8    2.24    1.25
   0   1   8   -0.10    1.10
   1   1   8   13.94    2.36
   2   1   8    6.29    1.43
   3   1   8    2.99    1.26
   4   1   8   13.03    1.93
   5   1   8   23.93    2.71
   6   1   8    0.39    1.34
   7   1   8   29.26    5.50
  -8   2   8    7.38    2.25
  -7   2   8    0.50    1.47
  -6   2   8    1.48    1.40
  -5   2   8    4.83    1.80
  -4   2   8   25.33    3.25
  -3   2   8    5.54    1.89
  -2   2   8    0.20    1.11
  -1   2   8   16.16    2.67
   0   2   8    1.25    1.13
   1   2   8   19.60    2.25
   2   2   8   25.56    2.61
   3   2   8   15.39    2.11
   4   2   8    7.48    1.62
   5   2   8    6.54    2.02
   6   2   8    3.21    1.75
  -9   3   8    9.07    3.47
  -8   3   8    9.36    2.39
  -7   3   8   20.46    3.28
  -6   3   8   36.73    4.03
  -5   3   8   12.29    2.48
  -4   3   8    4.27    2.44
  -3   3   8   10.45    2.15
  -2   3   8   14.55    2.49
  -1   3   8    6.78    1.83
   0   3   8    9.00    1.54
   1   3   8   18.63    2.21
   2   3   8    4.87    1.45
   3   3   8   31.13    2.98
   4   3   8    2.59    1.57
   5   3   8   -0.06    1.50
  -9   4   8    6.29    2.28
  -8   4   8    3.68    1.85
  -7   4   8    4.62    1.85
  -6   4   8    5.08    1.91
  -5   4   8   10.61    3.46
  -4   4   8    7.53    2.79
  -3   4   8   15.42    2.53
  -2   4   8   24.57    3.10
  -1   4   8    4.06    1.66
   0   4   8    4.14    1.28
   1   4   8   30.44    2.93
   2   4   8    1.21    1.08
   3   4   8   18.23    2.95
   4   4   8    2.38    1.59
  -9   5   8    0.26    1.82
  -8   5   8    2.00    1.77
  -7   5   8    5.52    2.05
  -6   5   8   21.92    4.70
  -5   5   8   13.18    3.80
  -4   5   8   33.26    3.69
  -3   5   8    7.80    2.01
  -2   5   8   16.57    2.74
  -1   5   8   11.43    2.44
   0   5   8   11.62    1.87
   1   5   8    3.15    1.25
   2   5   8    1.49    1.40
   3   5   8    8.73    2.24
   4   5   8    4.05    2.38
  -9   6   8    2.94    2.97
  -8   6   8    2.78    2.53
  -7   6   8   -0.92    1.80
  -6   6   8    1.61    1.95
  -5   6   8    1.71    2.22
  -4   6   8    1.43    1.34
  -3   6   8   35.14    3.91
  -2   6   8    9.94    2.32
  -1   6   8   28.95    3.68
   0   6   8   -0.47    1.41
   1   6   8   10.24    2.29
   2   6   8    6.09    1.95
   3   6   8   10.11    3.26
  -7   7   8    6.17    3.15
  -6   7   8   16.09    4.23
  -5   7   8   -0.18    2.00
  -4   7   8   22.31    3.34
  -3   7   8    3.36    1.67
  -2   7   8   10.28    2.39
  -1   7   8    4.99    1.90
   0   7   8    1.01    2.20
   1   7   8   18.84    4.01
  -6   8   8    6.71    3.07
  -5   8   8    5.90    2.08
  -4   8   8    2.25    1.71
  -3   8   8    0.63    1.49
  -2   8   8    4.19    1.95
  -1   8   8   23.88    5.29
  -5   9   8    5.47    2.92
  -4   9   8   -0.05    1.55
  -3   9   8    5.53    3.64
   2  -6   9    0.95    2.40
   3  -6   9    6.06    2.20
   4  -6   9   -0.12    2.19
   0  -5   9   15.09    2.72
   1  -5   9   -1.22    1.39
   2  -5   9    2.15    1.37
   3  -5   9    1.07    1.21
   4  -5   9   12.65    3.88
  -2  -4   9   -0.04    1.97
  -1  -4   9   15.06    2.69
   0  -4   9   -0.35    1.42
   1  -4   9    7.96    1.86
   2  -4   9    2.34    1.36
   3  -4   9   -0.18    1.46
   4  -4   9    1.23    1.80
   5  -4   9    3.35    2.03
  -3  -3   9    7.41    3.17
  -2  -3   9    0.32    1.44
  -1  -3   9    0.42    1.57
   0  -3   9    7.22    2.00
   1  -3   9   16.66    2.30
   2  -3   9   14.52    2.88
   3  -3   9    9.32    2.41
   4  -3   9    3.51    1.95
   5  -3   9    2.53    1.77
  -4  -2   9    3.39    2.67
  -3  -2   9    3.37    1.85
  -2  -2   9    0.11    1.50
  -1  -2   9   10.87    2.26
   0  -2   9    7.22    1.76
   1  -2   9    4.22    1.93
   2  -2   9   14.05    2.80
   3  -2   9   18.06    2.93
   4  -2   9    1.85    1.69
   5  -2   9   -0.91    1.53
   6  -2   9   -0.57    2.45
  -5  -1   9    4.18    3.25
  -4  -1   9    4.76    2.09
  -3  -1   9    4.99    2.14
  -2  -1   9   15.82    2.84
  -1  -1   9    1.64    2.30
   0  -1   9    1.20    1.66
   1  -1   9    0.09    1.39
   2  -1   9    1.00    1.58
   3  -1   9   15.03    3.03
   4  -1   9    0.25    1.68
   5  -1   9   11.41    4.17
   6  -1   9    3.20    2.92
  -5   0   9   17.02    2.94
  -4   0   9   -0.99    1.40
  -3   0   9    4.39    1.72
  -2   0   9   11.80    3.85
  -1   0   9    1.56    1.50
   0   0   9   -0.09    1.28
   1   0   9    3.30    1.77
   2   0   9   14.36    2.84
   3   0   9    9.02    2.41
   4   0   9   -0.30    1.51
   5   0   9   11.21    3.93
  -5   1   9   16.83    2.95
  -4   1   9    1.76    1.64
  -3   1   9   16.99    4.20
  -2   1   9    7.66    3.11
  -1   1   9    3.31    1.85
   0   1   9    0.92    1.51
   1   1   9    1.10    1.51
   2   1   9   12.44    2.71
   3   1   9    8.33    2.43
   4   1   9    0.20    1.52
   5   1   9   -1.66    2.78
  -6   2   9    4.42    2.79
  -5   2   9   -1.35    1.52
  -4   2   9   -0.38    2.24
  -3   2   9   12.57    3.73
  -2   2   9   13.52    3.81
  -1   2   9    2.81    1.71
   0   2   9   12.28    2.44
   1   2   9   11.34    2.50
   2   2   9    0.42    1.21
   3   2   9    4.09    1.60
   4   2   9    5.01    3.40
  -5   3   9    3.37    2.90
  -4   3   9    2.25    2.45
  -3   3   9    6.71    3.24
  -2   3   9   23.18    3.31
  -1   3   9   15.42    2.80
   0   3   9    5.05    1.97
   1   3   9    0.18    1.12
   2   3   9    0.48    1.21
   3   3   9    5.18    2.16
  -4   4   9   -2.58    2.06
  -3   4   9    0.52    2.32
  -2   4   9   -0.94    1.35
  -1   4   9    5.88    2.13
   0   4   9   -0.12    1.40
   1   4   9   14.47    2.36
   2   4   9   -0.63    1.54
  -3   5   9    0.14    1.49
  -2   5   9    2.60    1.81
  -1   5   9    0.62    1.74
   0   5   9    8.23    3.99
   1   5   9   -1.39    2.72
  -3   6   9    2.74    2.51
  -2   6   9    1.53    2.50
   0   0   0    0.00    0.00
;
_shelx_hkl_checksum              82619
loop_
_space_group_symop_operation_xyz
'x, y, z'
'-y, x-y, z'
'-x+y, -x, z'
'-x, -y, z+1/2'
'y, -x+y, z+1/2'
'x-y, x, z+1/2'
loop_
_atom_site_label
_atom_site_type_symbol
_atom_site_fract_x
_atom_site_fract_y
_atom_site_fract_z
_atom_site_U_iso_or_equiv
_atom_site_adp_type
_atom_site_occupancy
_atom_site_site_symmetry_order
_atom_site_calc_flag
_atom_site_refinement_flags_posn
_atom_site_refinement_flags_adp
_atom_site_refinement_flags_occupancy
_atom_site_disorder_assembly
_atom_site_disorder_group
Ce Ce 0.14772(7) 0.37063(6) 0.05670(14) 0.01968(16) Uani 1 1 d . . . . .
Cu1A Cu 0.0000 0.0000 0.0000(11) 0.0207(11) Uani 0.670(11) 3 d S T P . .
Cu1B Cu 0.0000 0.0000 -0.094(2) 0.0207(11) Uani 0.330(11) 3 d S T P . .
Ga Ga 0.3333 0.6667 0.6432(3) 0.0188(4) Uani 1 3 d S T P . .
Se1 Se 0.25397(11) 0.15057(11) 0.01952(18) 0.0160(2) Uani 1 1 d . . . . .
Se2 Se 0.52135(11) 0.09209(11) 0.28907(19) 0.0157(2) Uani 1 1 d . . . . .
Se3 Se 0.3333 0.6667 0.2708(3) 0.0136(3) Uani 1 3 d S T P . .
loop_
_atom_site_aniso_label
_atom_site_aniso_U_11
_atom_site_aniso_U_22
_atom_site_aniso_U_33
_atom_site_aniso_U_23
_atom_site_aniso_U_13
_atom_site_aniso_U_12
Ce 0.0192(3) 0.0144(3) 0.0254(3) 0.0027(3) 0.0027(3) 0.0083(2)
Cu1A 0.0127(7) 0.0127(7) 0.037(3) 0.000 0.000 0.0063(3)
Cu1B 0.0127(7) 0.0127(7) 0.037(3) 0.000 0.000 0.0063(3)
Ga 0.0223(7) 0.0223(7) 0.0118(9) 0.000 0.000 0.0112(3)
Se1 0.0135(4) 0.0129(4) 0.0224(5) 0.0043(4) 0.0029(4) 0.0071(3)
Se2 0.0145(4) 0.0142(5) 0.0153(4) 0.0003(4) -0.0013(4) 0.0049(4)
Se3 0.0151(5) 0.0151(5) 0.0106(8) 0.000 0.000 0.0075(2)
loop_
_atom_type_symbol
_atom_type_description
_atom_type_scat_dispersion_real
_atom_type_scat_dispersion_imag
_atom_type_scat_source
Cu Cu 0.3201 1.2651 'International Tables Vol C Tables 4.2.6.8 and 6.1.1.4'
Ga Ga 0.2307 1.6083 'International Tables Vol C Tables 4.2.6.8 and 6.1.1.4'
Se Se -0.0929 2.2259 'International Tables Vol C Tables 4.2.6.8 and 6.1.1.4'
Ce Ce -0.2486 2.6331 'International Tables Vol C Tables 4.2.6.8 and 6.1.1.4'
loop_
_geom_angle_atom_site_label_1
_geom_angle_atom_site_label_2
_geom_angle_atom_site_label_3
_geom_angle
_geom_angle_site_symmetry_1
_geom_angle_site_symmetry_3
Se2 Ce Se1 97.74(3) 5_564 2
Se2 Ce Se1 140.41(4) 5_564 .
Se1 Ce Se1 83.73(4) 2 .
Se2 Ce Se3 77.42(4) 5_564 .
Se1 Ce Se3 146.07(4) 2 .
Se1 Ce Se3 121.42(3) . .
Se2 Ce Se2 78.54(4) 5_564 6_554
Se1 Ce Se2 136.64(4) 2 6_554
Se1 Ce Se2 73.99(3) . 6_554
Se3 Ce Se2 75.99(3) . 6_554
Se2 Ce Se1 140.20(4) 5_564 6
Se1 Ce Se1 79.88(3) 2 6
Se1 Ce Se1 79.21(3) . 6
Se3 Ce Se1 82.98(4) . 6
Se2 Ce Se1 129.49(4) 6_554 6
Se2 Ce Se2 71.11(2) 5_564 2
Se1 Ce Se2 70.36(3) 2 2
Se1 Ce Se2 143.01(4) . 2
Se3 Ce Se2 76.41(3) . 2
Se2 Ce Se2 142.55(3) 6_554 2
Se1 Ce Se2 70.77(3) 6 2
Se2 Ce Cu1A 127.47(10) 5_564 .
Se1 Ce Cu1A 41.95(2) 2 .
Se1 Ce Cu1A 41.78(2) . .
Se3 Ce Cu1A 155.07(11) . .
Se2 Ce Cu1A 107.55(8) 6_554 .
Se1 Ce Cu1A 75.91(12) 6 .
Se2 Ce Cu1A 108.18(6) 2 .
Se2 Ce Cu1B 119.5(2) 5_564 .
Se1 Ce Cu1B 42.85(5) 2 .
Se1 Ce Cu1B 42.70(5) . .
Se3 Ce Cu1B 162.38(15) . .
Se2 Ce Cu1B 101.47(15) 6_554 .
Se1 Ce Cu1B 85.6(2) 6 .
Se2 Ce Cu1B 112.27(10) 2 .
Cu1A Ce Cu1B 9.68(16) . .
Cu1B Cu1A Se1 93.04(17) . 3
Cu1B Cu1A Se1 93.04(17) . 2
Se1 Cu1A Se1 119.72(3) 3 2
Cu1B Cu1A Se1 93.04(17) . .
Se1 Cu1A Se1 119.72(3) 3 .
Se1 Cu1A Se1 119.72(3) 2 .
Cu1B Cu1A Cu1B 180.0 . 4
Se1 Cu1A Cu1B 86.96(17) 3 4
Se1 Cu1A Cu1B 86.96(17) 2 4
Se1 Cu1A Cu1B 86.96(17) . 4
Cu1B Cu1A Ce 96.02(12) . 2
Se1 Cu1A Ce 59.31(3) 3 2
Se1 Cu1A Ce 60.42(3) 2 2
Se1 Cu1A Ce 170.9(3) . 2
Cu1B Cu1A Ce 83.98(12) 4 2
Cu1B Cu1A Ce 96.02(12) . 3
Se1 Cu1A Ce 60.42(3) 3 3
Se1 Cu1A Ce 170.9(3) 2 3
Se1 Cu1A Ce 59.31(3) . 3
Cu1B Cu1A Ce 83.98(12) 4 3
Ce Cu1A Ce 118.91(4) 2 3
Cu1B Cu1A Ce 96.03(12) . .
Se1 Cu1A Ce 170.9(3) 3 .
Se1 Cu1A Ce 59.31(3) 2 .
Se1 Cu1A Ce 60.42(3) . .
Cu1B Cu1A Ce 83.97(12) 4 .
Ce Cu1A Ce 118.91(4) 2 .
Ce Cu1A Ce 118.91(4) 3 .
Cu1A Cu1B Se1 72.8(3) . 3
Cu1A Cu1B Se1 72.8(3) . 2
Se1 Cu1B Se1 111.6(3) 3 2
Cu1A Cu1B Se1 72.8(3) . .
Se1 Cu1B Se1 111.6(3) 3 .
Se1 Cu1B Se1 111.6(3) 2 .
Cu1A Cu1B Cu1A 180.0 . 4_554
Se1 Cu1B Cu1A 107.2(3) 3 4_554
Se1 Cu1B Cu1A 107.2(3) 2 4_554
Se1 Cu1B Cu1A 107.2(3) . 4_554
Cu1A Cu1B Ce 74.3(2) . 2
Se1 Cu1B Ce 56.80(9) 3 2
Se1 Cu1B Ce 57.86(9) 2 2
Se1 Cu1B Ce 147.1(6) . 2
Cu1A Cu1B Ce 105.7(2) 4_554 2
Cu1A Cu1B Ce 74.3(2) . 3
Se1 Cu1B Ce 57.86(9) 3 3
Se1 Cu1B Ce 147.1(6) 2 3
Se1 Cu1B Ce 56.80(9) . 3
Cu1A Cu1B Ce 105.7(2) 4_554 3
Ce Cu1B Ce 113.0(2) 2 3
Cu1A Cu1B Ce 74.3(2) . .
Se1 Cu1B Ce 147.1(6) 3 .
Se1 Cu1B Ce 56.80(9) 2 .
Se1 Cu1B Ce 57.86(9) . .
Cu1A Cu1B Ce 105.7(2) 4_554 .
Ce Cu1B Ce 113.0(2) 2 .
Ce Cu1B Ce 113.0(2) 3 .
Se3 Ga Se2 112.64(6) . 4_665
Se3 Ga Se2 112.64(6) . 5_565
Se2 Ga Se2 106.12(6) 4_665 5_565
Se3 Ga Se2 112.64(6) . 6
Se2 Ga Se2 106.12(6) 4_665 6
Se2 Ga Se2 106.12(6) 5_565 6
Cu1A Se1 Cu1B 14.2(2) . .
Cu1A Se1 Ce 78.74(3) . 3
Cu1B Se1 Ce 80.35(5) . 3
Cu1A Se1 Ce 77.80(3) . .
Cu1B Se1 Ce 79.45(6) . .
Ce Se1 Ce 154.37(4) 3 .
Cu1A Se1 Ce 107.07(18) . 5_554
Cu1B Se1 Ce 92.9(3) . 5_554
Ce Se1 Ce 98.79(4) 3 5_554
Ce Se1 Ce 97.84(3) . 5_554
Ga Se2 Ce 88.61(5) 4_664 6_655
Ga Se2 Ce 86.38(4) 4_664 5
Ce Se2 Ce 102.47(4) 6_655 5
Ga Se2 Ce 120.46(6) 4_664 3
Ce Se2 Ce 147.22(4) 6_655 3
Ce Se2 Ce 94.75(3) 5 3
Ga Se3 Ce 116.43(3) . .
Ga Se3 Ce 116.43(3) . 3_565
Ce Se3 Ce 101.71(4) . 3_565
Ga Se3 Ce 116.43(3) . 2_665
Ce Se3 Ce 101.70(4) . 2_665
Ce Se3 Ce 101.71(4) 3_565 2_665
loop_
_geom_bond_atom_site_label_1
_geom_bond_atom_site_label_2
_geom_bond_distance
_geom_bond_site_symmetry_2
Ce Se2 3.0020(13) 5_564
Ce Se1 3.0204(12) 2
Ce Se1 3.0649(12) .
Ce Se3 3.0674(11) .
Ce Se2 3.0992(13) 6_554
Ce Se1 3.1434(14) 6
Ce Se2 3.2596(12) 2
Ce Cu1A 3.4448(10) .
Ce Cu1B 3.559(4) .
Cu1A Cu1B 0.601(11) .
Cu1A Se1 2.3482(11) 3
Cu1A Se1 2.3482(11) 2
Cu1A Se1 2.3482(11) .
Cu1A Cu1B 2.587(11) 4
Cu1A Ce 3.4448(10) 2
Cu1A Ce 3.4448(10) 3
Cu1B Se1 2.455(5) 3
Cu1B Se1 2.455(5) 2
Cu1B Se1 2.455(5) .
Cu1B Cu1A 2.587(11) 4_554
Cu1B Ce 3.559(4) 2
Cu1B Ce 3.559(4) 3
Ga Se3 2.375(3) .
Ga Se2 2.4164(14) 4_665
Ga Se2 2.4164(14) 5_565
Ga Se2 2.4164(14) 6
Se1 Ce 3.0203(12) 3
Se1 Ce 3.1435(14) 5_554
Se2 Ga 2.4165(14) 4_664
Se2 Ce 3.0020(13) 6_655
Se2 Ce 3.0992(13) 5
Se2 Ce 3.2596(12) 3
Se3 Ce 3.0674(11) 3_565
Se3 Ce 3.0674(11) 2_665
