#------------------------------------------------------------------------------
#$Date: 2021-03-30 11:59:09 +0300 (Tue, 30 Mar 2021) $
#$Revision: 263441 $
#$URL: file:///home/coder/svn-repositories/cod/cif/1/56/13/1561363.cif $
#------------------------------------------------------------------------------
#
# This file is available in the Crystallography Open Database (COD),
# http://www.crystallography.net/
#
# All data on this site have been placed in the public domain by the
# contributors.
#
data_1561363
loop_
_publ_author_name
'Iyer, Abishek K.'
'Yin, Wenlong'
'Rudyk, Brent W.'
'Lin, Xinsong'
'Nilges, Tom'
'Mar, Arthur'
_publ_section_title
;
 Metal ion displacements in noncentrosymmetric chalcogenides La3Ga1.67S7,
 La3Ag0.6GaCh7 (Ch=S, Se), and La3MGaSe7 (M=Zn, Cd)
;
_journal_name_full               'Journal of Solid State Chemistry'
_journal_page_first              221
_journal_page_last               231
_journal_paper_doi               10.1016/j.jssc.2016.08.031
_journal_volume                  243
_journal_year                    2016
_chemical_absolute_configuration ad
_chemical_formula_structural     'La3 Ga Zn Se7'
_chemical_formula_sum            'Ga La3 Se7 Zn'
_chemical_formula_weight         1104.54
_chemical_name_common            'lanthanum zinc gallium selenide (3/1/1/7)'
_chemical_name_systematic        'lanthanum zinc gallium selenide (3/1/1/7)'
_space_group_crystal_system      hexagonal
_space_group_IT_number           173
_space_group_name_Hall           'P 6c'
_space_group_name_H-M_alt        'P 63'
_atom_sites_solution_hydrogens   .
_audit_creation_method           SHELXL-2014/7
_cell_angle_alpha                90
_cell_angle_beta                 90
_cell_angle_gamma                120
_cell_formula_units_Z            2
_cell_length_a                   10.630(9)
_cell_length_b                   10.630(9)
_cell_length_c                   6.374(5)
_cell_measurement_reflns_used    3159
_cell_measurement_temperature    296(2)
_cell_measurement_theta_max      26.49
_cell_measurement_theta_min      3.89
_cell_volume                     623.7(9)
_computing_cell_refinement       'Bruker SAINT 8.34A (Bruker, 2013)'
_computing_data_collection       'Bruker APEX 2 (Bruker, 2008)'
_computing_data_reduction        'Bruker SAINT 8.34A'
_computing_molecular_graphics    'ATOMS 5.1 (Dowty, 1999)'
_computing_publication_material  'SHELXL-2014/7 (Sheldrick, 2014)'
_computing_structure_refinement  'SHELXL-2014/7 (Sheldrick, 2014)'
_computing_structure_solution    'SHELXS-97 (Sheldrick, 2008)'
_diffrn_ambient_temperature      296(2)
_diffrn_measured_fraction_theta_full 1.000
_diffrn_measured_fraction_theta_max 0.998
_diffrn_measurement_device_type  'Bruker PLATFORM/SMART APEX II CCD'
_diffrn_measurement_method       '\w and \f scans'
_diffrn_radiation_type           MoK\a
_diffrn_radiation_wavelength     0.71073
_diffrn_reflns_av_R_equivalents  0.0660
_diffrn_reflns_av_unetI/netI     0.0416
_diffrn_reflns_Laue_measured_fraction_full 1.000
_diffrn_reflns_Laue_measured_fraction_max 0.998
_diffrn_reflns_limit_h_max       16
_diffrn_reflns_limit_h_min       -16
_diffrn_reflns_limit_k_max       16
_diffrn_reflns_limit_k_min       -16
_diffrn_reflns_limit_l_max       9
_diffrn_reflns_limit_l_min       -9
_diffrn_reflns_number            9076
_diffrn_reflns_point_group_measured_fraction_full 1.000
_diffrn_reflns_point_group_measured_fraction_max 0.997
_diffrn_reflns_theta_full        25.242
_diffrn_reflns_theta_max         33.086
_diffrn_reflns_theta_min         2.212
_diffrn_source                   'fine-focus sealed tube'
_exptl_absorpt_coefficient_mu    34.449
_exptl_absorpt_correction_T_max  0.406
_exptl_absorpt_correction_T_min  0.229
_exptl_absorpt_correction_type   numerical
_exptl_absorpt_process_details   'SHELXL-2014/7 (Sheldrick, 2014)'
_exptl_crystal_colour            grey
_exptl_crystal_density_diffrn    5.881
_exptl_crystal_description       irregular
_exptl_crystal_F_000             940
_exptl_crystal_size_max          0.070
_exptl_crystal_size_mid          0.044
_exptl_crystal_size_min          0.040
_refine_diff_density_max         2.535
_refine_diff_density_min         -3.240
_refine_diff_density_rms         0.403
_refine_ls_abs_structure_details
;
 Refined as an inversion twin.
;
_refine_ls_abs_structure_Flack   0.01(6)
_refine_ls_extinction_coef       .
_refine_ls_extinction_method     none
_refine_ls_goodness_of_fit_ref   1.083
_refine_ls_hydrogen_treatment    undef
_refine_ls_matrix_type           full
_refine_ls_number_parameters     40
_refine_ls_number_reflns         1574
_refine_ls_number_restraints     1
_refine_ls_restrained_S_all      1.083
_refine_ls_R_factor_all          0.0505
_refine_ls_R_factor_gt           0.0405
_refine_ls_shift/su_max          0.000
_refine_ls_shift/su_mean         0.000
_refine_ls_structure_factor_coef Fsqd
_refine_ls_weighting_details
'w=1/[\s^2^(Fo^2^)+(0.0460P)^2^+4.9942P] where P=(Fo^2^+2Fc^2^)/3'
_refine_ls_weighting_scheme      calc
_refine_ls_wR_factor_gt          0.0937
_refine_ls_wR_factor_ref         0.0988
_reflns_Friedel_coverage         0.857
_reflns_Friedel_fraction_full    1.000
_reflns_Friedel_fraction_max     0.997
_reflns_number_gt                1349
_reflns_number_total             1574
_reflns_threshold_expression     'I > 2\s(I)'
_cod_data_source_file            mmc10.cif
_cod_data_source_block           4
_cod_original_cell_volume        623.7(12)
_cod_database_code               1561363
_shelx_shelxl_version_number     2014/7
_shelx_space_group_comment
;
The symmetry employed for this shelxl refinement is uniquely defined
by the following loop, which should always be used as a source of
symmetry information in preference to the above space-group names.
They are only intended as comments.
;
_shelx_estimated_absorpt_t_min   0.197
_shelx_estimated_absorpt_t_max   0.340
_shelx_res_file
;

    p63.res created by SHELXL-2014/7

TITL La3ZnGaSe7 P6(3) lsf final refinement
CELL 0.71073  10.63000  10.63000   6.37360  90.0000  90.0000 120.0000
ZERR    2.00   0.00890   0.00890   0.00540   0.0000   0.0000   0.0000
LATT -1
SYMM -Y, X-Y, Z
SYMM -X+Y, -X, Z
SYMM -X, -Y, 0.5+Z
SYMM Y, -X+Y, 0.5+Z
SYMM X-Y, X, 0.5+Z
SFAC ZN GA SE LA
UNIT 2 2 14 6
TEMP 23
SIZE 0.04 0.044 0.07

L.S. 4
ACTA

TWIN

EADP ZNA ZNB
WGHT    0.046000    4.994200
BASF   0.00565
FVAR       0.08030   0.73745
LA    4    0.145735    0.374500    0.439792    11.00000    0.01777    0.01435 =
         0.02640   -0.00159   -0.00163    0.00745
ZNA   1    0.000000    0.000000   -0.000001    20.33333    0.03178    0.03178 =
         0.19525    0.00000    0.00000    0.01589
ZNB   1    0.000000    0.000000    0.208917   -20.33333    0.03178    0.03178 =
         0.19525    0.00000    0.00000    0.01589
GA    2    0.333333    0.666667    0.854607    10.33333    0.01932    0.01932 =
         0.01541    0.00000    0.00000    0.00966
SE1   3    0.251250    0.151985    0.472191    11.00000    0.02629    0.01929 =
         0.04021   -0.00593   -0.00473    0.01392
SE2   3    0.519431    0.093193    0.208511    11.00000    0.01686    0.01617 =
         0.01940    0.00022    0.00136    0.00604
SE3   3    0.333333    0.666667    0.226089    10.33333    0.01880    0.01880 =
         0.01718    0.00000    0.00000    0.00940
HKLF 4

REM  La3ZnGaSe7 P6(3) lsf final refinement
REM R1 =  0.0405 for    1349 Fo > 4sig(Fo)  and  0.0505 for all    1574 data
REM     40 parameters refined using      1 restraints

END

WGHT      0.0462      4.9221

REM Highest difference peak  2.535,  deepest hole -3.240,  1-sigma level  0.403
Q1    1   0.1996  0.1174  0.5523  11.00000  0.05    2.53
Q2    1   0.4602  0.7125  0.9424  11.00000  0.05    2.16
Q3    1   0.4763 -0.0999  0.1782  11.00000  0.05    1.95
Q4    1   0.3365  0.3374  0.4498  11.00000  0.05    1.70
Q5    1   0.1854  0.2810  0.3746  11.00000  0.05    1.53
Q6    1   0.5306  0.1303  0.4231  11.00000  0.05    1.50
Q7    1   0.4770  0.0009 -0.0336  11.00000  0.05    1.50
Q8    1   0.3239  0.4354  0.2202  11.00000  0.05    1.50
Q9    1   0.2697  0.3569  0.4498  11.00000  0.05    1.47
Q10   1   0.3760  0.2274  0.5122  11.00000  0.05    1.46
Q11   1   0.3333  0.6667  0.6292  10.33333  0.05    1.42
Q12   1   0.1147  0.1722  0.1978  11.00000  0.05    1.36
Q13   1   0.0979  0.2130  0.3702  11.00000  0.05    1.31
Q14   1   0.0742 -0.0380 -0.0431  11.00000  0.05    1.29
Q15   1   0.1755  0.5572  0.9552  11.00000  0.05    1.28
Q16   1   0.1840  0.1029  0.3386  11.00000  0.05    1.28
Q17   1   0.1995  0.5371  0.4374  11.00000  0.05    1.23
Q18   1   0.2726  0.4116  0.3617  11.00000  0.05    1.21
Q19   1   0.6862  0.0750  0.2205  11.00000  0.05    1.20
Q20   1   0.4281  0.0753  0.4549  11.00000  0.05    1.19
;
_shelx_res_checksum              30481
_shelx_hkl_file
;
   1  -6  -9    1.33    4.69
   2  -6  -9    3.87    5.32
   3  -6  -9    4.71    5.93
   4  -6  -9    0.45    4.33
   5  -6  -9    1.81    5.22
   1  -5  -9   -2.71    3.21
   2  -5  -9    3.02    2.54
   3  -5  -9    0.43    2.21
   4  -5  -9   11.27    4.12
   5  -5  -9    5.33    5.05
   6  -5  -9    0.09    3.82
   0  -4  -9    0.68    2.48
   1  -4  -9    9.57    3.70
   2  -4  -9    0.39    2.57
   3  -4  -9   -1.39    2.12
   4  -4  -9   -0.49    2.21
  -2  -3  -9    0.45    3.84
  -1  -3  -9   -1.12    2.27
   0  -3  -9    8.43    3.66
   1  -3  -9    9.90    3.45
   2  -3  -9   14.71    4.25
   3  -3  -9   10.19    3.54
   4  -3  -9    2.65    2.69
  -3  -2  -9    0.46    2.98
  -2  -2  -9    1.73    2.67
  -1  -2  -9   11.93    3.79
   0  -2  -9    1.74    2.24
   1  -2  -9    6.24    3.03
   2  -2  -9   10.32    3.58
   3  -2  -9    2.83    2.56
   4  -2  -9    0.05    2.27
   5  -2  -9   -1.28    2.76
  -3  -1  -9    4.28    3.34
  -2  -1  -9    8.75    4.04
  -1  -1  -9    4.04    2.76
   0  -1  -9    3.67    2.43
   1  -1  -9    1.83    2.60
   2  -1  -9    4.19    2.68
   3  -1  -9    7.34    3.11
   4  -1  -9    0.30    2.13
  -5   0  -9    2.27    2.77
  -4   0  -9    0.63    1.74
  -3   0  -9    7.02    2.10
  -2   0  -9    2.19    1.59
  -1   0  -9    1.28    1.45
   0   0  -9    1.71    1.46
   1   0  -9    1.58    1.60
   2   0  -9    5.92    2.04
   3   0  -9   11.07    2.54
   4   0  -9   -0.76    1.90
  -5   1  -9   22.15    4.03
  -4   1  -9   -0.23    1.52
  -3   1  -9   13.79    3.02
  -2   1  -9    3.10    1.67
  -1   1  -9    2.91    1.57
   0   1  -9    1.51    1.54
   1   1  -9    3.16    1.74
   2   1  -9    6.57    2.12
   3   1  -9    7.11    2.23
   4   1  -9   -0.15    1.64
  -5   2  -9   -1.94    1.50
  -4   2  -9    2.08    1.66
  -3   2  -9    9.05    2.40
  -2   2  -9    4.49    1.83
  -1   2  -9    3.46    1.83
   0   2  -9    5.09    1.93
   1   2  -9   13.45    2.69
   2   2  -9    1.79    1.90
   3   2  -9    0.77    1.69
   4   2  -9    1.30    2.72
  -6   3  -9    1.44    2.76
  -5   3  -9    3.68    2.06
  -4   3  -9    5.30    2.00
  -3   3  -9   15.26    3.11
  -2   3  -9    6.99    2.29
  -1   3  -9    5.43    2.01
   0   3  -9   14.38    2.78
   1   3  -9    0.69    1.47
   2   3  -9   -1.54    1.34
   3   3  -9    4.13    2.93
  -6   4  -9    1.14    1.99
  -5   4  -9   -0.92    1.76
  -4   4  -9    1.61    1.57
  -3   4  -9    1.92    1.51
  -2   4  -9    1.48    1.53
  -1   4  -9    7.21    2.14
   0   4  -9    0.43    1.53
   1   4  -9   17.14    3.24
   2   4  -9    0.07    2.30
  -6   5  -9    2.25    2.58
  -4   5  -9   23.44    7.40
  -3   5  -9    0.68    2.10
  -2   5  -9    4.61    2.80
  -1   5  -9    0.68    2.51
   4  -9  -8   -1.67    2.62
   5  -9  -8    1.86    3.10
   6  -9  -8    8.24    3.57
   0  -8  -8    6.40    3.54
   1  -8  -8   12.92    3.68
   2  -8  -8    0.66    2.34
   3  -8  -8    1.06    2.26
   4  -8  -8    3.69    2.42
   5  -8  -8    5.72    2.65
   6  -8  -8   10.24    3.35
   7  -8  -8   20.61    4.28
   8  -8  -8   10.12    4.14
  -1  -7  -8    5.95    3.16
   0  -7  -8    2.78    2.30
   1  -7  -8    0.60    2.05
   2  -7  -8    3.69    2.68
   3  -7  -8    0.81    2.05
   4  -7  -8   14.84    3.44
   5  -7  -8    0.18    1.98
   6  -7  -8   15.73    3.73
   7  -7  -8    1.80    2.13
   8  -7  -8   11.70    3.44
  -3  -6  -8    3.16    5.64
  -2  -6  -8    5.84    2.89
  -1  -6  -8   11.43    3.67
   0  -6  -8    0.52    2.08
   1  -6  -8   25.15    4.32
   2  -6  -8    4.82    2.41
   3  -6  -8   21.14    4.07
   4  -6  -8    0.64    1.63
   5  -6  -8   -0.44    1.74
   6  -6  -8    1.39    2.19
   7  -6  -8    0.93    1.97
   8  -6  -8    0.54    2.11
  -4  -5  -8    9.87    7.25
  -3  -5  -8    4.24    2.82
  -2  -5  -8    0.31    2.21
  -1  -5  -8   -0.29    2.08
   0  -5  -8    9.17    2.87
   1  -5  -8   12.31    3.17
   2  -5  -8   11.61    3.09
   3  -5  -8    1.97    2.05
   4  -5  -8   19.86    3.76
   5  -5  -8   11.10    2.97
   6  -5  -8   24.45    4.34
   7  -5  -8    3.91    2.52
   8  -5  -8    0.84    1.98
   9  -5  -8    0.70    4.07
  -4  -4  -8    5.77    2.97
  -3  -4  -8   16.13    4.02
  -2  -4  -8   -0.02    1.96
  -1  -4  -8   22.42    4.29
   0  -4  -8    2.96    1.98
   1  -4  -8    2.36    1.84
   2  -4  -8   20.24    3.84
   3  -4  -8   15.80    3.46
   4  -4  -8    6.35    2.36
   5  -4  -8    9.30    2.73
   6  -4  -8    5.06    2.37
   7  -4  -8    3.78    2.34
   8  -4  -8    3.00    2.48
   9  -4  -8    7.71    6.16
  -5  -3  -8    1.82    2.52
  -4  -3  -8    2.70    2.72
  -3  -3  -8   22.14    4.98
  -2  -3  -8    1.67    2.34
  -1  -3  -8   12.63    3.39
   0  -3  -8    5.81    2.38
   1  -3  -8    6.08    2.34
   2  -3  -8   21.90    3.95
   3  -3  -8    6.62    2.43
   4  -3  -8    4.87    2.10
   5  -3  -8   11.02    2.97
   6  -3  -8   18.66    3.78
   7  -3  -8   14.23    3.36
   8  -3  -8    5.55    2.63
   9  -3  -8    7.09    5.41
  -6  -2  -8    0.44    1.68
  -5  -2  -8    3.36    1.78
  -4  -2  -8    3.77    2.12
  -3  -2  -8    6.68    2.10
  -2  -2  -8   26.99    3.63
  -1  -2  -8   18.58    3.42
   0  -2  -8   -0.90    1.63
   1  -2  -8    9.11    3.03
   2  -2  -8    0.07    1.82
   3  -2  -8    3.17    2.30
   4  -2  -8   17.38    4.08
   5  -2  -8    1.86    1.85
   6  -2  -8   -0.22    2.04
   7  -2  -8   -0.55    2.19
   8  -2  -8    7.47    3.15
  -7  -1  -8   18.81    5.16
  -6  -1  -8    0.97    1.48
  -5  -1  -8   20.57    3.49
  -4  -1  -8   11.04    2.57
  -3  -1  -8    3.28    1.65
  -2  -1  -8    7.27    2.08
  -1  -1  -8    6.32    1.85
   0  -1  -8    3.18    1.41
   1  -1  -8    0.58    1.18
   2  -1  -8   13.52    2.42
   3  -1  -8   26.12    3.30
   4  -1  -8   15.29    2.76
   5  -1  -8   16.96    2.85
   6  -1  -8    0.59    2.09
   7  -1  -8    9.96    3.69
  -8   0  -8    9.30    5.22
  -7   0  -8    1.17    1.61
  -6   0  -8    3.56    1.85
  -5   0  -8   14.81    2.96
  -4   0  -8    4.73    2.18
  -3   0  -8    5.34    1.93
  -2   0  -8    0.38    1.13
  -1   0  -8    3.28    1.54
   0   0  -8  132.13    7.28
   1   0  -8    2.72    1.57
   2   0  -8   -0.62    1.08
   3   0  -8    7.22    1.93
   4   0  -8    2.04    1.52
   5   0  -8   10.87    2.56
   6   0  -8    2.57    1.63
   7   0  -8    0.24    1.60
   8   0  -8    6.51    3.77
  -8   1  -8   13.89    4.32
  -7   1  -8   15.03    3.09
  -6   1  -8    2.40    1.32
  -5   1  -8   18.97    2.51
  -4   1  -8   16.21    2.26
  -3   1  -8   24.62    3.63
  -2   1  -8    6.73    1.88
  -1   1  -8    2.96    1.34
   0   1  -8    0.56    1.08
   1   1  -8    9.46    2.18
   2   1  -8    8.83    2.11
   3   1  -8    4.62    1.75
   4   1  -8   10.27    2.50
   5   1  -8   21.36    3.36
   6   1  -8    0.11    1.52
   7   1  -8   14.29    3.02
  -8   2  -8    6.15    1.85
  -7   2  -8   -0.14    1.35
  -6   2  -8    0.87    1.25
  -5   2  -8    0.99    1.16
  -4   2  -8   23.38    2.68
  -3   2  -8    3.96    1.59
  -2   2  -8    0.09    1.08
  -1   2  -8    9.23    2.22
   0   2  -8    0.78    1.24
   1   2  -8   22.62    3.31
   2   2  -8   21.38    3.19
   3   2  -8    7.96    2.15
   4   2  -8    6.98    2.11
   5   2  -8    2.88    1.74
   6   2  -8    1.29    1.80
  -8   3  -8    5.10    1.82
  -7   3  -8   20.21    2.76
  -6   3  -8   18.69    2.60
  -5   3  -8    9.29    1.96
  -4   3  -8    5.30    1.51
  -3   3  -8    5.21    1.39
  -2   3  -8   20.31    3.11
  -1   3  -8    1.56    1.23
   0   3  -8    6.36    1.91
   1   3  -8   11.52    2.40
   2   3  -8    2.86    1.49
   3   3  -8   18.40    3.17
   4   3  -8    5.61    1.92
   5   3  -8   -0.35    1.54
   6   3  -8    5.52    3.19
  -9   4  -8    7.91    3.49
  -8   4  -8    5.07    1.66
  -7   4  -8    2.60    1.48
  -6   4  -8    3.23    1.43
  -5   4  -8   12.18    2.12
  -4   4  -8    4.58    1.41
  -3   4  -8   15.54    2.13
  -2   4  -8   17.98    2.92
  -1   4  -8    3.95    1.67
   0   4  -8    4.75    1.68
   1   4  -8   19.79    3.11
   2   4  -8   -0.66    1.38
   3   4  -8   17.57    2.92
   4   4  -8    5.91    2.17
   5   4  -8   -0.57    2.30
  -9   5  -8    0.32    2.45
  -8   5  -8    1.36    1.50
  -7   5  -8    4.48    1.54
  -6   5  -8   23.52    2.85
  -5   5  -8   10.79    1.92
  -4   5  -8   20.73    2.54
  -3   5  -8    2.51    1.10
  -2   5  -8   11.16    2.33
  -1   5  -8   10.50    2.36
   0   5  -8    6.08    2.65
   1   5  -8    0.56    1.71
   2   5  -8   -1.04    1.67
   3   5  -8    7.23    3.25
  -8   6  -8    3.24    2.02
  -7   6  -8    0.05    1.47
  -6   6  -8    1.55    1.26
  -5   6  -8    3.09    1.68
  -4   6  -8    1.22    1.33
  -3   6  -8   19.68    3.11
  -2   6  -8   11.25    3.63
  -1   6  -8   17.21    4.74
   0   6  -8    3.47    2.60
   1   6  -8   16.13    4.25
   2   6  -8   10.32    3.51
  -8   7  -8   11.06    3.80
  -7   7  -8    2.05    1.65
  -6   7  -8   12.81    2.88
  -5   7  -8    1.75    1.58
  -4   7  -8   15.17    2.88
  -3   7  -8    3.03    1.64
  -2   7  -8    6.87    2.18
  -1   7  -8    2.13    2.28
   0   7  -8    1.94    2.35
  -7   8  -8   15.89    3.67
  -6   8  -8    8.22    2.42
  -5   8  -8    4.77    2.02
  -4   8  -8    3.09    1.83
  -3   8  -8    1.25    1.52
  -2   8  -8    1.81    1.61
  -5   9  -8    6.10    2.21
  -4   9  -8    2.58    2.31
  -3   9  -8   19.59    4.44
   2 -10  -7    4.58    5.40
   3 -10  -7    0.73    3.69
   4 -10  -7   11.74    7.27
   5 -10  -7    0.78    4.31
   6 -10  -7   -0.46    3.20
   7 -10  -7    1.76    3.96
   8 -10  -7   13.95    3.84
   9 -10  -7    5.54    3.50
   0  -9  -7    0.26    4.10
   1  -9  -7   10.15    6.42
   2  -9  -7    0.21    3.89
   3  -9  -7    0.16    1.69
   4  -9  -7    8.32    2.52
   5  -9  -7   27.21    4.47
   6  -9  -7   19.94    3.95
   7  -9  -7    4.76    2.59
   8  -9  -7    4.92    1.90
   9  -9  -7    0.72    1.74
  10  -9  -7    4.15    2.25
  -3  -8  -7   -2.24    3.09
  -2  -8  -7    9.10    3.31
  -1  -8  -7    4.99    2.66
   0  -8  -7    2.31    2.16
   1  -8  -7   17.49    4.00
   2  -8  -7    3.35    2.03
   3  -8  -7    5.43    2.22
   4  -8  -7    0.84    1.61
   5  -8  -7    0.48    1.90
   6  -8  -7    8.75    2.75
   7  -8  -7    0.73    1.80
   8  -8  -7    2.15    1.59
   9  -8  -7   16.41    2.95
  10  -8  -7    5.06    2.17
  -4  -7  -7   -1.66    2.73
  -3  -7  -7    2.16    2.37
  -2  -7  -7    1.90    2.47
  -1  -7  -7    1.56    2.02
   0  -7  -7   -0.22    1.86
   1  -7  -7   12.74    3.20
   2  -7  -7    3.83    2.07
   3  -7  -7   15.52    3.27
   4  -7  -7   -0.04    1.37
   5  -7  -7    1.67    1.75
   6  -7  -7   20.58    3.87
   7  -7  -7    1.42    1.44
   8  -7  -7   23.26    3.31
   9  -7  -7    1.67    1.50
  10  -7  -7    0.41    1.99
  -5  -6  -7    0.56    2.39
  -4  -6  -7    0.02    2.06
  -3  -6  -7    7.20    2.74
  -2  -6  -7   12.26    3.28
  -1  -6  -7   15.89    3.56
   0  -6  -7   16.17    3.66
   1  -6  -7    1.22    1.52
   2  -6  -7   11.12    2.83
   3  -6  -7   10.71    2.57
   4  -6  -7    7.03    2.40
   5  -6  -7    1.19    1.62
   6  -6  -7   17.20    3.52
   7  -6  -7   17.29    2.80
   8  -6  -7    2.27    1.55
   9  -6  -7    1.89    2.04
  10  -6  -7   14.74    3.66
  -6  -5  -7    3.65    6.14
  -5  -5  -7    2.29    2.19
  -4  -5  -7   27.64    4.86
  -3  -5  -7    1.56    2.02
  -2  -5  -7    4.37    2.39
  -1  -5  -7    0.69    1.59
   0  -5  -7    9.11    2.79
   1  -5  -7    3.77    2.00
   2  -5  -7   48.86    5.73
   3  -5  -7    1.83    1.66
   4  -5  -7   23.70    3.95
   5  -5  -7    9.47    2.65
   6  -5  -7    0.45    1.44
   7  -5  -7    3.01    2.12
   8  -5  -7    6.72    2.53
   9  -5  -7    7.39    2.64
  10  -5  -7    0.73    1.90
  11  -5  -7    1.38    4.59
  -7  -4  -7    0.28    5.48
  -6  -4  -7   11.40    3.59
  -5  -4  -7    9.92    3.07
  -4  -4  -7    0.63    1.95
  -3  -4  -7    0.74    1.61
  -2  -4  -7    6.26    2.71
  -1  -4  -7   17.66    3.58
   0  -4  -7   11.70    2.92
   1  -4  -7   23.72    4.00
   2  -4  -7    0.08    1.29
   3  -4  -7    0.92    1.55
   4  -4  -7   10.21    2.70
   5  -4  -7    3.57    1.81
   6  -4  -7   10.99    2.87
   7  -4  -7   16.25    3.34
   8  -4  -7   -0.35    1.73
   9  -4  -7   30.48    4.91
  10  -4  -7    0.53    2.08
  11  -4  -7    4.44    5.22
  -8  -3  -7   17.69    5.01
  -7  -3  -7    3.07    1.89
  -6  -3  -7    2.23    1.58
  -5  -3  -7    7.10    2.07
  -4  -3  -7   18.50    2.80
  -3  -3  -7   10.00    2.17
  -2  -3  -7    1.85    1.24
  -1  -3  -7    2.07    1.13
   0  -3  -7   22.72    3.08
   1  -3  -7    6.17    2.11
   2  -3  -7   11.57    2.74
   3  -3  -7   16.01    3.16
   4  -3  -7   30.87    4.42
   5  -3  -7   59.24    6.27
   6  -3  -7   10.85    2.84
   7  -3  -7    0.52    1.41
   8  -3  -7    0.35    1.76
   9  -3  -7    9.39    3.07
  10  -3  -7    0.47    2.23
  -8  -2  -7    9.77    2.89
  -7  -2  -7    0.63    1.75
  -6  -2  -7    4.66    1.73
  -5  -2  -7    2.69    1.35
  -4  -2  -7    9.77    2.07
  -3  -2  -7   60.98    4.99
  -2  -2  -7    1.55    1.09
  -1  -2  -7    7.50    1.66
   0  -2  -7   28.22    3.05
   1  -2  -7    2.19    1.03
   2  -2  -7   31.90    3.13
   3  -2  -7    5.18    1.42
   4  -2  -7    1.55    1.04
   5  -2  -7    3.24    1.36
   6  -2  -7    7.78    1.94
   7  -2  -7    5.67    2.33
   8  -2  -7    9.66    2.83
   9  -2  -7    6.22    2.51
  10  -2  -7   11.63    3.48
  -9  -1  -7    6.79    3.84
  -8  -1  -7   23.55    3.94
  -7  -1  -7   25.38    3.78
  -6  -1  -7   22.63    3.40
  -5  -1  -7    1.69    1.35
  -4  -1  -7    2.25    1.29
  -3  -1  -7   29.81    3.65
  -2  -1  -7    5.13    1.58
  -1  -1  -7    1.92    1.05
   0  -1  -7   19.11    2.53
   1  -1  -7   18.34    2.41
   2  -1  -7    3.07    1.14
   3  -1  -7    4.95    1.36
   4  -1  -7    1.22    1.03
   5  -1  -7   24.47    2.90
   6  -1  -7   -0.12    1.03
   7  -1  -7   18.83    2.81
   8  -1  -7    2.31    1.57
   9  -1  -7    2.58    1.72
  10  -1  -7    3.27    6.99
  -9   0  -7    1.81    1.86
  -8   0  -7    2.11    1.63
  -7   0  -7    2.48    1.66
  -6   0  -7   12.99    2.74
  -5   0  -7   13.22    2.78
  -4   0  -7   11.84    2.38
  -3   0  -7   19.49    2.98
  -2   0  -7   31.32    2.83
  -1   0  -7   17.50    2.59
   0   0  -7   -0.12    0.82
   1   0  -7   19.23    2.71
   2   0  -7   29.08    3.40
   3   0  -7   18.37    2.69
   4   0  -7   12.43    2.30
   5   0  -7   12.29    2.59
   6   0  -7   12.68    2.43
   7   0  -7   -0.13    1.30
   8   0  -7    3.08    1.92
   9   0  -7    2.61    1.79
  -9   1  -7    3.24    2.01
  -8   1  -7   -0.17    1.48
  -7   1  -7   23.91    3.56
  -6   1  -7    2.01    1.46
  -5   1  -7   23.31    3.25
  -4   1  -7    0.45    0.91
  -3   1  -7    7.69    1.45
  -2   1  -7    1.40    0.89
  -1   1  -7   20.94    2.99
   0   1  -7   19.57    2.63
   1   1  -7    2.70    1.30
   2   1  -7    6.23    1.71
   3   1  -7   31.26    3.64
   4   1  -7    1.54    1.15
   5   1  -7    1.30    1.31
   6   1  -7   17.26    3.22
   7   1  -7   25.21    3.75
   8   1  -7   19.24    3.39
   9   1  -7    1.23    2.58
 -10   2  -7   22.77    3.85
  -9   2  -7    4.88    2.04
  -8   2  -7   13.73    2.97
  -7   2  -7    5.07    2.00
  -6   2  -7    5.96    1.90
  -5   2  -7    2.53    1.14
  -4   2  -7   -0.56    0.78
  -3   2  -7    3.75    1.15
  -2   2  -7   37.60    3.02
  -1   2  -7    3.03    0.96
   0   2  -7   27.26    3.20
   1   2  -7    6.08    1.73
   2   2  -7   -0.63    0.90
   3   2  -7   52.18    4.86
   4   2  -7   14.41    2.69
   5   2  -7    2.68    1.63
   6   2  -7    3.85    1.72
   7   2  -7   -0.17    1.41
   8   2  -7    5.52    2.26
 -10   3  -7    0.75    1.70
  -9   3  -7   13.29    2.94
  -8   3  -7    0.38    1.04
  -7   3  -7    0.55    0.96
  -6   3  -7    9.60    1.81
  -5   3  -7   56.04    4.09
  -4   3  -7   27.01    2.79
  -3   3  -7   20.22    2.28
  -2   3  -7    6.79    1.34
  -1   3  -7    4.23    1.11
   0   3  -7   20.73    2.81
   1   3  -7    1.52    1.04
   2   3  -7    2.53    1.36
   3   3  -7    8.27    2.14
   4   3  -7   15.50    2.71
   5   3  -7    7.49    2.15
   6   3  -7    0.11    1.31
   7   3  -7    3.88    1.87
 -11   4  -7    2.61    2.95
 -10   4  -7   -0.62    1.25
  -9   4  -7   26.02    3.03
  -8   4  -7    1.08    1.06
  -7   4  -7   21.15    2.53
  -6   4  -7   12.00    2.00
  -5   4  -7    1.63    1.03
  -4   4  -7    9.95    1.72
  -3   4  -7    1.79    0.97
  -2   4  -7    0.11    0.75
  -1   4  -7   31.96    2.81
   0   4  -7   10.27    2.03
   1   4  -7   25.79    3.24
   2   4  -7    9.63    2.11
   3   4  -7    0.96    1.22
   4   4  -7    1.27    1.29
   5   4  -7    6.45    2.18
   6   4  -7    8.36    2.46
   7   4  -7    3.24    3.01
 -11   5  -7    1.04    3.13
 -10   5  -7   -0.04    1.31
  -9   5  -7    5.33    1.76
  -8   5  -7    7.06    1.65
  -7   5  -7    3.60    1.29
  -6   5  -7    1.15    0.98
  -5   5  -7   13.23    1.99
  -4   5  -7   21.37    2.29
  -3   5  -7    2.98    1.02
  -2   5  -7   49.49    3.56
  -1   5  -7    2.88    1.01
   0   5  -7   14.23    1.88
   1   5  -7   -0.30    1.00
   2   5  -7    5.85    1.80
   3   5  -7    1.59    1.41
   4   5  -7   24.44    5.72
   5   5  -7   -1.10    2.08
 -10   6  -7   11.99    2.74
  -9   6  -7    0.64    1.56
  -8   6  -7    4.25    1.52
  -7   6  -7   19.66    3.14
  -6   6  -7   18.16    2.94
  -5   6  -7    0.71    1.12
  -4   6  -7    5.65    1.66
  -3   6  -7    7.57    1.84
  -2   6  -7    8.29    1.92
  -1   6  -7    1.68    1.16
   0   6  -7   19.72    2.83
   1   6  -7   21.38    4.58
   2   6  -7   12.28    3.94
   3   6  -7   18.05    4.71
   4   6  -7   -0.22    1.91
 -10   7  -7    1.36    1.62
  -9   7  -7    0.73    1.45
  -8   7  -7   23.06    3.39
  -7   7  -7    0.43    1.14
  -6   7  -7   17.80    3.00
  -5   7  -7    2.85    1.52
  -4   7  -7    2.06    1.30
  -3   7  -7   13.12    2.37
  -2   7  -7    2.95    1.42
  -1   7  -7   19.74    2.87
   0   7  -7   -0.60    1.06
   1   7  -7    0.59    1.64
   2   7  -7    7.73    3.31
   3   7  -7   -2.27    2.01
 -10   8  -7    8.16    2.30
  -9   8  -7   18.46    3.33
  -8   8  -7    5.42    1.85
  -7   8  -7   -0.11    1.35
  -6   8  -7    9.14    2.28
  -5   8  -7    1.18    1.27
  -4   8  -7    1.09    1.20
  -3   8  -7    7.79    1.69
  -2   8  -7   -0.11    1.19
  -1   8  -7   27.44    3.60
   0   8  -7    3.21    1.68
   1   8  -7    6.11    3.15
   2   8  -7   12.69    3.97
 -10   9  -7   -2.23    3.32
  -9   9  -7    1.92    1.66
  -8   9  -7    1.46    1.56
  -7   9  -7    4.53    1.92
  -6   9  -7   14.94    2.85
  -5   9  -7   27.24    2.92
  -4   9  -7    7.01    1.75
  -3   9  -7    1.58    1.34
  -2   9  -7    0.78    1.24
  -1   9  -7   16.63    2.93
   0   9  -7    0.49    1.54
  -9  10  -7    8.35    3.53
  -8  10  -7   12.26    2.32
  -7  10  -7   -0.20    1.08
  -6  10  -7   -0.04    1.05
  -5  10  -7    1.92    1.21
  -4  10  -7    9.89    2.38
  -3  10  -7    2.74    1.55
  -2  10  -7    4.32    1.87
  -1  10  -7    5.74    3.07
  -7  11  -7    1.88    1.59
  -6  11  -7   -0.58    1.39
  -5  11  -7    7.04    2.33
  -4  11  -7    4.03    3.59
   4 -12  -6    0.85    3.85
   5 -12  -6   10.05    3.26
   6 -12  -6    5.97    2.91
   7 -12  -6    1.20    2.37
   8 -12  -6    8.83    3.29
   9 -12  -6   -0.13    2.63
   1 -11  -6    4.42    5.11
   2 -11  -6   -0.99    3.80
   3 -11  -6    1.15    3.98
   5 -11  -6    2.71    2.01
   6 -11  -6    4.38    2.30
   7 -11  -6   19.78    4.16
   8 -11  -6    1.62    2.22
   9 -11  -6    0.32    2.07
  10 -11  -6    0.30    1.83
  -1 -10  -6    1.50    4.66
   0 -10  -6    7.35    6.16
   1 -10  -6    0.56    3.70
   2 -10  -6    5.54    4.94
   3 -10  -6   11.93    7.05
   4 -10  -6    2.44    2.10
   5 -10  -6    7.54    2.69
   6 -10  -6   39.96    5.70
   7 -10  -6    2.13    1.91
   8 -10  -6   34.01    5.54
   9 -10  -6    2.50    2.35
  10 -10  -6    7.29    2.82
  11 -10  -6    6.67    3.04
  -2  -9  -6    1.18    3.59
  -1  -9  -6    1.48    4.25
   0  -9  -6    2.53    4.39
   1  -9  -6    3.14    4.27
   2  -9  -6   -0.30    3.18
   3  -9  -6   22.28    3.76
   4  -9  -6    3.80    1.40
   5  -9  -6    6.17    1.65
   6  -9  -6    8.63    1.99
   7  -9  -6    2.31    1.36
   8  -9  -6   26.48    3.29
   9  -9  -6    5.98    1.88
  10  -9  -6    0.72    1.47
  11  -9  -6    4.58    1.90
  12  -9  -6    1.61    2.23
  -4  -8  -6    8.93    3.34
  -3  -8  -6    1.09    2.06
  -2  -8  -6   32.82    4.71
  -1  -8  -6   30.99    4.80
   0  -8  -6   44.28    5.44
   1  -8  -6    3.97    2.09
   2  -8  -6   12.15    2.84
   3  -8  -6    5.04    1.81
   4  -8  -6    6.01    1.50
   5  -8  -6    7.51    1.73
   6  -8  -6    1.04    1.18
   7  -8  -6   18.71    2.64
   8  -8  -6   39.60    4.04
   9  -8  -6    5.92    1.91
  10  -8  -6    9.27    2.36
  11  -8  -6    0.36    1.41
  12  -8  -6    0.75    2.26
  -5  -7  -6    0.41    2.38
  -4  -7  -6   22.74    4.57
  -3  -7  -6    3.32    2.19
  -2  -7  -6    1.02    1.90
  -1  -7  -6   15.95    3.51
   0  -7  -6    3.71    2.02
   1  -7  -6    6.72    2.26
   2  -7  -6   16.78    3.39
   3  -7  -6    3.58    1.76
   4  -7  -6   66.93    4.99
   5  -7  -6    2.87    1.18
   6  -7  -6    3.64    1.38
   7  -7  -6    1.91    1.23
   8  -7  -6    5.32    1.67
   9  -7  -6    1.41    1.39
  10  -7  -6    6.73    1.95
  11  -7  -6   48.94    6.37
  12  -7  -6   11.09    3.48
  -6  -6  -6   10.15    3.38
  -5  -6  -6    4.10    2.52
  -4  -6  -6   45.18    5.88
  -3  -6  -6   10.17    2.91
  -2  -6  -6    2.41    1.87
  -1  -6  -6    3.25    2.00
   0  -6  -6    1.30    1.53
   1  -6  -6   56.65    5.93
   2  -6  -6    1.78    1.51
   3  -6  -6   32.83    4.30
   4  -6  -6   33.64    3.31
   5  -6  -6   38.29    3.65
   6  -6  -6    2.61    1.19
   7  -6  -6    7.64    1.87
   8  -6  -6   14.57    2.45
   9  -6  -6   26.70    3.31
  10  -6  -6    1.93    1.84
  11  -6  -6    2.36    2.04
  12  -6  -6   15.64    3.93
  -7  -5  -6   11.81    3.85
  -6  -5  -6    1.58    2.22
  -5  -5  -6    5.60    2.71
  -4  -5  -6    6.43    2.50
  -3  -5  -6    5.91    2.40
  -2  -5  -6    6.59    2.29
  -1  -5  -6   30.01    4.47
   0  -5  -6   26.93    4.12
   1  -5  -6   32.16    4.41
   2  -5  -6   14.42    2.88
   3  -5  -6   23.69    3.05
   4  -5  -6   15.21    2.18
   5  -5  -6   26.42    3.00
   6  -5  -6   57.05    4.50
   7  -5  -6   24.02    3.04
   8  -5  -6    4.40    1.52
   9  -5  -6    9.36    2.80
  10  -5  -6    4.89    2.14
  11  -5  -6    1.97    1.82
  12  -5  -6    4.48    2.58
  -8  -4  -6    7.04    2.40
  -7  -4  -6   65.79    5.79
  -6  -4  -6    1.23    1.43
  -5  -4  -6    4.52    1.49
  -4  -4  -6    7.99    1.81
  -3  -4  -6   73.85    4.79
  -2  -4  -6   31.95    3.25
  -1  -4  -6   19.59    2.63
   0  -4  -6    3.34    1.57
   1  -4  -6   10.16    2.44
   2  -4  -6    8.39    2.11
   3  -4  -6    4.45    1.38
   4  -4  -6    3.56    1.18
   5  -4  -6   32.41    3.26
   6  -4  -6    3.97    1.39
   7  -4  -6    6.36    2.16
   8  -4  -6    3.49    1.95
   9  -4  -6    3.25    2.00
  10  -4  -6   51.68    6.14
  11  -4  -6   16.93    3.79
  12  -4  -6    6.71    3.00
  -9  -3  -6   -1.52    2.11
  -8  -3  -6    2.39    1.70
  -7  -3  -6    7.82    2.14
  -6  -3  -6   21.84    3.09
  -5  -3  -6    7.93    1.85
  -4  -3  -6    1.67    1.13
  -3  -3  -6   39.68    3.77
  -2  -3  -6   19.93    2.57
  -1  -3  -6    5.74    1.46
   0  -3  -6    9.30    1.56
   1  -3  -6   -0.02    0.63
   2  -3  -6   85.87    4.43
   3  -3  -6   10.53    1.43
   4  -3  -6    9.86    1.40
   5  -3  -6   14.36    2.09
   6  -3  -6   37.19    3.59
   7  -3  -6   72.60    5.61
   8  -3  -6    6.93    2.25
   9  -3  -6   10.34    2.78
  10  -3  -6    0.65    1.85
  11  -3  -6    1.54    2.13
  12  -3  -6    3.50    4.64
 -10  -2  -6    6.73    7.24
  -9  -2  -6    3.41    1.80
  -8  -2  -6    7.90    2.12
  -7  -2  -6    1.45    1.47
  -6  -2  -6   12.56    2.25
  -5  -2  -6   23.75    2.96
  -4  -2  -6    5.50    1.50
  -3  -2  -6   14.57    2.20
  -2  -2  -6    5.55    1.42
  -1  -2  -6   98.81    4.82
   0  -2  -6   58.02    3.60
   1  -2  -6   33.19    2.99
   2  -2  -6   55.69    3.25
   3  -2  -6    0.21    0.67
   4  -2  -6    7.09    1.54
   5  -2  -6   27.03    2.94
   6  -2  -6   32.15    3.33
   7  -2  -6    3.49    1.34
   8  -2  -6    2.34    1.46
   9  -2  -6    1.89    1.29
  10  -2  -6   37.65    4.02
  11  -2  -6    1.83    2.23
 -10  -1  -6   11.88    3.07
  -9  -1  -6    1.35    1.44
  -8  -1  -6    8.46    2.15
  -7  -1  -6    7.29    1.99
  -6  -1  -6    9.33    2.05
  -5  -1  -6   42.84    4.04
  -4  -1  -6   27.80    3.12
  -3  -1  -6   10.35    1.83
  -2  -1  -6   -0.47    0.69
  -1  -1  -6   32.26    3.06
   0  -1  -6   34.45    2.36
   1  -1  -6   29.69    2.78
   2  -1  -6   37.04    3.16
   3  -1  -6   99.04    4.70
   4  -1  -6    7.23    1.50
   5  -1  -6   20.16    2.54
   6  -1  -6   40.11    3.73
   7  -1  -6    1.41    1.10
   8  -1  -6   17.12    2.73
   9  -1  -6   25.89    3.44
  10  -1  -6    2.50    1.74
  11  -1  -6    0.86    1.61
 -10   0  -6   10.80    2.98
  -9   0  -6    6.64    2.39
  -8   0  -6   40.18    4.65
  -7   0  -6    2.15    1.34
  -6   0  -6    2.78    1.30
  -5   0  -6   26.27    3.06
  -4   0  -6    4.07    1.35
  -3   0  -6   10.44    1.83
  -2   0  -6   50.31    3.67
  -1   0  -6   30.59    2.31
   0   0  -6   16.09    1.58
   1   0  -6   32.53    2.90
   2   0  -6   51.80    3.64
   3   0  -6    9.80    1.68
   4   0  -6    3.10    1.12
   5   0  -6   32.17    3.28
   6   0  -6    2.22    1.18
   7   0  -6    1.47    1.20
   8   0  -6   34.20    3.84
   9   0  -6    7.98    2.12
  10   0  -6    7.27    2.19
  11   0  -6    2.13    2.31
 -11   1  -6   -0.35    1.79
 -10   1  -6    2.59    1.75
  -9   1  -6   26.15    3.74
  -8   1  -6   20.11    3.29
  -7   1  -6    5.25    1.81
  -6   1  -6   35.98    4.07
  -5   1  -6   19.26    2.78
  -4   1  -6    5.19    1.50
  -3   1  -6   92.16    5.31
  -2   1  -6   27.62    2.41
  -1   1  -6   31.88    2.54
   0   1  -6   32.23    2.40
   1   1  -6   31.11    2.31
   2   1  -6    0.35    0.80
   3   1  -6   11.54    1.83
   4   1  -6   29.97    3.11
   5   1  -6   55.38    4.40
   6   1  -6    7.28    1.65
   7   1  -6    7.72    2.00
   8   1  -6    5.98    1.87
   9   1  -6    0.01    1.30
  10   1  -6    7.96    2.45
 -11   2  -6    2.75    2.11
 -10   2  -6   56.10    5.77
  -9   2  -6    1.21    1.42
  -8   2  -6    3.22    1.55
  -7   2  -6    7.49    1.94
  -6   2  -6   31.67    3.69
  -5   2  -6   24.12    3.13
  -4   2  -6    6.58    1.28
  -3   2  -6    1.07    0.75
  -2   2  -6   53.63    3.19
  -1   2  -6   30.74    2.46
   0   2  -6   51.25    3.00
   1   2  -6   92.60    3.96
   2   2  -6    5.24    1.38
   3   2  -6   16.35    2.45
   4   2  -6    2.78    1.17
   5   2  -6   20.60    3.08
   6   2  -6   14.96    2.66
   7   2  -6    1.98    1.51
   8   2  -6    7.48    2.31
   9   2  -6    3.70    1.92
 -12   3  -6   -0.88    3.27
 -11   3  -6   -0.31    1.65
 -10   3  -6    1.90    1.67
  -9   3  -6   12.98    2.84
  -8   3  -6    4.62    1.78
  -7   3  -6   73.92    5.99
  -6   3  -6   42.90    3.41
  -5   3  -6   15.85    1.99
  -4   3  -6    9.81    1.56
  -3   3  -6   10.16    1.34
  -2   3  -6   93.93    4.08
  -1   3  -6    0.56    0.65
   0   3  -6    8.81    1.33
   1   3  -6    4.63    1.05
   2   3  -6   25.17    3.06
   3   3  -6   37.31    3.77
   4   3  -6    3.69    1.32
   5   3  -6    3.35    1.47
   6   3  -6   25.82    3.53
   7   3  -6    4.57    1.98
   8   3  -6    1.77    1.74
   9   3  -6    3.68    3.02
 -12   4  -6   12.66    3.13
 -11   4  -6   16.02    3.36
 -10   4  -6   46.97    5.19
  -9   4  -6    3.76    1.53
  -8   4  -6    3.71    1.29
  -7   4  -6    1.49    0.93
  -6   4  -6    4.23    1.22
  -5   4  -6   28.66    2.67
  -4   4  -6    4.21    1.06
  -3   4  -6    4.18    1.07
  -2   4  -6    6.47    1.22
  -1   4  -6   11.84    1.56
   0   4  -6    4.55    1.00
   1   4  -6   14.58    1.77
   2   4  -6   34.26    2.82
   3   4  -6   59.90    5.13
   4   4  -6    7.49    1.97
   5   4  -6    4.72    1.64
   6   4  -6    0.08    1.33
   7   4  -6   55.86    5.66
   8   4  -6    2.67    2.03
 -12   5  -6    1.87    1.49
 -11   5  -6    3.02    1.47
 -10   5  -6    6.23    1.64
  -9   5  -6    4.67    1.43
  -8   5  -6    2.85    1.24
  -7   5  -6   19.48    2.39
  -6   5  -6   58.43    3.93
  -5   5  -6   34.66    2.83
  -4   5  -6   15.27    1.87
  -3   5  -6   22.18    2.22
  -2   5  -6   16.39    1.81
  -1   5  -6   26.51    2.39
   0   5  -6   32.67    2.64
   1   5  -6   39.22    3.04
   2   5  -6    4.08    1.10
   3   5  -6    2.53    1.23
   4   5  -6    4.04    1.62
   5   5  -6    7.96    2.19
   6   5  -6    0.53    2.16
   7   5  -6   12.05    3.96
 -12   6  -6    8.25    2.01
 -11   6  -6    0.79    1.19
 -10   6  -6    4.51    1.47
  -9   6  -6   21.55    2.70
  -8   6  -6   16.37    2.22
  -7   6  -6    6.77    1.43
  -6   6  -6    2.89    1.11
  -5   6  -6   44.93    3.31
  -4   6  -6   27.66    2.54
  -3   6  -6   36.21    2.91
  -2   6  -6    3.98    1.31
  -1   6  -6   46.60    4.26
   0   6  -6    3.10    1.24
   1   6  -6    3.58    1.38
   2   6  -6    1.89    1.27
   3   6  -6   11.22    3.54
   4   6  -6   47.16    7.76
   5   6  -6    0.42    2.37
   6   6  -6    2.45    2.98
 -12   7  -6    7.29    2.36
 -11   7  -6   49.19    7.94
 -10   7  -6    7.24    2.14
  -9   7  -6    0.63    1.12
  -8   7  -6    6.84    1.78
  -7   7  -6    0.30    1.09
  -6   7  -6    2.77    1.44
  -5   7  -6    3.01    1.35
  -4   7  -6   80.04    5.14
  -3   7  -6    2.95    1.22
  -2   7  -6   24.79    2.43
  -1   7  -6    7.87    1.82
   0   7  -6    4.08    1.54
   1   7  -6   18.60    2.78
   2   7  -6    0.70    1.15
   3   7  -6    3.03    2.35
   4   7  -6   10.52    3.76
   5   7  -6    0.61    2.20
 -12   8  -6    3.71    1.82
 -11   8  -6    1.77    1.49
 -10   8  -6    3.92    1.84
  -9   8  -6    5.71    1.74
  -8   8  -6   40.79    4.36
  -7   8  -6   10.91    2.31
  -6   8  -6    1.25    1.09
  -5   8  -6    3.08    1.31
  -4   8  -6    4.81    1.53
  -3   8  -6    4.65    1.25
  -2   8  -6   12.75    1.78
  -1   8  -6    5.79    1.66
   0   8  -6   29.54    3.58
   1   8  -6   29.82    3.78
   2   8  -6   37.09    4.42
   3   8  -6    1.42    2.15
   4   8  -6   13.55    4.68
 -12   9  -6   -1.30    1.70
 -11   9  -6    2.83    1.72
 -10   9  -6    2.03    1.44
  -9   9  -6    5.75    1.89
  -8   9  -6   25.11    3.51
  -7   9  -6   -0.04    0.98
  -6   9  -6    9.65    2.18
  -5   9  -6    3.49    1.19
  -4   9  -6    4.51    1.26
  -3   9  -6   18.72    2.11
  -2   9  -6    1.58    1.20
  -1   9  -6    7.27    2.03
   0   9  -6    8.08    2.16
   1   9  -6    3.76    1.73
   2   9  -6    4.28    1.96
 -11  10  -6    5.60    1.90
 -10  10  -6    6.12    2.08
  -9  10  -6    2.81    1.71
  -8  10  -6   34.74    3.43
  -7  10  -6    1.19    1.04
  -6  10  -6   40.83    3.61
  -5  10  -6    9.49    1.77
  -4  10  -6    1.08    1.06
  -3  10  -6    6.98    2.04
  -2  10  -6    5.51    1.81
  -1  10  -6   -0.59    1.28
   0  10  -6    8.10    2.22
   1  10  -6    0.37    1.53
   2  10  -6    6.00    3.04
 -11  11  -6   -0.10    2.24
 -10  11  -6   -0.36    1.14
  -9  11  -6    1.09    1.33
  -8  11  -6   -0.51    0.92
  -7  11  -6   14.80    2.26
  -6  11  -6    0.83    1.06
  -5  11  -6    2.67    1.16
  -4  11  -6   57.29    4.37
  -3  11  -6    1.47    1.48
  -2  11  -6    2.60    1.66
  -1  11  -6    5.80    2.12
   0  11  -6    2.74    2.30
 -10  12  -6    4.96    3.34
  -9  12  -6   -0.28    2.20
  -8  12  -6   12.53    2.30
  -7  12  -6    0.26    1.21
  -6  12  -6   11.22    2.14
  -5  12  -6   13.25    2.24
  -4  12  -6    7.34    2.17
  -3  12  -6    1.26    2.26
  -2  12  -6    4.39    3.18
   2 -13  -5   14.09    5.21
   3 -13  -5    1.71    2.25
   4 -13  -5   16.32    3.90
   5 -13  -5   -0.07    1.83
   6 -13  -5    1.85    2.22
   7 -13  -5   -1.03    1.86
   8 -13  -5    1.14    1.99
   9 -13  -5    1.08    2.33
  10 -13  -5    2.39    2.68
   1 -12  -5    0.85    4.09
   2 -12  -5    4.10    2.47
   3 -12  -5    3.08    2.24
   4 -12  -5    5.15    2.54
   5 -12  -5    0.62    1.79
   6 -12  -5    3.97    2.27
   7 -12  -5   26.09    4.84
   8 -12  -5   28.48    5.02
   9 -12  -5    0.67    1.90
  10 -12  -5    1.80    1.99
  11 -12  -5    0.28    1.86
  -1 -11  -5    1.32    4.12
   0 -11  -5    4.16    5.04
   1 -11  -5   12.23    4.05
   2 -11  -5    1.97    1.91
   3 -11  -5   13.44    3.37
   4 -11  -5    6.54    2.60
   5 -11  -5   21.71    4.10
   6 -11  -5    2.82    1.99
   7 -11  -5    8.48    2.96
   8 -11  -5   15.10    3.82
   9 -11  -5    1.77    1.89
  10 -11  -5    9.43    3.36
  11 -11  -5   24.82    5.04
  12 -11  -5    0.11    1.93
  -2 -10  -5    3.20    5.28
  -1 -10  -5    2.53    4.95
   0 -10  -5   22.15    8.89
   1 -10  -5   31.35    4.79
   2 -10  -5    5.88    2.27
   3 -10  -5   24.23    4.15
   4 -10  -5    6.75    2.39
   5 -10  -5    0.56    1.25
   6 -10  -5   10.31    2.89
   7 -10  -5    1.23    1.37
   8 -10  -5   26.31    4.58
   9 -10  -5    5.17    2.57
  10 -10  -5   62.81    7.32
  11 -10  -5    8.60    2.84
  12 -10  -5    4.74    2.72
  -4  -9  -5    4.95    6.15
  -3  -9  -5    0.75    4.43
  -2  -9  -5    1.35    3.46
  -1  -9  -5    3.95    3.97
   0  -9  -5    2.20    3.44
   1  -9  -5    7.32    2.45
   2  -9  -5   12.99    2.88
   3  -9  -5    0.30    1.36
   4  -9  -5   41.08    3.77
   5  -9  -5    4.93    1.35
   6  -9  -5   12.71    2.13
   7  -9  -5   11.15    2.09
   8  -9  -5   15.58    2.48
   9  -9  -5    4.34    1.54
  10  -9  -5   37.97    4.02
  11  -9  -5    1.70    1.41
  12  -9  -5    3.82    1.83
  13  -9  -5   27.98    3.68
  -5  -8  -5    0.15    3.46
  -4  -8  -5   25.28    4.61
  -3  -8  -5   20.45    3.94
  -2  -8  -5   21.63    4.00
  -1  -8  -5   13.22    2.81
   0  -8  -5    2.03    1.70
   1  -8  -5   14.31    2.11
   2  -8  -5   65.01    4.33
   3  -8  -5   88.49    4.72
   4  -8  -5   40.19    3.56
   5  -8  -5    4.31    1.30
   6  -8  -5   33.72    3.35
   7  -8  -5    2.37    1.14
   8  -8  -5    3.76    1.30
   9  -8  -5    7.32    1.69
  10  -8  -5    7.63    1.91
  11  -8  -5   16.52    2.75
  12  -8  -5   11.69    2.51
  13  -8  -5    0.35    2.03
  -7  -7  -5   24.44    5.81
  -6  -7  -5    0.83    2.01
  -5  -7  -5   29.40    4.98
  -4  -7  -5   13.62    2.77
  -3  -7  -5    0.66    1.56
  -2  -7  -5    9.81    2.77
  -1  -7  -5    2.94    1.61
   0  -7  -5    6.84    1.67
   1  -7  -5    7.38    1.42
   2  -7  -5   39.77    3.52
   3  -7  -5   22.01    2.47
   4  -7  -5   22.06    2.47
   5  -7  -5   19.48    2.45
   6  -7  -5  187.64    7.62
   7  -7  -5    9.97    1.89
   8  -7  -5   16.40    2.45
   9  -7  -5   14.85    2.44
  10  -7  -5   22.77    3.05
  11  -7  -5    8.54    2.08
  12  -7  -5    0.21    1.85
  13  -7  -5    0.38    2.17
  -7  -6  -5    1.32    2.44
  -6  -6  -5    2.56    2.14
  -5  -6  -5    8.05    2.60
  -4  -6  -5   12.31    2.95
  -3  -6  -5   16.50    3.36
  -2  -6  -5   19.75    3.65
  -1  -6  -5  169.05   11.46
   0  -6  -5    1.44    0.89
   1  -6  -5   38.81    3.27
   2  -6  -5    6.97    1.47
   3  -6  -5   25.27    2.58
   4  -6  -5    3.62    1.15
   5  -6  -5    2.35    0.98
   6  -6  -5    0.96    0.90
   7  -6  -5    8.54    1.75
   8  -6  -5   71.76    5.30
   9  -6  -5    1.54    1.10
  10  -6  -5    4.95    1.58
  11  -6  -5   18.38    3.68
  12  -6  -5    2.39    1.93
  13  -6  -5    1.17    2.16
  -8  -5  -5   -0.62    1.64
  -7  -5  -5    2.93    1.79
  -6  -5  -5   20.39    3.28
  -5  -5  -5    0.53    1.21
  -4  -5  -5    5.03    1.61
  -3  -5  -5    6.65    1.58
  -2  -5  -5   14.21    2.16
  -1  -5  -5    4.13    1.67
   0  -5  -5   37.06    3.21
   1  -5  -5    2.43    1.00
   2  -5  -5   85.03    4.28
   3  -5  -5    2.90    0.97
   4  -5  -5  124.68    5.61
   5  -5  -5   37.18    3.28
   6  -5  -5   33.26    3.21
   7  -5  -5   38.05    3.57
   8  -5  -5   77.27    5.33
   9  -5  -5   35.01    3.61
  10  -5  -5    0.05    1.39
  11  -5  -5    5.29    2.22
  12  -5  -5   34.92    5.30
  13  -5  -5    0.94    2.32
  -9  -4  -5   21.74    3.62
  -8  -4  -5   10.47    2.60
  -7  -4  -5    7.33    2.10
  -6  -4  -5    5.38    1.71
  -5  -4  -5   33.58    3.51
  -4  -4  -5   47.53    4.13
  -3  -4  -5   17.82    2.38
  -2  -4  -5    4.28    1.28
  -1  -4  -5  131.29    5.62
   0  -4  -5    1.87    0.68
   1  -4  -5  134.32    4.56
   2  -4  -5    4.99    0.87
   3  -4  -5    7.51    1.08
   4  -4  -5    2.64    0.76
   5  -4  -5    3.55    0.88
   6  -4  -5    7.38    1.37
   7  -4  -5   24.07    2.81
   8  -4  -5   50.90    5.56
   9  -4  -5    7.20    2.27
  10  -4  -5   10.09    2.82
  11  -4  -5   18.86    3.94
  12  -4  -5   23.13    4.29
  13  -4  -5    3.46    2.56
 -10  -3  -5    2.43    2.65
  -9  -3  -5    0.46    1.56
  -8  -3  -5   15.50    2.91
  -7  -3  -5   28.33    3.56
  -6  -3  -5    1.34    1.06
  -5  -3  -5   87.45    4.93
  -4  -3  -5   19.23    2.54
  -3  -3  -5   25.37    2.79
  -2  -3  -5    3.64    1.03
  -1  -3  -5    9.55    1.48
   0  -3  -5  106.60    4.74
   1  -3  -5   43.56    2.35
   2  -3  -5   78.07    3.15
   3  -3  -5  104.09    3.93
   4  -3  -5  131.44    4.66
   5  -3  -5   84.90    3.65
   6  -3  -5   23.65    2.24
   7  -3  -5   21.95    2.57
   8  -3  -5    3.82    1.32
   9  -3  -5   10.85    2.01
  10  -3  -5    0.65    1.12
  11  -3  -5   15.47    2.66
  12  -3  -5    0.13    2.01
  13  -3  -5    1.67    5.60
 -10  -2  -5    4.46    2.10
  -9  -2  -5    4.77    1.91
  -8  -2  -5    3.63    1.63
  -7  -2  -5   17.76    2.79
  -6  -2  -5   67.52    5.21
  -5  -2  -5   41.43    3.79
  -4  -2  -5    9.46    1.76
  -3  -2  -5   92.02    4.52
  -2  -2  -5    6.30    1.33
  -1  -2  -5   76.45    3.88
   0  -2  -5   21.60    2.16
   1  -2  -5   18.15    1.55
   2  -2  -5   20.16    1.71
   3  -2  -5   44.41    2.54
   4  -2  -5    7.53    1.19
   5  -2  -5    3.48    1.08
   6  -2  -5    4.64    1.22
   7  -2  -5   14.78    2.20
   8  -2  -5   26.36    3.13
   9  -2  -5    9.14    1.84
  10  -2  -5   15.79    2.75
  11  -2  -5    1.87    1.62
  12  -2  -5    0.81    1.65
  13  -2  -5    0.89    2.87
 -11  -1  -5    0.23    1.72
 -10  -1  -5   14.03    2.84
  -9  -1  -5   38.01    4.28
  -8  -1  -5    5.79    1.83
  -7  -1  -5   19.66    2.86
  -6  -1  -5    9.90    1.92
  -5  -1  -5   37.11    3.55
  -4  -1  -5    2.94    1.04
  -3  -1  -5  129.57    5.69
  -2  -1  -5   45.32    3.28
  -1  -1  -5   19.19    2.09
   0  -1  -5   40.65    2.73
   1  -1  -5   42.96    1.80
   2  -1  -5   19.63    1.53
   3  -1  -5   75.62    3.84
   4  -1  -5    7.75    1.25
   5  -1  -5  118.85    5.50
   6  -1  -5    3.58    1.16
   7  -1  -5  174.92    7.58
   8  -1  -5    2.56    1.19
   9  -1  -5   15.76    2.52
  10  -1  -5    9.25    2.24
  11  -1  -5    2.73    1.78
  12  -1  -5    0.64    1.65
 -12   0  -5   15.69   13.25
 -11   0  -5   18.06    3.14
 -10   0  -5   47.29    4.98
  -9   0  -5    4.32    1.78
  -8   0  -5    2.82    1.39
  -7   0  -5    5.37    1.52
  -6   0  -5    2.59    1.14
  -5   0  -5   38.97    3.50
  -4   0  -5    2.85    1.05
  -3   0  -5  104.14    4.84
  -2   0  -5   20.50    2.25
  -1   0  -5   46.41    2.90
   0   0  -5   -0.25    0.38
   1   0  -5   38.54    1.99
   2   0  -5   18.95    1.55
   3   0  -5  100.34    4.66
   4   0  -5    1.32    0.77
   5   0  -5   34.56    3.19
   6   0  -5    1.72    1.07
   7   0  -5    8.84    1.90
   8   0  -5    2.68    1.36
   9   0  -5    4.84    1.61
  10   0  -5   43.37    4.97
  11   0  -5   20.44    3.54
  12   0  -5   11.70    5.30
 -12   1  -5    4.02    2.23
 -11   1  -5    8.97    2.69
 -10   1  -5    3.59    1.82
  -9   1  -5   15.57    2.41
  -8   1  -5    1.63    1.12
  -7   1  -5  169.03    7.52
  -6   1  -5    3.92    1.21
  -5   1  -5  120.85    5.61
  -4   1  -5    8.51    1.50
  -3   1  -5   81.15    3.99
  -2   1  -5   18.84    1.66
  -1   1  -5   42.26    2.23
   0   1  -5   40.53    2.13
   1   1  -5   18.45    1.51
   2   1  -5   46.34    2.36
   3   1  -5  133.49    4.54
   4   1  -5    4.50    1.22
   5   1  -5   31.00    3.13
   6   1  -5   13.24    2.16
   7   1  -5   20.55    2.73
   8   1  -5    6.61    1.80
   9   1  -5   33.17    4.21
  10   1  -5    5.16    2.19
  11   1  -5   -0.58    1.59
 -12   2  -5    6.57    2.35
 -11   2  -5    4.32    2.00
 -10   2  -5   16.65    3.13
  -9   2  -5    8.71    2.22
  -8   2  -5   26.28    3.30
  -7   2  -5   13.98    2.42
  -6   2  -5    5.74    1.51
  -5   2  -5    3.93    1.22
  -4   2  -5    8.46    1.46
  -3   2  -5   41.40    2.55
  -2   2  -5   18.06    1.61
  -1   2  -5   18.57    1.56
   0   2  -5   17.18    1.49
   1   2  -5   79.06    3.07
   2   2  -5    7.48    1.07
   3   2  -5   89.15    3.48
   4   2  -5    5.78    1.29
   5   2  -5   38.06    3.49
   6   2  -5   65.52    4.85
   7   2  -5    8.14    1.84
   8   2  -5    4.17    1.80
   9   2  -5    1.31    1.70
  10   2  -5    5.68    2.28
 -13   3  -5    4.58    3.79
 -12   3  -5    1.40    1.82
 -11   3  -5   18.58    3.30
 -10   3  -5    0.36    1.37
  -9   3  -5    8.82    2.21
  -8   3  -5    2.26    1.28
  -7   3  -5   24.27    3.11
  -6   3  -5   21.82    2.93
  -5   3  -5   83.67    4.88
  -4   3  -5  124.96    5.02
  -3   3  -5  101.21    4.20
  -2   3  -5   69.82    3.30
  -1   3  -5   44.26    2.40
   0   3  -5   99.74    4.06
   1   3  -5   11.57    1.41
   2   3  -5    4.83    0.95
   3   3  -5   26.22    2.24
   4   3  -5   20.28    2.19
   5   3  -5   80.48    5.49
   6   3  -5    2.93    1.39
   7   3  -5   19.45    3.12
   8   3  -5   14.89    2.83
   9   3  -5    0.28    1.44
  10   3  -5    2.85    2.85
 -13   4  -5    5.28    2.15
 -12   4  -5   34.99    4.60
 -11   4  -5   11.98    2.69
 -10   4  -5    7.70    2.12
  -9   4  -5    4.24    1.76
  -8   4  -5   42.84    4.35
  -7   4  -5   26.96    3.13
  -6   4  -5    5.58    1.18
  -5   4  -5    3.04    0.85
  -4   4  -5    1.55    0.71
  -3   4  -5    8.71    1.30
  -2   4  -5    6.93    1.12
  -1   4  -5  122.23    4.77
   0   4  -5    1.42    0.64
   1   4  -5  116.47    4.75
   2   4  -5    3.01    0.86
   3   4  -5   17.75    1.98
   4   4  -5   38.14    3.13
   5   4  -5   32.87    3.79
   6   4  -5    4.34    1.68
   7   4  -5    8.67    2.22
   8   4  -5    8.95    2.45
   9   4  -5   22.05    3.78
 -13   5  -5    0.28    1.77
 -12   5  -5   25.48    3.90
 -11   5  -5    5.12    2.01
 -10   5  -5    0.66    1.30
  -9   5  -5   36.81    3.19
  -8   5  -5   79.10    4.36
  -7   5  -5   39.27    3.15
  -6   5  -5   35.18    2.85
  -5   5  -5   33.82    2.61
  -4   5  -5  116.59    4.80
  -3   5  -5    1.75    0.73
  -2   5  -5   83.65    3.64
  -1   5  -5    4.09    0.87
   0   5  -5   33.94    2.55
   1   5  -5    4.45    1.01
   2   5  -5   14.66    1.77
   3   5  -5    5.30    1.23
   4   5  -5    3.82    1.17
   5   5  -5   -0.74    1.06
   6   5  -5   18.44    3.19
   7   5  -5    0.78    1.48
   8   5  -5   -1.43    1.98
 -13   6  -5   -0.10    1.29
 -12   6  -5    2.79    1.37
 -11   6  -5   17.02    2.34
 -10   6  -5    3.85    1.28
  -9   6  -5    0.95    0.93
  -8   6  -5   73.22    4.57
  -7   6  -5    9.81    1.51
  -6   6  -5    0.35    0.67
  -5   6  -5    3.13    0.92
  -4   6  -5    3.74    0.92
  -3   6  -5   23.65    2.06
  -2   6  -5    7.04    1.10
  -1   6  -5   34.23    2.20
   0   6  -5    1.99    0.66
   1   6  -5  172.21    6.91
   2   6  -5   23.15    3.04
   3   6  -5   13.89    2.36
   4   6  -5   11.34    2.48
   5   6  -5   10.07    4.02
   6   6  -5    0.07    2.19
   7   6  -5    1.05    1.96
 -13   7  -5    1.18    1.56
 -12   7  -5    0.79    1.40
 -11   7  -5    8.77    2.26
 -10   7  -5   15.43    2.70
  -9   7  -5   14.19    2.52
  -8   7  -5   11.64    2.19
  -7   7  -5    9.29    1.98
  -6   7  -5  170.62    8.22
  -5   7  -5    9.80    1.87
  -4   7  -5   20.74    2.64
  -3   7  -5   17.05    2.39
  -2   7  -5   34.94    2.81
  -1   7  -5   11.18    1.56
   0   7  -5    8.69    1.89
   1   7  -5    3.23    1.29
   2   7  -5    9.17    2.15
   3   7  -5   -0.27    1.19
   4   7  -5    8.06    2.23
   5   7  -5   26.94    6.33
   6   7  -5    2.30    2.50
 -13   8  -5   -1.75    1.24
 -12   8  -5    6.55    2.14
 -11   8  -5   11.48    2.47
 -10   8  -5    7.94    1.98
  -9   8  -5    8.58    2.01
  -8   8  -5    1.07    1.06
  -7   8  -5    2.97    1.32
  -6   8  -5   29.82    3.40
  -5   8  -5    4.89    1.41
  -4   8  -5   43.66    3.28
  -3   8  -5   81.12    4.03
  -2   8  -5   65.19    3.85
  -1   8  -5   13.19    1.58
   0   8  -5    2.56    1.34
   1   8  -5   15.82    2.69
   2   8  -5   19.34    3.06
   3   8  -5   15.96    2.92
   4   8  -5   32.33    4.46
   5   8  -5    1.95    2.49
 -13   9  -5   19.54    3.27
 -12   9  -5    1.46    1.42
 -11   9  -5    2.27    1.41
 -10   9  -5   33.69    3.97
  -9   9  -5    3.51    1.50
  -8   9  -5   18.62    2.94
  -7   9  -5    9.37    2.10
  -6   9  -5   11.31    1.83
  -5   9  -5    4.88    1.20
  -4   9  -5   31.74    2.89
  -3   9  -5    0.94    0.78
  -2   9  -5   10.73    1.74
  -1   9  -5    7.32    1.78
   0   9  -5    3.36    1.49
   1   9  -5    5.99    1.97
   2   9  -5   -0.03    1.29
   3   9  -5    2.15    1.70
   4   9  -5    3.79    2.06
 -13  10  -5    0.75    1.51
 -12  10  -5    6.14    2.04
 -11  10  -5    8.82    2.28
 -10  10  -5   36.98    4.29
  -9  10  -5    4.28    1.39
  -8  10  -5   20.95    2.59
  -7  10  -5    1.50    0.97
  -6  10  -5   11.86    1.67
  -5  10  -5    1.15    0.87
  -4  10  -5    5.02    1.32
  -3  10  -5   25.98    2.64
  -2  10  -5    5.31    1.32
  -1  10  -5   30.54    3.86
   0  10  -5   48.49    4.99
   1  10  -5   11.45    2.60
   2  10  -5    4.23    2.12
   3  10  -5    5.42    2.26
 -12  11  -5    0.00    1.13
 -11  11  -5   20.20    2.76
 -10  11  -5    7.84    1.78
  -9  11  -5    1.69    1.20
  -8  11  -5   16.46    2.31
  -7  11  -5   10.54    1.85
  -6  11  -5    3.24    1.18
  -5  11  -5   19.74    2.42
  -4  11  -5    7.16    1.59
  -3  11  -5   13.96    2.02
  -2  11  -5    1.85    1.43
  -1  11  -5   13.14    2.54
   0  11  -5   20.30    3.30
   1  11  -5    1.30    1.70
 -11  12  -5    1.19    1.49
 -10  12  -5    3.46    1.74
  -9  12  -5    1.48    1.56
  -8  12  -5   26.24    3.61
  -7  12  -5   34.50    3.36
  -6  12  -5    2.89    1.19
  -5  12  -5    0.95    1.09
  -4  12  -5    9.08    1.76
  -3  12  -5    2.39    1.72
  -2  12  -5    7.70    2.17
  -1  12  -5   -1.23    1.44
   0  12  -5    9.21    3.68
  -9  13  -5    4.34    1.86
  -8  13  -5    1.00    1.39
  -7  13  -5    0.62    1.23
  -6  13  -5    1.76    1.37
  -5  13  -5   -0.20    1.39
  -4  13  -5   15.55    2.99
   3 -14  -4    3.59    3.09
   4 -14  -4   -0.65    1.86
   5 -14  -4    2.32    2.27
   6 -14  -4    3.22    2.52
   7 -14  -4   13.10    2.82
   8 -14  -4   18.34    3.05
   9 -14  -4    8.02    2.42
  10 -14  -4    0.40    2.45
  11 -14  -4    8.57    6.58
   1 -13  -4    2.68    2.40
   2 -13  -4    0.99    2.10
   3 -13  -4    7.78    3.03
   4 -13  -4   13.60    3.66
   5 -13  -4   20.29    3.96
   6 -13  -4    5.94    2.04
   7 -13  -4   14.32    2.69
   8 -13  -4    0.04    1.39
   9 -13  -4    7.26    2.31
  10 -13  -4    3.21    2.24
  11 -13  -4    1.12    2.04
  12 -13  -4    2.79    4.91
  -1 -12  -4    0.36    1.99
   0 -12  -4    2.40    2.29
   1 -12  -4    1.92    2.06
   2 -12  -4    2.27    1.95
   3 -12  -4    0.23    1.81
   4 -12  -4    1.08    1.69
   5 -12  -4    2.11    1.30
   6 -12  -4    7.00    1.88
   7 -12  -4   11.87    2.43
   8 -12  -4    1.19    1.32
   9 -12  -4    2.88    2.13
  10 -12  -4  108.42    8.38
  11 -12  -4    4.54    2.50
  12 -12  -4    3.42    2.35
  13 -12  -4    8.12    5.93
  -2 -11  -4    1.51    4.38
  -1 -11  -4   -0.45    1.81
   0 -11  -4    0.99    1.83
   1 -11  -4    2.19    1.75
   2 -11  -4   21.72    4.07
   3 -11  -4   23.84    4.02
   4 -11  -4    0.88    1.08
   5 -11  -4   32.39    3.53
   6 -11  -4   33.76    3.72
   7 -11  -4   30.91    3.64
   8 -11  -4   10.28    3.14
   9 -11  -4    5.16    2.29
  10 -11  -4    1.32    1.56
  11 -11  -4    0.89    1.87
  12 -11  -4    2.69    2.10
  13 -11  -4    4.72    2.65
  -4 -10  -4   -0.70    4.67
  -3 -10  -4    1.20    3.97
  -2 -10  -4   84.21    9.95
  -1 -10  -4    0.08    1.39
   0 -10  -4    3.26    2.08
   1 -10  -4   11.09    2.95
   2 -10  -4    7.58    2.37
   3 -10  -4    0.46    1.32
   4 -10  -4    9.40    1.84
   5 -10  -4    2.13    1.23
   6 -10  -4  100.19    5.85
   7 -10  -4   18.10    3.60
   8 -10  -4    5.24    1.97
   9 -10  -4   17.25    3.62
  10 -10  -4    4.28    2.27
  11 -10  -4    8.23    2.91
  12 -10  -4    2.82    2.14
  13 -10  -4   10.63    3.15
  14 -10  -4    0.62    3.68
  -5  -9  -4    2.80    5.03
  -4  -9  -4    3.95    4.60
  -3  -9  -4    3.28    4.22
  -2  -9  -4    2.22    1.77
  -1  -9  -4   15.79    3.25
   0  -9  -4    0.92    1.48
   1  -9  -4   10.11    2.47
   2  -9  -4   56.29    6.02
   3  -9  -4   69.03    4.63
   4  -9  -4    0.18    0.88
   5  -9  -4   31.56    3.34
   6  -9  -4    0.99    1.27
   7  -9  -4   25.18    2.73
   8  -9  -4    4.78    1.40
   9  -9  -4    0.69    1.00
  10  -9  -4   11.87    2.18
  11  -9  -4   26.41    3.34
  12  -9  -4    2.06    1.45
  13  -9  -4   13.19    2.72
  14  -9  -4   -0.91    2.03
  -6  -8  -4   10.43    7.34
  -5  -8  -4   -0.99    3.11
  -4  -8  -4    2.62    2.34
  -3  -8  -4    4.15    2.06
  -2  -8  -4    4.10    1.45
  -1  -8  -4    6.81    1.62
   0  -8  -4   48.87    3.77
   1  -8  -4    9.98    1.78
   2  -8  -4    0.73    0.65
   3  -8  -4    4.18    0.97
   4  -8  -4   35.39    2.63
   5  -8  -4   25.32    2.63
   6  -8  -4   45.04    3.63
   7  -8  -4   60.83    3.87
   8  -8  -4   54.76    4.28
   9  -8  -4    8.37    1.77
  10  -8  -4   10.20    2.04
  11  -8  -4   36.89    3.86
  12  -8  -4    1.70    1.32
  13  -8  -4   33.29    4.02
  14  -8  -4    4.62    2.64
  -7  -7  -4   20.93    4.44
  -6  -7  -4    8.72    3.06
  -5  -7  -4    6.40    2.45
  -4  -7  -4   26.71    3.98
  -3  -7  -4   19.06    2.63
  -2  -7  -4   24.29    2.71
  -1  -7  -4   58.43    3.97
   0  -7  -4    1.38    0.87
   1  -7  -4    7.67    1.43
   2  -7  -4   14.49    1.85
   3  -7  -4   18.11    2.10
   4  -7  -4   72.11    3.80
   5  -7  -4    3.61    1.10
   6  -7  -4   86.24    4.31
   7  -7  -4    1.86    0.94
   8  -7  -4   12.57    2.03
   9  -7  -4   55.45    4.45
  10  -7  -4    0.62    1.09
  11  -7  -4    0.33    1.23
  12  -7  -4    1.26    1.35
  13  -7  -4    6.94    2.58
  14  -7  -4   19.41    4.18
  -8  -6  -4    5.27    2.73
  -7  -6  -4    8.31    3.00
  -6  -6  -4    5.91    2.34
  -5  -6  -4   47.75    5.85
  -4  -6  -4   88.54    7.59
  -3  -6  -4    4.92    1.10
  -2  -6  -4   42.23    3.36
  -1  -6  -4   80.34    4.22
   0  -6  -4   10.76    1.57
   1  -6  -4   65.77    3.61
   2  -6  -4   20.33    2.15
   3  -6  -4   50.24    3.25
   4  -6  -4    5.60    1.23
   5  -6  -4   16.44    2.03
   6  -6  -4    9.85    1.68
   7  -6  -4    7.38    1.51
   8  -6  -4    2.12    1.05
   9  -6  -4   75.07    4.66
  10  -6  -4    7.22    1.81
  11  -6  -4   38.37    3.98
  12  -6  -4    3.58    2.15
  13  -6  -4   12.69    3.28
  14  -6  -4   16.32    3.74
  -9  -5  -4    1.64    2.47
  -8  -5  -4   17.90    3.92
  -7  -5  -4    5.63    2.54
  -6  -5  -4   33.02    4.68
  -5  -5  -4   -0.12    1.24
  -4  -5  -4   31.23    3.22
  -3  -5  -4   25.61    2.17
  -2  -5  -4    2.26    0.74
  -1  -5  -4   14.28    1.48
   0  -5  -4    6.00    0.96
   1  -5  -4   35.92    2.06
   2  -5  -4   53.20    2.28
   3  -5  -4   23.50    2.26
   4  -5  -4   36.80    2.94
   5  -5  -4    5.86    1.33
   6  -5  -4   74.27    4.02
   7  -5  -4   12.95    1.98
   8  -5  -4    5.19    1.35
   9  -5  -4    1.70    1.03
  10  -5  -4    1.12    1.11
  11  -5  -4   44.89    5.48
  12  -5  -4    6.48    2.52
  13  -5  -4    0.33    1.81
  14  -5  -4    5.47    2.58
 -10  -4  -4   -0.70    2.34
  -9  -4  -4   13.56    3.90
  -8  -4  -4    0.46    1.70
  -7  -4  -4    2.22    1.82
  -6  -4  -4    4.86    2.04
  -5  -4  -4    0.28    1.26
  -4  -4  -4   26.46    2.92
  -3  -4  -4   69.27    3.22
  -2  -4  -4    7.00    1.07
  -1  -4  -4   35.31    2.04
   0  -4  -4   30.45    1.88
   1  -4  -4   34.41    1.96
   2  -4  -4  127.94    4.18
   3  -4  -4  136.19    4.40
   4  -4  -4   29.62    1.88
   5  -4  -4   42.33    2.44
   6  -4  -4   18.60    1.83
   7  -4  -4   15.91    1.74
   8  -4  -4   31.35    2.65
   9  -4  -4   28.30    3.17
  10  -4  -4   94.40    5.21
  11  -4  -4   27.42    3.41
  12  -4  -4    2.97    1.97
  13  -4  -4    7.14    2.79
 -10  -3  -4   15.85    4.01
  -9  -3  -4    2.20    2.07
  -8  -3  -4   32.41    5.15
  -7  -3  -4   -0.18    1.49
  -6  -3  -4   75.12    7.13
  -5  -3  -4    5.38    1.43
  -4  -3  -4   18.71    2.30
  -3  -3  -4   54.02    2.85
  -2  -3  -4   18.84    1.62
  -1  -3  -4  126.70    4.34
   0  -3  -4   67.89    2.70
   1  -3  -4    4.66    0.73
   2  -3  -4   40.48    1.99
   3  -3  -4   67.25    2.76
   4  -3  -4   35.34    2.11
   5  -3  -4   50.86    2.47
   6  -3  -4   56.32    2.94
   7  -3  -4   65.80    3.28
   8  -3  -4   25.23    2.74
   9  -3  -4    4.45    1.33
  10  -3  -4   14.39    2.42
  11  -3  -4    8.53    2.02
  12  -3  -4    1.68    1.43
  13  -3  -4    3.60    1.92
 -11  -2  -4    8.24    3.55
 -10  -2  -4    3.91    2.65
  -9  -2  -4   25.86    4.81
  -8  -2  -4    9.00    2.71
  -7  -2  -4   58.33    4.81
  -6  -2  -4    2.28    1.13
  -5  -2  -4   14.94    2.89
  -4  -2  -4   21.16    2.39
  -3  -2  -4   49.67    3.21
  -2  -2  -4  119.62    4.14
  -1  -2  -4   38.05    1.93
   0  -2  -4    7.03    0.87
   1  -2  -4   33.50    1.77
   2  -2  -4    5.77    0.63
   3  -2  -4    5.04    0.80
   4  -2  -4  124.64    4.36
   5  -2  -4   20.60    1.87
   6  -2  -4    8.40    1.54
   7  -2  -4    2.42    0.98
   8  -2  -4   40.52    3.70
   9  -2  -4   18.44    2.67
  10  -2  -4    4.30    1.53
  11  -2  -4    3.01    1.57
  12  -2  -4  101.92   11.54
  13  -2  -4    0.24    1.72
 -12  -1  -4    3.60    2.87
 -11  -1  -4    1.06    1.71
 -10  -1  -4    5.81    1.93
  -9  -1  -4   11.17    2.35
  -8  -1  -4    8.65    1.95
  -7  -1  -4   13.87    2.24
  -6  -1  -4    3.47    1.06
  -5  -1  -4   69.70    4.06
  -4  -1  -4   44.65    3.36
  -3  -1  -4   33.70    2.79
  -2  -1  -4    4.72    0.63
  -1  -1  -4   35.52    1.78
   0  -1  -4    3.15    0.57
   1  -1  -4    4.19    0.54
   2  -1  -4   35.72    1.46
   3  -1  -4   40.46    1.87
   4  -1  -4  130.78    5.36
   5  -1  -4   38.02    3.06
   6  -1  -4   15.55    2.12
   7  -1  -4   79.32    4.42
   8  -1  -4   57.88    4.55
   9  -1  -4    6.53    1.76
  10  -1  -4   14.40    2.51
  11  -1  -4    0.06    1.33
  12  -1  -4    0.73    1.54
  13  -1  -4    1.29    2.94
 -12   0  -4    3.09    2.09
 -11   0  -4    1.71    1.75
 -10   0  -4    5.51    1.88
  -9   0  -4    1.53    1.30
  -8   0  -4   50.26    4.33
  -7   0  -4    2.59    1.05
  -6   0  -4   13.00    1.92
  -5   0  -4    5.48    1.27
  -4   0  -4   29.03    2.62
  -3   0  -4   64.31    3.40
  -2   0  -4    7.92    1.19
  -1   0  -4    2.90    0.72
   0   0  -4  951.48   23.50
   1   0  -4    3.99    0.61
   2   0  -4    6.35    0.80
   3   0  -4   67.02    2.61
   4   0  -4   31.83    1.88
   5   0  -4    6.16    1.30
   6   0  -4   12.15    1.93
   7   0  -4    3.66    1.29
   8   0  -4   55.46    4.61
   9   0  -4    1.24    1.08
  10   0  -4    2.06    1.44
  11   0  -4   -0.26    1.46
  12   0  -4    3.36    2.02
 -13   1  -4    0.70    5.30
 -12   1  -4    0.68    1.28
 -11   1  -4   -0.80    1.14
 -10   1  -4    8.75    1.69
  -9   1  -4    4.03    1.45
  -8   1  -4   70.72    4.56
  -7   1  -4   82.57    4.58
  -6   1  -4   16.87    2.18
  -5   1  -4   39.86    3.24
  -4   1  -4  128.29    5.39
  -3   1  -4   37.95    2.68
  -2   1  -4   36.00    2.45
  -1   1  -4    2.89    0.61
   0   1  -4    3.45    0.61
   1   1  -4   34.15    1.82
   2   1  -4    3.94    0.67
   3   1  -4   33.22    1.95
   4   1  -4   40.12    2.41
   5   1  -4   63.16    2.96
   6   1  -4    5.88    1.41
   7   1  -4   11.27    1.95
   8   1  -4    6.37    1.72
   9   1  -4    5.67    1.72
  10   1  -4    7.84    2.24
  11   1  -4    1.39    1.69
  12   1  -4    2.72    2.00
 -13   2  -4    3.34    2.31
 -12   2  -4   92.55    7.54
 -11   2  -4    1.81    1.51
 -10   2  -4    2.92    1.41
  -9   2  -4   22.16    3.03
  -8   2  -4   38.13    3.68
  -7   2  -4    3.39    1.10
  -6   2  -4    7.73    1.39
  -5   2  -4   18.57    2.11
  -4   2  -4  127.55    5.08
  -3   2  -4    5.26    1.00
  -2   2  -4    8.23    0.95
  -1   2  -4   31.95    1.74
   0   2  -4    6.34    0.83
   1   2  -4   36.69    1.95
   2   2  -4  121.23    4.12
   3   2  -4   47.21    2.36
   4   2  -4   18.54    1.71
   5   2  -4   15.10    1.69
   6   2  -4    1.25    0.95
   7   2  -4   48.29    4.66
   8   2  -4    9.91    2.23
   9   2  -4   19.83    3.28
  10   2  -4    3.98    1.98
  11   2  -4    5.40    2.20
 -13   3  -4    5.12    2.39
 -12   3  -4    1.97    1.93
 -11   3  -4    9.34    2.68
 -10   3  -4   19.37    3.05
  -9   3  -4    3.15    1.34
  -8   3  -4   21.80    2.73
  -7   3  -4   69.95    4.10
  -6   3  -4   55.52    3.34
  -5   3  -4   54.42    3.15
  -4   3  -4   33.86    2.07
  -3   3  -4   69.32    2.63
  -2   3  -4   38.39    1.83
  -1   3  -4    5.15    0.76
   0   3  -4   66.01    2.56
   1   3  -4  131.62    4.27
   2   3  -4   21.66    1.42
   3   3  -4   49.81    2.56
   4   3  -4   14.79    1.56
   5   3  -4    3.43    0.95
   6   3  -4   65.70    4.35
   7   3  -4   -0.68    0.99
   8   3  -4   29.71    3.94
   9   3  -4    2.02    1.61
  10   3  -4    8.34    2.40
  11   3  -4    4.99    4.63
 -14   4  -4    1.79    2.10
 -13   4  -4   10.00    2.98
 -12   4  -4    1.77    1.64
 -11   4  -4   32.65    4.19
 -10   4  -4   85.70    5.97
  -9   4  -4   26.73    3.46
  -8   4  -4   29.73    3.39
  -7   4  -4   15.46    2.25
  -6   4  -4   18.59    2.34
  -5   4  -4   41.05    2.78
  -4   4  -4   30.80    2.27
  -3   4  -4  134.03    4.76
  -2   4  -4  122.13    4.48
  -1   4  -4   35.18    1.95
   0   4  -4   26.48    1.99
   1   4  -4   32.24    1.87
   2   4  -4   10.58    1.08
   3   4  -4   70.20    3.42
   4   4  -4   30.31    2.51
   5   4  -4    1.11    0.84
   6   4  -4    8.27    1.48
   7   4  -4    1.05    1.15
   8   4  -4   -1.05    1.20
   9   4  -4   16.61    3.16
  10   4  -4   -0.34    2.51
 -14   5  -4   10.76    3.11
 -13   5  -4    2.24    1.57
 -12   5  -4   10.08    2.49
 -11   5  -4   47.95    4.85
 -10   5  -4    1.18    1.07
  -9   5  -4    0.65    0.94
  -8   5  -4    4.59    1.32
  -7   5  -4   18.99    2.41
  -6   5  -4   68.94    3.32
  -5   5  -4    6.35    1.07
  -4   5  -4   35.58    2.25
  -3   5  -4   21.27    1.77
  -2   5  -4   45.78    2.36
  -1   5  -4   37.35    2.23
   0   5  -4    5.93    0.82
   1   5  -4   15.30    1.30
   2   5  -4    2.84    0.86
   3   5  -4   22.26    2.21
   4   5  -4   27.84    2.65
   5   5  -4    0.85    0.89
   6   5  -4   30.50    3.04
   7   5  -4    2.56    1.55
   8   5  -4   25.99    3.69
   9   5  -4    1.30    2.60
 -14   6  -4   20.25    3.87
 -13   6  -4    8.25    2.52
 -12   6  -4    4.52    1.92
 -11   6  -4   28.51    3.73
 -10   6  -4    6.14    1.40
  -9   6  -4   64.68    3.94
  -8   6  -4    2.09    0.94
  -7   6  -4    5.60    1.08
  -6   6  -4   16.59    1.71
  -5   6  -4   13.64    1.47
  -4   6  -4    7.98    1.12
  -3   6  -4   53.26    2.67
  -2   6  -4   17.28    1.56
  -1   6  -4   72.90    2.72
   0   6  -4   12.84    1.21
   1   6  -4   81.36    3.08
   2   6  -4   40.04    2.98
   3   6  -4    7.31    1.38
   4   6  -4   73.58    6.27
   5   6  -4   35.45    4.22
   6   6  -4    6.85    2.11
   7   6  -4   17.92    4.95
   8   6  -4    4.96    3.38
 -14   7  -4   10.91    2.75
 -13   7  -4    2.88    1.66
 -12   7  -4    5.22    1.75
 -11   7  -4    0.06    0.82
 -10   7  -4    1.48    0.91
  -9   7  -4   46.68    4.43
  -8   7  -4   10.34    2.02
  -7   7  -4    2.37    1.02
  -6   7  -4   84.12    4.72
  -5   7  -4    2.43    1.02
  -4   7  -4   62.48    3.97
  -3   7  -4   16.71    1.77
  -2   7  -4   14.00    1.58
  -1   7  -4    6.17    1.05
   0   7  -4    3.66    0.94
   1   7  -4   60.89    4.83
   2   7  -4   18.97    2.87
   3   7  -4   19.83    2.98
   4   7  -4   26.63    3.67
   5   7  -4    5.33    1.95
   6   7  -4   14.57    2.87
   7   7  -4   16.41    5.04
 -14   8  -4    4.41    2.07
 -13   8  -4   16.78    3.04
 -12   8  -4    0.81    1.15
 -11   8  -4   30.95    3.70
 -10   8  -4    6.63    1.79
  -9   8  -4    8.68    1.94
  -8   8  -4   51.88    4.48
  -7   8  -4   56.96    4.63
  -6   8  -4   41.17    3.82
  -5   8  -4   22.16    2.18
  -4   8  -4   32.59    2.63
  -3   8  -4    5.73    1.11
  -2   8  -4    1.12    0.74
  -1   8  -4    8.89    1.40
   0   8  -4   53.60    3.33
   1   8  -4    5.02    1.52
   2   8  -4    2.88    1.38
   3   8  -4   10.33    2.29
   4   8  -4    1.44    1.69
   5   8  -4    0.31    1.53
   6   8  -4   15.21    3.26
 -14   9  -4   -0.09    1.41
 -13   9  -4   11.02    2.51
 -12   9  -4    5.08    1.83
 -11   9  -4   20.51    4.35
 -10   9  -4    6.58    1.78
  -9   9  -4    1.62    1.11
  -8   9  -4    2.78    1.36
  -7   9  -4   20.42    2.29
  -6   9  -4    5.13    1.17
  -5   9  -4   31.43    2.72
  -4   9  -4    0.85    0.65
  -3   9  -4   71.14    3.61
  -2   9  -4   47.86    3.45
  -1   9  -4    6.52    1.33
   0   9  -4    1.00    1.03
   1   9  -4   17.95    2.88
   2   9  -4    2.13    1.44
   3   9  -4    1.44    1.55
   4   9  -4    6.99    2.34
   5   9  -4   11.76    2.96
 -14  10  -4    0.42    1.58
 -13  10  -4    9.15    1.90
 -12  10  -4    3.97    1.36
 -11  10  -4    4.91    1.35
 -10  10  -4    2.36    1.13
  -9  10  -4   17.36    2.30
  -8  10  -4    4.33    1.20
  -7  10  -4   18.62    2.11
  -6  10  -4   91.48    4.40
  -5  10  -4    1.43    0.82
  -4  10  -4    9.47    1.56
  -3  10  -4    1.11    0.80
  -2  10  -4   11.87    1.78
  -1  10  -4   10.27    1.73
   0  10  -4    1.60    1.33
   1  10  -4    0.72    1.22
   2  10  -4   81.10    7.15
   3  10  -4    5.76    2.23
   4  10  -4    1.13    1.93
 -14  11  -4    6.12    3.11
 -13  11  -4    2.32    1.73
 -12  11  -4    1.70    1.51
 -11  11  -4    1.68    1.49
 -10  11  -4   -0.80    0.93
  -9  11  -4    3.12    1.13
  -8  11  -4   11.38    1.82
  -7  11  -4   24.53    2.56
  -6  11  -4   35.32    3.09
  -5  11  -4   31.41    2.89
  -4  11  -4   -0.40    0.68
  -3  11  -4   40.91    3.26
  -2  11  -4   32.61    3.08
  -1  11  -4   10.90    2.48
   0  11  -4    2.62    1.58
   1  11  -4    5.84    2.20
   2  11  -4    1.47    1.91
   3  11  -4    3.23    3.09
 -13  12  -4    5.00    1.97
 -12  12  -4    1.28    1.44
 -11  12  -4    0.94    1.37
 -10  12  -4   98.23   10.91
  -9  12  -4    0.42    1.17
  -8  12  -4    2.48    1.47
  -7  12  -4    7.64    1.95
  -6  12  -4    5.10    1.64
  -5  12  -4    3.51    1.46
  -4  12  -4    1.27    1.20
  -3  12  -4    3.32    1.51
  -2  12  -4    2.86    2.10
  -1  12  -4    2.23    2.01
   0  12  -4    2.70    2.50
   1  12  -4    1.66    3.26
 -12  13  -4    0.63    2.11
 -11  13  -4    0.34    1.28
 -10  13  -4    1.79    1.57
  -9  13  -4    7.91    2.20
  -8  13  -4    0.54    1.36
  -7  13  -4   11.28    2.37
  -6  13  -4    6.79    2.06
  -5  13  -4   28.22    3.68
  -4  13  -4   10.05    2.27
  -3  13  -4    6.17    2.00
  -2  13  -4    2.54    2.60
 -10  14  -4   -0.88    2.14
  -9  14  -4    7.31    2.21
  -8  14  -4   19.62    3.30
  -7  14  -4   20.10    3.28
  -6  14  -4    1.82    1.66
  -5  14  -4    1.54    1.54
  -4  14  -4   -0.64    1.77
   7 -15  -3    2.67    2.16
   8 -15  -3    8.11    2.76
   9 -15  -3   -0.51    2.43
   2 -14  -3   10.01    3.29
   3 -14  -3    2.99    2.51
   4 -14  -3    5.37    2.49
   5 -14  -3   12.45    3.75
   6 -14  -3   15.03    2.78
   7 -14  -3   51.23    5.56
   8 -14  -3    3.00    1.62
   9 -14  -3    2.94    1.64
  10 -14  -3   24.54    3.66
  11 -14  -3    1.74    1.85
  12 -14  -3   18.96   11.58
   0 -13  -3    0.06    1.79
   1 -13  -3   11.14    3.68
   2 -13  -3   21.43    5.03
   3 -13  -3   32.47    5.28
   4 -13  -3   12.44    3.21
   5 -13  -3    0.07    1.21
   6 -13  -3    6.00    1.84
   7 -13  -3   34.74    4.34
   8 -13  -3   -0.30    1.11
   9 -13  -3    0.93    1.46
  10 -13  -3   34.57    4.50
  11 -13  -3    4.75    1.90
  12 -13  -3   18.42    4.27
  13 -13  -3    0.25    2.02
  -2 -12  -3   10.28    3.37
  -1 -12  -3   12.91    3.64
   0 -12  -3   12.25    3.48
   1 -12  -3    3.33    2.13
   2 -12  -3    8.49    2.87
   3 -12  -3    5.32    2.32
   4 -12  -3   12.17    2.40
   5 -12  -3    0.71    1.15
   6 -12  -3    4.04    1.61
   7 -12  -3   19.68    2.94
   8 -12  -3   13.20    2.38
   9 -12  -3    3.14    1.55
  10 -12  -3    2.57    1.58
  11 -12  -3   26.44    3.60
  12 -12  -3   14.93    3.94
  13 -12  -3   18.46    4.43
  14 -12  -3   11.01    7.31
  -3 -11  -3    1.44    2.12
  -2 -11  -3    5.50    2.64
  -1 -11  -3   22.72    4.36
   0 -11  -3   10.02    2.69
   1 -11  -3    5.71    2.30
   2 -11  -3    1.59    1.54
   3 -11  -3   81.20    6.21
   4 -11  -3   16.56    2.51
   5 -11  -3   30.92    3.24
   6 -11  -3    3.78    1.48
   7 -11  -3   14.04    2.49
   8 -11  -3   12.98    2.28
   9 -11  -3   27.46    3.53
  10 -11  -3   12.89    2.42
  11 -11  -3   10.45    3.13
  12 -11  -3    2.65    2.07
  13 -11  -3   38.28    5.84
  14 -11  -3    6.24    2.89
  -4 -10  -3   22.00    4.04
  -3 -10  -3   15.54    4.15
  -2 -10  -3    2.82    1.94
  -1 -10  -3   13.24    3.29
   0 -10  -3   39.29    6.03
   1 -10  -3   51.79    5.65
   2 -10  -3   17.35    2.90
   3 -10  -3   14.47    2.23
   4 -10  -3    0.09    0.84
   5 -10  -3   -0.02    0.77
   6 -10  -3   21.07    2.73
   7 -10  -3    5.09    1.60
   8 -10  -3   36.11    3.74
   9 -10  -3   46.69    4.43
  10 -10  -3   43.25    5.49
  11 -10  -3    8.93    2.53
  12 -10  -3   14.36    3.44
  13 -10  -3   46.13    6.37
  14 -10  -3    6.35    2.67
  15 -10  -3    2.07    4.63
  -5  -9  -3   -0.69    1.92
  -4  -9  -3    5.41    2.43
  -3  -9  -3    3.23    1.93
  -2  -9  -3   22.68    4.09
  -1  -9  -3   30.82    4.31
   0  -9  -3    8.62    2.58
   1  -9  -3   93.48    7.92
   2  -9  -3    7.84    1.63
   3  -9  -3    3.11    1.13
   4  -9  -3    9.59    1.76
   5  -9  -3  139.87    7.00
   6  -9  -3   44.06    3.89
   7  -9  -3    6.61    1.51
   8  -9  -3    3.81    1.36
   9  -9  -3    7.99    1.83
  10  -9  -3   73.84    5.74
  11  -9  -3    4.32    1.43
  12  -9  -3    6.26    1.86
  13  -9  -3   14.86    3.65
  14  -9  -3   15.83    3.75
  15  -9  -3    6.71    5.19
  -7  -8  -3    3.45    6.11
  -6  -8  -3    0.58    3.95
  -5  -8  -3   -0.38    1.59
  -4  -8  -3    8.87    2.80
  -3  -8  -3   16.55    2.39
  -2  -8  -3   27.59    2.92
  -1  -8  -3    1.78    0.90
   0  -8  -3   -0.54    0.68
   1  -8  -3   76.32    3.31
   2  -8  -3   65.95    3.06
   3  -8  -3  112.74    4.23
   4  -8  -3    8.48    1.21
   5  -8  -3   26.50    2.11
   6  -8  -3    0.65    0.59
   7  -8  -3    6.22    1.17
   8  -8  -3   -0.06    0.61
   9  -8  -3   91.52    4.84
  10  -8  -3   20.07    2.65
  11  -8  -3   83.85    5.39
  12  -8  -3   15.50    2.64
  13  -8  -3   -0.12    1.15
  14  -8  -3    8.15    2.74
  15  -8  -3    3.30    2.54
  -8  -7  -3    1.65    2.61
  -7  -7  -3   70.62    6.96
  -6  -7  -3   40.16    5.38
  -5  -7  -3   21.02    2.84
  -4  -7  -3   12.29    2.06
  -3  -7  -3    5.79    1.46
  -2  -7  -3    3.67    1.16
  -1  -7  -3    8.05    1.47
   0  -7  -3   14.33    1.50
   1  -7  -3  119.03    4.57
   2  -7  -3   36.80    2.33
   3  -7  -3  128.21    4.65
   4  -7  -3   41.10    2.42
   5  -7  -3   36.87    2.55
   6  -7  -3  192.01    6.33
   7  -7  -3   13.03    1.85
   8  -7  -3   74.48    4.14
   9  -7  -3    8.97    1.63
  10  -7  -3   18.97    2.57
  11  -7  -3   14.08    2.36
  12  -7  -3    0.02    1.07
  13  -7  -3    4.61    2.28
  14  -7  -3   38.63   10.15
  15  -7  -3    2.89    2.52
  -9  -6  -3   11.20    4.52
  -8  -6  -3   14.14    3.89
  -7  -6  -3    1.06    1.82
  -6  -6  -3    6.34    1.85
  -5  -6  -3    3.80    1.38
  -4  -6  -3   16.19    2.29
  -3  -6  -3   35.71    3.31
  -2  -6  -3    0.43    0.71
  -1  -6  -3  194.97    7.44
   0  -6  -3   41.45    2.34
   1  -6  -3   54.51    2.24
   2  -6  -3   17.23    1.56
   3  -6  -3   42.86    2.23
   4  -6  -3   76.86    3.28
   5  -6  -3   25.86    2.06
   6  -6  -3   38.97    3.08
   7  -6  -3  112.12    5.21
   8  -6  -3   70.36    3.98
   9  -6  -3    7.77    1.57
  10  -6  -3    2.66    1.21
  11  -6  -3   30.41    3.29
  12  -6  -3    5.95    2.25
  13  -6  -3   24.22    4.16
  14  -6  -3    2.17    2.21
  15  -6  -3    0.20    2.71
 -10  -5  -3   11.76    4.19
  -9  -5  -3   19.72    4.33
  -8  -5  -3   -0.37    1.69
  -7  -5  -3    2.02    1.86
  -6  -5  -3   19.58    2.60
  -5  -5  -3    0.42    0.84
  -4  -5  -3  136.81    6.20
  -3  -5  -3   21.34    2.26
  -2  -5  -3   35.71    3.09
  -1  -5  -3   26.84    1.85
   0  -5  -3  119.37    3.55
   1  -5  -3   11.60    0.96
   2  -5  -3  130.06    4.55
   3  -5  -3    7.40    1.00
   4  -5  -3  156.24    5.97
   5  -5  -3  121.67    4.37
   6  -5  -3   57.18    2.56
   7  -5  -3   35.84    2.45
   8  -5  -3  121.77    4.55
   9  -5  -3    6.42    1.23
  10  -5  -3    0.94    0.78
  11  -5  -3    2.52    1.35
  12  -5  -3   22.20    4.02
  13  -5  -3   -0.44    1.57
  14  -5  -3    1.59    2.33
 -10  -4  -3    5.19    2.84
  -9  -4  -3    7.64    3.09
  -8  -4  -3   13.18    3.31
  -7  -4  -3   18.88    3.73
  -6  -4  -3    2.76    1.25
  -5  -4  -3    8.36    1.55
  -4  -4  -3    9.45    1.55
  -3  -4  -3   44.72    3.01
  -2  -4  -3   71.61    3.61
  -1  -4  -3  155.90    5.96
   0  -4  -3  100.01    3.67
   1  -4  -3  157.42    4.86
   2  -4  -3    3.95    0.57
   3  -4  -3   43.96    1.83
   4  -4  -3   98.03    3.47
   5  -4  -3   15.47    1.42
   6  -4  -3   20.53    1.76
   7  -4  -3  122.81    4.53
   8  -4  -3    8.99    1.28
   9  -4  -3  131.82    5.33
  10  -4  -3   21.19    2.69
  11  -4  -3   12.38    2.19
  12  -4  -3   14.09    2.39
  13  -4  -3    1.46    1.54
  14  -4  -3   25.51    3.93
 -11  -3  -3    2.85    2.74
 -10  -3  -3   36.94    5.97
  -9  -3  -3    2.88    2.35
  -8  -3  -3   81.56    8.02
  -7  -3  -3   14.75    2.97
  -6  -3  -3    5.43    1.33
  -5  -3  -3  123.40    5.42
  -4  -3  -3  125.61    5.30
  -3  -3  -3   47.05    2.91
  -2  -3  -3    5.84    0.85
  -1  -3  -3   39.94    2.01
   0  -3  -3  220.81    6.29
   1  -3  -3   74.22    2.62
   2  -3  -3  150.49    4.55
   3  -3  -3  222.20    6.32
   4  -3  -3  167.31    5.12
   5  -3  -3  138.56    4.73
   6  -3  -3   44.40    2.60
   7  -3  -3   41.61    2.82
   8  -3  -3   20.52    2.47
   9  -3  -3   53.02    4.25
  10  -3  -3    6.69    1.63
  11  -3  -3   19.01    2.89
  12  -3  -3    4.26    1.58
  13  -3  -3   22.12    5.48
  14  -3  -3    3.48    2.20
 -12  -2  -3    2.99    6.69
 -11  -2  -3   29.44    5.11
 -10  -2  -3   13.43    3.48
  -9  -2  -3    3.77    2.10
  -8  -2  -3   12.39    3.00
  -7  -2  -3    9.77    2.59
  -6  -2  -3   73.04    4.14
  -5  -2  -3   31.28    2.72
  -4  -2  -3   21.63    2.04
  -3  -2  -3  138.88    5.41
  -2  -2  -3    2.18    0.50
  -1  -2  -3  149.84    4.57
   0  -2  -3  163.30    4.89
   1  -2  -3   13.72    1.07
   2  -2  -3  166.18    4.94
   3  -2  -3   76.12    2.75
   4  -2  -3    3.55    0.67
   5  -2  -3    6.02    0.94
   6  -2  -3   70.63    3.75
   7  -2  -3   32.43    3.01
   8  -2  -3    0.20    0.77
   9  -2  -3    5.29    1.50
  10  -2  -3   31.82    3.58
  11  -2  -3   29.65    4.02
  12  -2  -3    2.22    1.46
  13  -2  -3    6.88    2.29
  14  -2  -3   13.13    4.54
 -12  -1  -3    5.17    3.05
 -11  -1  -3    1.94    2.42
 -10  -1  -3   13.24    3.51
  -9  -1  -3   58.26    6.59
  -8  -1  -3   92.17    7.15
  -7  -1  -3   71.37    5.87
  -6  -1  -3  123.11    5.32
  -5  -1  -3   58.26    3.32
  -4  -1  -3   13.28    1.44
  -3  -1  -3  161.35    4.98
  -2  -1  -3   73.00    2.60
  -1  -1  -3   11.92    0.94
   0  -1  -3   21.12    1.19
   1  -1  -3   24.04    1.28
   2  -1  -3   11.78    0.81
   3  -1  -3  155.64    4.01
   4  -1  -3   41.97    1.89
   5  -1  -3  157.36    4.98
   6  -1  -3   23.62    1.84
   7  -1  -3  201.82    7.72
   8  -1  -3    5.14    1.32
   9  -1  -3    3.16    1.29
  10  -1  -3   43.51    4.56
  11  -1  -3   21.13    3.36
  12  -1  -3   21.67    3.41
  13  -1  -3   10.41    2.81
 -13   0  -3   -0.24    3.12
 -12   0  -3   10.31    3.79
 -11   0  -3   11.38    3.32
 -10   0  -3   33.04    4.92
  -9   0  -3    5.20    2.27
  -8   0  -3   -0.64    1.14
  -7   0  -3   10.42    2.55
  -6   0  -3   40.53    3.12
  -5   0  -3  117.64    4.16
  -4   0  -3   95.49    3.43
  -3   0  -3  218.67    6.18
  -2   0  -3  164.13    5.91
  -1   0  -3   25.19    1.22
   0   0  -3    0.23    0.27
   1   0  -3   21.93    1.20
   2   0  -3  163.26    4.83
   3   0  -3  222.07    6.23
   4   0  -3   95.49    3.46
   5   0  -3  113.11    4.12
   6   0  -3   34.44    2.44
   7   0  -3   11.11    1.48
   8   0  -3   -0.14    0.71
   9   0  -3    8.03    1.68
  10   0  -3   32.78    4.07
  11   0  -3   13.60    2.83
  12   0  -3   13.91    3.10
  13   0  -3   -0.12    1.81
 -13   1  -3    4.65    3.19
 -12   1  -3   23.70    4.84
 -11   1  -3   18.19    4.04
 -10   1  -3   42.15    5.60
  -9   1  -3    1.42    1.60
  -8   1  -3    9.77    2.64
  -7   1  -3  178.53   11.90
  -6   1  -3   25.24    2.50
  -5   1  -3  159.15    4.95
  -4   1  -3   41.43    2.68
  -3   1  -3  151.83    5.49
  -2   1  -3   12.00    1.25
  -1   1  -3   23.79    1.39
   0   1  -3   20.25    1.28
   1   1  -3   12.71    1.02
   2   1  -3   73.50    2.61
   3   1  -3  160.80    4.97
   4   1  -3   11.90    1.26
   5   1  -3   53.33    2.69
   6   1  -3  117.45    4.50
   7   1  -3   76.40    3.80
   8   1  -3   83.73    5.91
   9   1  -3   49.09    5.02
  10   1  -3    9.40    2.46
  11   1  -3    2.70    1.67
  12   1  -3    9.66    2.55
 -14   2  -3    8.88    8.24
 -13   2  -3    4.08    2.92
 -12   2  -3    3.81    2.67
 -11   2  -3   32.40    6.21
 -10   2  -3   23.08    4.19
  -9   2  -3    4.73    1.99
  -8   2  -3   -0.30    0.72
  -7   2  -3   31.60    2.92
  -6   2  -3   72.31    3.83
  -5   2  -3    6.12    0.70
  -4   2  -3    4.29    0.84
  -3   2  -3   76.23    3.17
  -2   2  -3  167.59    4.79
  -1   2  -3   13.70    1.04
   0   2  -3  162.18    4.77
   1   2  -3  144.75    4.46
   2   2  -3    3.27    0.61
   3   2  -3  142.28    3.89
   4   2  -3   19.30    1.70
   5   2  -3   31.92    2.48
   6   2  -3   70.45    3.64
   7   2  -3    6.83    1.33
   8   2  -3   20.73    2.43
   9   2  -3    1.93    1.48
  10   2  -3   12.63    2.82
  11   2  -3   30.77    4.30
  12   2  -3   10.53    3.79
 -14   3  -3    2.49    2.03
 -13   3  -3   19.48    3.40
 -12   3  -3    4.01    1.64
 -11   3  -3   11.71    2.43
 -10   3  -3    5.56    1.58
  -9   3  -3   39.48    3.79
  -8   3  -3   23.36    2.61
  -7   3  -3   36.70    3.15
  -6   3  -3   44.90    3.11
  -5   3  -3  141.79    4.38
  -4   3  -3  162.79    5.69
  -3   3  -3  234.95    6.08
  -2   3  -3  152.28    4.97
  -1   3  -3   76.32    2.47
   0   3  -3  223.95    6.07
   1   3  -3   42.94    1.89
   2   3  -3    6.06    0.68
   3   3  -3   46.23    1.98
   4   3  -3  120.17    4.80
   5   3  -3  113.25    4.81
   6   3  -3    8.23    1.44
   7   3  -3   19.11    2.25
   8   3  -3   76.35    4.99
   9   3  -3    6.24    2.08
  10   3  -3   44.47    5.01
  11   3  -3    3.87    2.04
 -14   4  -3   22.23    3.70
 -13   4  -3    2.29    1.44
 -12   4  -3    7.92    1.66
 -11   4  -3   11.24    2.29
 -10   4  -3   19.43    2.70
  -9   4  -3  122.70    6.19
  -8   4  -3    8.46    1.59
  -7   4  -3  127.46    5.29
  -6   4  -3   22.31    2.16
  -5   4  -3   15.48    1.35
  -4   4  -3  100.42    3.24
  -3   4  -3   40.95    1.97
  -2   4  -3    3.66    0.65
  -1   4  -3  160.47    5.33
   0   4  -3   97.95    3.72
   1   4  -3  157.06    4.60
   2   4  -3   78.22    2.72
   3   4  -3   40.55    2.83
   4   4  -3    9.25    1.42
   5   4  -3    6.68    1.30
   6   4  -3    1.97    1.02
   7   4  -3   16.40    2.23
   8   4  -3   10.48    1.93
   9   4  -3   11.70    2.81
  10   4  -3    4.63    2.04
 -15   5  -3    6.07    4.18
 -14   5  -3    0.81    1.82
 -13   5  -3    0.44    1.47
 -12   5  -3   20.51    3.44
 -11   5  -3    3.87    1.54
 -10   5  -3    1.13    1.02
  -9   5  -3    6.23    1.66
  -8   5  -3  112.44    5.86
  -7   5  -3   33.33    3.08
  -6   5  -3   48.49    2.56
  -5   5  -3  121.64    4.45
  -4   5  -3  161.30    5.35
  -3   5  -3    5.99    0.84
  -2   5  -3  143.27    4.81
  -1   5  -3   13.40    1.07
   0   5  -3  115.85    3.73
   1   5  -3   25.37    1.65
   2   5  -3   37.29    1.87
   3   5  -3   23.43    2.14
   4   5  -3  137.33    5.66
   5   5  -3   -0.07    0.72
   6   5  -3   29.83    2.88
   7   5  -3    0.59    1.00
   8   5  -3    0.16    1.16
   9   5  -3   14.93    3.23
  10   5  -3    2.19    3.28
 -15   6  -3    0.88    1.86
 -14   6  -3    2.54    2.10
 -13   6  -3   35.45    4.55
 -12   6  -3    6.10    2.08
 -11   6  -3   26.94    3.49
 -10   6  -3    0.90    1.18
  -9   6  -3    3.77    1.04
  -8   6  -3   63.63    3.26
  -7   6  -3  117.73    4.65
  -6   6  -3   39.33    2.37
  -5   6  -3   24.65    1.80
  -4   6  -3   73.56    3.02
  -3   6  -3   44.63    2.07
  -2   6  -3   22.00    1.43
  -1   6  -3   54.72    2.17
   0   6  -3   34.90    1.94
   1   6  -3  196.62    5.71
   2   6  -3    0.83    0.51
   3   6  -3   39.09    3.11
   4   6  -3   18.84    2.15
   5   6  -3    2.19    1.09
   6   6  -3    4.85    1.88
   7   6  -3    6.05    2.09
   8   6  -3   12.37    2.99
   9   6  -3   16.50    7.10
 -15   7  -3    6.99    2.27
 -14   7  -3   51.84    5.62
 -13   7  -3    2.27    1.27
 -12   7  -3   -0.14    0.97
 -11   7  -3   17.04    2.16
 -10   7  -3   14.82    1.91
  -9   7  -3    8.98    1.40
  -8   7  -3   70.49    3.47
  -7   7  -3   13.94    1.59
  -6   7  -3  186.50    8.17
  -5   7  -3   39.77    3.31
  -4   7  -3   41.11    2.75
  -3   7  -3  121.13    4.67
  -2   7  -3   33.48    2.41
  -1   7  -3  122.18    4.70
   0   7  -3   10.27    1.36
   1   7  -3    7.38    1.24
   2   7  -3    7.16    1.66
   3   7  -3    5.35    1.69
   4   7  -3   16.65    2.79
   5   7  -3   28.56    3.89
   6   7  -3   28.63    4.11
   7   7  -3   59.35    6.10
   8   7  -3    3.16    2.08
 -15   8  -3    2.99    2.05
 -14   8  -3   12.97    2.67
 -13   8  -3   -0.71    1.07
 -12   8  -3    8.80    2.07
 -11   8  -3   83.73    7.49
 -10   8  -3   20.81    2.70
  -9   8  -3   88.64    5.18
  -8   8  -3    1.11    0.81
  -7   8  -3    6.10    1.44
  -6   8  -3    0.02    0.48
  -5   8  -3   23.21    2.08
  -4   8  -3    8.78    1.22
  -3   8  -3  117.74    4.66
  -2   8  -3   68.37    3.27
  -1   8  -3   77.91    3.65
   0   8  -3   -0.78    0.48
   1   8  -3    3.10    0.96
   2   8  -3   28.91    3.61
   3   8  -3   12.18    2.47
   4   8  -3   10.13    2.40
   5   8  -3    0.49    1.44
   6   8  -3    1.02    1.87
   7   8  -3    5.97    2.45
 -15   9  -3   16.91    4.26
 -14   9  -3   13.75    2.82
 -13   9  -3    7.61    1.69
 -12   9  -3    3.78    1.14
 -11   9  -3    3.03    1.13
 -10   9  -3   56.06    3.89
  -9   9  -3    4.95    1.17
  -8   9  -3    3.38    1.01
  -7   9  -3    5.23    1.15
  -6   9  -3   44.48    3.18
  -5   9  -3  136.97    5.47
  -4   9  -3    5.31    1.07
  -3   9  -3    5.38    1.05
  -2   9  -3    8.48    1.41
  -1   9  -3   89.23    4.24
   0   9  -3    9.04    1.46
   1   9  -3   40.75    4.32
   2   9  -3   27.17    3.67
   3   9  -3    3.89    1.79
   4   9  -3    0.43    1.50
   5   9  -3    5.54    2.31
   6   9  -3   -1.41    1.90
 -14  10  -3    5.28    2.02
 -13  10  -3   21.48    4.96
 -12  10  -3   13.00    2.37
 -11  10  -3    8.17    1.61
 -10  10  -3   36.62    3.19
  -9  10  -3   43.33    3.41
  -8  10  -3   26.24    2.52
  -7  10  -3    8.15    1.44
  -6  10  -3   21.32    2.20
  -5  10  -3    0.36    0.64
  -4  10  -3    2.81    0.95
  -3  10  -3   16.13    1.90
  -2  10  -3   19.71    2.20
  -1  10  -3   52.70    3.85
   0  10  -3   39.13    3.29
   1  10  -3   15.89    2.93
   2  10  -3    1.45    1.50
   3  10  -3   24.43    3.79
   4  10  -3   27.96    4.20
   5  10  -3    6.92    3.13
 -14  11  -3    5.14    1.98
 -13  11  -3   23.34    3.50
 -12  11  -3    0.96    1.12
 -11  11  -3    8.07    2.00
 -10  11  -3   13.34    2.52
  -9  11  -3   28.50    3.44
  -8  11  -3   14.94    2.37
  -7  11  -3   15.47    2.58
  -6  11  -3    3.58    1.33
  -5  11  -3   28.08    2.91
  -4  11  -3   17.81    2.10
  -3  11  -3   75.25    4.20
  -2  11  -3    2.44    0.93
  -1  11  -3   11.08    1.60
   0  11  -3   13.35    2.60
   1  11  -3   26.17    3.92
   2  11  -3    4.28    1.90
   3  11  -3   -0.15    1.79
 -14  12  -3    4.50    2.10
 -13  12  -3   10.75    2.52
 -12  12  -3   14.92    4.33
 -11  12  -3   18.57    4.40
 -10  12  -3    1.91    1.41
  -9  12  -3    3.45    1.44
  -8  12  -3   11.57    2.25
  -7  12  -3   20.71    3.06
  -6  12  -3    6.03    1.71
  -5  12  -3    0.06    0.99
  -4  12  -3    9.46    2.10
  -3  12  -3    4.38    1.64
  -2  12  -3   15.16    2.69
  -1  12  -3    3.37    2.28
   0  12  -3   18.98    4.58
   1  12  -3   12.42    4.21
 -13  13  -3    0.25    1.38
 -12  13  -3    9.83    2.44
 -11  13  -3    8.04    2.16
 -10  13  -3   20.64    3.21
  -9  13  -3    5.69    1.84
  -8  13  -3   -1.42    0.83
  -7  13  -3   30.79    3.89
  -6  13  -3    4.84    1.77
  -5  13  -3   -0.35    1.08
  -4  13  -3   11.09    2.13
  -3  13  -3   35.77    4.34
  -2  13  -3   26.50    5.26
  -1  13  -3   10.28    3.87
   0  13  -3    1.50    3.73
 -12  14  -3   22.20    4.99
 -11  14  -3    0.61    1.58
 -10  14  -3   29.76    3.90
  -9  14  -3    0.34    1.35
  -8  14  -3    4.20    1.78
  -7  14  -3   50.95    5.20
  -6  14  -3    7.74    2.24
  -5  14  -3   14.96    2.85
  -4  14  -3    3.95    1.87
  -3  14  -3    5.73    2.11
 -10  15  -3    4.44    3.11
  -9  15  -3    1.57    2.19
  -8  15  -3    3.43    1.93
  -7  15  -3    0.14    1.63
  -6  15  -3   16.26    3.27
  -5  15  -3    3.08    2.02
   4 -15  -2   26.11    8.28
   5 -15  -2    3.16    2.60
   6 -15  -2    8.98    2.62
   7 -15  -2    5.77    2.22
   8 -15  -2   -0.27    1.62
   9 -15  -2    2.74    1.96
  10 -15  -2    1.46    1.89
  11 -15  -2   -0.62    2.45
   2 -14  -2    2.71    2.86
   3 -14  -2    2.41    2.62
   4 -14  -2   11.43    4.26
   5 -14  -2    2.33    1.65
   6 -14  -2   -0.33    1.27
   7 -14  -2    9.07    2.52
   8 -14  -2   12.94    2.89
   9 -14  -2   78.70    6.98
  10 -14  -2   55.70    5.77
  11 -14  -2    1.45    1.78
  12 -14  -2   12.26    2.92
  -1 -13  -2   -0.46    2.27
   0 -13  -2   36.02    6.88
   1 -13  -2    0.69    1.84
   2 -13  -2   38.35    6.69
   3 -13  -2    2.13    1.93
   4 -13  -2    3.35    1.54
   5 -13  -2   51.22    4.57
   6 -13  -2    1.42    1.32
   7 -13  -2    5.16    1.72
   8 -13  -2    4.02    1.68
   9 -13  -2    3.69    1.61
  10 -13  -2    0.52    1.24
  11 -13  -2    1.60    1.51
  12 -13  -2    6.73    2.41
  13 -13  -2   50.59    5.85
  14 -13  -2   -0.78    3.04
  -3 -12  -2   14.38    8.89
  -2 -12  -2    7.35    3.06
  -1 -12  -2    0.64    1.83
   0 -12  -2    6.00    2.63
   1 -12  -2    0.41    1.59
   2 -12  -2   14.12    3.07
   3 -12  -2    1.73    1.24
   4 -12  -2   15.73    2.47
   5 -12  -2   32.62    3.93
   6 -12  -2   21.03    2.94
   7 -12  -2    2.97    1.29
   8 -12  -2   42.61    4.49
   9 -12  -2    2.64    1.41
  10 -12  -2   20.62    2.91
  11 -12  -2   33.46    3.95
  12 -12  -2   10.33    2.47
  13 -12  -2    0.74    1.81
  14 -12  -2    2.47    2.42
  -4 -11  -2   -0.21    2.11
  -3 -11  -2    0.59    2.08
  -2 -11  -2    0.34    1.82
  -1 -11  -2   23.28    4.27
   0 -11  -2    3.21    2.00
   1 -11  -2   20.07    3.93
   2 -11  -2   -0.22    0.98
   3 -11  -2   10.17    2.04
   4 -11  -2  146.69    7.57
   5 -11  -2    6.28    1.62
   6 -11  -2   19.01    2.49
   7 -11  -2  128.81    7.06
   8 -11  -2    2.37    1.11
   9 -11  -2    2.77    1.34
  10 -11  -2    9.47    2.08
  11 -11  -2    5.25    1.71
  12 -11  -2    1.88    1.44
  13 -11  -2   47.18    6.29
  14 -11  -2    1.95    2.14
  15 -11  -2   29.24    5.28
  -5 -10  -2    1.61    2.24
  -4 -10  -2   46.77    7.20
  -3 -10  -2    0.92    1.73
  -2 -10  -2   17.48    3.36
  -1 -10  -2    7.96    2.51
   0 -10  -2   29.98    5.23
   1 -10  -2    3.94    1.27
   2 -10  -2    4.47    1.28
   3 -10  -2   19.11    2.53
   4 -10  -2    1.99    1.06
   5 -10  -2    6.04    1.39
   6 -10  -2  172.73    7.46
   7 -10  -2    9.48    1.86
   8 -10  -2   94.42    5.16
   9 -10  -2   23.25    2.86
  10 -10  -2   35.49    3.77
  11 -10  -2   39.82    4.03
  12 -10  -2   11.58    2.84
  13 -10  -2    3.02    1.98
  14 -10  -2   13.42    3.45
  15 -10  -2   -0.10    1.89
  -6  -9  -2    1.06    2.13
  -5  -9  -2   50.04    6.63
  -4  -9  -2    1.60    1.92
  -3  -9  -2    1.53    1.72
  -2  -9  -2    2.31    1.73
  -1  -9  -2   27.27    4.14
   0  -9  -2    6.26    2.14
   1  -9  -2   12.37    2.09
   2  -9  -2   14.57    2.01
   3  -9  -2  103.63    5.03
   4  -9  -2   42.19    3.71
   5  -9  -2    5.12    1.22
   6  -9  -2   17.78    2.33
   7  -9  -2    2.23    1.01
   8  -9  -2   73.77    4.60
   9  -9  -2    7.81    1.64
  10  -9  -2    6.10    1.52
  11  -9  -2   -0.76    0.95
  12  -9  -2    2.03    1.61
  13  -9  -2    3.12    2.05
  14  -9  -2    4.43    2.28
  15  -9  -2    2.72    4.44
  -7  -8  -2    1.84    2.28
  -6  -8  -2   10.61    3.22
  -5  -8  -2    2.38    1.97
  -4  -8  -2   32.26    4.98
  -3  -8  -2    1.49    1.50
  -2  -8  -2   97.85    8.35
  -1  -8  -2   57.70    5.96
   0  -8  -2  149.95    6.41
   1  -8  -2    6.11    1.13
   2  -8  -2   44.52    2.54
   3  -8  -2   38.93    2.22
   4  -8  -2   14.08    1.35
   5  -8  -2   21.98    1.78
   6  -8  -2   29.23    2.17
   7  -8  -2   23.70    2.08
   8  -8  -2  152.95    5.48
   9  -8  -2   12.34    1.61
  10  -8  -2    6.38    1.50
  11  -8  -2   10.47    1.87
  12  -8  -2   14.35    2.33
  13  -8  -2   64.80    5.27
  14  -8  -2    0.69    2.05
  15  -8  -2    4.40    2.43
  -8  -7  -2    3.51    2.62
  -7  -7  -2   10.13    2.43
  -6  -7  -2    6.01    1.89
  -5  -7  -2    3.18    1.39
  -4  -7  -2  129.86    6.84
  -3  -7  -2    8.83    1.49
  -2  -7  -2    1.86    0.87
  -1  -7  -2   20.26    1.73
   0  -7  -2    6.80    1.02
   1  -7  -2   48.38    2.38
   2  -7  -2   57.51    2.61
   3  -7  -2   25.34    1.65
   4  -7  -2  244.20    7.25
   5  -7  -2   41.59    2.32
   6  -7  -2   36.67    2.36
   7  -7  -2    8.34    1.20
   8  -7  -2    4.54    1.00
   9  -7  -2   16.48    2.15
  10  -7  -2   15.70    2.30
  11  -7  -2  142.45    6.79
  12  -7  -2   34.91    3.61
  13  -7  -2    2.38    2.00
  14  -7  -2    5.33    2.46
  15  -7  -2    2.49    2.20
  -9  -6  -2    4.67    2.94
  -8  -6  -2    1.50    1.59
  -7  -6  -2    1.84    1.44
  -6  -6  -2   15.90    2.34
  -5  -6  -2   23.16    2.83
  -4  -6  -2  175.54    7.50
  -3  -6  -2   14.91    1.99
  -2  -6  -2   29.96    2.71
  -1  -6  -2   30.65    2.08
   0  -6  -2   10.31    1.11
   1  -6  -2  109.77    4.04
   2  -6  -2   16.92    1.36
   3  -6  -2   33.60    1.87
   4  -6  -2  161.39    5.12
   5  -6  -2  160.70    5.31
   6  -6  -2    9.25    1.21
   7  -6  -2   45.03    2.18
   8  -6  -2   44.74    2.59
   9  -6  -2  103.90    4.23
  10  -6  -2    4.03    1.09
  11  -6  -2    9.60    1.58
  12  -6  -2   17.18    3.37
  13  -6  -2    6.20    2.29
  14  -6  -2    7.86    2.65
  15  -6  -2    2.29    2.22
 -10  -5  -2    1.15    2.44
  -9  -5  -2    0.37    1.96
  -8  -5  -2   51.13    4.88
  -7  -5  -2   24.17    3.20
  -6  -5  -2    6.65    1.74
  -5  -5  -2    6.84    1.55
  -4  -5  -2    6.37    1.38
  -3  -5  -2   17.99    2.09
  -2  -5  -2   39.66    2.15
  -1  -5  -2  168.32    5.22
   0  -5  -2   75.36    2.74
   1  -5  -2   44.10    2.13
   2  -5  -2   34.02    1.83
   3  -5  -2   87.84    3.19
   4  -5  -2    3.83    0.67
   5  -5  -2   69.49    2.36
   6  -5  -2  113.90    3.45
   7  -5  -2   58.41    2.66
   8  -5  -2   37.29    2.60
   9  -5  -2   35.60    2.73
  10  -5  -2    8.16    1.41
  11  -5  -2   24.52    3.06
  12  -5  -2    5.12    1.68
  13  -5  -2    1.77    1.42
  14  -5  -2   53.73    5.82
  15  -5  -2    4.20    2.92
 -11  -4  -2   24.60    5.95
 -10  -4  -2    6.61    2.65
  -9  -4  -2    6.12    2.78
  -8  -4  -2   15.23    2.36
  -7  -4  -2  149.58    7.22
  -6  -4  -2    3.16    1.23
  -5  -4  -2   36.89    3.25
  -4  -4  -2   10.31    1.62
  -3  -4  -2  251.82   10.00
  -2  -4  -2  157.12    5.36
  -1  -4  -2    3.94    0.63
   0  -4  -2   43.38    1.81
   1  -4  -2   87.97    2.56
   2  -4  -2  115.38    3.69
   3  -4  -2   29.27    1.54
   4  -4  -2   39.85    1.62
   5  -4  -2   47.85    2.12
   6  -4  -2   12.22    1.30
   7  -4  -2   26.94    1.43
   8  -4  -2   12.04    1.49
   9  -4  -2    5.82    1.11
  10  -4  -2  185.83    7.83
  11  -4  -2  134.90    6.60
  12  -4  -2   35.92    4.28
  13  -4  -2    2.17    1.60
  14  -4  -2   43.90    5.27
  15  -4  -2    0.71    3.24
 -11  -3  -2    4.48    2.88
 -10  -3  -2    4.12    2.62
  -9  -3  -2    2.38    1.52
  -8  -3  -2    8.38    1.91
  -7  -3  -2   14.37    2.28
  -6  -3  -2  107.12    5.31
  -5  -3  -2   38.85    3.22
  -4  -3  -2   27.55    2.45
  -3  -3  -2   31.45    2.50
  -2  -3  -2   88.48    3.07
  -1  -3  -2   30.42    1.45
   0  -3  -2   38.78    1.44
   1  -3  -2    8.18    0.63
   2  -3  -2  308.09    7.37
   3  -3  -2   37.97    1.58
   4  -3  -2   91.52    3.14
   5  -3  -2   34.30    2.01
   6  -3  -2   33.28    1.56
   7  -3  -2  245.54    6.53
   8  -3  -2   19.30    2.37
   9  -3  -2   13.47    2.09
  10  -3  -2   11.52    2.04
  11  -3  -2    2.88    1.29
  12  -3  -2    2.18    1.37
  13  -3  -2    2.50    1.79
  14  -3  -2    2.47    1.89
  15  -3  -2   28.54    7.09
 -12  -2  -2    2.35    2.31
 -11  -2  -2   33.75    5.31
 -10  -2  -2    6.98    2.84
  -9  -2  -2    0.18    1.12
  -8  -2  -2    5.87    1.53
  -7  -2  -2   16.49    2.29
  -6  -2  -2   48.17    3.88
  -5  -2  -2   55.27    3.36
  -4  -2  -2   12.33    1.52
  -3  -2  -2   34.50    2.29
  -2  -2  -2  111.36    4.35
  -1  -2  -2  312.29    9.83
   0  -2  -2  338.98    9.87
   1  -2  -2   88.31    2.70
   2  -2  -2  346.35    8.89
   3  -2  -2    8.30    0.83
   4  -2  -2  114.57    3.80
   5  -2  -2   90.86    2.82
   6  -2  -2  162.06    4.58
   7  -2  -2   45.93    2.44
   8  -2  -2   24.79    2.08
   9  -2  -2    3.14    1.15
  10  -2  -2  101.06    6.00
  11  -2  -2   -0.47    0.96
  12  -2  -2   21.06    3.14
  13  -2  -2    1.95    1.60
  14  -2  -2   15.41    3.42
 -12  -1  -2    3.61    2.91
 -11  -1  -2    4.23    2.59
 -10  -1  -2   29.12    5.47
  -9  -1  -2    4.75    1.52
  -8  -1  -2   12.27    2.06
  -7  -1  -2    4.91    1.25
  -6  -1  -2   49.82    3.56
  -5  -1  -2  112.63    4.76
  -4  -1  -2   49.65    2.61
  -3  -1  -2   92.83    3.71
  -2  -1  -2    8.42    0.92
  -1  -1  -2   79.97    2.66
   0  -1  -2  188.62    5.15
   1  -1  -2  193.57    5.20
   2  -1  -2   91.38    2.37
   3  -1  -2  318.31    7.45
   4  -1  -2   30.85    1.45
   5  -1  -2    3.92    0.68
   6  -1  -2  168.71    5.41
   7  -1  -2   31.92    2.36
   8  -1  -2   22.06    2.07
   9  -1  -2   74.54    4.04
  10  -1  -2   18.42    3.05
  11  -1  -2    8.28    2.28
  12  -1  -2   23.43    3.66
  13  -1  -2    3.08    1.93
  14  -1  -2    1.03    3.06
 -13   0  -2   45.29    6.84
 -12   0  -2   13.96    3.71
 -11   0  -2    3.48    2.28
 -10   0  -2   31.40    4.90
  -9   0  -2    5.66    1.51
  -8   0  -2  165.17    7.60
  -7   0  -2    5.71    1.28
  -6   0  -2    7.03    1.28
  -5   0  -2   68.38    3.66
  -4   0  -2   43.86    2.44
  -3   0  -2   39.51    1.93
  -2   0  -2  345.10    8.87
  -1   0  -2  185.86    5.08
   0   0  -2  378.31    9.50
   1   0  -2  194.11    4.57
   2   0  -2  342.43    8.84
   3   0  -2   40.11    1.66
   4   0  -2   40.77    1.89
   5   0  -2   70.67    2.90
   6   0  -2    9.31    1.20
   7   0  -2    7.32    1.17
   8   0  -2  155.49    6.12
   9   0  -2    5.01    1.24
  10   0  -2   45.90    4.79
  11   0  -2    2.89    1.71
  12   0  -2    7.78    2.37
  13   0  -2   45.09    5.37
 -14   1  -2    0.23    4.86
 -13   1  -2    3.35    2.56
 -12   1  -2   27.03    4.96
 -11   1  -2    6.22    2.60
 -10   1  -2   29.34    4.39
  -9   1  -2   73.70    4.73
  -8   1  -2   22.33    2.44
  -7   1  -2   30.59    2.67
  -6   1  -2  172.54    5.20
  -5   1  -2    5.78    0.97
  -4   1  -2   30.93    1.76
  -3   1  -2  315.90    8.31
  -2   1  -2   85.47    3.21
  -1   1  -2  192.51    5.94
   0   1  -2  184.58    5.06
   1   1  -2   88.90    2.69
   2   1  -2    7.45    0.78
   3   1  -2   90.20    3.10
   4   1  -2   47.54    2.28
   5   1  -2  104.14    4.02
   6   1  -2   48.12    3.21
   7   1  -2    4.50    1.05
   8   1  -2   11.98    1.75
   9   1  -2    5.30    1.41
  10   1  -2   30.17    4.02
  11   1  -2    2.56    1.60
  12   1  -2    1.63    1.71
 -14   2  -2   12.42    3.85
 -13   2  -2    0.15    2.14
 -12   2  -2   19.14    4.57
 -11   2  -2    4.01    1.97
 -10   2  -2  102.87    7.79
  -9   2  -2    3.47    1.20
  -8   2  -2   31.39    2.99
  -7   2  -2   39.69    2.15
  -6   2  -2  174.63    6.20
  -5   2  -2   90.91    3.48
  -4   2  -2  116.55    3.93
  -3   2  -2    9.18    1.02
  -2   2  -2  348.73    8.67
  -1   2  -2   85.51    2.54
   0   2  -2  339.50    8.68
   1   2  -2  325.61    8.29
   2   2  -2  115.26    3.14
   3   2  -2   32.85    1.49
   4   2  -2   14.61    1.01
   5   2  -2   60.18    2.98
   6   2  -2   45.09    3.21
   7   2  -2   17.66    2.08
   8   2  -2    8.79    1.60
   9   2  -2    0.40    1.00
  10   2  -2   14.50    2.45
  11   2  -2   39.72    4.68
  12   2  -2    0.25    1.85
 -15   3  -2    9.82    8.42
 -14   3  -2    2.32    2.53
 -13   3  -2    0.61    2.32
 -12   3  -2    4.91    2.57
 -11   3  -2    4.28    2.28
 -10   3  -2   10.83    2.81
  -9   3  -2   13.53    2.02
  -8   3  -2   23.92    2.43
  -7   3  -2  260.22    9.89
  -6   3  -2   35.97    2.27
  -5   3  -2   33.01    2.43
  -4   3  -2   95.11    3.62
  -3   3  -2   39.76    1.53
  -2   3  -2  324.13    9.27
  -1   3  -2    7.96    0.78
   0   3  -2   40.92    1.75
   1   3  -2   28.31    1.30
   2   3  -2   92.29    2.96
   3   3  -2   31.11    1.68
   4   3  -2   21.86    1.48
   5   3  -2   35.73    2.75
   6   3  -2  110.89    4.77
   7   3  -2   13.90    1.99
   8   3  -2   11.39    1.89
   9   3  -2    1.38    1.11
  10   3  -2    1.21    1.23
  11   3  -2    3.69    1.85
 -15   4  -2    0.59    2.78
 -14   4  -2   39.41    6.34
 -13   4  -2    1.20    2.42
 -12   4  -2   35.89    5.31
 -11   4  -2  144.58    9.06
 -10   4  -2  166.34    9.67
  -9   4  -2    6.95    1.44
  -8   4  -2   13.29    1.53
  -7   4  -2   28.42    2.56
  -6   4  -2   14.88    1.67
  -5   4  -2   46.86    2.42
  -4   4  -2   42.19    1.72
  -3   4  -2   30.05    1.42
  -2   4  -2  118.18    3.86
  -1   4  -2   91.87    2.77
   0   4  -2   44.26    1.66
   1   4  -2    4.07    0.60
   2   4  -2  165.23    4.81
   3   4  -2  252.86    7.00
   4   4  -2   11.63    1.54
   5   4  -2   33.31    2.82
   6   4  -2    2.28    0.96
   7   4  -2  137.66    6.17
   8   4  -2   13.52    2.05
   9   4  -2    4.45    1.42
  10   4  -2    9.91    2.07
  11   4  -2   33.57    6.68
 -15   5  -2    2.56    1.99
 -14   5  -2   56.90    5.58
 -13   5  -2    1.36    1.50
 -12   5  -2    2.49    1.47
 -11   5  -2   20.08    2.76
 -10   5  -2    5.49    1.46
  -9   5  -2   38.00    2.71
  -8   5  -2   36.64    2.30
  -7   5  -2   59.77    3.44
  -6   5  -2  109.46    5.02
  -5   5  -2   75.67    2.63
  -4   5  -2    4.56    0.58
  -3   5  -2   96.46    3.30
  -2   5  -2   33.70    1.49
  -1   5  -2   45.43    1.80
   0   5  -2   74.40    2.52
   1   5  -2  173.57    4.97
   2   5  -2   38.73    1.98
   3   5  -2   22.92    1.68
   4   5  -2    4.33    1.10
   5   5  -2    6.48    1.36
   6   5  -2    8.23    1.60
   7   5  -2   31.52    3.17
   8   5  -2   57.47    4.51
   9   5  -2    0.83    1.31
  10   5  -2   -0.07    1.19
 -15   6  -2    3.03    1.73
 -14   6  -2   10.15    2.24
 -13   6  -2    5.25    1.88
 -12   6  -2   15.90    2.66
 -11   6  -2    6.00    1.71
 -10   6  -2    2.42    1.06
  -9   6  -2   92.44    4.73
  -8   6  -2   42.40    2.69
  -7   6  -2   46.02    2.29
  -6   6  -2   11.14    1.10
  -5   6  -2  175.29    4.94
  -4   6  -2  165.01    4.66
  -3   6  -2   34.33    1.49
  -2   6  -2   15.02    0.94
  -1   6  -2  109.49    3.43
   0   6  -2    9.10    0.95
   1   6  -2   33.38    2.00
   2   6  -2   29.81    2.01
   3   6  -2   10.05    1.22
   4   6  -2  179.44    6.86
   5   6  -2   22.75    2.46
   6   6  -2   16.03    2.27
   7   6  -2    2.36    1.18
   8   6  -2    0.07    1.36
   9   6  -2    6.64    2.38
 -15   7  -2   -0.63    1.51
 -14   7  -2    6.07    1.62
 -13   7  -2    1.45    1.08
 -12   7  -2   35.05    3.98
 -11   7  -2  145.99    7.41
 -10   7  -2   19.29    2.05
  -9   7  -2   16.49    1.79
  -8   7  -2    5.38    1.01
  -7   7  -2   10.39    1.22
  -6   7  -2   32.53    2.05
  -5   7  -2   44.77    2.56
  -4   7  -2  246.52    8.02
  -3   7  -2   30.79    2.14
  -2   7  -2   57.11    2.77
  -1   7  -2   42.04    2.79
   0   7  -2    8.17    1.21
   1   7  -2   21.49    2.09
   2   7  -2    2.98    0.91
   3   7  -2    8.23    1.89
   4   7  -2  121.57    7.15
   5   7  -2    1.85    1.46
   6   7  -2    4.26    1.87
   7   7  -2    8.35    2.43
   8   7  -2    7.20    2.48
 -15   8  -2    5.53    3.05
 -14   8  -2    1.07    1.41
 -13   8  -2   57.21    4.19
 -12   8  -2   12.45    1.83
 -11   8  -2    8.78    1.51
 -10   8  -2    7.78    1.40
  -9   8  -2   10.21    1.44
  -8   8  -2  148.73    5.79
  -7   8  -2   20.52    1.91
  -6   8  -2   28.74    2.27
  -5   8  -2   22.18    1.89
  -4   8  -2   13.24    1.41
  -3   8  -2   36.64    2.37
  -2   8  -2   43.80    2.92
  -1   8  -2    5.40    1.10
   0   8  -2  158.74    6.00
   1   8  -2   80.57    4.12
   2   8  -2  103.60    4.75
   3   8  -2    1.75    1.33
   4   8  -2   38.36    4.32
   5   8  -2    3.59    1.68
   6   8  -2   18.85    3.46
   7   8  -2    0.91    1.81
 -13   9  -2    5.07    1.48
 -12   9  -2    0.63    0.89
 -11   9  -2    0.27    0.75
 -10   9  -2    6.39    1.23
  -9   9  -2    7.93    1.33
  -8   9  -2   80.43    3.70
  -7   9  -2    1.68    0.70
  -6   9  -2   13.18    1.54
  -5   9  -2    7.92    1.21
  -4   9  -2   38.21    2.73
  -3   9  -2  107.64    4.43
  -2   9  -2   17.52    1.92
  -1   9  -2    9.36    1.46
   0   9  -2    6.24    1.33
   1   9  -2   27.36    2.68
   2   9  -2    1.12    1.27
   3   9  -2    4.74    1.77
   4   9  -2    4.07    1.76
   5   9  -2   65.45    6.48
   6   9  -2    1.94    2.14
 -14  10  -2   13.31    3.98
 -13  10  -2    3.58    1.31
 -12  10  -2    9.67    2.10
 -11  10  -2   31.76    3.52
 -10  10  -2   38.34    3.82
  -9  10  -2   27.50    3.25
  -8  10  -2   94.65    5.47
  -7  10  -2   13.36    2.13
  -6  10  -2  179.96    6.76
  -5  10  -2    5.60    1.07
  -4  10  -2    3.28    0.91
  -3  10  -2   16.55    1.90
  -2  10  -2    8.53    1.43
  -1  10  -2    5.33    1.30
   0  10  -2   37.88    3.28
   1  10  -2    9.28    1.56
   2  10  -2   22.56    3.45
   3  10  -2    0.23    1.46
   4  10  -2   50.57    5.48
   5  10  -2    2.83    2.04
 -14  11  -2    0.80    1.61
 -13  11  -2   32.82    3.32
 -12  11  -2    2.36    1.40
 -11  11  -2    3.91    1.44
 -10  11  -2    4.21    1.56
  -9  11  -2    2.75    1.20
  -8  11  -2    2.95    1.16
  -7  11  -2  129.02    6.78
  -6  11  -2   22.40    2.83
  -5  11  -2    5.84    1.58
  -4  11  -2  152.49    7.50
  -3  11  -2   10.50    2.15
  -2  11  -2   -1.16    0.86
  -1  11  -2   34.95    3.97
   0  11  -2    3.51    1.49
   1  11  -2   33.95    5.96
   2  11  -2    1.10    2.24
   3  11  -2    4.04    2.88
   4  11  -2   -3.08    3.07
 -14  12  -2    1.95    1.71
 -13  12  -2    1.12    1.45
 -12  12  -2    5.68    1.54
 -11  12  -2   32.89    3.83
 -10  12  -2   20.06    3.03
  -9  12  -2    3.46    1.48
  -8  12  -2   48.21    4.45
  -7  12  -2    1.46    1.14
  -6  12  -2   14.39    2.42
  -5  12  -2   24.75    3.27
  -4  12  -2   14.24    2.51
  -3  12  -2    0.30    1.02
  -2  12  -2   13.73    2.61
  -1  12  -2    1.78    1.40
   0  12  -2    6.62    3.02
   1  12  -2    3.46    2.78
   2  12  -2    6.84    3.61
 -14  13  -2    1.83    1.99
 -13  13  -2   40.90    5.04
 -12  13  -2    5.84    1.65
 -11  13  -2   -0.04    1.06
 -10  13  -2    0.49    1.10
  -9  13  -2    3.62    1.53
  -8  13  -2    3.14    1.38
  -7  13  -2    4.50    1.54
  -6  13  -2    1.15    1.23
  -5  13  -2   55.55    5.01
  -4  13  -2    4.37    1.72
  -3  13  -2    3.30    1.69
  -2  13  -2   40.75    4.58
  -1  13  -2    1.74    1.64
   0  13  -2   49.88    7.79
 -13  14  -2    1.13    2.21
 -12  14  -2   13.69    2.82
 -11  14  -2    4.44    1.46
 -10  14  -2   51.07    4.23
  -9  14  -2   52.74    4.43
  -8  14  -2   10.11    1.96
  -7  14  -2    8.91    1.90
  -6  14  -2    0.98    1.11
  -5  14  -2    2.56    1.35
  -4  14  -2   12.98    2.16
  -3  14  -2    2.25    1.75
  -2  14  -2    3.52    2.15
 -11  15  -2    1.34    2.87
 -10  15  -2    1.75    1.40
  -9  15  -2    4.54    1.57
  -8  15  -2    0.96    1.22
  -7  15  -2    4.69    1.67
  -6  15  -2    6.25    1.81
  -5  15  -2   -0.30    1.28
  -4  15  -2   23.48    3.66
  -3  15  -2    1.62    2.65
   6 -16  -1    4.23    3.15
   7 -16  -1    0.73    2.61
   4 -15  -1    2.46    2.59
   5 -15  -1    6.78    2.23
   6 -15  -1   22.39    3.72
   7 -15  -1    2.89    2.09
   8 -15  -1   -0.51    1.43
   9 -15  -1    1.70    1.66
  10 -15  -1   18.52    3.36
  11 -15  -1    1.37    1.87
  12 -15  -1   10.03    3.58
   1 -14  -1    0.08    2.51
   2 -14  -1   10.13    3.84
   3 -14  -1    7.05    3.56
   4 -14  -1    4.82    1.89
   5 -14  -1   19.24    3.38
   6 -14  -1    7.44    2.29
   7 -14  -1   85.10    6.81
   8 -14  -1    6.00    1.98
   9 -14  -1    8.97    2.45
  10 -14  -1   44.19    5.02
  11 -14  -1    0.72    1.52
  12 -14  -1   18.80    3.62
  13 -14  -1    3.50    2.30
  -1 -13  -1    2.01    2.63
   0 -13  -1    1.52    2.49
   1 -13  -1   22.61    5.29
   2 -13  -1   38.01    6.87
   3 -13  -1   24.54    3.54
   4 -13  -1   17.42    2.95
   5 -13  -1   -0.35    1.03
   6 -13  -1    8.94    2.27
   7 -13  -1    8.75    2.09
   8 -13  -1    0.40    1.12
   9 -13  -1    2.16    1.51
  10 -13  -1   27.46    3.81
  11 -13  -1    8.85    2.32
  12 -13  -1   16.21    3.03
  13 -13  -1    5.53    2.28
  14 -13  -1    0.50    1.72
  -3 -12  -1    4.56    3.16
  -2 -12  -1   16.58    4.10
  -1 -12  -1   10.64    3.19
   0 -12  -1   17.51    3.78
   1 -12  -1    3.76    2.23
   2 -12  -1    4.88    1.59
   3 -12  -1    6.40    1.72
   4 -12  -1   10.92    2.13
   5 -12  -1    0.80    0.94
   6 -12  -1    4.33    1.47
   7 -12  -1   23.26    2.89
   8 -12  -1   15.71    2.54
   9 -12  -1    1.38    1.19
  10 -12  -1    0.71    1.24
  11 -12  -1   16.65    2.97
  12 -12  -1   17.67    3.11
  13 -12  -1   33.79    4.37
  14 -12  -1    8.73    2.51
  15 -12  -1    3.64    3.26
  -4 -11  -1    3.13    2.33
  -3 -11  -1    0.23    1.82
  -2 -11  -1    1.58    2.11
  -1 -11  -1   11.54    3.13
   0 -11  -1   12.95    2.94
   1 -11  -1   22.60    2.69
   2 -11  -1    6.70    1.67
   3 -11  -1  109.41    5.61
   4 -11  -1   34.35    3.80
   5 -11  -1   65.56    4.73
   6 -11  -1   -0.14    0.79
   7 -11  -1   24.50    2.85
   8 -11  -1   10.74    2.02
   9 -11  -1    5.63    1.52
  10 -11  -1   26.13    3.06
  11 -11  -1   16.61    2.64
  12 -11  -1    6.51    1.86
  13 -11  -1   43.35    4.38
  14 -11  -1    8.45    3.33
  15 -11  -1    4.31    2.86
  -5 -10  -1    9.17    3.21
  -4 -10  -1   31.73    5.34
  -3 -10  -1   24.73    5.26
  -2 -10  -1    1.62    1.64
  -1 -10  -1   17.34    3.50
   0 -10  -1   41.84    4.04
   1 -10  -1   48.01    4.24
   2 -10  -1   21.20    2.56
   3 -10  -1   14.39    1.99
   4 -10  -1    2.52    1.07
   5 -10  -1    1.70    0.92
   6 -10  -1    9.37    1.61
   7 -10  -1    5.06    1.30
   8 -10  -1   29.52    3.09
   9 -10  -1   77.69    4.71
  10 -10  -1   53.31    4.35
  11 -10  -1   25.48    3.07
  12 -10  -1    4.66    1.51
  13 -10  -1   42.72    5.59
  14 -10  -1    3.92    2.35
  15 -10  -1    5.15    2.55
  16 -10  -1    1.20    4.71
  -7  -9  -1   17.93    5.16
  -6  -9  -1    0.16    2.02
  -5  -9  -1    5.72    2.68
  -4  -9  -1    1.29    1.68
  -3  -9  -1    2.44    1.88
  -2  -9  -1    4.52    2.04
  -1  -9  -1   81.78    7.40
   0  -9  -1   13.14    1.99
   1  -9  -1   98.24    5.28
   2  -9  -1    0.87    0.77
   3  -9  -1    4.75    1.28
   4  -9  -1    4.14    1.13
   5  -9  -1   88.97    4.31
   6  -9  -1   34.52    3.05
   7  -9  -1   26.65    2.97
   8  -9  -1   20.40    2.46
   9  -9  -1   18.21    2.35
  10  -9  -1   43.96    3.92
  11  -9  -1    8.43    1.74
  12  -9  -1    8.74    1.98
  13  -9  -1   12.75    2.97
  14  -9  -1   17.52    3.63
  16  -9  -1    0.57    4.20
  -8  -8  -1   12.49    4.16
  -7  -8  -1   -0.30    1.75
  -6  -8  -1    2.44    2.00
  -5  -8  -1    0.91    1.55
  -4  -8  -1   10.22    2.89
  -3  -8  -1    9.88    2.80
  -2  -8  -1   22.58    3.73
  -1  -8  -1   18.07    2.20
   0  -8  -1    3.86    1.08
   1  -8  -1   74.60    4.32
   2  -8  -1   61.94    3.50
   3  -8  -1  110.71    5.05
   4  -8  -1   46.71    3.14
   5  -8  -1    2.38    0.84
   6  -8  -1    1.87    0.81
   7  -8  -1   11.57    1.31
   8  -8  -1    4.77    1.02
   9  -8  -1   94.88    3.91
  10  -8  -1   22.15    2.19
  11  -8  -1  118.16    4.85
  12  -8  -1    6.54    1.68
  13  -8  -1   -0.67    1.13
  14  -8  -1    6.07    2.43
  15  -8  -1    0.79    2.10
  16  -8  -1    7.88    3.65
  -9  -7  -1    1.92    3.07
  -8  -7  -1    4.65    2.56
  -7  -7  -1   58.40    5.59
  -6  -7  -1    5.81    1.87
  -5  -7  -1   13.86    2.33
  -4  -7  -1   22.06    2.64
  -3  -7  -1    6.81    1.49
  -2  -7  -1   27.60    2.12
  -1  -7  -1   10.92    1.23
   0  -7  -1    3.87    0.76
   1  -7  -1  173.79    5.78
   2  -7  -1   74.51    2.94
   3  -7  -1  226.19    7.06
   4  -7  -1   10.93    1.03
   5  -7  -1   58.00    2.43
   6  -7  -1  241.17    7.33
   7  -7  -1    2.53    0.68
   8  -7  -1   79.26    2.80
   9  -7  -1    1.81    0.63
  10  -7  -1   19.76    1.72
  11  -7  -1   27.74    3.15
  12  -7  -1    2.42    1.22
  13  -7  -1   10.21    2.71
  14  -7  -1   72.23    8.64
  15  -7  -1    2.30    2.22
  16  -7  -1   12.40    3.99
 -10  -6  -1    6.39    2.46
  -9  -6  -1   19.26    3.18
  -8  -6  -1    4.13    1.68
  -7  -6  -1    7.13    1.92
  -6  -6  -1    4.05    1.55
  -5  -6  -1    0.96    0.95
  -4  -6  -1    9.12    1.64
  -3  -6  -1   30.50    2.83
  -2  -6  -1    2.32    0.68
  -1  -6  -1  240.54    7.33
   0  -6  -1   13.97    1.22
   1  -6  -1   29.03    1.65
   2  -6  -1   86.30    3.16
   3  -6  -1   60.26    2.31
   4  -6  -1   45.95    1.89
   5  -6  -1   13.15    1.21
   6  -6  -1   14.15    1.08
   7  -6  -1  175.59    4.84
   8  -6  -1   63.98    2.52
   9  -6  -1    4.48    0.68
  10  -6  -1    3.70    0.94
  11  -6  -1   68.07    4.15
  12  -6  -1    7.57    1.82
  13  -6  -1    8.00    1.96
  14  -6  -1    4.26    1.95
  15  -6  -1    0.16    2.21
 -10  -5  -1    9.25    2.45
  -9  -5  -1   21.33    3.23
  -8  -5  -1    1.12    1.44
  -7  -5  -1    2.24    1.47
  -6  -5  -1   59.31    4.68
  -5  -5  -1    1.14    1.01
  -4  -5  -1   80.67    4.42
  -3  -5  -1    3.16    0.69
  -2  -5  -1   54.26    2.40
  -1  -5  -1   13.64    1.21
   0  -5  -1  167.06    5.05
   1  -5  -1   18.64    1.22
   2  -5  -1  159.53    5.00
   3  -5  -1   16.54    1.07
   4  -5  -1  304.14    8.20
   5  -5  -1  176.15    4.49
   6  -5  -1   31.69    1.65
   7  -5  -1   74.34    2.31
   8  -5  -1  120.13    3.37
   9  -5  -1    5.99    0.90
  10  -5  -1    0.62    0.62
  11  -5  -1   -0.14    0.93
  12  -5  -1   23.44    3.48
  13  -5  -1    1.93    1.42
  14  -5  -1   12.11    2.75
  15  -5  -1   18.82    3.47
 -11  -4  -1    4.36    2.09
 -10  -4  -1    5.93    2.27
  -9  -4  -1    8.40    2.24
  -8  -4  -1    4.10    1.55
  -7  -4  -1   22.16    3.08
  -6  -4  -1    3.89    1.30
  -5  -4  -1    5.53    1.30
  -4  -4  -1   48.40    2.45
  -3  -4  -1   13.08    1.16
  -2  -4  -1   39.80    1.83
  -1  -4  -1  298.76    8.19
   0  -4  -1   86.44    2.83
   1  -4  -1  229.56    6.92
   2  -4  -1   13.03    0.94
   3  -4  -1    4.16    0.58
   4  -4  -1   83.53    2.57
   5  -4  -1   15.53    1.08
   6  -4  -1   83.40    2.43
   7  -4  -1  222.84    5.93
   8  -4  -1   50.56    2.24
   9  -4  -1   87.50    3.14
  10  -4  -1    9.34    1.43
  11  -4  -1   22.14    3.27
  12  -4  -1   14.52    2.63
  13  -4  -1    3.18    1.88
  14  -4  -1   31.43    4.22
  15  -4  -1    2.12    2.00
 -12  -3  -1   -1.13    3.06
 -11  -3  -1    6.39    2.42
 -10  -3  -1   33.32    3.52
  -9  -3  -1    4.57    1.69
  -8  -3  -1  108.65    6.08
  -7  -3  -1   17.36    2.30
  -6  -3  -1    3.23    1.13
  -5  -3  -1  116.71    5.31
  -4  -3  -1  226.33    6.69
  -3  -3  -1   56.56    2.30
  -2  -3  -1   17.20    1.19
  -1  -3  -1    4.86    0.58
   0  -3  -1  416.48   10.88
   1  -3  -1  153.45    4.28
   2  -3  -1  150.27    4.25
   3  -3  -1  428.24    9.68
   4  -3  -1  227.59    5.39
   5  -3  -1  164.80    3.78
   6  -3  -1   63.14    2.17
   7  -3  -1   10.81    0.88
   8  -3  -1    3.65    0.63
   9  -3  -1   33.01    2.53
  10  -3  -1    4.35    1.06
  11  -3  -1    5.04    1.70
  12  -3  -1    1.48    1.33
  13  -3  -1   34.72    4.51
  14  -3  -1    0.62    1.65
  15  -3  -1    2.45    2.84
 -12  -2  -1    6.65    2.96
 -11  -2  -1   36.40    4.24
 -10  -2  -1    3.32    1.67
  -9  -2  -1    9.90    1.96
  -8  -2  -1   17.00    2.50
  -7  -2  -1    2.09    1.09
  -6  -2  -1   68.03    3.81
  -5  -2  -1   74.67    2.88
  -4  -2  -1   89.35    3.05
  -3  -2  -1  160.94    5.00
  -2  -2  -1   12.48    0.82
  -1  -2  -1  151.17    4.61
   0  -2  -1  118.01    3.73
   1  -2  -1   37.96    1.45
   2  -2  -1  122.33    3.27
   3  -2  -1  154.70    3.67
   4  -2  -1   14.32    0.84
   5  -2  -1   15.71    0.87
   6  -2  -1   42.81    1.58
   7  -2  -1   56.48    2.11
   8  -2  -1    3.04    0.79
   9  -2  -1   34.34    2.75
  10  -2  -1   33.05    2.97
  11  -2  -1    6.87    2.05
  12  -2  -1    1.39    1.41
  13  -2  -1    6.91    2.30
  14  -2  -1   16.37    3.39
 -13  -1  -1   -0.95    2.20
 -12  -1  -1   27.84    5.02
 -11  -1  -1    3.91    1.74
 -10  -1  -1   18.87    2.70
  -9  -1  -1   47.92    4.28
  -8  -1  -1  103.80    5.28
  -7  -1  -1   79.04    4.29
  -6  -1  -1  171.07    5.63
  -5  -1  -1   31.42    1.70
  -4  -1  -1   16.94    1.04
  -3  -1  -1  226.83    6.88
  -2  -1  -1  152.47    5.91
  -1  -1  -1   36.30    1.80
   0  -1  -1   23.47    0.77
   1  -1  -1   22.98    0.88
   2  -1  -1   37.82    1.43
   3  -1  -1  154.09    3.84
   4  -1  -1    5.19    0.44
   5  -1  -1  295.83    7.27
   6  -1  -1   12.83    0.97
   7  -1  -1  253.78    6.59
   8  -1  -1    9.42    1.33
   9  -1  -1   19.36    2.17
  10  -1  -1   78.64    4.54
  11  -1  -1   30.80    3.03
  12  -1  -1   19.05    3.26
  13  -1  -1   12.49    2.91
  14  -1  -1    4.12    2.03
 -13   0  -1    1.93    2.35
 -12   0  -1   20.69    3.35
 -11   0  -1   15.12    2.65
 -10   0  -1   51.10    4.50
  -9   0  -1   16.32    2.42
  -8   0  -1    6.60    1.47
  -7   0  -1    5.83    1.34
  -6   0  -1   14.83    1.26
  -5   0  -1  171.03    5.53
  -4   0  -1   89.64    3.02
  -3   0  -1  417.50   12.14
  -2   0  -1  119.74    4.08
  -1   0  -1   22.78    1.12
   0   0  -1    0.15    0.14
   1   0  -1   24.85    0.79
   2   0  -1  121.44    3.50
   3   0  -1  415.88   11.03
   4   0  -1   87.95    2.50
   5   0  -1  171.57    4.56
   6   0  -1   14.71    1.04
   7   0  -1    3.12    0.88
   8   0  -1    7.05    1.37
   9   0  -1   13.35    1.96
  10   0  -1   53.01    3.97
  11   0  -1   12.35    2.05
  12   0  -1   19.50    3.53
  13   0  -1    1.69    1.57
 -14   1  -1    3.51    2.69
 -13   1  -1   17.37    4.27
 -12   1  -1   12.85    2.42
 -11   1  -1   19.31    2.86
 -10   1  -1   84.16    5.36
  -9   1  -1   17.05    2.38
  -8   1  -1    8.02    1.50
  -7   1  -1  242.84    8.05
  -6   1  -1   12.92    1.34
  -5   1  -1  287.63    8.23
  -4   1  -1    4.23    0.56
  -3   1  -1  150.29    5.72
  -2   1  -1   36.46    1.66
  -1   1  -1   23.57    1.18
   0   1  -1   24.37    0.86
   1   1  -1   37.10    1.16
   2   1  -1  152.81    3.81
   3   1  -1  230.62    5.68
   4   1  -1   15.72    0.96
   5   1  -1   29.91    1.61
   6   1  -1  175.19    5.21
   7   1  -1   82.68    3.87
   8   1  -1   94.97    4.54
   9   1  -1   45.17    3.68
  10   1  -1   21.05    2.61
  11   1  -1    3.56    1.38
  12   1  -1   22.93    3.65
  13   1  -1    1.46    1.76
 -14   2  -1   19.96    4.71
 -13   2  -1    8.13    2.94
 -12   2  -1   -0.06    1.27
 -11   2  -1    5.82    1.66
 -10   2  -1   26.54    3.04
  -9   2  -1   27.62    2.86
  -8   2  -1    2.79    0.77
  -7   2  -1   59.41    3.11
  -6   2  -1   40.48    2.20
  -5   2  -1   13.15    1.41
  -4   2  -1   12.35    1.61
  -3   2  -1  146.02    8.13
  -2   2  -1  125.69    3.33
  -1   2  -1   40.08    1.42
   0   2  -1  121.99    3.26
   1   2  -1  152.86    4.05
   2   2  -1   13.24    0.93
   3   2  -1  159.73    4.53
   4   2  -1   85.36    2.96
   5   2  -1   74.73    2.81
   6   2  -1   57.03    3.57
   7   2  -1    1.15    0.92
   8   2  -1   20.68    2.33
   9   2  -1    9.22    1.75
  10   2  -1    3.48    1.32
  11   2  -1   34.21    3.54
  12   2  -1    6.50    2.23
 -15   3  -1    7.09    6.81
 -14   3  -1   -0.30    2.17
 -13   3  -1   34.85    5.24
 -12   3  -1    1.29    1.26
 -11   3  -1    7.86    1.83
 -10   3  -1    5.12    1.51
  -9   3  -1   33.75    2.44
  -8   3  -1    3.15    0.87
  -7   3  -1    8.69    1.23
  -6   3  -1   53.72    6.98
  -5   3  -1  149.40    7.01
  -4   3  -1  242.08    8.65
  -3   3  -1  426.47   12.18
  -2   3  -1  157.28    4.56
  -1   3  -1  157.22    4.05
   0   3  -1  434.16   10.59
   1   3  -1    4.97    0.55
   2   3  -1   18.83    1.23
   3   3  -1   61.47    2.32
   4   3  -1  228.39    6.47
   5   3  -1  118.89    4.04
   6   3  -1    3.52    1.09
   7   3  -1   21.63    2.41
   8   3  -1  114.55    5.37
   9   3  -1    6.85    1.60
  10   3  -1   32.21    3.36
  11   3  -1    7.19    1.82
  12   3  -1    0.67    2.56
 -15   4  -1   -0.73    2.60
 -14   4  -1   41.35    6.11
 -13   4  -1    0.78    2.02
 -12   4  -1   14.74    2.38
 -11   4  -1   22.30    2.75
 -10   4  -1    5.79    1.43
  -9   4  -1   88.28    3.75
  -8   4  -1   51.21    4.84
  -7   4  -1  237.41   12.90
  -6   4  -1   83.22    5.70
  -5   4  -1   15.86    1.30
  -4   4  -1   87.31    2.98
  -3   4  -1    6.19    0.58
  -2   4  -1   14.50    0.71
  -1   4  -1  232.77    5.98
   0   4  -1   87.23    2.63
   1   4  -1  298.47    7.88
   2   4  -1   40.97    1.89
   3   4  -1   10.42    1.10
   4   4  -1   51.46    2.45
   5   4  -1    4.81    1.21
   6   4  -1    3.65    1.10
   7   4  -1   25.54    2.77
   8   4  -1   10.50    1.88
   9   4  -1    9.82    1.88
  10   4  -1    6.55    1.84
  11   4  -1    1.00    1.47
 -15   5  -1   13.87    3.99
 -14   5  -1    8.54    3.09
 -13   5  -1   -0.77    1.67
 -12   5  -1   21.68    2.97
 -11   5  -1   -1.08    0.74
 -10   5  -1    1.21    0.74
  -9   5  -1    5.23    0.96
  -8   5  -1  109.57    7.82
  -7   5  -1   69.05    5.27
  -6   5  -1   36.38    1.88
  -5   5  -1  173.65    5.42
  -4   5  -1  313.90    7.74
  -3   5  -1   18.02    1.32
  -2   5  -1  161.88    5.13
  -1   5  -1   16.43    0.92
   0   5  -1  173.35    4.79
   1   5  -1   11.84    1.05
   2   5  -1   57.54    2.36
   3   5  -1    3.22    0.66
   4   5  -1   87.54    3.34
   5   5  -1    2.17    0.92
   6   5  -1   61.46    4.28
   7   5  -1    1.68    1.09
   8   5  -1    0.85    1.10
   9   5  -1   21.41    2.91
  10   5  -1    6.25    1.99
 -16   6  -1   -0.35    1.99
 -15   6  -1    0.12    2.12
 -14   6  -1    5.41    2.53
 -13   6  -1    3.68    2.28
 -12   6  -1    5.58    1.65
 -11   6  -1   60.95    3.03
 -10   6  -1    3.74    0.81
  -9   6  -1    4.04    0.87
  -8   6  -1   63.02    3.62
  -7   6  -1  179.58    5.83
  -6   6  -1   14.59    1.12
  -5   6  -1   14.05    1.00
  -4   6  -1   41.41    1.95
  -3   6  -1   64.21    2.58
  -2   6  -1   86.55    3.34
  -1   6  -1   32.13    1.43
   0   6  -1   14.73    1.11
   1   6  -1  244.81    7.02
   2   6  -1    2.71    0.65
   3   6  -1   31.68    2.21
   4   6  -1    8.12    1.23
   5   6  -1    1.12    0.87
   6   6  -1    3.28    1.25
   7   6  -1    5.27    1.50
   8   6  -1    7.24    1.87
   9   6  -1   17.30    3.43
 -16   7  -1   18.48    5.08
 -15   7  -1    0.72    1.69
 -14   7  -1   55.28    6.62
 -13   7  -1    4.90    1.72
 -12   7  -1    2.33    0.73
 -11   7  -1   25.95    1.60
 -10   7  -1   18.40    1.62
  -9   7  -1    1.07    0.54
  -8   7  -1   81.68    2.93
  -7   7  -1    2.75    0.58
  -6   7  -1  256.46    6.79
  -5   7  -1   56.56    2.56
  -4   7  -1   12.07    1.23
  -3   7  -1  226.54    7.26
  -2   7  -1   73.53    3.18
  -1   7  -1  175.85    6.09
   0   7  -1    3.36    0.84
   1   7  -1   13.24    1.60
   2   7  -1   30.03    2.62
   3   7  -1    6.81    1.31
   4   7  -1   21.21    2.91
   5   7  -1   21.57    3.34
   6   7  -1    5.96    2.06
   7   7  -1   82.75    6.86
   8   7  -1    3.16    1.89
   9   7  -1    9.42    5.36
 -13   8  -1   -0.79    1.32
 -12   8  -1    8.58    1.08
 -11   8  -1  107.91    4.79
 -10   8  -1   19.91    1.98
  -9   8  -1   97.56    4.11
  -8   8  -1    6.39    1.04
  -7   8  -1   11.33    1.36
  -6   8  -1    2.66    0.70
  -5   8  -1    3.33    0.74
  -4   8  -1   48.38    2.51
  -3   8  -1  114.89    4.49
  -2   8  -1   62.21    3.01
  -1   8  -1   78.99    3.58
   0   8  -1    6.85    1.22
   1   8  -1   20.31    2.17
   2   8  -1   30.76    2.83
   3   8  -1   10.94    1.73
   4   8  -1   14.13    2.67
   5   8  -1    1.00    1.34
   6   8  -1    8.17    2.41
   7   8  -1    2.73    1.88
   8   8  -1    3.75    3.17
 -13   9  -1   14.66    2.06
 -12   9  -1    3.87    1.18
 -11   9  -1    7.82    1.47
 -10   9  -1   52.49    4.30
  -9   9  -1   13.85    2.11
  -8   9  -1   17.53    2.40
  -7   9  -1   31.85    3.09
  -6   9  -1   32.51    2.50
  -5   9  -1   87.65    3.57
  -4   9  -1    7.72    1.18
  -3   9  -1    5.40    0.99
  -2   9  -1    2.63    0.86
  -1   9  -1  101.67    4.42
   0   9  -1   10.22    1.51
   1   9  -1   73.52    4.39
   2   9  -1    5.45    1.32
   3   9  -1    1.95    1.37
   4   9  -1    2.71    1.74
   5   9  -1    9.67    2.61
   6   9  -1   -1.22    1.58
   7   9  -1   22.88    5.71
 -13  10  -1   31.63    3.20
 -12  10  -1    6.48    1.90
 -11  10  -1   20.75    2.28
 -10  10  -1   41.50    4.05
  -9  10  -1   70.38    4.75
  -8  10  -1   29.11    3.19
  -7  10  -1    8.72    1.62
  -6  10  -1    9.00    1.71
  -5  10  -1    1.69    0.91
  -4  10  -1    5.74    1.45
  -3  10  -1   18.40    2.50
  -2  10  -1   18.74    2.60
  -1  10  -1   37.93    3.14
   0  10  -1   45.41    4.48
   1  10  -1   28.90    3.49
   2  10  -1    1.27    1.24
   3  10  -1   32.19    4.81
   4  10  -1   43.63    7.55
   5  10  -1   15.40    4.81
 -14  11  -1    8.34    2.48
 -13  11  -1   38.62    4.50
 -12  11  -1    6.36    2.06
 -11  11  -1   15.33    2.05
 -10  11  -1   27.53    2.70
  -9  11  -1    4.84    1.20
  -8  11  -1    9.81    1.92
  -7  11  -1   24.56    2.91
  -6  11  -1    0.04    0.79
  -5  11  -1   65.00    4.55
  -4  11  -1   29.33    3.42
  -3  11  -1  121.27    5.23
  -2  11  -1    9.98    1.73
  -1  11  -1   17.13    2.80
   0  11  -1   15.88    2.85
   1  11  -1   12.35    2.54
   2  11  -1    8.51    3.35
   3  11  -1    2.46    2.64
   4  11  -1   -2.58    2.64
 -15  12  -1   -3.89    2.78
 -14  12  -1    9.44    2.06
 -13  12  -1   32.26    4.25
 -12  12  -1   19.73    3.23
 -11  12  -1    6.52    1.92
 -10  12  -1    0.53    0.93
  -9  12  -1    0.56    0.87
  -8  12  -1   13.21    1.95
  -7  12  -1   21.52    2.45
  -6  12  -1    5.32    1.35
  -5  12  -1    2.62    1.13
  -4  12  -1    7.74    1.49
  -3  12  -1    7.99    1.62
  -2  12  -1    6.75    1.98
  -1  12  -1    9.17    2.27
   0  12  -1   18.65    3.08
   1  12  -1   11.68    4.22
   2  12  -1   20.73    5.28
 -14  13  -1    2.33    1.68
 -13  13  -1    2.10    1.65
 -12  13  -1    9.10    2.49
 -11  13  -1    6.62    2.05
 -10  13  -1   30.47    3.14
  -9  13  -1    0.55    1.09
  -8  13  -1   -0.15    0.81
  -7  13  -1   10.28    1.85
  -6  13  -1    8.15    1.67
  -5  13  -1   -0.18    0.85
  -4  13  -1   12.38    2.11
  -3  13  -1   28.08    3.11
  -2  13  -1   36.93    4.48
  -1  13  -1   24.63    3.87
   0  13  -1    3.99    2.01
   1  13  -1    6.88    3.87
 -14  14  -1    1.20    2.17
 -13  14  -1    5.53    2.24
 -12  14  -1   20.85    3.79
 -11  14  -1   -0.14    1.33
 -10  14  -1   27.69    4.04
  -9  14  -1   11.03    2.06
  -8  14  -1    4.35    1.55
  -7  14  -1   70.25    4.99
  -6  14  -1    6.72    1.66
  -5  14  -1   20.86    2.75
  -4  14  -1    5.79    1.63
  -3  14  -1    6.22    2.16
  -2  14  -1   10.12    2.77
  -1  14  -1   -1.54    1.57
 -12  15  -1    8.29    3.86
 -11  15  -1    1.62    1.89
 -10  15  -1   15.40    3.38
  -9  15  -1    0.30    1.26
  -8  15  -1    3.43    1.51
  -7  15  -1    3.67    1.65
  -6  15  -1   18.42    2.68
  -5  15  -1    5.92    1.79
  -4  15  -1    1.71    1.88
  -3  15  -1    1.27    2.00
  -8  16  -1    7.16    3.79
  -7  16  -1    6.72    2.58
  -6  16  -1    7.89    3.13
   6 -16   0    4.76    3.77
   7 -16   0    1.78    3.16
   9 -16   0    4.26    3.93
   4 -15   0   34.44    4.48
   5 -15   0   -0.04    1.54
   6 -15   0    2.73    1.91
   7 -15   0   -0.76    1.33
   8 -15   0    3.27    1.90
   9 -15   0   65.13    6.21
  10 -15   0    6.45    2.19
  11 -15   0    1.94    1.90
  12 -15   0   26.74    4.79
  13 -15   0   12.74    5.14
   1 -14   0   29.33    6.23
   2 -14   0   19.04    5.04
   3 -14   0    7.20    2.26
   4 -14   0   22.46    3.57
   5 -14   0   -0.05    1.22
   6 -14   0   12.58    2.75
   7 -14   0   10.84    2.62
   8 -14   0   35.60    4.37
   9 -14   0   15.01    2.93
  10 -14   0    5.19    1.90
  11 -14   0   17.85    3.22
  12 -14   0   -0.48    1.49
  13 -14   0    5.41    2.18
  14 -14   0    7.56    3.39
  -1 -13   0    5.06    2.78
   0 -13   0   17.05    4.78
   1 -13   0   18.18    4.51
   2 -13   0   -0.51    1.25
   3 -13   0   14.68    2.75
   4 -13   0   14.74    2.76
   5 -13   0  110.23    6.75
   6 -13   0    5.39    1.77
   7 -13   0   32.27    3.93
   8 -13   0   16.08    2.87
   9 -13   0   25.44    3.54
  10 -13   0   19.65    3.04
  11 -13   0    1.65    1.44
  12 -13   0    0.76    1.50
  13 -13   0   25.69    3.92
  14 -13   0   24.73    3.90
  15 -13   0   11.18    5.48
  -3 -12   0   23.40    7.83
  -2 -12   0   -0.15    2.02
  -1 -12   0   -0.50    2.02
   0 -12   0   17.77    4.66
   1 -12   0    6.92    1.78
   2 -12   0    1.53    1.32
   3 -12   0    0.41    1.06
   4 -12   0    0.48    1.09
   5 -12   0   -0.79    0.87
   6 -12   0    0.23    1.03
   7 -12   0   14.66    2.03
   8 -12   0    0.44    0.85
   9 -12   0    3.15    1.47
  10 -12   0  166.89    8.56
  11 -12   0    2.46    1.36
  12 -12   0   23.36    3.60
  13 -12   0   17.12    3.01
  14 -12   0   23.61    3.80
  15 -12   0    4.48    2.09
  -4 -11   0    0.59    2.74
  -3 -11   0    6.33    2.82
  -2 -11   0    3.90    2.35
  -1 -11   0    0.68    1.61
   0 -11   0    1.44    1.17
   1 -11   0   43.82    3.90
   2 -11   0   42.64    4.25
   3 -11   0   86.17    5.28
   4 -11   0   15.36    2.53
   5 -11   0   81.32    4.32
   6 -11   0   85.55    4.41
   7 -11   0  173.10    8.23
   8 -11   0   23.52    3.08
   9 -11   0    8.03    1.57
  10 -11   0   10.33    2.05
  11 -11   0    2.41    1.30
  12 -11   0    4.55    1.74
  13 -11   0    0.37    1.25
  14 -11   0    9.50    2.56
  15 -11   0   39.98    6.89
  -6 -10   0   -0.47    4.54
  -5 -10   0    3.84    2.48
  -4 -10   0    1.78    2.20
  -3 -10   0   11.71    3.12
  -2 -10   0  155.17   12.71
  -1 -10   0    9.66    1.90
   0 -10   0   11.99    2.10
   1 -10   0   20.05    2.50
   2 -10   0    1.70    0.91
   3 -10   0    0.12    0.69
   4 -10   0   26.76    2.33
   5 -10   0   35.73    2.93
   6 -10   0  193.70    8.64
   7 -10   0   27.18    2.82
   8 -10   0    0.33    0.66
   9 -10   0   48.90    4.01
  10 -10   0   11.09    1.52
  11 -10   0   46.22    4.13
  12 -10   0    3.25    1.45
  13 -10   0   17.09    2.94
  14 -10   0   11.34    3.75
  15 -10   0   -1.42    1.88
  -7  -9   0    4.88    5.01
  -6  -9   0   33.89    6.45
  -5  -9   0   10.48    3.08
  -4  -9   0   19.48    3.71
  -3  -9   0    0.69    1.49
  -2  -9   0    5.44    2.30
  -1  -9   0   48.35    4.03
   0  -9   0   39.65    3.50
   1  -9   0    0.70    0.70
   2  -9   0  105.80    4.50
   3  -9   0  279.13    8.42
   4  -9   0    2.76    0.84
   5  -9   0   73.47    3.52
   6  -9   0    7.83    1.18
   7  -9   0   56.03    3.58
   8  -9   0    0.41    0.61
   9  -9   0   34.42    3.20
  10  -9   0   24.47    2.78
  11  -9   0   46.08    3.98
  12  -9   0    1.28    1.01
  13  -9   0   18.76    2.74
  14  -9   0    1.29    1.76
  15  -9   0    1.93    3.98
  -8  -8   0    2.47    2.37
  -7  -8   0   -0.77    1.85
  -6  -8   0   26.08    4.74
  -5  -8   0    7.29    2.55
  -4  -8   0    0.86    1.51
  -3  -8   0   17.73    3.49
  -2  -8   0    0.79    0.84
  -1  -8   0    0.93    0.80
   0  -8   0  101.31    5.49
   1  -8   0   37.47    2.51
   2  -8   0    6.03    1.02
   3  -8   0   24.03    2.13
   4  -8   0    2.73    0.69
   5  -8   0   32.02    2.34
   6  -8   0  116.72    4.60
   7  -8   0  271.87    8.03
   8  -8   0  117.29    4.20
   9  -8   0    0.21    0.50
  10  -8   0   -0.37    0.56
  11  -8   0   73.87    4.36
  12  -8   0    0.76    0.85
  13  -8   0  107.12    9.33
  14  -8   0    5.15    2.52
  15  -8   0   -0.93    2.29
  16  -8   0    3.24    3.80
  -9  -7   0    6.31    2.82
  -8  -7   0   -0.78    1.74
  -7  -7   0    6.73    2.66
  -6  -7   0   30.05    3.79
  -5  -7   0   11.77    2.01
  -4  -7   0  158.03    7.18
  -3  -7   0   22.94    2.03
  -2  -7   0   55.29    2.82
  -1  -7   0  256.41    7.78
   0  -7   0    6.05    0.74
   1  -7   0    1.73    0.42
   2  -7   0    0.76    0.49
   3  -7   0   46.70    2.56
   4  -7   0  150.94    4.74
   5  -7   0   85.89    2.81
   6  -7   0  206.37    5.31
   7  -7   0    7.62    0.91
   8  -7   0   32.82    2.32
   9  -7   0  109.25    3.63
  10  -7   0    1.15    0.47
  11  -7   0   15.53    1.41
  12  -7   0    0.85    0.84
  13  -7   0    5.04    1.71
  14  -7   0   11.98    2.65
  15  -7   0   -0.11    2.31
  16  -7   0    2.87    3.09
 -10  -6   0    4.71    2.49
  -9  -6   0    3.39    1.74
  -8  -6   0   11.78    2.45
  -7  -6   0    5.89    1.80
  -6  -6   0    0.58    1.06
  -5  -6   0   76.99    4.92
  -4  -6   0  188.14    6.47
  -3  -6   0    7.33    1.10
  -2  -6   0  112.41    4.06
  -1  -6   0  192.99    5.98
   0  -6   0    4.40    0.61
   1  -6   0   82.92    2.51
   2  -6   0   52.02    2.38
   3  -6   0  372.41   11.03
   4  -6   0   28.73    1.29
   5  -6   0   10.37    0.89
   6  -6   0    4.02    0.66
   7  -6   0    2.12    0.44
   8  -6   0    6.32    0.64
   9  -6   0  280.45    6.13
  10  -6   0   26.80    1.61
  11  -6   0   77.88    2.83
  12  -6   0    1.41    1.17
  13  -6   0   21.96    3.47
  14  -6   0   33.40    6.63
  15  -6   0   48.69    5.67
  16  -6   0    0.88    3.19
 -10  -5   0    1.39    1.68
  -9  -5   0    1.63    1.48
  -8  -5   0  120.02    7.14
  -7  -5   0    0.73    1.13
  -6  -5   0   70.32    4.77
  -5  -5   0   34.63    3.26
  -4  -5   0   72.58    3.17
  -3  -5   0   29.74    2.07
  -2  -5   0   80.59    3.13
  -1  -5   0    8.79    0.95
   0  -5   0    1.05    0.33
   1  -5   0  321.97    7.41
   2  -5   0   92.48    3.06
   3  -5   0   10.19    0.97
   4  -5   0    6.26    0.68
   5  -5   0    1.32    0.39
   6  -5   0   84.40    2.04
   7  -5   0    0.43    0.28
   8  -5   0   22.26    1.31
   9  -5   0    3.09    0.50
  10  -5   0   28.87    1.86
  11  -5   0   83.29    4.47
  12  -5   0   19.75    2.67
  13  -5   0   15.21    3.00
  14  -5   0   10.08    2.75
  15  -5   0    3.95    2.17
 -11  -4   0   38.72    4.55
 -10  -4   0   14.53    2.71
  -9  -4   0   14.85    2.57
  -8  -4   0   -0.20    1.15
  -7  -4   0   15.94    2.29
  -6  -4   0   22.25    3.57
  -5  -4   0    3.65    1.02
  -4  -4   0    3.14    0.83
  -3  -4   0  133.28    5.53
  -2  -4   0   26.60    2.16
  -1  -4   0    6.03    0.74
   0  -4   0  103.40    2.85
   1  -4   0  121.23    3.27
   2  -4   0  792.42   22.14
   3  -4   0  288.84    8.52
   4  -4   0  106.12    2.40
   5  -4   0  316.17    5.83
   6  -4   0   48.28    1.52
   7  -4   0   44.09    1.53
   8  -4   0    2.22    0.41
   9  -4   0   66.02    2.48
  10  -4   0  189.64    5.93
  11  -4   0  172.68    6.76
  12  -4   0    1.86    1.10
  13  -4   0   21.42    3.43
  14  -4   0    4.27    1.96
  15  -4   0   -0.17    1.72
 -12  -3   0    3.65    2.41
 -11  -3   0    9.12    2.47
 -10  -3   0   15.04    2.67
  -9  -3   0    0.35    1.21
  -8  -3   0   82.16    5.86
  -7  -3   0   -0.73    1.08
  -6  -3   0  280.92   10.32
  -5  -3   0   23.34    2.20
  -4  -3   0   47.18    2.84
  -3  -3   0  356.28   11.70
  -2  -3   0   10.25    1.13
  -1  -3   0  290.81    9.19
   0  -3   0   13.28    0.74
   1  -3   0   30.26    1.33
   2  -3   0   46.35    1.44
   3  -3   0   16.20    0.69
   4  -3   0  115.87    2.42
   5  -3   0   92.16    2.22
   6  -3   0  365.49    7.30
   7  -3   0  142.01    3.75
   8  -3   0   30.58    1.75
   9  -3   0    5.83    0.92
  10  -3   0   25.07    2.51
  11  -3   0   20.73    2.49
  12  -3   0    1.79    1.06
  13  -3   0    9.32    2.27
  14  -3   0   13.41    2.94
  15  -3   0   21.41    6.37
 -13  -2   0   11.84    4.23
 -12  -2   0   15.38    2.91
 -11  -2   0    0.81    1.46
 -10  -2   0    2.58    1.47
  -9  -2   0   37.74    5.34
  -8  -2   0    1.39    1.39
  -7  -2   0  100.25    7.11
  -6  -2   0    5.23    1.08
  -5  -2   0    0.75    0.60
  -4  -2   0   52.51    2.62
  -3  -2   0   91.92    4.05
  -2  -2   0  782.48   27.11
  -1  -2   0   43.70    1.94
   0  -2   0   36.27    1.27
   1  -2   0    5.12    0.46
   2  -2   0   35.54    0.90
   3  -2   0   30.26    0.82
   4  -2   0  794.88   13.62
   5  -2   0   10.70    0.72
   6  -2   0   26.49    1.56
   7  -2   0   87.16    3.04
   8  -2   0  109.38    3.86
   9  -2   0   57.90    2.98
  10  -2   0    0.69    0.77
  11  -2   0    6.40    1.51
  12  -2   0  163.96    8.95
  13  -2   0    3.51    1.92
  14  -2   0    0.06    1.57
 -13  -1   0   21.44    4.54
 -12  -1   0   14.37    2.77
 -11  -1   0    6.04    1.95
 -10  -1   0   46.06    5.83
  -9  -1   0   21.89    3.82
  -8  -1   0    1.00    1.09
  -7  -1   0   37.56    3.12
  -6  -1   0    0.96    0.57
  -5  -1   0   82.88    3.71
  -4  -1   0  304.37   10.17
  -3  -1   0  115.87    4.82
  -2  -1   0   27.52    1.49
  -1  -1   0    5.43    0.57
   0  -1   0    1.65    0.20
   1  -1   0    1.48    0.14
   2  -1   0    5.68    0.32
   3  -1   0   44.49    1.18
   4  -1   0  294.29    6.95
   5  -1   0    6.16    0.70
   6  -1   0    8.93    0.96
   7  -1   0  196.33    5.87
   8  -1   0  262.76    7.66
   9  -1   0    1.29    0.88
  10  -1   0   48.57    3.89
  11  -1   0   12.68    2.07
  12  -1   0    0.63    1.09
  13  -1   0   -0.38    1.53
  14  -1   0    1.46    1.79
 -14   0   0    3.73    4.06
 -13   0   0   23.80    3.58
 -12   0   0   13.71    2.73
 -11   0   0    1.76    1.88
 -10   0   0    9.95    2.83
  -9   0   0   31.93    4.44
  -8   0   0  105.85    5.00
  -7   0   0    7.45    1.29
  -6   0   0    2.91    0.85
  -5   0   0    0.97    0.53
  -4   0   0  104.29    4.47
  -3   0   0   13.80    1.16
  -2   0   0   37.91    1.73
  -1   0   0    2.15    0.43
   1   0   0    1.74    0.25
   2   0   0   34.60    1.18
   3   0   0   14.35    0.96
   4   0   0  101.55    3.22
   5   0   0    0.52    0.35
   6   0   0    3.48    0.67
   7   0   0    5.50    0.81
   8   0   0  101.53    4.74
   9   0   0   37.21    3.27
  10   0   0    9.09    1.69
  11   0   0    1.15    1.19
  12   0   0   15.44    2.54
  13   0   0   22.58    3.13
 -14   1   0    2.65    1.99
 -13   1   0    0.88    1.53
 -12   1   0   -0.10    1.45
 -11   1   0    5.02    2.41
 -10   1   0   45.57    6.32
  -9   1   0   -0.01    0.97
  -8   1   0  265.61   10.68
  -7   1   0  190.45    8.11
  -6   1   0    8.62    1.23
  -5   1   0    4.61    0.84
  -4   1   0  290.92    9.18
  -3   1   0   45.11    2.12
  -1   1   0    1.53    0.23
   0   1   0    1.29    0.19
   1   1   0    4.75    0.52
   2   1   0   29.46    1.27
   3   1   0  120.17    3.56
   4   1   0  307.32    8.38
   5   1   0   78.37    2.95
   6   1   0    1.38    0.51
   7   1   0   33.73    2.12
   8   1   0    0.90    0.73
   9   1   0   24.25    2.72
  10   1   0   52.90    4.29
  11   1   0    6.91    1.70
  12   1   0    8.56    1.97
  13   1   0   21.50    3.05
 -14   2   0   -0.48    1.52
 -13   2   0    4.34    1.94
 -12   2   0  177.57   13.01
 -11   2   0    4.38    2.00
 -10   2   0    1.14    1.30
  -9   2   0   59.63    3.67
  -8   2   0  101.09    5.28
  -7   2   0   83.51    3.93
  -6   2   0   23.46    1.98
  -5   2   0    8.82    1.15
  -2   2   0   38.03    1.63
  -1   2   0    5.37    0.43
   0   2   0   36.49    1.16
   1   2   0   44.14    1.56
   2   2   0  805.40   19.30
   3   2   0   89.87    3.04
   4   2   0   49.33    2.11
   5   2   0    0.45    0.43
   6   2   0    5.92    0.92
   7   2   0  103.91    4.23
   8   2   0   -0.09    0.72
   9   2   0   43.92    3.76
  10   2   0    4.10    1.45
  11   2   0   -0.01    1.17
  12   2   0   14.60    2.58
 -15   3   0   26.46    6.72
 -14   3   0   12.32    2.55
 -13   3   0   12.93    3.48
 -12   3   0    1.68    1.40
 -11   3   0   16.47    3.27
 -10   3   0   21.92    2.50
  -9   3   0    5.39    1.13
  -8   3   0   30.76    2.57
  -7   3   0  143.17    4.98
  -6   3   0  349.98   18.49
  -3   3   0   16.46    0.95
  -2   3   0   46.15    1.63
  -1   3   0   29.86    1.25
   0   3   0   14.23    0.82
   1   3   0  298.93    7.58
   2   3   0    8.89    0.90
   3   3   0  367.20    9.68
   4   3   0   45.86    2.27
   5   3   0   17.60    1.59
   6   3   0  272.61    8.15
   7   3   0    0.23    0.72
   8   3   0   86.41    5.42
   9   3   0   -0.07    0.99
  10   3   0   16.41    2.48
  11   3   0    8.22    1.95
  12   3   0    4.83    1.96
 -15   4   0    1.57    2.72
 -14   4   0    6.75    2.11
 -13   4   0   20.65    3.74
 -12   4   0    0.03    1.37
 -11   4   0  157.78    8.35
 -10   4   0  168.77    7.45
  -9   4   0   72.18    4.14
  -8   4   0    2.78    0.71
  -7   4   0   47.91    2.79
  -5   4   0  317.98   16.37
  -4   4   0  108.92    3.50
  -3   4   0  291.51    8.48
  -2   4   0  795.16   21.97
  -1   4   0  117.55    3.88
   0   4   0  107.68    3.11
   1   4   0    6.24    0.69
   2   4   0   23.66    1.56
   3   4   0  143.28    4.57
   4   4   0    3.14    0.75
   5   4   0    4.82    0.92
   6   4   0   28.17    2.20
   7   4   0   13.77    1.92
   8   4   0    0.94    1.07
   9   4   0   14.12    2.39
  10   4   0   16.90    2.45
  11   4   0   30.59    3.53
 -15   5   0    3.20    2.78
 -14   5   0    7.94    2.33
 -13   5   0   17.87    4.24
 -12   5   0    7.08    2.46
 -11   5   0   81.85    4.67
 -10   5   0   32.14    2.10
  -9   5   0    3.52    0.73
  -8   5   0   22.35    1.88
  -7   5   0    0.63    0.36
  -6   5   0   82.19    3.85
  -5   5   0    1.90    0.44
  -4   5   0    6.10    0.70
  -3   5   0   12.45    0.96
  -2   5   0   88.62    3.17
  -1   5   0  320.96    9.44
   0   5   0    1.40    0.41
   1   5   0   10.70    1.01
   2   5   0   84.54    3.07
   3   5   0   28.44    2.03
   4   5   0   75.38    3.28
   5   5   0   35.39    2.52
   6   5   0   78.71    4.64
   7   5   0    0.17    0.92
   8   5   0  116.58    5.78
   9   5   0    1.20    1.42
  10   5   0    0.24    1.65
 -16   6   0   -0.05    2.83
 -15   6   0   43.27    6.38
 -14   6   0   27.17    3.57
 -13   6   0   23.38    4.13
 -12   6   0   -0.38    0.88
 -11   6   0   72.62    3.60
 -10   6   0   27.46    2.07
  -9   6   0  278.32   11.14
  -8   6   0    8.04    1.03
  -7   6   0    1.78    0.50
  -6   6   0    4.67    0.69
  -5   6   0   11.36    1.05
  -4   6   0   22.36    1.39
  -3   6   0  366.67   10.75
  -2   6   0   48.98    2.19
  -1   6   0   86.44    2.89
   0   6   0    3.39    0.63
   1   6   0  193.75    6.87
   2   6   0  112.69    3.94
   3   6   0    5.43    0.91
   4   6   0  190.76    6.19
   5   6   0   88.82    3.85
   6   6   0   -0.29    0.88
   7   6   0    8.79    1.87
   8   6   0    9.18    2.61
   9   6   0    2.51    1.89
 -16   7   0    5.74    3.30
 -15   7   0    2.55    2.74
 -14   7   0    6.19    1.97
 -13   7   0    7.07    2.46
 -12   7   0   -0.23    0.93
 -11   7   0   16.27    1.65
 -10   7   0    0.90    0.50
  -9   7   0  102.78    4.30
  -8   7   0   38.77    2.09
  -7   7   0    6.61    0.81
  -6   7   0  194.60    6.34
  -5   7   0   77.95    3.11
  -4   7   0  143.50    4.81
  -3   7   0   47.70    2.17
  -2   7   0    0.61    0.39
  -1   7   0    1.93    0.55
   0   7   0    6.32    0.89
   1   7   0  264.71    8.98
   2   7   0   59.35    3.66
   3   7   0   28.45    2.66
   4   7   0  170.95    6.96
   5   7   0   13.33    2.66
   6   7   0   21.77    3.49
   7   7   0   11.94    2.77
   8   7   0    1.53    1.89
   9   7   0    9.21    4.15
 -15   8   0   -1.16    4.58
 -14   8   0    7.86    2.19
 -13   8   0  106.99    6.12
 -12   8   0    0.78    0.93
 -11   8   0   76.03    4.40
 -10   8   0   -0.40    0.56
  -9   8   0   -0.31    0.53
  -8   8   0  106.70    4.36
  -7   8   0  264.45    8.67
  -6   8   0  114.94    4.47
  -5   8   0   30.47    2.30
  -4   8   0    1.71    0.50
  -3   8   0   21.36    1.59
  -2   8   0    8.54    1.02
  -1   8   0   36.87    2.18
   0   8   0  101.52    4.54
   1   8   0    2.06    0.86
   2   8   0   -0.05    0.67
   3   8   0   18.33    2.27
   4   8   0    2.94    1.15
   5   8   0   20.87    3.36
   6   8   0   27.03    4.06
   7   8   0    1.92    1.93
   8   8   0    4.74    3.34
 -14   9   0    1.28    1.45
 -13   9   0   15.70    2.10
 -12   9   0    2.25    0.99
 -11   9   0   46.32    4.45
 -10   9   0   23.14    2.34
  -9   9   0   40.61    2.96
  -8   9   0    1.40    0.73
  -7   9   0   56.95    3.32
  -6   9   0    6.93    1.20
  -5   9   0   69.92    3.37
  -4   9   0    3.54    0.85
  -3   9   0  278.02    9.31
  -2   9   0  118.27    4.75
  -1   9   0    0.88    0.70
   0   9   0   38.80    3.41
   1   9   0   52.13    3.80
   2   9   0    6.13    1.38
   3   9   0   -0.71    0.92
   4   9   0   27.25    3.68
   5   9   0   10.28    2.70
   6   9   0   68.98    6.36
 -14  10   0   19.56    3.20
 -13  10   0   15.13    2.85
 -12  10   0    2.74    1.15
 -11  10   0   39.93    4.27
 -10  10   0    9.40    1.98
  -9  10   0   50.60    3.49
  -8  10   0    0.47    0.68
  -7  10   0   24.86    2.41
  -6  10   0  187.76    6.94
  -5  10   0   33.29    2.82
  -4  10   0   21.84    2.22
  -3  10   0    0.36    0.76
  -2  10   0    0.20    0.67
  -1  10   0   18.16    2.16
   0  10   0    9.29    2.11
   1  10   0    9.20    2.05
   2  10   0  170.68    8.94
   3  10   0   10.99    3.96
   4  10   0    5.31    3.29
   5  10   0    4.67    3.46
 -15  11   0   43.22    6.79
 -14  11   0    4.64    2.02
 -13  11   0   -0.29    1.12
 -12  11   0    6.29    1.98
 -11  11   0    1.91    1.29
 -10  11   0   14.10    2.63
  -9  11   0    8.75    1.52
  -8  11   0   19.29    2.12
  -7  11   0  167.24    6.62
  -6  11   0   77.71    4.44
  -5  11   0   82.55    4.48
  -4  11   0   13.70    2.01
  -3  11   0   83.60    4.71
  -2  11   0   53.18    3.95
  -1  11   0   47.71    4.73
   0  11   0    1.69    1.38
   1  11   0   -0.15    1.27
   2  11   0    4.36    1.98
   3  11   0   14.75    4.70
   4  11   0    0.85    3.27
 -15  12   0    7.89    2.50
 -14  12   0   17.64    3.26
 -13  12   0   11.80    2.22
 -12  12   0   24.31    3.64
 -11  12   0    2.74    1.45
 -10  12   0  148.72    8.55
  -9  12   0    2.54    1.38
  -8  12   0    0.70    0.88
  -7  12   0   12.12    1.89
  -6  12   0   -0.94    0.70
  -5  12   0   -0.07    0.91
  -4  12   0    1.03    0.95
  -3  12   0    1.57    1.08
  -2  12   0    4.83    1.74
  -1  12   0    4.63    1.79
   0  12   0   21.11    3.45
   1  12   0    0.62    1.55
   2  12   0   -1.08    2.73
 -15  13   0   15.48    5.72
 -14  13   0   28.64    4.19
 -13  13   0   18.80    3.47
 -12  13   0   -0.94    1.37
 -11  13   0    3.70    1.86
 -10  13   0   19.95    3.26
  -9  13   0   20.67    3.39
  -8  13   0   16.42    2.30
  -7  13   0   29.72    3.01
  -6  13   0    7.81    1.72
  -5  13   0  104.69    6.95
  -4  13   0   18.30    2.41
  -3  13   0   15.16    2.37
  -2  13   0    0.04    1.32
  -1  13   0   10.99    2.68
   0  13   0   22.94    3.77
   1  13   0    9.68    3.94
 -14  14   0    1.13    3.66
 -13  14   0    2.61    2.04
 -12  14   0    0.60    1.78
 -11  14   0    9.15    2.72
 -10  14   0    3.37    1.78
  -9  14   0   13.50    2.85
  -8  14   0   25.61    3.73
  -7  14   0   11.64    2.23
  -6  14   0   12.34    2.25
  -5  14   0    0.92    1.17
  -4  14   0   17.02    2.64
  -3  14   0    7.20    2.48
  -2  14   0   20.30    3.56
  -1  14   0   28.67    4.08
   0  14   0    2.68    3.23
 -12  15   0   15.12    4.56
 -11  15   0    1.00    1.88
 -10  15   0    3.17    1.87
  -9  15   0   55.32    6.02
  -8  15   0    3.14    1.74
  -7  15   0    1.62    1.60
  -6  15   0    2.11    1.53
  -5  15   0    0.40    1.33
  -4  15   0   30.74    4.49
  -3  15   0    4.62    2.26
  -8  16   0    4.89    3.68
  -7  16   0    8.23    4.06
  -6  16   0    4.96    2.64
   8 -16   1    6.01    3.18
   9 -16   1   27.39    5.68
  10 -16   1   -0.29    2.89
   3 -15   1    1.43    2.52
   4 -15   1    1.29    1.84
   5 -15   1    5.30    2.19
   6 -15   1   19.88    3.31
   7 -15   1    5.34    2.10
   8 -15   1    2.88    1.82
   9 -15   1    0.42    1.47
  10 -15   1   18.53    3.47
  11 -15   1    0.82    1.81
  12 -15   1    9.94    3.95
   1 -14   1   -0.81    2.23
   2 -14   1   10.43    2.55
   3 -14   1    7.29    2.27
   4 -14   1    8.61    2.30
   5 -14   1   23.53    3.60
   6 -14   1    8.59    1.72
   7 -14   1   69.61    5.01
   8 -14   1    6.75    1.73
   9 -14   1    5.22    1.73
  10 -14   1   38.15    3.75
  11 -14   1    0.13    1.24
  12 -14   1   15.00    3.06
  13 -14   1   -0.29    2.44
  -1 -13   1    3.22    3.02
   0 -13   1    3.46    2.73
   1 -13   1   22.78    3.37
   2 -13   1   34.46    4.29
   3 -13   1   31.05    3.91
   4 -13   1   14.82    2.32
   5 -13   1   -0.44    0.98
   6 -13   1    6.56    1.61
   7 -13   1    7.78    1.75
   8 -13   1    0.59    0.94
   9 -13   1    3.43    1.29
  10 -13   1   35.81    3.48
  11 -13   1    9.12    1.90
  12 -13   1   12.28    2.08
  13 -13   1    1.57    2.53
  14 -13   1   -0.57    2.10
  -2 -12   1   20.04    5.20
  -1 -12   1    9.23    3.68
   0 -12   1   24.57    3.55
   1 -12   1    4.36    1.75
   2 -12   1    4.09    1.65
   3 -12   1    7.34    1.66
   4 -12   1    9.64    1.77
   5 -12   1    0.65    0.96
   6 -12   1    5.94    1.45
   7 -12   1   23.50    2.66
   8 -12   1   19.78    2.44
   9 -12   1    1.58    1.03
  10 -12   1    0.06    0.90
  11 -12   1   12.12    1.84
  12 -12   1   17.04    2.19
  13 -12   1   24.82    5.07
  14 -12   1    6.44    3.07
  15 -12   1   -0.95    2.89
  -4 -11   1    2.85    2.71
  -3 -11   1    2.97    2.61
  -2 -11   1    5.72    3.01
  -1 -11   1    9.73    2.35
   0 -11   1   16.26    2.76
   1 -11   1   22.41    3.05
   2 -11   1    8.70    1.54
   3 -11   1  113.88    5.14
   4 -11   1   30.84    2.90
   5 -11   1   60.83    4.12
   6 -11   1   -0.08    0.67
   7 -11   1   25.51    2.60
   8 -11   1   11.51    1.84
   9 -11   1    3.49    1.12
  10 -11   1   28.43    2.91
  11 -11   1   15.78    2.10
  12 -11   1    7.20    1.76
  13 -11   1   43.19    4.86
  14 -11   1    8.59    3.33
  -5 -10   1   11.13    3.98
  -4 -10   1   29.75    5.97
  -3 -10   1   31.01    5.84
  -2 -10   1   -0.89    1.05
  -1 -10   1   24.51    3.29
   0 -10   1   42.25    4.22
   1 -10   1   49.19    3.51
   2 -10   1   24.61    2.41
   3 -10   1   20.75    2.21
   4 -10   1    2.77    1.00
   5 -10   1    1.07    0.75
   6 -10   1    8.18    1.42
   7 -10   1    6.66    1.32
   8 -10   1   28.08    2.67
   9 -10   1   75.36    4.09
  10 -10   1   52.27    3.78
  11 -10   1   18.86    2.29
  12 -10   1    5.19    1.45
  13 -10   1   33.83    3.89
  14 -10   1    7.87    3.64
  -7  -9   1    8.86    6.35
  -6  -9   1    0.18    1.95
  -5  -9   1    5.55    2.64
  -4  -9   1    1.54    1.73
  -3  -9   1    1.36    1.54
  -2  -9   1    5.01    1.44
  -1  -9   1   72.65    4.44
   0  -9   1   13.15    2.01
   1  -9   1   94.82    4.29
   2  -9   1    2.87    0.88
   3  -9   1    4.41    0.91
   4  -9   1    9.25    1.37
   5  -9   1   86.63    3.87
   6  -9   1   29.01    2.50
   7  -9   1   34.92    2.68
   8  -9   1   18.09    2.06
   9  -9   1   16.42    1.91
  10  -9   1   50.13    3.53
  11  -9   1    7.21    1.43
  12  -9   1    7.53    1.52
  13  -9   1    8.48    1.65
  -8  -8   1    1.84    4.53
  -7  -8   1    0.63    1.85
  -6  -8   1    6.89    2.63
  -5  -8   1    0.51    1.47
  -4  -8   1   18.75    3.79
  -3  -8   1   11.52    2.01
  -2  -8   1   27.68    2.95
  -1  -8   1   19.37    2.32
   0  -8   1    6.48    1.14
   1  -8   1   72.58    3.20
   2  -8   1   65.83    2.86
   3  -8   1  128.71    4.77
   4  -8   1   50.27    2.45
   5  -8   1    2.45    0.71
   6  -8   1    5.31    0.95
   7  -8   1   12.83    1.44
   8  -8   1    6.44    0.98
   9  -8   1   93.79    3.42
  10  -8   1   20.50    1.79
  11  -8   1  110.50    4.91
  12  -8   1    6.62    0.92
  13  -8   1   -1.16    0.95
  14  -8   1    9.02    2.64
  -9  -7   1    4.74    6.26
  -8  -7   1    3.45    2.52
  -7  -7   1   45.27    6.39
  -6  -7   1    5.01    2.40
  -5  -7   1   19.98    3.86
  -4  -7   1   21.47    2.25
  -3  -7   1    9.33    1.69
  -2  -7   1   27.66    2.70
  -1  -7   1   13.97    1.48
   0  -7   1    3.12    0.75
   1  -7   1  171.19    5.44
   2  -7   1   80.48    3.35
   3  -7   1  234.18    7.48
   4  -7   1    9.79    1.13
   5  -7   1   57.76    2.58
   6  -7   1  251.02    6.49
   7  -7   1    3.80    0.70
   8  -7   1   73.84    2.80
   9  -7   1    1.77    0.51
  10  -7   1   19.04    1.25
  11  -7   1   27.29    1.80
  12  -7   1    1.62    0.60
  13  -7   1    8.01    1.73
  14  -7   1   67.39    6.45
  15  -7   1   -0.17    1.74
  16  -7   1   15.69    5.74
  -9  -6   1   16.62    3.08
  -8  -6   1    4.62    1.86
  -7  -6   1    7.48    2.00
  -6  -6   1    3.16    1.84
  -5  -6   1    0.14    0.84
  -4  -6   1    7.65    1.52
  -3  -6   1   28.60    2.83
  -2  -6   1    3.54    0.97
  -1  -6   1  249.15    8.92
   0  -6   1   13.62    1.30
   1  -6   1   37.83    2.08
   2  -6   1   86.68    3.08
   3  -6   1   64.55    2.71
   4  -6   1   40.26    1.71
   5  -6   1   13.18    1.06
   6  -6   1   11.38    1.08
   7  -6   1  175.42    4.36
   8  -6   1   66.88    2.07
   9  -6   1    4.65    0.62
  10  -6   1    3.12    0.59
  11  -6   1   66.18    2.78
  12  -6   1    4.78    1.08
  13  -6   1    4.93    1.54
  14  -6   1    2.77    1.80
  15  -6   1    0.63    1.78
  16  -6   1   -0.16    3.27
 -10  -5   1    6.99    2.42
  -9  -5   1   25.14    3.41
  -8  -5   1    0.39    1.45
  -7  -5   1    1.21    1.51
  -6  -5   1   45.55    5.84
  -5  -5   1    0.92    0.89
  -4  -5   1   76.41    4.19
  -3  -5   1    2.10    0.87
  -2  -5   1   58.87    3.22
  -1  -5   1   11.22    1.43
   0  -5   1  166.92    5.11
   1  -5   1   20.30    1.37
   2  -5   1  164.83    5.24
   3  -5   1   17.48    1.13
   4  -5   1  306.12    7.19
   5  -5   1  168.57    4.47
   6  -5   1   33.62    1.36
   7  -5   1   77.07    2.02
   8  -5   1  120.04    2.89
   9  -5   1    6.81    0.73
  10  -5   1    0.62    0.47
  11  -5   1   -0.40    0.61
  12  -5   1   26.64    2.80
  13  -5   1   -0.39    0.98
  14  -5   1    6.21    2.35
  15  -5   1    9.40    2.81
 -11  -4   1    3.15    2.01
 -10  -4   1    6.78    1.98
  -9  -4   1    9.67    2.97
  -8  -4   1    5.29    2.17
  -7  -4   1   24.81    4.15
  -6  -4   1    1.81    1.03
  -5  -4   1    8.39    1.51
  -4  -4   1   49.66    3.26
  -3  -4   1   11.77    1.56
  -2  -4   1   40.76    2.66
  -1  -4   1  313.64    9.84
   0  -4   1   89.54    3.37
   1  -4   1  247.86    6.28
   2  -4   1   15.19    0.89
   3  -4   1    4.01    0.48
   4  -4   1   82.51    2.22
   5  -4   1   18.72    0.97
   6  -4   1   90.06    2.28
   7  -4   1  221.00    5.12
   8  -4   1   50.35    1.68
   9  -4   1   71.86    2.76
  10  -4   1    9.24    1.22
  11  -4   1   25.00    2.18
  12  -4   1   14.76    2.24
  13  -4   1    4.03    1.55
  14  -4   1   28.18    4.33
  15  -4   1    1.31    1.99
 -12  -3   1    0.85    1.95
 -11  -3   1    5.55    2.10
 -10  -3   1   19.02    4.05
  -9  -3   1    5.69    2.42
  -8  -3   1  104.95    8.08
  -7  -3   1   20.16    2.40
  -6  -3   1    3.03    1.00
  -5  -3   1  115.96    5.30
  -4  -3   1  217.78    8.18
  -3  -3   1   64.51    3.18
  -2  -3   1   16.76    1.62
  -1  -3   1    4.60    0.78
   0  -3   1  471.87   10.93
   1  -3   1  162.89    3.76
   2  -3   1  153.92    3.65
   3  -3   1  435.37    8.72
   4  -3   1  233.56    4.67
   5  -3   1  153.45    3.20
   6  -3   1   60.91    1.81
   7  -3   1    9.95    0.95
   8  -3   1    3.46    0.78
   9  -3   1   34.58    2.37
  10  -3   1    3.92    0.93
  11  -3   1   11.77    1.92
  12  -3   1    0.91    1.05
  13  -3   1   25.36    3.15
  14  -3   1    0.64    1.29
  15  -3   1    5.29    3.77
 -12  -2   1    8.83    2.53
 -11  -2   1   27.06    5.12
 -10  -2   1    3.73    2.01
  -9  -2   1    8.17    2.56
  -8  -2   1   16.67    3.30
  -7  -2   1    1.95    0.96
  -6  -2   1   63.68    3.67
  -5  -2   1   78.61    4.15
  -4  -2   1   85.46    3.91
  -3  -2   1  150.37    5.74
  -2  -2   1   15.63    1.43
  -1  -2   1  159.09    5.16
   0  -2   1  132.66    3.07
   1  -2   1   44.62    1.35
   2  -2   1  122.64    2.70
   3  -2   1  154.20    3.35
   4  -2   1   11.78    0.70
   5  -2   1   17.19    0.86
   6  -2   1   39.66    1.66
   7  -2   1   54.70    2.46
   8  -2   1    2.17    0.68
   9  -2   1   30.85    2.27
  10  -2   1   26.28    2.27
  11  -2   1    8.40    1.82
  12  -2   1    1.29    1.20
  13  -2   1    5.97    1.80
  14  -2   1   18.55    2.78
 -13  -1   1   -1.02    1.62
 -12  -1   1   19.60    4.27
 -11  -1   1    6.23    2.67
 -10  -1   1   16.47    3.56
  -9  -1   1   38.41    5.03
  -8  -1   1   89.08    4.88
  -7  -1   1   72.43    4.09
  -6  -1   1  168.75    7.58
  -5  -1   1   31.33    2.55
  -4  -1   1   15.87    1.71
  -3  -1   1  235.73    9.83
  -2  -1   1  162.45    5.37
  -1  -1   1   39.71    1.28
   0  -1   1   23.67    0.87
   1  -1   1   23.76    0.87
   2  -1   1   40.38    1.03
   3  -1   1  151.39    3.63
   4  -1   1    3.59    0.43
   5  -1   1  306.53    8.11
   6  -1   1    9.95    1.07
   7  -1   1  254.14    7.33
   8  -1   1   10.77    1.31
   9  -1   1   21.94    1.99
  10  -1   1   77.45    6.30
  11  -1   1   22.57    2.85
  12  -1   1   11.99    2.26
  13  -1   1    7.01    1.82
  14  -1   1    6.00    2.41
 -14   0   1    1.21    4.74
 -13   0   1    0.54    2.30
 -12   0   1   19.06    4.09
 -11   0   1    9.81    2.95
 -10   0   1   39.65    5.33
  -9   0   1   13.38    2.02
  -8   0   1    3.89    1.11
  -7   0   1    3.83    1.04
  -6   0   1   10.01    1.48
  -5   0   1  169.83    7.13
  -4   0   1   77.03    3.95
  -3   0   1  434.64   15.36
  -2   0   1  118.17    4.88
  -1   0   1   24.97    0.88
   0   0   1    0.29    0.17
   1   0   1   23.49    0.76
   2   0   1  120.54    3.96
   3   0   1  433.67   10.85
   4   0   1   83.08    2.87
   5   0   1  167.02    5.13
   6   0   1   12.63    1.32
   7   0   1    2.54    0.72
   8   0   1    6.18    1.08
   9   0   1   13.99    1.65
  10   0   1   42.88    3.89
  11   0   1   13.31    2.32
  12   0   1   14.60    2.38
  13   0   1   -0.38    1.59
  14   0   1    3.28    3.32
 -14   1   1    4.62    2.54
 -13   1   1   12.39    4.17
 -12   1   1   12.53    3.52
 -11   1   1   19.59    3.90
 -10   1   1   61.82    6.62
  -9   1   1   20.62    2.39
  -8   1   1   14.44    1.86
  -7   1   1  252.65   10.27
  -6   1   1   11.76    1.65
  -5   1   1  280.94   11.35
  -4   1   1    4.07    0.51
  -3   1   1  150.33    4.62
  -2   1   1   41.64    1.54
  -1   1   1   22.24    1.08
   0   1   1   22.90    0.81
   1   1   1   38.01    1.40
   2   1   1  156.18    5.07
   3   1   1  231.78    6.38
   4   1   1   16.22    1.34
   5   1   1   29.45    2.01
   6   1   1  162.30    5.45
   7   1   1   79.21    3.31
   8   1   1   89.95    3.84
   9   1   1   46.00    3.83
  10   1   1   19.80    2.63
  11   1   1    4.49    1.70
  12   1   1   27.53    3.18
  13   1   1   -0.09    1.77
 -14   2   1   18.51    4.41
 -13   2   1    7.44    2.93
 -12   2   1    0.45    1.47
 -11   2   1    4.07    1.98
 -10   2   1   28.42    3.04
  -9   2   1   30.69    3.02
  -8   2   1    1.26    0.79
  -7   2   1   59.06    2.52
  -6   2   1   41.00    2.07
  -5   2   1   17.12    1.10
  -4   2   1   14.48    1.04
  -3   2   1  150.10    4.80
  -2   2   1  125.55    3.30
  -1   2   1   39.41    1.58
   0   2   1  120.58    3.39
   1   2   1  144.40    4.95
   2   2   1   13.30    1.26
   3   2   1  152.13    4.71
   4   2   1   85.65    3.19
   5   2   1   72.65    3.03
   6   2   1   67.30    3.07
   7   2   1    2.85    0.83
   8   2   1   16.46    1.83
   9   2   1   10.69    1.89
  10   2   1    5.24    1.59
  11   2   1   36.28    4.74
  12   2   1    7.25    2.50
 -15   3   1    6.04    3.57
 -14   3   1   -0.19    1.95
 -13   3   1   22.11    4.35
 -12   3   1    0.68    1.59
 -11   3   1    6.31    1.62
 -10   3   1    4.17    1.27
  -9   3   1   34.50    3.32
  -8   3   1    3.22    0.71
  -7   3   1    8.92    1.05
  -6   3   1   64.00    2.54
  -5   3   1  153.86    5.11
  -4   3   1  229.91    6.89
  -3   3   1  429.87   12.24
  -2   3   1  151.86    4.75
  -1   3   1  146.27    4.90
   0   3   1  436.14   10.76
   1   3   1    4.23    0.69
   2   3   1   16.78    1.57
   3   3   1   59.44    2.47
   4   3   1  212.91    6.61
   5   3   1  116.08    4.25
   6   3   1    5.27    1.01
   7   3   1   17.57    1.89
   8   3   1  115.32    5.52
   9   3   1    5.94    1.68
  10   3   1   25.21    3.92
  11   3   1    2.82    2.10
  12   3   1    6.39    3.50
 -15   4   1    2.21    2.37
 -14   4   1   26.31    4.77
 -13   4   1    0.67    1.76
 -12   4   1   12.78    2.72
 -11   4   1   22.53    2.76
 -10   4   1   10.59    1.92
  -9   4   1   75.70    3.64
  -8   4   1   52.15    2.25
  -7   4   1  226.05    7.26
  -6   4   1   86.87    4.07
  -5   4   1   17.07    1.12
  -4   4   1   81.34    3.00
  -3   4   1    4.41    0.57
  -2   4   1   14.83    1.20
  -1   4   1  230.74    6.14
   0   4   1   80.04    2.73
   1   4   1  309.14    9.47
   2   4   1   44.31    2.68
   3   4   1   13.87    1.65
   4   4   1   45.85    3.30
   5   4   1    7.62    1.19
   6   4   1    3.27    0.93
   7   4   1   27.14    2.75
   8   4   1    4.36    1.81
   9   4   1   14.31    2.98
  10   4   1    6.68    2.29
  11   4   1    0.90    2.00
 -15   5   1   16.21    3.97
 -14   5   1    7.56    2.95
 -13   5   1    1.35    1.89
 -12   5   1   24.81    3.07
 -11   5   1    0.16    0.86
 -10   5   1    2.04    0.81
  -9   5   1    6.48    0.99
  -8   5   1  119.46    4.55
  -7   5   1   72.36    2.65
  -6   5   1   32.42    1.70
  -5   5   1  168.09    5.53
  -4   5   1  310.77    9.15
  -3   5   1   19.70    1.48
  -2   5   1  148.13    5.25
  -1   5   1   19.59    1.23
   0   5   1  169.81    4.99
   1   5   1   10.90    1.33
   2   5   1   60.03    3.22
   3   5   1    3.43    0.95
   4   5   1   77.57    3.99
   5   5   1    2.25    0.92
   6   5   1   61.14    4.31
   7   5   1    2.49    1.61
   8   5   1    0.05    1.33
   9   5   1   19.79    3.53
  10   5   1   10.16    2.69
 -16   6   1   -1.29    2.59
 -15   6   1    2.07    2.36
 -14   6   1    4.40    2.34
 -13   6   1    3.05    1.45
 -12   6   1    1.61    1.02
 -11   6   1   57.87    3.91
 -10   6   1    5.34    1.15
  -9   6   1    4.87    0.97
  -8   6   1   68.48    2.60
  -7   6   1  172.88    5.86
  -6   6   1   12.83    1.26
  -5   6   1    9.76    1.12
  -4   6   1   40.54    2.28
  -3   6   1   58.32    2.66
  -2   6   1   86.56    3.54
  -1   6   1   34.65    1.85
   0   6   1   10.56    1.14
   1   6   1  271.09    8.62
   2   6   1    3.02    0.92
   3   6   1   25.15    2.53
   4   6   1    8.72    1.57
   5   6   1   -0.67    0.67
   6   6   1    4.39    1.28
   7   6   1    7.69    2.27
   8   6   1    4.93    2.06
   9   6   1   26.54    4.21
 -16   7   1   16.05    4.30
 -15   7   1    0.75    2.23
 -14   7   1   57.41    6.73
 -13   7   1    8.92    1.98
 -12   7   1    1.71    1.17
 -11   7   1   26.00    2.60
 -10   7   1   19.07    2.05
  -9   7   1    1.97    0.82
  -8   7   1   73.36    3.31
  -7   7   1    5.45    0.93
  -6   7   1  252.07    8.15
  -5   7   1   55.22    2.67
  -4   7   1    9.81    1.19
  -3   7   1  225.92    7.52
  -2   7   1   78.00    2.77
  -1   7   1  169.34    5.25
   0   7   1    2.85    0.70
   1   7   1   10.80    1.50
   2   7   1   29.56    2.74
   3   7   1    8.13    1.50
   4   7   1   23.19    2.63
   5   7   1   27.92    2.94
   6   7   1    7.30    2.20
   7   7   1   64.84    6.17
   8   7   1    4.25    2.18
   9   7   1   11.27    4.29
 -16   8   1    2.41    2.54
 -15   8   1    3.83    2.49
 -14   8   1    7.71    2.08
 -13   8   1    0.56    1.18
 -12   8   1    6.80    1.34
 -11   8   1  118.72    6.38
 -10   8   1   18.70    2.15
  -9   8   1   94.75    5.35
  -8   8   1    8.22    1.21
  -7   8   1   12.10    1.36
  -6   8   1    4.29    0.88
  -5   8   1    0.92    0.57
  -4   8   1   51.83    2.79
  -3   8   1  122.01    4.82
  -2   8   1   65.21    3.42
  -1   8   1   75.04    3.63
   0   8   1    5.88    1.03
   1   8   1   23.52    2.30
   2   8   1   26.10    2.66
   3   8   1    9.63    1.75
   4   8   1   12.86    2.08
   5   8   1   -0.57    1.30
   6   8   1    4.08    1.97
   7   8   1    0.26    1.90
   8   8   1    7.66    3.72
 -16   9   1    8.05    3.42
 -15   9   1   13.66    3.74
 -14   9   1   24.79    3.55
 -13   9   1   14.94    2.08
 -12   9   1    8.05    2.11
 -11   9   1    8.20    1.61
 -10   9   1   48.51    3.66
  -9   9   1   12.30    2.30
  -8   9   1   22.68    2.94
  -7   9   1   33.00    2.61
  -6   9   1   31.13    2.48
  -5   9   1   76.98    3.72
  -4   9   1    7.96    1.36
  -3   9   1    3.64    0.94
  -2   9   1    2.44    0.85
  -1   9   1   92.13    4.33
   0   9   1   17.14    2.66
   1   9   1   65.08    5.78
   2   9   1    9.08    2.19
   3   9   1   -0.14    1.33
   4   9   1    0.41    1.49
   5   9   1    6.59    3.42
   6   9   1    0.09    2.73
 -16  10   1    2.32    2.83
 -15  10   1    5.98    2.14
 -14  10   1    6.13    2.12
 -13  10   1   27.62    3.79
 -12  10   1    4.34    1.63
 -11  10   1   26.69    2.80
 -10  10   1   54.25    4.99
  -9  10   1   71.46    5.20
  -8  10   1   24.47    3.26
  -7  10   1    9.67    1.48
  -6  10   1    6.85    1.27
  -5  10   1    1.48    0.75
  -4  10   1    4.26    1.15
  -3  10   1   21.66    2.28
  -2  10   1   17.73    2.17
  -1  10   1   45.23    3.57
   0  10   1   44.90    4.66
   1  10   1   26.74    3.76
   2  10   1    1.28    1.43
   3  10   1   29.70    4.10
   4  10   1   41.63    7.37
   5  10   1   15.16    4.65
 -15  11   1    3.81    1.94
 -14  11   1    3.92    1.89
 -13  11   1   36.36    4.38
 -12  11   1    3.68    1.41
 -11  11   1   17.93    2.85
 -10  11   1   31.83    3.94
  -9  11   1    3.09    1.39
  -8  11   1    9.87    2.25
  -7  11   1   21.89    2.41
  -6  11   1   -0.56    0.72
  -5  11   1   70.94    4.48
  -4  11   1   29.80    2.92
  -3  11   1  121.41    5.39
  -2  11   1    8.64    1.62
  -1  11   1   20.00    3.18
   0  11   1   15.91    2.90
   1  11   1   11.76    2.86
   2  11   1    4.97    2.37
   3  11   1    2.78    1.99
   4  11   1    1.13    3.10
 -15  12   1    2.35    1.72
 -14  12   1   10.07    2.59
 -13  12   1   25.19    3.81
 -12  12   1   19.65    2.65
 -11  12   1    7.29    2.04
 -10  12   1    1.13    1.39
  -9  12   1    1.52    1.33
  -8  12   1   13.52    2.67
  -7  12   1   28.18    3.85
  -6  12   1    3.95    1.32
  -5  12   1    2.36    1.14
  -4  12   1    9.56    1.74
  -3  12   1    7.77    1.69
  -2  12   1    7.87    2.29
  -1  12   1    6.25    2.06
   0  12   1   19.53    3.40
   1  12   1   12.61    2.99
   2  12   1   23.09    4.01
 -14  13   1    0.33    1.69
 -13  13   1    1.32    1.95
 -12  13   1   12.80    2.78
 -11  13   1    5.81    2.06
 -10  13   1   38.13    4.59
  -9  13   1    3.68    1.70
  -8  13   1    0.02    1.36
  -7  13   1    6.03    2.04
  -6  13   1    6.99    1.60
  -5  13   1   -0.97    0.94
  -4  13   1   16.91    2.47
  -3  13   1   30.24    3.38
  -2  13   1   37.65    4.64
  -1  13   1   29.47    4.22
   0  13   1    0.93    1.91
   1  13   1    1.49    1.94
 -13  14   1    3.37    1.66
 -12  14   1   17.21    3.34
 -11  14   1    0.38    1.59
 -10  14   1   36.16    4.61
  -9  14   1    7.91    2.35
  -8  14   1    2.82    1.92
  -7  14   1   54.63    5.71
  -6  14   1    9.86    2.55
  -5  14   1   21.38    2.80
  -4  14   1    7.08    1.80
  -3  14   1    5.60    2.37
  -2  14   1   14.80    3.13
  -1  14   1    0.53    1.86
   0  14   1    1.76    3.10
 -12  15   1    1.36    2.51
 -11  15   1    0.94    1.81
 -10  15   1   17.39    3.56
  -9  15   1   -0.75    1.42
  -8  15   1   -0.10    1.63
  -7  15   1    2.04    1.95
  -6  15   1   20.33    3.45
  -5  15   1    7.13    2.48
  -4  15   1    1.66    1.91
  -3  15   1    2.37    2.29
  -7  16   1    6.81    4.10
  -6  16   1   11.31    4.27
   4 -15   2   24.95    3.81
   5 -15   2    0.68    1.62
   6 -15   2    6.87    1.85
   7 -15   2    2.36    1.43
   8 -15   2    1.37    1.38
   9 -15   2    5.28    1.83
  10 -15   2    2.39    1.97
  11 -15   2   -0.78    2.86
   1 -14   2    0.93    2.35
   2 -14   2    2.50    1.91
   3 -14   2    1.69    1.56
   4 -14   2   11.45    2.65
   5 -14   2    3.61    1.48
   6 -14   2    1.85    1.20
   7 -14   2   10.48    2.03
   8 -14   2   11.12    2.11
   9 -14   2   59.95    4.69
  10 -14   2   39.67    4.86
  11 -14   2    1.72    1.86
  12 -14   2    8.10    2.64
  13 -14   2    0.82    2.28
   0 -13   2   42.05    4.96
   1 -13   2    0.68    1.56
   2 -13   2   39.80    4.57
   3 -13   2    6.14    1.92
   4 -13   2    4.31    1.54
   5 -13   2   54.76    4.30
   6 -13   2    1.60    1.13
   7 -13   2    8.21    1.81
   8 -13   2    1.58    1.08
   9 -13   2    3.98    1.42
  10 -13   2    3.47    1.61
  11 -13   2    1.01    1.49
  12 -13   2    7.83    2.31
  13 -13   2   47.27    5.32
  14 -13   2    3.11    2.14
  -2 -12   2   11.70    4.12
  -1 -12   2    4.63    1.94
   0 -12   2   11.74    2.48
   1 -12   2    1.67    1.46
   2 -12   2   11.67    2.46
   3 -12   2    0.77    1.00
   4 -12   2   17.42    2.34
   5 -12   2   28.57    2.96
   6 -12   2   23.91    2.60
   7 -12   2    5.66    1.39
   8 -12   2   38.45    3.41
   9 -12   2    3.82    1.35
  10 -12   2   25.74    2.84
  11 -12   2   30.91    4.02
  12 -12   2   10.67    2.54
  13 -12   2    1.27    1.63
  14 -12   2    1.77    1.90
  15 -12   2    0.66    2.81
  -3 -11   2    2.27    3.28
  -2 -11   2    0.74    1.51
  -1 -11   2   26.92    3.62
   0 -11   2    4.96    1.84
   1 -11   2   33.00    3.87
   2 -11   2    1.13    0.88
   3 -11   2   13.16    1.82
   4 -11   2  149.07    6.17
   5 -11   2    9.80    1.67
   6 -11   2   24.98    2.56
   7 -11   2  134.33    5.67
   8 -11   2    5.20    1.35
   9 -11   2    2.53    1.05
  10 -11   2    7.07    1.43
  11 -11   2    5.01    1.79
  12 -11   2    1.00    1.37
  13 -11   2   51.50    7.25
  14 -11   2    1.89    2.90
  -5 -10   2    2.81    2.75
  -4 -10   2   31.42    6.27
  -3 -10   2    0.73    1.36
  -2 -10   2   16.84    2.90
  -1 -10   2    7.23    1.95
   0 -10   2   42.53    4.30
   1 -10   2    6.67    1.35
   2 -10   2    5.52    1.27
   3 -10   2   16.03    1.93
   4 -10   2    5.54    1.19
   5 -10   2    4.63    1.14
   6 -10   2  190.09    6.85
   7 -10   2   13.48    1.73
   8 -10   2   97.94    4.51
   9 -10   2   26.94    2.59
  10 -10   2   34.39    2.67
  11 -10   2   39.81    3.45
  12 -10   2   11.11    1.90
  13 -10   2    5.58    1.51
  14 -10   2   14.39    2.82
  -6  -9   2    0.47    2.64
  -5  -9   2   52.77    8.21
  -4  -9   2    0.63    1.95
  -3  -9   2    1.72    1.45
  -2  -9   2    1.56    1.19
  -1  -9   2   21.26    2.97
   0  -9   2    7.77    1.79
   1  -9   2   13.60    1.72
   2  -9   2   16.73    1.91
   3  -9   2  108.89    4.57
   4  -9   2   39.87    2.95
   5  -9   2    7.38    1.28
   6  -9   2   15.37    1.80
   7  -9   2    4.00    0.85
   8  -9   2   80.36    3.28
   9  -9   2    9.33    1.30
  10  -9   2    6.41    1.10
  11  -9   2    0.32    0.75
  12  -9   2    1.18    1.00
  13  -9   2    5.84    1.97
  14  -9   2    4.35    2.47
  -7  -8   2    1.09    2.20
  -6  -8   2    5.52    2.37
  -5  -8   2    0.82    1.70
  -4  -8   2   40.85    3.95
  -3  -8   2    3.35    1.30
  -2  -8   2  100.62    5.23
  -1  -8   2   73.81    4.48
   0  -8   2  153.88    5.88
   1  -8   2    4.83    1.07
   2  -8   2   49.65    3.18
   3  -8   2   40.79    2.86
   4  -8   2   13.60    1.51
   5  -8   2   20.25    1.87
   6  -8   2   30.11    2.07
   7  -8   2   26.39    1.96
   8  -8   2  149.30    5.00
   9  -8   2   14.01    1.48
  10  -8   2    5.33    1.05
  11  -8   2   13.83    1.64
  12  -8   2   13.25    2.02
  13  -8   2   60.70    5.29
  14  -8   2   -0.48    1.66
  -8  -7   2    4.16    2.65
  -7  -7   2    4.26    2.29
  -6  -7   2    3.96    2.43
  -5  -7   2    2.80    1.35
  -4  -7   2  120.71    6.23
  -3  -7   2    9.19    1.70
  -2  -7   2    2.13    1.08
  -1  -7   2   23.79    2.49
   0  -7   2    8.32    1.17
   1  -7   2   50.14    2.70
   2  -7   2   59.34    2.52
   3  -7   2   27.53    2.14
   4  -7   2  254.45    7.07
   5  -7   2   44.71    2.28
   6  -7   2   35.96    2.02
   7  -7   2    7.47    0.99
   8  -7   2    4.73    0.79
   9  -7   2   15.94    1.40
  10  -7   2   15.62    1.40
  11  -7   2  144.61    5.79
  12  -7   2   28.37    2.46
  13  -7   2    0.25    0.87
  14  -7   2    8.59    2.58
  15  -7   2    0.48    3.12
  -9  -6   2    8.79    3.44
  -8  -6   2   -0.35    1.95
  -7  -6   2    0.21    1.81
  -6  -6   2   14.05    2.29
  -5  -6   2   19.90    2.52
  -4  -6   2  174.45    7.60
  -3  -6   2   11.74    1.91
  -2  -6   2   32.97    2.94
  -1  -6   2   37.13    2.85
   0  -6   2   12.14    1.30
   1  -6   2  118.90    3.81
   2  -6   2   15.79    1.24
   3  -6   2   34.72    1.89
   4  -6   2  165.13    4.89
   5  -6   2  168.69    4.51
   6  -6   2    8.50    0.87
   7  -6   2   47.26    2.04
   8  -6   2   48.04    2.13
   9  -6   2  107.63    3.35
  10  -6   2    3.73    0.71
  11  -6   2    9.25    1.39
  12  -6   2   16.70    2.24
  13  -6   2    4.31    1.86
  14  -6   2   11.74    2.74
  15  -6   2    4.20    2.33
 -10  -5   2    0.82    2.20
  -9  -5   2    6.15    2.62
  -8  -5   2   44.74    6.06
  -7  -5   2   22.25    4.22
  -6  -5   2    7.21    1.65
  -5  -5   2    5.11    1.36
  -4  -5   2    8.15    1.58
  -3  -5   2   18.30    2.15
  -2  -5   2   46.61    3.31
  -1  -5   2  172.34    5.38
   0  -5   2   76.47    2.83
   1  -5   2   55.35    2.11
   2  -5   2   36.96    1.76
   3  -5   2   96.18    3.06
   4  -5   2    2.89    0.54
   5  -5   2   71.01    2.27
   6  -5   2  111.02    3.17
   7  -5   2   57.68    2.07
   8  -5   2   37.60    1.75
   9  -5   2   40.46    1.92
  10  -5   2    5.35    1.02
  11  -5   2   16.14    2.10
  12  -5   2    6.30    1.50
  13  -5   2    4.24    1.74
  14  -5   2   70.11    6.81
  15  -5   2    1.93    1.83
 -11  -4   2   16.87    4.47
 -10  -4   2    7.34    2.95
  -9  -4   2   11.26    3.34
  -8  -4   2   12.59    3.19
  -7  -4   2  145.71    6.91
  -6  -4   2    2.30    1.09
  -5  -4   2   35.33    3.28
  -4  -4   2   12.50    1.83
  -3  -4   2  247.57    9.04
  -2  -4   2  171.38    6.41
  -1  -4   2    4.53    0.71
   0  -4   2   44.24    1.90
   1  -4   2   92.89    2.93
   2  -4   2  118.25    3.50
   3  -4   2   30.47    1.44
   4  -4   2   40.78    1.47
   5  -4   2   55.03    1.74
   6  -4   2   13.69    0.95
   7  -4   2   29.23    1.48
   8  -4   2   14.94    1.21
   9  -4   2   10.90    1.14
  10  -4   2  177.19    6.92
  11  -4   2  128.23    5.74
  12  -4   2   36.55    3.66
  13  -4   2    3.65    1.76
  14  -4   2   49.18    5.74
  15  -4   2    0.45    1.70
 -11  -3   2    0.84    2.18
 -10  -3   2    4.21    2.48
  -9  -3   2    1.43    1.85
  -8  -3   2   10.64    2.05
  -7  -3   2   13.56    2.13
  -6  -3   2  106.45    5.29
  -5  -3   2   34.45    3.13
  -4  -3   2   26.66    2.57
  -3  -3   2   40.84    3.02
  -2  -3   2   97.24    4.13
  -1  -3   2   32.78    1.70
   0  -3   2   39.57    1.44
   1  -3   2    8.76    0.78
   2  -3   2  320.81    8.10
   3  -3   2   39.61    1.32
   4  -3   2   89.28    2.48
   5  -3   2   37.67    1.29
   6  -3   2   33.36    1.59
   7  -3   2  241.28    6.16
   8  -3   2   20.49    1.43
   9  -3   2   12.74    1.71
  10  -3   2   11.02    1.75
  11  -3   2    4.42    1.34
  12  -3   2    2.06    1.50
  13  -3   2    1.30    1.51
  14  -3   2    0.27    1.75
  15  -3   2   28.19    6.22
 -12  -2   2    1.32    2.49
 -11  -2   2   38.21    5.95
 -10  -2   2    7.38    2.46
  -9  -2   2   -0.35    1.34
  -8  -2   2    6.57    1.58
  -7  -2   2   14.17    2.03
  -6  -2   2   42.03    3.50
  -5  -2   2   54.52    3.45
  -4  -2   2   14.82    1.84
  -3  -2   2   37.28    2.72
  -2  -2   2  119.90    3.79
  -1  -2   2  333.84    8.15
   0  -2   2  355.76    8.70
   1  -2   2   88.02    2.60
   2  -2   2  342.06    7.68
   3  -2   2    7.02    0.53
   4  -2   2  118.42    3.11
   5  -2   2   93.27    2.69
   6  -2   2  160.89    4.26
   7  -2   2   41.64    2.06
   8  -2   2   28.29    2.54
   9  -2   2    3.32    1.06
  10  -2   2  101.31    4.85
  11  -2   2    3.15    1.20
  12  -2   2   21.32    3.71
  13  -2   2   -1.10    1.37
  14  -2   2   12.31    3.50
 -13  -1   2    1.92    2.85
 -12  -1   2   -0.27    2.02
 -11  -1   2   -0.64    1.68
 -10  -1   2   31.64    4.96
  -9  -1   2    5.25    1.51
  -8  -1   2    7.75    1.72
  -7  -1   2    3.99    1.26
  -6  -1   2   44.21    3.61
  -5  -1   2  106.73    4.88
  -4  -1   2   56.62    3.29
  -3  -1   2   88.17    4.43
  -2  -1   2    8.32    0.67
  -1  -1   2   93.50    2.68
   0  -1   2  201.63    5.08
   1  -1   2  194.17    4.45
   2  -1   2   83.28    2.58
   3  -1   2  317.31    7.26
   4  -1   2   28.52    1.27
   5  -1   2    3.58    0.50
   6  -1   2  167.23    6.13
   7  -1   2   31.94    2.63
   8  -1   2   22.71    2.40
   9  -1   2   75.46    4.44
  10  -1   2   25.97    2.78
  11  -1   2    6.48    2.08
  12  -1   2   30.10    4.47
  13  -1   2    4.10    2.23
  14  -1   2   -3.10    2.84
 -13   0   2   30.61    5.43
 -12   0   2    7.95    3.07
 -11   0   2    4.56    2.50
 -10   0   2   30.96    3.30
  -9   0   2    7.14    1.64
  -8   0   2  138.26    7.37
  -7   0   2   10.40    1.77
  -6   0   2    6.74    1.40
  -5   0   2   74.43    4.03
  -4   0   2   42.43    2.73
  -3   0   2   37.70    1.92
  -2   0   2  362.86    8.73
  -1   0   2  200.00    5.12
   0   0   2  383.58    8.40
   1   0   2  191.71    5.07
   2   0   2  336.40    7.74
   3   0   2   38.24    1.66
   4   0   2   42.94    2.22
   5   0   2   64.75    3.21
   6   0   2   10.59    1.48
   7   0   2    9.08    1.46
   8   0   2  154.92    6.30
   9   0   2    9.16    1.60
  10   0   2   40.52    3.58
  11   0   2    3.47    1.85
  12   0   2   10.20    2.78
  13   0   2   49.96    6.10
 -14   1   2    0.65    2.33
 -13   1   2    5.28    2.85
 -12   1   2   16.79    3.77
 -11   1   2    8.17    2.70
 -10   1   2   26.45    3.09
  -9   1   2   74.96    4.56
  -8   1   2   20.98    2.46
  -7   1   2   31.61    3.33
  -6   1   2  171.79    7.54
  -5   1   2    2.81    0.91
  -4   1   2   24.33    1.87
  -3   1   2  320.13    8.18
  -2   1   2   89.95    3.16
  -1   1   2  192.80    5.08
   0   1   2  194.04    5.12
   1   1   2   86.32    2.37
   2   1   2    8.41    0.83
   3   1   2   86.64    3.60
   4   1   2   53.41    2.66
   5   1   2  110.50    4.58
   6   1   2   46.81    3.37
   7   1   2    6.06    1.28
   8   1   2   16.40    2.15
   9   1   2    5.52    1.30
  10   1   2   42.92    5.01
  11   1   2    1.02    1.43
  12   1   2    0.74    1.76
  13   1   2    7.66    3.99
 -14   2   2    8.76    3.30
 -13   2   2    0.31    2.01
 -12   2   2   11.89    3.33
 -11   2   2    2.31    1.26
 -10   2   2   93.60    5.39
  -9   2   2    1.00    0.92
  -8   2   2   30.58    3.14
  -7   2   2   40.96    3.52
  -6   2   2  159.58    4.75
  -5   2   2   99.04    3.06
  -4   2   2  120.89    4.09
  -3   2   2    6.06    0.86
  -2   2   2  339.13   10.29
  -1   2   2   89.01    2.71
   0   2   2  340.12    8.81
   1   2   2  318.06    7.34
   2   2   2  116.62    4.31
   3   2   2   39.82    2.42
   4   2   2   16.95    1.80
   5   2   2   59.95    3.60
   6   2   2   45.28    3.41
   7   2   2   14.99    1.97
   8   2   2    4.58    1.27
   9   2   2    0.79    0.89
  10   2   2   12.71    2.92
  11   2   2   38.33    5.03
  12   2   2    6.22    2.37
 -14   3   2    2.17    2.27
 -13   3   2    2.22    2.00
 -12   3   2    2.62    1.30
 -11   3   2    2.09    1.14
 -10   3   2    7.40    1.80
  -9   3   2   14.18    2.27
  -8   3   2   19.45    1.99
  -7   3   2  244.05    8.27
  -6   3   2   32.88    1.77
  -5   3   2   40.27    2.04
  -4   3   2   88.54    3.47
  -3   3   2   37.56    2.06
  -2   3   2  324.40    8.24
  -1   3   2    7.25    0.78
   0   3   2   37.81    1.73
   1   3   2   30.41    1.67
   2   3   2  100.34    3.91
   3   3   2   33.81    2.59
   4   3   2   24.42    2.32
   5   3   2   35.77    3.06
   6   3   2  114.07    5.05
   7   3   2   15.62    2.16
   8   3   2    8.83    1.69
   9   3   2    1.75    1.64
  10   3   2    6.55    2.28
  11   3   2    3.61    2.05
 -15   4   2    2.67    2.54
 -14   4   2   45.97    6.34
 -13   4   2    3.38    2.15
 -12   4   2   43.18    4.20
 -11   4   2  129.27    7.00
 -10   4   2  192.84    8.78
  -9   4   2    7.46    1.29
  -8   4   2   11.72    1.56
  -7   4   2   30.00    2.16
  -6   4   2   15.90    0.94
  -5   4   2   50.50    2.44
  -4   4   2   42.58    2.91
  -3   4   2   28.78    1.54
  -2   4   2  111.23    4.17
  -1   4   2   91.47    3.60
   0   4   2   41.84    1.92
   1   4   2    4.06    0.69
   2   4   2  165.10    6.05
   3   4   2  251.14    8.61
   4   4   2   10.61    1.56
   5   4   2   37.62    3.20
   6   4   2    4.29    1.20
   7   4   2  136.34    6.34
   8   4   2   14.70    2.40
   9   4   2    4.71    1.90
  10   4   2    8.54    2.68
  11   4   2   22.96    4.26
 -15   5   2    4.12    2.53
 -14   5   2   50.43    6.94
 -13   5   2    0.76    1.16
 -12   5   2    4.92    1.72
 -11   5   2   17.79    2.72
 -10   5   2    5.52    1.27
  -9   5   2   33.30    2.81
  -8   5   2   36.35    2.39
  -7   5   2   60.92    3.06
  -6   5   2  112.67    3.48
  -5   5   2   75.64    2.87
  -4   5   2    3.36    0.66
  -3   5   2   98.83    3.68
  -2   5   2   40.39    2.31
  -1   5   2   54.29    2.03
   0   5   2   75.49    2.73
   1   5   2  165.92    5.22
   2   5   2   41.14    2.80
   3   5   2   22.25    2.32
   4   5   2    5.34    1.23
   5   5   2    5.91    1.36
   6   5   2   13.05    2.07
   7   5   2   26.21    2.94
   8   5   2   55.12    5.84
   9   5   2    3.52    1.97
  10   5   2    4.51    2.27
 -15   6   2    0.84    2.17
 -14   6   2   11.50    2.52
 -13   6   2    9.66    2.23
 -12   6   2   15.85    2.74
 -11   6   2    7.92    1.55
 -10   6   2    2.97    1.04
  -9   6   2  103.80    5.66
  -8   6   2   45.19    2.84
  -7   6   2   50.11    3.27
  -6   6   2   12.08    1.04
  -5   6   2  165.41    5.75
  -4   6   2  163.98    5.71
  -3   6   2   37.44    2.25
  -2   6   2   15.39    1.64
  -1   6   2  111.43    3.64
   0   6   2    7.54    1.01
   1   6   2   32.51    2.64
   2   6   2   27.10    2.49
   3   6   2   13.73    1.94
   4   6   2  176.83    7.18
   5   6   2   19.38    2.45
   6   6   2   14.42    2.17
   7   6   2    0.25    1.55
   8   6   2    0.73    1.69
   9   6   2   10.77    2.71
 -15   7   2    1.29    2.26
 -14   7   2    6.95    2.03
 -13   7   2    0.18    1.21
 -12   7   2   25.57    3.46
 -11   7   2  143.89    6.18
 -10   7   2   14.50    2.38
  -9   7   2   20.37    2.13
  -8   7   2    6.40    1.26
  -7   7   2    9.84    1.47
  -6   7   2   35.54    2.72
  -5   7   2   44.83    2.58
  -4   7   2  253.90    8.29
  -3   7   2   26.85    2.27
  -2   7   2   64.76    3.30
  -1   7   2   46.63    3.26
   0   7   2    7.41    1.09
   1   7   2   22.33    2.23
   2   7   2    3.29    1.04
   3   7   2   10.68    1.73
   4   7   2  135.58    6.05
   5   7   2    7.36    1.57
   6   7   2    5.27    1.67
   7   7   2   10.93    2.77
   8   7   2    3.36    2.03
 -15   8   2    5.55    1.98
 -14   8   2    2.30    1.68
 -13   8   2   60.90    5.58
 -12   8   2   11.70    1.92
 -11   8   2   12.45    2.40
 -10   8   2    8.75    2.02
  -9   8   2   12.09    1.75
  -8   8   2  153.49    6.16
  -7   8   2   24.64    3.00
  -6   8   2   26.91    3.20
  -5   8   2   24.19    2.18
  -4   8   2   18.05    1.95
  -3   8   2   34.66    2.79
  -2   8   2   47.16    3.32
  -1   8   2    5.35    1.17
   0   8   2  150.21    6.14
   1   8   2   71.97    5.99
   2   8   2  103.95    6.39
   3   8   2    2.60    1.52
   4   8   2   43.86    4.87
   5   8   2    2.17    1.53
   6   8   2   12.59    4.30
   7   8   2   -0.09    2.52
 -15   9   2    7.67    2.26
 -14   9   2    4.97    1.94
 -13   9   2    5.00    1.61
 -12   9   2    1.41    1.26
 -11   9   2   -0.86    1.01
 -10   9   2    5.54    1.39
  -9   9   2    8.57    1.59
  -8   9   2   84.72    5.62
  -7   9   2    3.79    1.45
  -6   9   2   13.92    2.42
  -5   9   2    8.99    1.43
  -4   9   2   37.91    3.05
  -3   9   2  104.98    4.72
  -2   9   2   17.85    2.14
  -1   9   2   13.86    1.83
   0   9   2    4.76    1.35
   1   9   2   26.33    3.69
   2   9   2    1.05    1.26
   3   9   2    2.30    1.62
   4   9   2    4.94    1.89
   5   9   2   45.54    5.14
   6   9   2    3.91    3.30
 -15  10   2    1.67    1.91
 -14  10   2    8.81    2.37
 -13  10   2    4.51    1.81
 -12  10   2   12.91    2.51
 -11  10   2   32.66    4.07
 -10  10   2   27.69    2.94
  -9  10   2   24.07    2.65
  -8  10   2   97.31    6.02
  -7  10   2   10.33    2.21
  -6  10   2  179.55    8.86
  -5  10   2    6.78    1.43
  -4  10   2    1.86    0.91
  -3  10   2   16.57    2.16
  -2  10   2    8.08    1.50
  -1  10   2    4.81    1.38
   0  10   2   33.17    4.18
   1  10   2    9.93    2.51
   2  10   2   15.61    3.03
   3  10   2    0.14    1.32
   4  10   2   44.22    5.26
   5  10   2    7.29    3.89
 -15  11   2   27.17    4.29
 -14  11   2    2.08    1.78
 -13  11   2   42.33    4.93
 -12  11   2   -0.38    1.31
 -11  11   2    4.55    1.44
 -10  11   2    6.49    1.51
  -9  11   2    1.41    1.33
  -8  11   2    4.59    1.71
  -7  11   2  135.78    7.49
  -6  11   2   18.34    2.96
  -5  11   2    7.47    1.91
  -4  11   2  158.49    6.42
  -3  11   2    8.02    1.59
  -2  11   2   -0.16    0.95
  -1  11   2   33.47    4.24
   0  11   2    1.05    1.54
   1  11   2   29.61    4.32
   2  11   2   -0.41    1.60
   3  11   2    3.08    1.89
   4  11   2    4.73    3.87
 -14  12   2    4.77    1.93
 -13  12   2    2.40    1.85
 -12  12   2    6.82    2.21
 -11  12   2   30.00    3.29
 -10  12   2   21.97    2.73
  -9  12   2    1.84    1.53
  -8  12   2   36.88    4.53
  -7  12   2    7.73    2.15
  -6  12   2   12.75    2.75
  -5  12   2   34.43    4.15
  -4  12   2   13.55    2.21
  -3  12   2    2.47    1.27
  -2  12   2   16.31    2.91
  -1  12   2    0.23    1.57
   0  12   2    9.27    2.59
   1  12   2    5.31    2.09
   2  12   2    8.73    2.82
   3  12   2   20.41    5.41
 -14  13   2    2.36    2.71
 -13  13   2   44.28    5.37
 -12  13   2    3.26    1.98
 -11  13   2    0.51    1.23
 -10  13   2    0.47    1.39
  -9  13   2    4.52    1.83
  -8  13   2    2.79    1.50
  -7  13   2    1.27    1.46
  -6  13   2    1.92    1.73
  -5  13   2   61.55    5.91
  -4  13   2    1.47    1.51
  -3  13   2    4.06    1.83
  -2  13   2   49.76    5.55
  -1  13   2    0.80    1.71
   0  13   2   51.22    5.98
   1  13   2    2.56    2.15
 -12  14   2   14.87    2.65
 -11  14   2    0.60    1.28
 -10  14   2   48.22    5.44
  -9  14   2   52.24    5.77
  -8  14   2   10.85    2.99
  -7  14   2    6.24    2.42
  -6  14   2   -0.06    1.45
  -5  14   2    2.15    1.93
  -4  14   2   12.57    2.59
  -3  14   2    1.13    2.45
  -2  14   2    3.02    2.25
  -1  14   2    3.78    2.24
 -12  15   2   22.78    5.76
 -11  15   2   -1.49    2.23
 -10  15   2    1.77    1.96
  -9  15   2    3.10    2.01
  -8  15   2    0.29    1.77
  -7  15   2    5.88    2.33
  -6  15   2    7.98    2.70
  -5  15   2    1.36    1.85
  -4  15   2   28.97    9.69
   5 -15   3   11.21    4.19
   6 -15   3   14.05    3.46
   7 -15   3    3.05    2.04
   8 -15   3    2.96    2.08
   9 -15   3    0.32    2.50
   2 -14   3    8.65    2.52
   3 -14   3    6.83    2.45
   4 -14   3    5.81    2.22
   5 -14   3   12.63    2.32
   6 -14   3   11.12    2.08
   7 -14   3   53.18    5.55
   8 -14   3    3.38    1.76
   9 -14   3    1.59    1.63
  10 -14   3   19.19    3.42
  11 -14   3    0.25    1.65
  12 -14   3   19.64    5.03
   0 -13   3    0.60    1.70
   1 -13   3    8.81    2.21
   2 -13   3   29.72    3.97
   3 -13   3   42.12    4.67
   4 -13   3   13.57    2.16
   5 -13   3    0.66    1.07
   6 -13   3    2.66    1.23
   7 -13   3   35.84    4.34
   8 -13   3   -1.42    1.21
   9 -13   3    3.00    1.53
  10 -13   3   23.28    3.61
  11 -13   3    7.60    2.26
  12 -13   3   16.67    3.19
  13 -13   3   -0.86    1.56
  -2 -12   3   13.20    2.94
  -1 -12   3    9.39    2.48
   0 -12   3   14.17    2.92
   1 -12   3    0.58    1.28
   2 -12   3    8.05    2.12
   3 -12   3    2.99    1.21
   4 -12   3    7.69    1.43
   5 -12   3    0.30    0.93
   6 -12   3    8.41    1.53
   7 -12   3   21.18    2.54
   8 -12   3    8.88    2.18
   9 -12   3    6.86    2.11
  10 -12   3    2.60    1.59
  11 -12   3   33.48    4.25
  12 -12   3   16.72    3.07
  13 -12   3   13.64    3.07
  14 -12   3    3.14    3.66
  -3 -11   3    1.14    1.87
  -2 -11   3    5.82    2.18
  -1 -11   3   24.96    3.76
   0 -11   3   10.78    2.47
   1 -11   3    6.52    1.96
   2 -11   3    4.26    1.31
   3 -11   3   73.61    4.51
   4 -11   3   16.09    2.06
   5 -11   3   24.99    2.64
   6 -11   3    5.05    1.23
   7 -11   3   14.13    1.90
   8 -11   3   14.59    2.63
   9 -11   3   30.27    3.71
  10 -11   3   15.04    1.96
  11 -11   3   11.41    1.99
  12 -11   3    1.84    1.18
  13 -11   3   32.49    4.35
  14 -11   3    5.71    2.46
  -4 -10   3   20.70    5.31
  -3 -10   3   26.41    3.71
  -2 -10   3    1.41    1.48
  -1 -10   3   18.58    2.93
   0 -10   3   35.50    4.03
   1 -10   3   59.14    4.06
   2 -10   3   20.97    2.33
   3 -10   3   20.95    2.31
   4 -10   3    4.58    1.19
   5 -10   3    1.78    0.86
   6 -10   3   28.42    2.63
   7 -10   3    7.69    1.37
   8 -10   3   28.33    2.84
   9 -10   3   36.08    3.28
  10 -10   3   35.33    3.24
  11 -10   3    7.11    1.58
  12 -10   3   14.02    2.29
  13 -10   3   38.75    4.35
  14 -10   3    1.12    1.84
  15 -10   3    3.33    2.40
  -5  -9   3    4.56    3.09
  -4  -9   3    4.72    1.83
  -3  -9   3    1.98    1.43
  -2  -9   3   30.34    3.71
  -1  -9   3   35.25    4.01
   0  -9   3   11.54    2.26
   1  -9   3   89.30    4.29
   2  -9   3    6.05    1.26
   3  -9   3    5.40    1.13
   4  -9   3    5.66    1.22
   5  -9   3  148.00    5.56
   6  -9   3   53.61    2.83
   7  -9   3    3.35    0.82
   8  -9   3    3.66    1.07
   9  -9   3    5.43    1.27
  10  -9   3   51.10    3.85
  11  -9   3    5.31    1.37
  12  -9   3    4.05    1.72
  13  -9   3   11.19    2.54
  14  -9   3   15.94    4.26
  -7  -8   3    5.32    3.40
  -6  -8   3    4.39    2.94
  -5  -8   3   -0.58    1.29
  -4  -8   3   11.46    2.45
  -3  -8   3   13.52    2.49
  -2  -8   3   27.06    3.41
  -1  -8   3    1.13    1.12
   0  -8   3    0.10    0.63
   1  -8   3   81.62    3.80
   2  -8   3   68.11    3.40
   3  -8   3  108.14    4.64
   4  -8   3    8.30    1.11
   5  -8   3   21.85    1.78
   6  -8   3    0.58    0.50
   7  -8   3    5.04    0.91
   8  -8   3   -0.37    0.51
   9  -8   3   87.07    4.20
  10  -8   3   19.51    2.24
  11  -8   3   76.05    4.90
  12  -8   3   11.10    1.77
  13  -8   3    1.37    1.10
  14  -8   3   11.54    2.44
  15  -8   3    3.33    2.97
  -8  -7   3    2.46    3.00
  -7  -7   3   54.67    8.56
  -6  -7   3   29.50    3.95
  -5  -7   3   23.45    3.41
  -4  -7   3   12.73    2.42
  -3  -7   3    4.32    1.54
  -2  -7   3    3.87    1.49
  -1  -7   3    7.11    1.27
   0  -7   3    9.02    1.44
   1  -7   3  119.08    4.76
   2  -7   3   34.53    2.62
   3  -7   3  129.58    4.15
   4  -7   3   47.91    2.41
   5  -7   3   34.07    1.97
   6  -7   3  185.95    5.71
   7  -7   3   10.61    1.20
   8  -7   3   76.12    3.65
   9  -7   3    7.37    1.13
  10  -7   3   17.33    1.73
  11  -7   3   12.65    1.88
  12  -7   3    0.23    0.86
  13  -7   3    2.75    1.41
  14  -7   3   46.41    5.05
  15  -7   3    6.61    3.26
  -9  -6   3    9.97    6.63
  -8  -6   3   13.41    3.58
  -7  -6   3    1.09    2.00
  -6  -6   3    8.16    1.86
  -5  -6   3    4.98    1.41
  -4  -6   3   17.72    2.57
  -3  -6   3   48.54    3.84
  -2  -6   3    0.51    0.93
  -1  -6   3  182.36    6.07
   0  -6   3   36.43    2.65
   1  -6   3   57.75    2.81
   2  -6   3   20.12    1.54
   3  -6   3   44.73    2.18
   4  -6   3   79.31    2.81
   5  -6   3   24.95    1.57
   6  -6   3   39.04    2.00
   7  -6   3  117.02    4.05
   8  -6   3   62.97    2.83
   9  -6   3    5.02    0.94
  10  -6   3    3.86    1.01
  11  -6   3   28.44    2.75
  12  -6   3    6.85    1.81
  13  -6   3   32.34    3.51
  14  -6   3    1.72    1.74
  15  -6   3    0.54    1.91
 -10  -5   3    2.85    5.19
  -9  -5   3    9.95    3.35
  -8  -5   3   -0.27    1.71
  -7  -5   3    0.52    1.20
  -6  -5   3   23.85    3.02
  -5  -5   3    0.96    1.08
  -4  -5   3  142.94    6.54
  -3  -5   3   24.85    2.75
  -2  -5   3   36.26    2.96
  -1  -5   3   27.27    2.06
   0  -5   3  126.57    3.64
   1  -5   3   14.23    1.22
   2  -5   3  149.12    4.40
   3  -5   3    6.74    0.80
   4  -5   3  159.53    4.66
   5  -5   3  119.68    3.38
   6  -5   3   55.75    1.97
   7  -5   3   32.56    2.11
   8  -5   3  107.82    3.90
   9  -5   3    7.35    1.35
  10  -5   3    1.67    0.89
  11  -5   3    2.27    1.08
  12  -5   3   17.11    2.44
  13  -5   3    0.51    1.05
  14  -5   3    2.95    1.99
  15  -5   3    6.98    3.59
 -10  -4   3    6.22    2.98
  -9  -4   3    8.47    3.02
  -8  -4   3    9.23    1.92
  -7  -4   3   15.33    2.48
  -6  -4   3    1.11    1.03
  -5  -4   3    5.84    1.52
  -4  -4   3    8.23    1.68
  -3  -4   3   44.17    3.41
  -2  -4   3   81.80    3.18
  -1  -4   3  163.94    5.07
   0  -4   3  103.64    3.08
   1  -4   3  164.43    4.77
   2  -4   3    2.75    0.52
   3  -4   3   40.97    1.77
   4  -4   3  102.51    2.85
   5  -4   3   14.90    0.98
   6  -4   3   18.29    1.18
   7  -4   3  116.47    3.94
   8  -4   3    7.85    1.14
   9  -4   3  139.88    4.90
  10  -4   3   20.95    2.53
  11  -4   3   17.05    2.27
  12  -4   3   13.61    2.09
  13  -4   3    6.58    2.29
  14  -4   3   26.67    4.23
 -11  -3   3    2.58    2.77
 -10  -3   3   35.75    5.80
  -9  -3   3    2.60    1.49
  -8  -3   3   71.74    5.48
  -7  -3   3   14.24    2.26
  -6  -3   3    5.63    1.45
  -5  -3   3  111.40    5.54
  -4  -3   3  111.77    5.49
  -3  -3   3   45.07    3.33
  -2  -3   3    4.00    0.81
  -1  -3   3   42.34    1.88
   0  -3   3  222.09    6.08
   1  -3   3   72.10    2.53
   2  -3   3  148.48    4.31
   3  -3   3  211.86    5.26
   4  -3   3  163.71    4.76
   5  -3   3  140.14    4.30
   6  -3   3   42.70    2.03
   7  -3   3   38.54    1.92
   8  -3   3   20.96    1.85
   9  -3   3   50.41    3.71
  10  -3   3    5.58    1.38
  11  -3   3   11.49    2.09
  12  -3   3    4.96    1.53
  13  -3   3   20.46    3.80
  14  -3   3    0.67    1.83
 -12  -2   3   10.59    7.59
 -11  -2   3   22.92    4.61
 -10  -2   3    6.68    2.71
  -9  -2   3    2.51    1.26
  -8  -2   3   16.85    2.51
  -7  -2   3    6.09    1.55
  -6  -2   3   71.13    4.50
  -5  -2   3   32.99    3.06
  -4  -2   3   21.77    2.48
  -3  -2   3  146.50    5.28
  -2  -2   3    5.09    0.64
  -1  -2   3  151.31    4.43
   0  -2   3  177.70    4.81
   1  -2   3   14.80    1.05
   2  -2   3  168.62    4.11
   3  -2   3   70.61    2.50
   4  -2   3    2.90    0.55
   5  -2   3    6.29    0.77
   6  -2   3   72.13    2.42
   7  -2   3   32.51    2.25
   8  -2   3    0.98    0.71
   9  -2   3    4.45    1.09
  10  -2   3   34.42    3.29
  11  -2   3   32.73    3.34
  12  -2   3    1.15    1.59
  13  -2   3   11.35    3.02
  14  -2   3    5.92    3.72
 -12  -1   3    7.03    3.09
 -11  -1   3    1.82    1.89
 -10  -1   3    7.06    1.85
  -9  -1   3   50.71    4.42
  -8  -1   3  102.95    5.32
  -7  -1   3   78.10    4.81
  -6  -1   3  124.50    5.75
  -5  -1   3   58.85    4.61
  -4  -1   3   12.64    1.45
  -3  -1   3  165.91    4.71
  -2  -1   3   73.84    2.57
  -1  -1   3   13.59    1.11
   0  -1   3   25.08    1.39
   1  -1   3   24.33    1.05
   2  -1   3   14.28    1.07
   3  -1   3  146.78    4.33
   4  -1   3   40.93    1.72
   5  -1   3  153.52    4.14
   6  -1   3   25.18    1.86
   7  -1   3  186.85    7.18
   8  -1   3    6.21    1.34
   9  -1   3    2.20    1.04
  10  -1   3   34.80    3.54
  11  -1   3   17.18    2.48
  12  -1   3   27.34    4.04
  13  -1   3   15.40    3.42
 -13   0   3   -0.02    2.19
 -12   0   3   17.30    4.09
 -11   0   3   11.18    2.32
 -10   0   3   26.14    3.37
  -9   0   3    6.02    1.54
  -8   0   3    0.71    0.90
  -7   0   3    7.83    1.79
  -6   0   3   32.22    3.30
  -5   0   3  123.28    4.72
  -4   0   3  102.31    4.09
  -3   0   3  221.08    6.06
  -2   0   3  175.43    4.84
  -1   0   3   22.22    1.41
   0   0   3   -0.05    0.21
   1   0   3   23.57    1.06
   2   0   3  170.61    4.76
   3   0   3  215.60    5.96
   4   0   3   99.83    3.46
   5   0   3  116.01    4.86
   6   0   3   38.16    3.03
   7   0   3    8.02    1.53
   8   0   3    0.52    0.74
   9   0   3    6.53    1.60
  10   0   3   31.94    3.27
  11   0   3   18.82    3.63
  12   0   3   20.01    3.84
  13   0   3    1.25    1.83
 -13   1   3    4.56    2.83
 -12   1   3   22.31    4.50
 -11   1   3   17.62    2.66
 -10   1   3   36.72    3.81
  -9   1   3    0.61    0.86
  -8   1   3    6.81    1.68
  -7   1   3  179.07    8.61
  -6   1   3   21.92    2.05
  -5   1   3  159.81    5.78
  -4   1   3   44.70    1.87
  -3   1   3  153.67    4.49
  -2   1   3   12.45    1.08
  -1   1   3   22.70    1.26
   0   1   3   22.91    1.31
   1   1   3   12.19    1.04
   2   1   3   69.71    2.48
   3   1   3  158.80    4.91
   4   1   3   12.17    1.54
   5   1   3   51.96    3.31
   6   1   3  119.40    5.22
   7   1   3   81.42    4.71
   8   1   3   95.06    4.83
   9   1   3   57.25    4.50
  10   1   3    8.13    1.81
  11   1   3    4.01    2.02
  12   1   3   13.36    3.33
 -14   2   3    5.44    4.47
 -13   2   3    4.38    2.76
 -12   2   3    1.48    1.44
 -11   2   3   34.40    3.83
 -10   2   3   23.99    2.99
  -9   2   3    4.88    1.49
  -8   2   3    1.04    0.99
  -7   2   3   32.89    2.62
  -6   2   3   74.10    3.49
  -5   2   3    6.63    0.81
  -4   2   3    2.91    0.58
  -3   2   3   75.80    3.19
  -2   2   3  170.77    4.79
  -1   2   3   12.62    1.04
   0   2   3  166.33    4.87
   1   2   3  142.52    4.44
   2   2   3    3.59    0.52
   3   2   3  136.79    4.53
   4   2   3   17.04    1.97
   5   2   3   31.33    2.85
   6   2   3   64.65    4.40
   7   2   3    7.97    1.49
   8   2   3   21.04    2.53
   9   2   3    2.61    1.19
  10   2   3   10.98    2.73
  11   2   3   23.93    4.05
  12   2   3    9.04    5.57
 -14   3   3    2.47    2.51
 -13   3   3   23.30    3.37
 -12   3   3    3.84    1.59
 -11   3   3   16.27    2.70
 -10   3   3    6.35    1.75
  -9   3   3   58.28    4.86
  -8   3   3   20.07    2.18
  -7   3   3   33.25    2.83
  -6   3   3   43.78    2.36
  -5   3   3  150.95    5.30
  -4   3   3  158.71    5.82
  -3   3   3  210.38    7.38
  -2   3   3  153.88    4.50
  -1   3   3   77.08    2.70
   0   3   3  209.16    6.19
   1   3   3   46.09    1.74
   2   3   3    5.58    0.68
   3   3   3   41.45    3.02
   4   3   3  121.12    5.18
   5   3   3  120.96    5.26
   6   3   3    2.83    1.08
   7   3   3   19.18    2.50
   8   3   3   77.09    5.33
   9   3   3    3.06    1.39
  10   3   3   46.81    5.54
  11   3   3    1.39    2.05
 -14   4   3   13.27    3.62
 -13   4   3    1.25    1.56
 -12   4   3   11.83    2.57
 -11   4   3   15.04    2.68
 -10   4   3   20.46    2.98
  -9   4   3  138.20    5.84
  -8   4   3    7.76    1.45
  -7   4   3  116.38    6.12
  -6   4   3   16.62    1.76
  -5   4   3   10.31    1.42
  -4   4   3  103.12    4.22
  -3   4   3   43.89    1.96
  -2   4   3    2.23    0.56
  -1   4   3  162.69    4.98
   0   4   3  102.70    3.53
   1   4   3  154.94    4.29
   2   4   3   73.41    2.97
   3   4   3   41.00    3.10
   4   4   3    9.04    1.61
   5   4   3    7.71    1.55
   6   4   3    3.30    1.15
   7   4   3   17.80    2.31
   8   4   3    8.88    1.97
   9   4   3   12.84    3.01
  10   4   3    2.66    2.12
 -14   5   3    1.97    1.52
 -13   5   3    1.12    1.33
 -12   5   3   16.80    2.74
 -11   5   3    4.15    1.61
 -10   5   3    0.09    0.77
  -9   5   3    9.57    1.58
  -8   5   3  112.18    6.12
  -7   5   3   33.51    2.65
  -6   5   3   55.80    3.36
  -5   5   3  124.51    4.92
  -4   5   3  136.34    5.71
  -3   5   3    5.99    0.81
  -2   5   3  143.79    4.58
  -1   5   3   13.69    1.34
   0   5   3  120.21    3.57
   1   5   3   27.36    1.66
   2   5   3   37.41    2.45
   3   5   3   26.56    2.57
   4   5   3  150.67    6.14
   5   5   3    0.42    0.86
   6   5   3   25.98    2.98
   7   5   3   -0.02    1.01
   8   5   3    0.10    1.03
   9   5   3   15.19    3.41
  10   5   3    4.51    3.54
 -15   6   3    0.27    2.49
 -14   6   3    2.34    1.81
 -13   6   3   34.51    4.26
 -12   6   3    7.57    2.08
 -11   6   3   30.22    3.00
 -10   6   3    3.67    1.18
  -9   6   3    5.68    1.71
  -8   6   3   62.27    5.18
  -7   6   3  123.21    5.10
  -6   6   3   37.57    2.95
  -5   6   3   23.60    2.27
  -4   6   3   71.79    2.98
  -3   6   3   42.33    2.36
  -2   6   3   18.12    1.65
  -1   6   3   53.99    2.80
   0   6   3   38.30    2.22
   1   6   3  182.69    5.97
   2   6   3    1.03    0.77
   3   6   3   49.47    3.62
   4   6   3   19.32    2.46
   5   6   3    2.42    1.09
   6   6   3    6.11    1.71
   7   6   3    3.73    1.44
   8   6   3   16.53    3.39
   9   6   3   11.17    4.52
 -15   7   3    5.60    2.19
 -14   7   3   44.61    5.11
 -13   7   3    4.74    1.70
 -12   7   3   -0.48    1.08
 -11   7   3   17.76    2.39
 -10   7   3   12.82    2.38
  -9   7   3    6.11    1.79
  -8   7   3   80.46    4.16
  -7   7   3   13.20    1.83
  -6   7   3  187.92    8.90
  -5   7   3   35.56    2.96
  -4   7   3   39.49    3.11
  -3   7   3  118.52    4.99
  -2   7   3   27.35    2.62
  -1   7   3  113.91    5.09
   0   7   3    9.45    1.58
   1   7   3    5.59    1.31
   2   7   3    3.84    1.40
   3   7   3    6.28    1.90
   4   7   3   10.63    2.39
   5   7   3   21.65    3.37
   6   7   3   40.97    4.73
   7   7   3   62.37    6.04
   8   7   3    5.89    3.92
 -15   8   3    2.44    1.81
 -14   8   3   11.50    2.75
 -13   8   3    0.06    1.34
 -12   8   3    6.25    1.75
 -11   8   3   89.60    6.99
 -10   8   3   21.35    3.18
  -9   8   3   89.49    6.17
  -8   8   3   -0.84    0.64
  -7   8   3    7.62    1.46
  -6   8   3    0.65    0.80
  -5   8   3   19.29    2.25
  -4   8   3   10.36    2.23
  -3   8   3  111.22    5.00
  -2   8   3   60.44    4.21
  -1   8   3   78.83    4.22
   0   8   3   -0.49    0.75
   1   8   3    1.87    1.29
   2   8   3   26.28    3.68
   3   8   3   15.24    2.90
   4   8   3    8.08    2.33
   5   8   3   -0.17    1.39
   6   8   3    6.46    2.28
   7   8   3    6.91    4.26
 -15   9   3   15.97    3.39
 -14   9   3   16.84    3.26
 -13   9   3   10.25    2.16
 -12   9   3    4.27    1.89
 -11   9   3    1.54    1.59
 -10   9   3   51.10    5.19
  -9   9   3    6.04    1.47
  -8   9   3    2.30    1.03
  -7   9   3    2.44    1.05
  -6   9   3   53.35    3.96
  -5   9   3  153.29    7.81
  -4   9   3    9.24    2.14
  -3   9   3    3.41    1.17
  -2   9   3    6.13    1.43
  -1   9   3   91.51    4.87
   0   9   3    7.73    1.65
   1   9   3   41.72    4.73
   2   9   3   36.21    4.47
   3   9   3    3.63    1.68
   4   9   3    2.31    1.86
   5   9   3   -0.04    1.68
   6   9   3   -1.34    3.42
 -15  10   3    2.51    2.99
 -14  10   3    3.75    2.15
 -13  10   3   44.11    5.17
 -12  10   3   13.33    2.92
 -11  10   3    8.27    2.31
 -10  10   3   33.27    4.14
  -9  10   3   36.29    3.52
  -8  10   3   27.36    3.00
  -7  10   3    6.08    1.52
  -6  10   3   22.29    3.29
  -5  10   3    0.96    1.17
  -4  10   3    4.55    1.81
  -3  10   3   17.59    2.42
  -2  10   3   21.39    2.63
  -1  10   3   58.92    4.37
   0  10   3   34.94    4.30
   1  10   3   12.79    2.90
   2  10   3    1.22    1.63
   3  10   3   22.98    3.73
   4  10   3   19.41    3.63
   5  10   3    5.58    3.57
 -14  11   3    3.77    1.78
 -13  11   3   28.91    4.17
 -12  11   3   -0.73    1.42
 -11  11   3   12.94    2.82
 -10  11   3   17.72    2.43
  -9  11   3   39.53    3.78
  -8  11   3   16.29    2.45
  -7  11   3   10.04    1.89
  -6  11   3    2.06    1.38
  -5  11   3   38.82    4.69
  -4  11   3   19.93    3.29
  -3  11   3   75.02    6.63
  -2  11   3    6.16    1.56
  -1  11   3    5.84    2.21
   0  11   3   11.07    2.74
   1  11   3   25.97    4.08
   2  11   3    7.88    2.47
   3  11   3    5.00    2.19
 -14  12   3   12.40    4.45
 -13  12   3    9.67    2.92
 -12  12   3    7.93    2.56
 -11  12   3   15.13    3.04
 -10  12   3    2.99    1.38
  -9  12   3    3.89    1.40
  -8  12   3   13.49    2.35
  -7  12   3   19.83    3.39
  -6  12   3    4.88    1.83
  -5  12   3    0.13    1.35
  -4  12   3    9.35    2.61
  -3  12   3    3.96    1.83
  -2  12   3   11.30    3.81
  -1  12   3    4.56    2.03
   0  12   3   11.80    2.98
   1  12   3   12.87    3.10
   2  12   3   11.20    3.11
 -13  13   3   -0.81    1.77
 -12  13   3   16.69    3.27
 -11  13   3    3.77    2.14
 -10  13   3   24.73    3.18
  -9  13   3    5.05    1.77
  -8  13   3   -0.26    1.06
  -7  13   3   46.29    5.25
  -6  13   3    3.25    2.20
  -5  13   3    0.37    1.60
  -4  13   3    9.97    2.51
  -3  13   3   41.59    7.90
  -2  13   3   41.88    7.83
  -1  13   3    8.06    3.94
   0  13   3    1.52    2.06
 -11  14   3    1.51    1.53
 -10  14   3   21.03    3.16
  -9  14   3    3.46    1.73
  -8  14   3    2.70    1.45
  -7  14   3   58.67    6.46
  -6  14   3    7.20    2.60
  -5  14   3   11.13    3.03
  -4  14   3    0.91    2.63
  -3  14   3    5.64    3.28
 -10  15   3   10.12    4.41
  -9  15   3    1.43    1.82
  -8  15   3    6.31    2.07
  -7  15   3    3.80    2.58
  -6  15   3   16.02    4.02
  -5  15   3    1.93    3.39
   5 -14   4    4.22    1.85
   6 -14   4    1.93    1.76
   7 -14   4   13.05    2.80
   8 -14   4   21.49    3.68
   9 -14   4   12.22    2.97
  10 -14   4    2.18    2.55
   1 -13   4    6.21    2.32
   2 -13   4    2.11    1.77
   3 -13   4    7.50    2.31
   4 -13   4   12.43    2.68
   5 -13   4   33.76    4.27
   6 -13   4   10.96    2.35
   7 -13   4   14.56    2.95
   8 -13   4    1.20    1.55
   9 -13   4   10.14    2.47
  10 -13   4    3.93    1.90
  11 -13   4   -0.36    1.49
  12 -13   4    8.07    3.25
  -1 -12   4    3.18    2.05
   0 -12   4    1.67    1.69
   1 -12   4    1.34    1.61
   2 -12   4    5.22    1.95
   3 -12   4    2.44    1.30
   4 -12   4    0.07    1.25
   5 -12   4    2.14    1.49
   6 -12   4    5.31    1.77
   7 -12   4    7.30    2.02
   8 -12   4    2.94    1.53
   9 -12   4    2.31    1.66
  10 -12   4   95.74    7.51
  11 -12   4    0.28    1.17
  12 -12   4    1.94    1.72
  13 -12   4    6.31    2.43
  -3 -11   4    1.16    2.55
  -2 -11   4    3.75    2.10
  -1 -11   4   -0.30    1.60
   0 -11   4    1.50    1.62
   1 -11   4    6.02    1.93
   2 -11   4   31.67    3.11
   3 -11   4   36.73    3.26
   4 -11   4    0.37    0.99
   5 -11   4   35.62    3.93
   6 -11   4   42.99    4.56
   7 -11   4   26.81    3.53
   8 -11   4    5.26    1.40
   9 -11   4    0.31    0.94
  10 -11   4    0.30    0.88
  11 -11   4   -0.22    0.93
  12 -11   4    1.90    1.55
  13 -11   4    2.30    1.58
  14 -11   4   13.91    4.55
  -4 -10   4    1.83    1.83
  -3 -10   4    5.74    2.24
  -2 -10   4   93.16   10.94
  -1 -10   4    1.02    1.39
   0 -10   4    3.95    1.76
   1 -10   4   10.46    1.77
   2 -10   4   11.14    1.78
   3 -10   4    2.20    0.97
   4 -10   4    5.75    1.27
   5 -10   4    3.45    1.44
   6 -10   4   83.08    4.85
   7 -10   4   13.21    1.98
   8 -10   4    3.70    1.15
   9 -10   4   15.01    2.09
  10 -10   4    3.44    1.14
  11 -10   4    8.26    2.14
  12 -10   4    6.76    2.03
  13 -10   4   11.36    2.71
  14 -10   4    1.03    2.37
  -5  -9   4    8.21    2.40
  -4  -9   4    7.05    2.07
  -3  -9   4    1.34    1.59
  -2  -9   4    2.11    1.45
  -1  -9   4   11.22    2.47
   0  -9   4    1.93    1.41
   1  -9   4    9.68    1.70
   2  -9   4   58.56    3.97
   3  -9   4   72.48    3.84
   4  -9   4   -0.86    0.53
   5  -9   4   28.95    2.60
   6  -9   4    6.28    1.30
   7  -9   4   19.05    2.25
   8  -9   4    7.63    1.41
   9  -9   4    0.84    0.87
  10  -9   4   11.96    1.88
  11  -9   4   22.82    3.52
  12  -9   4    4.18    1.82
  13  -9   4   14.76    2.97
  14  -9   4    3.90    2.84
  -6  -8   4   15.51    3.07
  -5  -8   4    0.75    1.45
  -4  -8   4    3.22    1.45
  -3  -8   4    6.90    1.95
  -2  -8   4    4.21    1.49
  -1  -8   4    8.43    1.96
   0  -8   4   48.62    3.64
   1  -8   4   10.60    1.64
   2  -8   4    2.39    0.86
   3  -8   4    5.26    0.97
   4  -8   4   33.73    2.30
   5  -8   4   21.68    2.27
   6  -8   4   34.00    2.91
   7  -8   4   55.94    3.82
   8  -8   4   48.54    3.56
   9  -8   4    9.86    1.64
  10  -8   4    5.50    1.72
  11  -8   4   28.26    3.67
  12  -8   4   -0.05    0.92
  13  -8   4   21.64    3.39
  14  -8   4    3.31    1.71
  -7  -7   4   11.68    4.67
  -6  -7   4   12.99    2.84
  -5  -7   4    5.93    2.06
  -4  -7   4   19.70    3.09
  -3  -7   4   15.76    2.80
  -2  -7   4   17.13    2.85
  -1  -7   4   56.07    3.76
   0  -7   4    3.30    1.05
   1  -7   4    6.11    1.16
   2  -7   4   16.13    1.55
   3  -7   4   17.31    1.57
   4  -7   4   66.18    3.57
   5  -7   4    3.01    0.92
   6  -7   4   68.05    3.59
   7  -7   4    2.24    0.84
   8  -7   4   10.67    1.55
   9  -7   4   53.72    3.00
  10  -7   4    1.50    1.06
  11  -7   4   -0.28    0.86
  12  -7   4    3.27    1.24
  13  -7   4    4.82    1.72
  14  -7   4   16.89    3.08
  -8  -6   4    4.28    3.37
  -7  -6   4    6.72    2.09
  -6  -6   4    5.52    2.05
  -5  -6   4   34.85    4.17
  -4  -6   4   83.30    6.65
  -3  -6   4    5.44    1.75
  -2  -6   4   36.61    3.06
  -1  -6   4   77.30    3.84
   0  -6   4   11.19    1.48
   1  -6   4   69.43    2.85
   2  -6   4   15.47    1.48
   3  -6   4   54.01    2.55
   4  -6   4    7.32    1.21
   5  -6   4   11.41    1.52
   6  -6   4    9.23    1.33
   7  -6   4    8.47    1.14
   8  -6   4    2.49    0.79
   9  -6   4   63.28    4.29
  10  -6   4    7.06    1.40
  11  -6   4   37.47    3.30
  12  -6   4    2.97    1.49
  13  -6   4    9.46    2.27
  14  -6   4   15.41    3.03
  -9  -5   4    1.36    2.88
  -8  -5   4   19.18    3.11
  -7  -5   4    5.19    1.72
  -6  -5   4   31.36    3.53
  -5  -5   4    2.55    1.39
  -4  -5   4   32.78    3.44
  -3  -5   4   26.39    3.27
  -2  -5   4    3.30    1.03
  -1  -5   4   16.70    1.81
   0  -5   4    7.44    1.00
   1  -5   4   38.32    2.15
   2  -5   4   45.43    2.23
   3  -5   4   23.93    1.60
   4  -5   4   36.64    2.66
   5  -5   4    9.73    1.35
   6  -5   4   72.46    2.98
   7  -5   4   14.77    1.47
   8  -5   4    5.05    1.19
   9  -5   4    0.29    0.79
  10  -5   4    2.65    1.15
  11  -5   4   35.72    4.12
  12  -5   4    6.83    2.04
  13  -5   4    0.69    1.45
  14  -5   4   10.77    4.45
 -10  -4   4    1.15    4.83
  -9  -4   4   12.63    2.57
  -8  -4   4    0.75    1.47
  -7  -4   4    1.31    1.29
  -6  -4   4    5.41    1.63
  -5  -4   4    0.55    1.05
  -4  -4   4   37.38    3.58
  -3  -4   4   74.06    3.52
  -2  -4   4    7.01    1.20
  -1  -4   4   36.52    2.02
   0  -4   4   29.72    1.77
   1  -4   4   31.74    1.88
   2  -4   4  122.57    3.93
   3  -4   4  122.73    4.01
   4  -4   4   30.62    1.96
   5  -4   4   39.26    2.20
   6  -4   4   18.89    1.60
   7  -4   4   13.78    1.75
   8  -4   4   30.21    2.69
   9  -4   4   28.35    2.66
  10  -4   4   82.59    6.61
  11  -4   4   19.24    3.13
  12  -4   4    1.25    1.08
  13  -4   4    9.59    2.22
  14  -4   4    1.38    2.23
 -11  -3   4    5.63    6.36
 -10  -3   4    7.53    3.07
  -9  -3   4    1.44    1.44
  -8  -3   4   27.11    3.34
  -7  -3   4    0.06    1.14
  -6  -3   4   66.11    5.01
  -5  -3   4    3.91    1.35
  -4  -3   4   15.41    1.74
  -3  -3   4   59.40    3.00
  -2  -3   4   25.16    1.58
  -1  -3   4  126.77    4.73
   0  -3   4   66.33    2.60
   1  -3   4    4.97    0.74
   2  -3   4   42.09    1.84
   3  -3   4   66.32    2.59
   4  -3   4   30.72    1.98
   5  -3   4   54.12    2.42
   6  -3   4   53.13    2.46
   7  -3   4   72.65    3.57
   8  -3   4   25.37    2.49
   9  -3   4    6.75    1.34
  10  -3   4   18.09    2.42
  11  -3   4    8.47    1.81
  12  -3   4    2.44    1.34
  13  -3   4    2.95    1.81
 -11  -2   4    2.33    2.61
 -10  -2   4    5.38    1.83
  -9  -2   4   25.26    3.20
  -8  -2   4    9.87    1.90
  -7  -2   4   46.73    4.27
  -6  -2   4    2.31    1.10
  -5  -2   4   15.91    2.24
  -4  -2   4   18.17    1.89
  -3  -2   4   50.50    3.35
  -2  -2   4  127.75    4.06
  -1  -2   4   46.62    2.16
   0  -2   4    7.20    0.88
   1  -2   4   33.00    1.78
   2  -2   4    8.04    0.94
   3  -2   4    4.12    0.69
   4  -2   4  118.06    3.93
   5  -2   4   21.23    1.58
   6  -2   4    5.33    1.09
   7  -2   4    4.01    0.97
   8  -2   4   42.74    2.88
   9  -2   4   18.64    2.36
  10  -2   4    2.59    1.25
  11  -2   4    1.41    1.14
  12  -2   4  108.89    6.47
  13  -2   4   -0.72    2.02
 -12  -1   4    1.39    5.17
 -11  -1   4    0.22    1.43
 -10  -1   4    6.06    1.80
  -9  -1   4    9.98    2.05
  -8  -1   4    7.77    1.80
  -7  -1   4   10.15    2.00
  -6  -1   4    7.60    1.81
  -5  -1   4   70.32    3.68
  -4  -1   4   38.03    2.86
  -3  -1   4   32.36    1.79
  -2  -1   4    5.41    0.78
  -1  -1   4   36.16    1.85
   0  -1   4    3.01    0.59
   1  -1   4    3.25    0.49
   2  -1   4   36.66    1.92
   3  -1   4   38.46    1.90
   4  -1   4  123.35    4.05
   5  -1   4   36.62    2.76
   6  -1   4   14.06    1.74
   7  -1   4   74.74    3.57
   8  -1   4   51.42    4.16
   9  -1   4    5.03    1.34
  10  -1   4   15.10    2.41
  11  -1   4   -0.55    0.99
  12  -1   4    0.06    1.37
  13  -1   4    7.06    5.87
 -12   0   4    0.54    2.04
 -11   0   4    2.67    1.60
 -10   0   4    4.29    1.68
  -9   0   4    1.57    1.27
  -8   0   4   48.69    4.78
  -7   0   4    1.76    1.16
  -6   0   4   13.62    1.75
  -5   0   4    8.54    1.45
  -4   0   4   27.33    2.41
  -3   0   4   71.03    2.66
  -2   0   4    8.73    1.00
  -1   0   4    3.59    0.69
   0   0   4  956.31   20.82
   1   0   4    2.43    0.45
   2   0   4   10.66    1.04
   3   0   4   64.73    2.54
   4   0   4   31.19    2.50
   5   0   4    7.16    1.29
   6   0   4   15.49    1.65
   7   0   4    3.52    1.23
   8   0   4   45.62    3.95
   9   0   4   -0.24    0.91
  10   0   4    4.59    1.63
  11   0   4    0.95    1.32
  12   0   4    0.96    2.10
 -13   1   4    0.24    5.89
 -12   1   4    1.91    1.56
 -11   1   4    0.08    1.24
 -10   1   4    9.56    2.10
  -9   1   4    7.85    2.02
  -8   1   4   52.27    4.92
  -7   1   4   79.10    3.94
  -6   1   4   13.80    1.80
  -5   1   4   39.83    2.96
  -4   1   4  128.12    4.18
  -3   1   4   39.17    2.02
  -2   1   4   34.69    1.87
  -1   1   4    2.99    0.49
   0   1   4    3.83    0.68
   1   1   4   31.56    1.82
   2   1   4    4.14    0.69
   3   1   4   31.86    2.55
   4   1   4   40.12    2.90
   5   1   4   65.07    3.05
   6   1   4    7.20    1.51
   7   1   4   12.13    2.00
   8   1   4   14.22    2.18
   9   1   4   13.92    2.29
  10   1   4   10.10    2.31
  11   1   4    2.98    1.54
  12   1   4    7.53    4.21
 -13   2   4    0.62    1.54
 -12   2   4   97.93    6.65
 -11   2   4    1.83    1.35
 -10   2   4    5.29    1.70
  -9   2   4   17.37    2.81
  -8   2   4   35.96    3.04
  -7   2   4    3.48    1.04
  -6   2   4    6.23    1.29
  -5   2   4   25.89    2.39
  -4   2   4  120.61    4.13
  -3   2   4    5.43    1.09
  -2   2   4    7.92    0.85
  -1   2   4   34.38    1.87
   0   2   4    8.18    0.99
   1   2   4   42.36    2.06
   2   2   4  116.78    3.95
   3   2   4   49.95    3.32
   4   2   4   18.02    1.69
   5   2   4   18.48    2.18
   6   2   4    1.34    0.87
   7   2   4   49.66    4.12
   8   2   4   10.64    1.98
   9   2   4   25.51    3.19
  10   2   4    2.41    1.53
  11   2   4    3.27    2.27
 -13   3   4    3.50    1.87
 -12   3   4    3.18    1.64
 -11   3   4    6.40    2.01
 -10   3   4   13.67    2.68
  -9   3   4    3.31    1.53
  -8   3   4   22.90    2.54
  -7   3   4   71.71    4.00
  -6   3   4   57.38    3.56
  -5   3   4   50.29    2.56
  -4   3   4   38.24    2.82
  -3   3   4   68.19    3.57
  -2   3   4   43.14    2.01
  -1   3   4    4.33    0.74
   0   3   4   71.80    2.84
   1   3   4  130.55    4.31
   2   3   4   20.93    2.12
   3   3   4   55.38    2.97
   4   3   4   15.45    1.57
   5   3   4    4.45    1.29
   6   3   4   69.43    4.81
   7   3   4    0.38    0.92
   8   3   4   31.22    3.46
   9   3   4    2.68    1.40
  10   3   4    6.96    2.06
 -14   4   4   -1.15    2.08
 -13   4   4    6.90    2.13
 -12   4   4    1.22    1.41
 -11   4   4   18.76    3.09
 -10   4   4   80.93    6.70
  -9   4   4   32.21    3.15
  -8   4   4   30.00    2.89
  -7   4   4   17.79    2.16
  -6   4   4   19.86    2.78
  -5   4   4   39.74    3.05
  -4   4   4   26.77    2.57
  -3   4   4  134.32    5.41
  -2   4   4  122.27    4.10
  -1   4   4   32.93    2.14
   0   4   4   28.61    2.06
   1   4   4   40.46    2.28
   2   4   4    8.63    1.47
   3   4   4   78.40    3.31
   4   4   4   28.87    2.84
   5   4   4   -0.16    0.76
   6   4   4    9.40    1.71
   7   4   4    2.20    1.17
   8   4   4   -0.38    1.09
   9   4   4   13.78    2.40
  10   4   4   -0.84    2.29
 -14   5   4    8.20    2.53
 -13   5   4    0.24    1.53
 -12   5   4    7.23    2.11
 -11   5   4   31.96    4.15
 -10   5   4    2.44    1.18
  -9   5   4   -0.11    0.87
  -8   5   4    3.27    1.16
  -7   5   4   15.76    2.71
  -6   5   4   74.91    4.00
  -5   5   4    7.26    1.43
  -4   5   4   41.33    3.34
  -3   5   4   21.40    2.27
  -2   5   4   47.42    2.54
  -1   5   4   40.73    2.54
   0   5   4    8.71    1.17
   1   5   4   17.63    2.06
   2   5   4    5.12    1.01
   3   5   4   25.43    2.20
   4   5   4   24.27    2.71
   5   5   4    1.81    1.11
   6   5   4   32.67    3.34
   7   5   4    2.90    1.36
   8   5   4   24.37    3.02
   9   5   4    2.61    2.13
 -14   6   4   15.99    3.18
 -13   6   4   11.74    2.83
 -12   6   4    6.36    2.02
 -11   6   4   35.73    3.51
 -10   6   4    5.65    1.45
  -9   6   4   76.56    5.03
  -8   6   4    1.94    1.36
  -7   6   4    8.78    1.95
  -6   6   4   13.17    1.93
  -5   6   4   18.68    2.20
  -4   6   4    5.95    1.32
  -3   6   4   50.56    3.80
  -2   6   4   17.69    1.70
  -1   6   4   68.05    3.30
   0   6   4   10.40    1.59
   1   6   4   77.19    4.25
   2   6   4   38.85    3.24
   3   6   4    4.05    1.56
   4   6   4   83.27    6.91
   5   6   4   44.36    4.92
   6   6   4    4.29    1.82
   7   6   4    6.02    2.00
   8   6   4    3.48    2.00
 -14   7   4   10.84    2.93
 -13   7   4    5.78    2.03
 -12   7   4    4.10    1.77
 -11   7   4    1.68    1.18
 -10   7   4    1.01    1.04
  -9   7   4   63.00    5.75
  -8   7   4   10.44    2.29
  -7   7   4    2.49    1.11
  -6   7   4   76.26    4.98
  -5   7   4    3.64    1.11
  -4   7   4   65.63    4.56
  -3   7   4   12.28    1.85
  -2   7   4   14.84    1.77
  -1   7   4    7.23    1.23
   0   7   4    2.83    1.07
   1   7   4   54.65    4.08
   2   7   4   20.02    3.15
   3   7   4   15.69    3.00
   4   7   4   19.98    3.20
   5   7   4   10.13    2.53
   6   7   4   14.01    2.91
   7   7   4   17.06    3.39
 -14   8   4    4.70    2.13
 -13   8   4   33.67    4.52
 -12   8   4    0.49    1.11
 -11   8   4   31.17    3.36
 -10   8   4   12.00    2.66
  -9   8   4   10.57    2.43
  -8   8   4   46.20    5.01
  -7   8   4   59.13    4.43
  -6   8   4   47.29    3.76
  -5   8   4   21.07    2.50
  -4   8   4   27.56    2.89
  -3   8   4    3.91    1.27
  -2   8   4    1.53    0.98
  -1   8   4   10.39    1.87
   0   8   4   48.78    4.03
   1   8   4    5.75    1.88
   2   8   4    6.24    2.04
   3   8   4    5.78    2.05
   4   8   4    4.48    1.94
   5   8   4    1.20    1.71
   6   8   4   15.52    3.18
 -14   9   4    1.01    1.77
 -13   9   4   19.30    2.90
 -12   9   4    4.39    1.66
 -11   9   4   27.63    3.97
 -10   9   4   10.06    2.57
  -9   9   4   -0.29    1.12
  -8   9   4    6.70    1.62
  -7   9   4   18.15    2.57
  -6   9   4    4.15    1.32
  -5   9   4   30.09    3.12
  -4   9   4    0.09    0.88
  -3   9   4   72.97    4.66
  -2   9   4   57.30    5.79
  -1   9   4   11.38    2.00
   0   9   4    0.62    1.14
   1   9   4   16.47    3.05
   2   9   4    2.78    1.63
   3   9   4   -0.82    1.51
   4   9   4    8.18    2.44
   5   9   4    6.67    2.70
 -14  10   4    1.87    2.72
 -13  10   4    5.75    1.90
 -12  10   4    5.53    2.09
 -11  10   4    9.33    2.54
 -10  10   4    3.79    1.79
  -9  10   4   15.85    3.06
  -8  10   4    5.50    1.63
  -7  10   4   12.44    2.06
  -6  10   4   93.67    6.01
  -5  10   4    1.22    1.07
  -4  10   4    9.11    1.81
  -3  10   4    0.16    1.06
  -2  10   4    7.94    2.19
  -1  10   4    9.58    2.51
   0  10   4   -0.33    1.42
   1  10   4    0.10    1.48
   2  10   4   81.96    7.29
   3  10   4    2.54    2.17
   4  10   4   -0.75    1.61
 -14  11   4    1.88    3.77
 -13  11   4    2.68    2.06
 -12  11   4    0.38    1.80
 -11  11   4    0.03    1.57
 -10  11   4    0.42    1.30
  -9  11   4    2.06    1.32
  -8  11   4    6.75    1.78
  -7  11   4   20.05    2.79
  -6  11   4   32.73    3.51
  -5  11   4   25.57    3.13
  -4  11   4   -0.06    1.01
  -3  11   4   20.80    3.68
  -2  11   4   30.60    4.41
  -1  11   4   15.23    4.87
   0  11   4    2.62    2.41
   1  11   4    1.44    1.75
   2  11   4    0.12    1.97
   3  11   4    6.36    3.77
 -13  12   4    8.25    4.05
 -12  12   4    6.23    2.46
 -11  12   4   -0.51    1.67
 -10  12   4   98.44   12.21
  -9  12   4    2.06    1.33
  -8  12   4    0.60    1.21
  -7  12   4    8.08    2.01
  -6  12   4    5.13    1.75
  -5  12   4    2.47    1.33
  -4  12   4    1.45    1.67
  -3  12   4    1.10    1.80
  -2  12   4    4.98    2.78
  -1  12   4    0.63    2.64
   0  12   4    4.41    3.00
   1  12   4   -1.45    2.80
 -11  13   4    0.34    1.83
 -10  13   4    3.89    2.07
  -9  13   4    9.39    2.20
  -8  13   4    0.59    1.35
  -7  13   4    6.46    1.77
  -6  13   4   10.02    2.25
  -5  13   4   26.39    4.27
  -4  13   4   10.62    2.97
  -3  13   4    8.66    4.08
  -2  13   4    2.85    3.20
 -10  14   4    1.75    1.96
  -9  14   4    8.26    2.24
  -8  14   4   15.16    2.69
  -7  14   4   15.45    2.71
  -6  14   4    5.07    2.58
  -5  14   4    2.21    2.22
   4 -13   5   24.37    3.80
   5 -13   5   -0.82    1.39
   6 -13   5    0.43    1.40
   7 -13   5    0.74    1.32
   8 -13   5    2.07    1.60
   9 -13   5    5.54    2.17
  10 -13   5    1.05    2.54
  11 -13   5    2.49    2.75
   1 -12   5   -3.16    1.88
   2 -12   5    4.96    3.07
   3 -12   5    1.69    1.63
   4 -12   5   11.16    2.59
   5 -12   5   -0.41    1.31
   6 -12   5    5.08    1.97
   7 -12   5   25.72    3.58
   8 -12   5   27.98    3.98
   9 -12   5    1.38    1.44
  10 -12   5    3.54    1.51
  11 -12   5    0.07    1.41
  -2 -11   5    0.02    3.61
  -1 -11   5    0.71    1.88
   0 -11   5   17.73    3.16
   1 -11   5   12.19    3.68
   2 -11   5    3.68    1.57
   3 -11   5   12.02    2.49
   4 -11   5    3.74    1.65
   5 -11   5   21.22    3.22
   6 -11   5    5.19    1.80
   7 -11   5    7.89    1.72
   8 -11   5   13.01    1.91
   9 -11   5    0.51    1.05
  10 -11   5    9.34    1.89
  11 -11   5   21.06    3.66
  12 -11   5    1.01    1.68
  -3 -10   5    0.22    1.77
  -2 -10   5   -0.54    1.47
  -1 -10   5    6.38    2.21
   0 -10   5   45.81    4.96
   1 -10   5   26.71    5.34
   2 -10   5    5.20    1.92
   3 -10   5   25.04    3.47
   4 -10   5    5.97    1.92
   5 -10   5   -0.81    0.77
   6 -10   5    7.89    1.62
   7 -10   5    1.31    1.02
   8 -10   5   16.93    2.23
   9 -10   5    4.62    1.40
  10 -10   5   42.16    4.90
  11 -10   5    8.01    2.23
  12 -10   5    5.77    2.15
  13 -10   5    2.41    2.29
  -4  -9   5    2.97    2.13
  -3  -9   5   -1.85    1.36
  -2  -9   5    0.19    1.56
  -1  -9   5    2.98    1.70
   0  -9   5    4.16    1.71
   1  -9   5    6.60    1.91
   2  -9   5   11.66    2.25
   3  -9   5    1.79    1.24
   4  -9   5   40.47    3.31
   5  -9   5    1.64    0.89
   6  -9   5   10.37    1.76
   7  -9   5    7.64    1.51
   8  -9   5   18.69    2.26
   9  -9   5    2.07    1.07
  10  -9   5   42.84    4.97
  11  -9   5    2.20    1.61
  12  -9   5    2.20    1.70
  13  -9   5   22.23    3.61
  -5  -8   5    1.74    1.63
  -4  -8   5   30.34    4.19
  -3  -8   5   15.49    2.71
  -2  -8   5   18.15    3.04
  -1  -8   5   10.96    2.34
   0  -8   5    3.10    1.13
   1  -8   5   16.57    2.21
   2  -8   5   62.11    3.82
   3  -8   5   81.12    4.27
   4  -8   5   38.02    3.18
   5  -8   5    3.32    1.05
   6  -8   5   28.72    2.74
   7  -8   5    2.11    0.92
   8  -8   5    1.46    0.90
   9  -8   5    2.78    1.44
  10  -8   5    4.00    1.67
  11  -8   5   14.96    2.93
  12  -8   5   10.78    2.45
  13  -8   5   -0.43    1.43
  -6  -7   5   -0.41    1.63
  -5  -7   5   27.34    4.00
  -4  -7   5   14.09    2.84
  -3  -7   5    0.30    1.29
  -2  -7   5    8.22    2.16
  -1  -7   5    2.21    1.02
   0  -7   5    7.60    1.55
   1  -7   5    8.02    1.29
   2  -7   5   39.32    3.06
   3  -7   5   17.54    1.99
   4  -7   5   17.36    2.08
   5  -7   5   13.53    1.75
   6  -7   5  156.19    6.52
   7  -7   5    5.28    1.29
   8  -7   5   13.00    2.09
   9  -7   5   12.12    2.48
  10  -7   5   20.94    2.54
  11  -7   5    8.88    1.84
  12  -7   5   -0.12    1.29
  13  -7   5    0.04    1.58
  -7  -6   5    0.18    1.68
  -6  -6   5    5.39    2.10
  -5  -6   5    3.34    1.96
  -4  -6   5    9.63    2.52
  -3  -6   5   11.81    2.65
  -2  -6   5   29.19    2.83
  -1  -6   5  177.69    6.84
   0  -6   5    2.10    0.94
   1  -6   5   37.68    2.94
   2  -6   5    7.27    1.27
   3  -6   5   20.91    2.14
   4  -6   5    3.03    0.96
   5  -6   5    3.88    1.04
   6  -6   5    0.81    0.71
   7  -6   5    8.77    1.43
   8  -6   5   68.07    4.58
   9  -6   5    0.86    0.92
  10  -6   5    5.64    1.48
  11  -6   5   23.28    2.75
  12  -6   5    3.67    1.76
  13  -6   5    0.97    1.48
  -8  -5   5   -1.53    1.41
  -7  -5   5    1.65    1.64
  -6  -5   5   18.77    3.06
  -5  -5   5    0.69    1.21
  -4  -5   5    2.54    1.54
  -3  -5   5    4.02    1.58
  -2  -5   5   14.64    1.94
  -1  -5   5    3.50    1.09
   0  -5   5   36.89    2.46
   1  -5   5    3.41    1.00
   2  -5   5   82.38    3.86
   3  -5   5    3.53    0.92
   4  -5   5  121.54    4.98
   5  -5   5   31.25    2.61
   6  -5   5   35.02    2.44
   7  -5   5   40.72    3.29
   8  -5   5   82.54    4.79
   9  -5   5   32.31    3.15
  10  -5   5    1.02    0.94
  11  -5   5    1.23    1.54
  12  -5   5   34.61    4.32
  13  -5   5    2.11    1.85
  -9  -4   5   14.97    2.93
  -8  -4   5    8.89    2.35
  -7  -4   5    7.40    2.22
  -6  -4   5    3.12    1.71
  -5  -4   5   28.40    3.79
  -4  -4   5   41.56    4.49
  -3  -4   5   19.05    2.30
  -2  -4   5    3.23    1.03
  -1  -4   5  129.03    5.25
   0  -4   5    1.68    0.64
   1  -4   5  123.40    5.08
   2  -4   5    6.67    1.23
   3  -4   5    8.73    1.31
   4  -4   5    1.14    0.67
   5  -4   5    3.67    0.82
   6  -4   5    9.20    1.53
   7  -4   5   16.51    2.04
   8  -4   5   45.94    3.62
   9  -4   5    3.81    1.18
  10  -4   5    8.33    2.15
  11  -4   5   13.28    2.84
  12  -4   5   26.99    4.08
  13  -4   5    5.84    2.44
 -10  -3   5   -0.76    1.99
  -9  -3   5    1.42    1.62
  -8  -3   5   11.69    2.30
  -7  -3   5   18.28    2.73
  -6  -3   5    0.21    1.02
  -5  -3   5   84.57    5.34
  -4  -3   5   18.60    2.01
  -3  -3   5   23.03    2.33
  -2  -3   5    4.96    1.18
  -1  -3   5    7.29    1.06
   0  -3   5   98.29    3.67
   1  -3   5   48.95    2.99
   2  -3   5   73.31    3.53
   3  -3   5  100.24    3.67
   4  -3   5  119.06    4.27
   5  -3   5   78.45    3.21
   6  -3   5   22.44    2.37
   7  -3   5   17.69    2.19
   8  -3   5    1.48    0.98
   9  -3   5   11.88    2.00
  10  -3   5    2.11    1.62
  11  -3   5   23.15    3.77
  12  -3   5    1.76    1.78
  13  -3   5   -0.63    2.35
 -10  -2   5    3.30    1.65
  -9  -2   5    2.96    1.63
  -8  -2   5    3.02    1.42
  -7  -2   5   12.64    2.31
  -6  -2   5   68.91    5.08
  -5  -2   5   43.25    3.34
  -4  -2   5    4.12    1.10
  -3  -2   5   81.98    4.08
  -2  -2   5    6.00    1.22
  -1  -2   5   74.71    3.09
   0  -2   5   26.30    1.86
   1  -2   5   16.54    1.77
   2  -2   5   23.19    1.78
   3  -2   5   45.15    2.30
   4  -2   5    5.14    0.88
   5  -2   5    2.94    0.92
   6  -2   5    3.05    1.04
   7  -2   5   14.45    1.91
   8  -2   5   24.16    2.68
   9  -2   5   12.06    2.53
  10  -2   5   19.86    3.37
  11  -2   5   -0.07    1.44
  12  -2   5    4.02    1.91
  13  -2   5    0.41    2.48
 -11  -1   5   -0.24    1.44
 -10  -1   5   10.28    2.26
  -9  -1   5   34.79    3.90
  -8  -1   5    4.25    1.44
  -7  -1   5   14.43    2.51
  -6  -1   5    9.60    2.24
  -5  -1   5   35.88    3.02
  -4  -1   5    1.87    0.93
  -3  -1   5  126.28    5.31
  -2  -1   5   47.44    2.51
  -1  -1   5   18.52    1.59
   0  -1   5   41.87    2.30
   1  -1   5   37.97    2.28
   2  -1   5   16.72    1.46
   3  -1   5   74.40    2.96
   4  -1   5    8.20    1.37
   5  -1   5  120.13    5.14
   6  -1   5    3.27    1.06
   7  -1   5  166.96    6.78
   8  -1   5    0.48    1.15
   9  -1   5   15.09    2.84
  10  -1   5    3.31    1.77
  11  -1   5    3.43    1.85
  12  -1   5    1.68    1.92
 -12   0   5   11.27    3.83
 -11   0   5   19.43    3.09
 -10   0   5   47.75    4.76
  -9   0   5    2.46    1.44
  -8   0   5    2.53    1.48
  -7   0   5    7.19    1.95
  -6   0   5    0.42    0.82
  -5   0   5   31.94    2.83
  -4   0   5    2.14    0.84
  -3   0   5  102.99    4.60
  -2   0   5   25.59    1.87
  -1   0   5   42.52    2.39
   0   0   5    0.38    0.38
   1   0   5   40.02    2.23
   2   0   5   26.20    1.83
   3   0   5  104.61    4.47
   4   0   5    0.41    0.77
   5   0   5   33.48    2.88
   6   0   5    0.19    0.82
   7   0   5    6.30    1.86
   8   0   5    1.21    1.46
   9   0   5    4.46    1.53
  10   0   5   64.08    5.16
  11   0   5   18.54    3.13
  12   0   5    7.67    3.70
 -12   1   5    1.24    1.68
 -11   1   5    4.95    2.15
 -10   1   5    2.92    1.56
  -9   1   5   17.91    2.92
  -8   1   5    1.27    1.35
  -7   1   5  170.07    6.93
  -6   1   5    2.09    0.98
  -5   1   5  118.79    5.27
  -4   1   5    6.51    1.34
  -3   1   5   79.13    3.27
  -2   1   5   18.78    1.68
  -1   1   5   42.24    1.88
   0   1   5   40.41    1.87
   1   1   5   17.99    1.55
   2   1   5   41.35    2.32
   3   1   5  121.95    5.18
   4   1   5    3.37    0.88
   5   1   5   38.05    3.20
   6   1   5    8.60    1.64
   7   1   5   11.23    2.30
   8   1   5    5.61    1.55
   9   1   5   41.93    4.05
  10   1   5   11.94    2.46
  11   1   5    0.90    1.53
 -12   2   5    3.03    1.80
 -11   2   5    1.48    1.40
 -10   2   5   16.58    3.10
  -9   2   5    8.03    2.19
  -8   2   5   29.18    2.91
  -7   2   5   10.13    1.73
  -6   2   5    1.83    0.99
  -5   2   5    3.57    1.17
  -4   2   5    6.25    1.37
  -3   2   5   46.29    2.61
  -2   2   5   23.68    1.89
  -1   2   5   20.03    1.61
   0   2   5   23.08    1.79
   1   2   5   80.55    3.14
   2   2   5    7.48    1.36
   3   2   5   75.65    4.07
   4   2   5    6.63    1.31
   5   2   5   42.20    3.45
   6   2   5   61.93    5.83
   7   2   5   15.30    2.37
   8   2   5    5.13    1.64
   9   2   5    3.20    1.51
  10   2   5    6.46    2.03
  11   2   5   11.78    3.95
 -13   3   5    3.07    2.78
 -12   3   5    0.68    1.67
 -11   3   5   17.63    3.09
 -10   3   5    2.11    1.58
  -9   3   5    7.31    2.16
  -8   3   5    4.21    1.30
  -7   3   5   16.96    2.20
  -6   3   5   21.49    2.50
  -5   3   5   85.96    4.82
  -4   3   5  120.66    4.51
  -3   3   5   99.85    4.69
  -2   3   5   82.48    4.26
  -1   3   5   40.85    2.38
   0   3   5  109.94    3.84
   1   3   5    9.67    1.51
   2   3   5    2.85    1.04
   3   3   5   19.71    2.32
   4   3   5   20.27    2.38
   5   3   5   75.55    6.34
   6   3   5    0.51    0.92
   7   3   5   17.57    2.58
   8   3   5    6.95    1.91
   9   3   5    2.69    1.61
  10   3   5    0.89    1.85
 -13   4   5    2.19    1.92
 -12   4   5   27.31    4.02
 -11   4   5   10.27    2.62
 -10   4   5    6.18    1.97
  -9   4   5    4.28    1.42
  -8   4   5   39.55    3.63
  -7   4   5   15.78    2.20
  -6   4   5    6.95    1.55
  -5   4   5    3.25    1.38
  -4   4   5    2.17    1.02
  -3   4   5    7.00    1.42
  -2   4   5    7.65    1.49
  -1   4   5  119.34    5.43
   0   4   5    2.17    0.73
   1   4   5  118.02    5.23
   2   4   5    3.02    1.10
   3   4   5   17.35    2.22
   4   4   5   48.33    4.93
   5   4   5   37.01    3.40
   6   4   5    3.00    1.34
   7   4   5    4.42    1.49
   8   4   5    7.81    2.04
   9   4   5   22.24    3.25
 -13   5   5    2.02    1.83
 -12   5   5   31.32    4.22
 -11   5   5    4.11    1.84
 -10   5   5    0.02    1.10
  -9   5   5   29.82    3.11
  -8   5   5   80.75    5.35
  -7   5   5   37.70    3.41
  -6   5   5   32.02    3.96
  -5   5   5   32.55    3.04
  -4   5   5  118.71    5.52
  -3   5   5    2.86    1.12
  -2   5   5   86.33    4.77
  -1   5   5    4.54    1.24
   0   5   5   36.51    3.06
   1   5   5    5.94    1.36
   2   5   5   11.85    1.91
   3   5   5    4.01    1.36
   4   5   5    3.44    1.57
   5   5   5    0.85    1.08
   6   5   5   24.67    3.20
   7   5   5    1.00    1.64
   8   5   5    0.58    1.67
 -13   6   5    0.35    1.62
 -12   6   5    2.87    1.88
 -11   6   5   25.67    3.28
 -10   6   5    7.50    1.88
  -9   6   5   -0.41    0.99
  -8   6   5   60.99    5.80
  -7   6   5    7.27    2.04
  -6   6   5    0.13    0.99
  -5   6   5    3.68    1.21
  -4   6   5    3.01    1.04
  -3   6   5   24.44    2.77
  -2   6   5    6.44    1.46
  -1   6   5   31.92    3.99
   0   6   5    2.93    1.10
   1   6   5  163.07    6.93
   2   6   5   27.89    2.93
   3   6   5    9.74    2.14
   4   6   5   17.57    3.21
   5   6   5    5.33    2.05
   6   6   5    2.04    1.83
   7   6   5    0.55    1.73
 -13   7   5    1.99    1.91
 -12   7   5    0.67    1.73
 -11   7   5    9.65    2.14
 -10   7   5   18.27    2.69
  -9   7   5   10.97    2.57
  -8   7   5   18.60    3.11
  -7   7   5    8.98    2.20
  -6   7   5  164.23    7.30
  -5   7   5   11.39    2.01
  -4   7   5   19.77    2.53
  -3   7   5   19.57    2.51
  -2   7   5   34.01    3.29
  -1   7   5    7.19    2.17
   0   7   5    8.42    2.23
   1   7   5    1.45    1.12
   2   7   5    8.74    2.28
   3   7   5   -0.38    1.34
   4   7   5   11.88    2.85
   5   7   5   26.89    4.12
   6   7   5    0.48    1.68
 -13   8   5   -0.45    1.69
 -12   8   5   15.81    2.72
 -11   8   5   13.01    2.32
 -10   8   5    1.15    1.74
  -9   8   5    9.71    2.69
  -8   8   5    1.80    1.63
  -7   8   5    1.86    1.44
  -6   8   5   28.76    3.29
  -5   8   5    3.51    1.41
  -4   8   5   38.88    3.77
  -3   8   5   82.02    5.49
  -2   8   5   61.34    6.04
  -1   8   5   12.65    2.94
   0   8   5    1.03    1.50
   1   8   5   15.69    2.98
   2   8   5   14.60    2.93
   3   8   5   18.02    3.38
   4   8   5   34.78    4.73
   5   8   5   -0.61    1.66
 -13   9   5   22.72    3.87
 -12   9   5    2.21    1.58
 -11   9   5    3.57    2.26
 -10   9   5   46.45    5.50
  -9   9   5    6.25    2.16
  -8   9   5   18.85    3.31
  -7   9   5    8.61    1.88
  -6   9   5   11.68    2.14
  -5   9   5    3.62    1.30
  -4   9   5   30.76    3.35
  -3   9   5    0.46    1.63
  -2   9   5    7.81    2.36
  -1   9   5    7.20    2.34
   0   9   5    2.40    1.78
   1   9   5    2.01    2.35
   2   9   5    2.56    1.72
   3   9   5    1.15    1.86
   4   9   5    3.27    2.27
 -13  10   5    1.90    3.24
 -12  10   5    8.48    2.29
 -11  10   5    6.69    2.52
 -10  10   5   49.62    5.64
  -9  10   5    4.71    2.04
  -8  10   5   18.36    3.43
  -7  10   5    0.80    1.24
  -6  10   5    8.83    2.08
  -5  10   5   -0.37    1.08
  -4  10   5    5.13    1.75
  -3  10   5   20.91    3.78
  -2  10   5    6.42    2.27
  -1  10   5   37.62    4.90
   0  10   5   48.69    8.36
   1  10   5    2.45    2.47
   2  10   5    1.11    2.47
   3  10   5    1.39    2.30
 -12  11   5    1.42    2.21
 -11  11   5   21.19    3.93
 -10  11   5    5.34    2.29
  -9  11   5    1.98    1.73
  -8  11   5   16.37    2.82
  -7  11   5    9.41    2.23
  -6  11   5    4.61    1.71
  -5  11   5   21.31    3.01
  -4  11   5    5.83    2.64
  -3  11   5   16.11    3.53
  -2  11   5    1.57    1.89
  -1  11   5    4.92    3.45
   0  11   5   14.18    5.00
   1  11   5    2.60    2.75
 -11  12   5    1.49    1.81
 -10  12   5    4.21    2.45
  -9  12   5    0.36    1.88
  -8  12   5   30.94    3.86
  -7  12   5   25.67    3.48
  -6  12   5    6.33    1.94
  -5  12   5    1.08    2.16
  -4  12   5    9.35    2.98
  -3  12   5    5.10    2.52
  -2  12   5    6.40    3.56
  -1  12   5   -1.21    2.54
 -10  13   5    1.50    2.67
  -9  13   5    2.44    2.18
  -8  13   5    0.06    1.58
  -7  13   5    1.93    1.64
  -6  13   5    1.11    2.13
  -5  13   5   -1.90    1.87
  -4  13   5   16.71    3.90
   3 -12   6    2.69    2.88
   4 -12   6    5.21    2.18
   5 -12   6   10.79    2.86
   6 -12   6   11.17    2.75
   7 -12   6    1.52    1.70
   8 -12   6   11.36    2.71
   9 -12   6    3.38    2.88
   1 -11   6    7.41    3.55
   2 -11   6    3.49    2.73
   3 -11   6    1.36    1.57
   4 -11   6   48.59    5.16
   5 -11   6    0.97    1.62
   6 -11   6    1.77    1.41
   7 -11   6   13.93    2.21
   8 -11   6    1.49    1.14
   9 -11   6    3.67    1.52
  10 -11   6    0.53    1.67
  -1 -10   6    5.13    2.95
   0 -10   6    8.70    3.57
   1 -10   6   -2.29    1.37
   2 -10   6    5.12    1.91
   3 -10   6    5.28    1.93
   4 -10   6    1.65    1.51
   5 -10   6    9.89    1.90
   6 -10   6   39.44    3.70
   7 -10   6    1.07    1.02
   8 -10   6   27.89    3.19
   9 -10   6    2.43    1.57
  10 -10   6    7.04    2.36
  11 -10   6    3.15    1.90
  -2  -9   6    1.19    2.42
  -1  -9   6    1.74    2.58
   0  -9   6    6.26    2.67
   1  -9   6    6.50    1.88
   2  -9   6    1.02    1.23
   3  -9   6   22.58    2.54
   4  -9   6    4.30    1.32
   5  -9   6    5.30    1.40
   6  -9   6    8.01    1.71
   7  -9   6    1.01    1.05
   8  -9   6   26.11    2.98
   9  -9   6    4.24    1.84
  10  -9   6    2.42    1.67
  11  -9   6    1.36    1.56
  12  -9   6    3.31    3.04
  -4  -8   6   10.10    2.69
  -3  -8   6    3.38    3.16
  -2  -8   6   31.91    6.19
  -1  -8   6   22.29    4.97
   0  -8   6   28.86    3.72
   1  -8   6    6.93    1.93
   2  -8   6   10.73    2.41
   3  -8   6    4.48    1.22
   4  -8   6    4.67    1.32
   5  -8   6    5.55    1.33
   6  -8   6    1.13    0.94
   7  -8   6   18.62    2.36
   8  -8   6   26.75    3.90
   9  -8   6    9.22    2.51
  10  -8   6    8.00    2.22
  11  -8   6    2.83    1.87
  12  -8   6    4.17    2.25
  -5  -7   6    1.58    1.95
  -4  -7   6   16.40    3.31
  -3  -7   6   -1.25    1.61
  -2  -7   6    0.25    1.86
  -1  -7   6   19.68    3.05
   0  -7   6    1.47    1.31
   1  -7   6    6.68    1.83
   2  -7   6   19.15    2.28
   3  -7   6    4.20    1.12
   4  -7   6   55.61    4.06
   5  -7   6    3.89    1.16
   6  -7   6    2.93    1.07
   7  -7   6    2.55    1.34
   8  -7   6    5.85    1.92
   9  -7   6    0.48    1.18
  10  -7   6    3.32    1.85
  11  -7   6   54.17    4.72
  12  -7   6   10.61    2.75
  -6  -6   6   10.47    2.85
  -5  -6   6    0.72    1.69
  -4  -6   6   33.39    4.49
  -3  -6   6    9.28    2.63
  -2  -6   6    3.61    1.59
  -1  -6   6    1.31    1.23
   0  -6   6   -0.06    1.04
   1  -6   6   42.83    4.45
   2  -6   6    6.91    1.38
   3  -6   6   30.89    2.84
   4  -6   6   26.38    2.67
   5  -6   6   34.22    3.02
   6  -6   6    1.64    0.96
   7  -6   6    7.48    1.83
   8  -6   6   12.61    2.58
   9  -6   6   20.78    2.69
  10  -6   6    1.39    1.20
  11  -6   6    2.21    1.52
  12  -6   6    6.11    2.42
  -7  -5   6    8.97    2.66
  -6  -5   6   -0.39    1.71
  -5  -5   6    6.71    2.28
  -4  -5   6    3.45    1.87
  -3  -5   6    4.36    1.83
  -2  -5   6    4.91    1.70
  -1  -5   6   38.49    4.19
   0  -5   6   26.59    3.40
   1  -5   6   33.62    2.86
   2  -5   6   14.50    1.94
   3  -5   6   28.50    2.66
   4  -5   6   17.09    2.05
   5  -5   6   26.18    2.60
   6  -5   6   54.38    4.95
   7  -5   6   19.83    2.35
   8  -5   6    3.58    1.38
   9  -5   6    4.14    1.39
  10  -5   6    3.97    1.51
  11  -5   6    1.09    1.60
  12  -5   6   -0.37    1.61
  -8  -4   6    3.30    1.89
  -7  -4   6   48.59    5.39
  -6  -4   6    3.28    1.85
  -5  -4   6    3.66    1.82
  -4  -4   6    4.78    1.88
  -3  -4   6   62.38    4.48
  -2  -4   6   26.29    3.43
  -1  -4   6   13.75    2.43
   0  -4   6    4.03    1.49
   1  -4   6   10.87    1.65
   2  -4   6    6.25    1.31
   3  -4   6    5.34    1.25
   4  -4   6    2.41    0.94
   5  -4   6   24.89    2.59
   6  -4   6    4.13    1.20
   7  -4   6    1.51    1.05
   8  -4   6    4.66    1.31
   9  -4   6    4.90    1.59
  10  -4   6   33.08    4.53
  11  -4   6   16.69    3.22
  12  -4   6    5.64    2.65
  -9  -3   6    2.52    1.86
  -8  -3   6    1.33    1.83
  -7  -3   6    3.15    1.77
  -6  -3   6   20.71    3.40
  -5  -3   6    4.34    1.70
  -4  -3   6    2.64    1.12
  -3  -3   6   35.38    3.19
  -2  -3   6   26.08    3.27
  -1  -3   6    4.17    1.56
   0  -3   6    9.21    1.48
   1  -3   6    0.55    0.72
   2  -3   6   85.43    4.22
   3  -3   6    9.06    1.48
   4  -3   6    9.48    1.28
   5  -3   6   19.92    2.35
   6  -3   6   29.30    2.82
   7  -3   6   65.94    4.63
   8  -3   6    4.80    1.40
   9  -3   6    9.75    2.01
  10  -3   6    1.77    1.74
  11  -3   6    1.46    1.73
  12  -3   6    1.41    2.46
  -9  -2   6    1.18    1.70
  -8  -2   6    4.04    1.99
  -7  -2   6   -0.66    1.18
  -6  -2   6   11.22    2.48
  -5  -2   6   16.48    2.25
  -4  -2   6    2.12    1.05
  -3  -2   6   17.04    2.14
  -2  -2   6    6.77    1.90
  -1  -2   6   86.69    5.14
   0  -2   6   43.27    3.32
   1  -2   6   26.67    2.55
   2  -2   6   49.14    3.50
   3  -2   6    1.04    0.61
   4  -2   6    9.25    1.56
   5  -2   6   28.52    2.82
   6  -2   6   27.77    2.86
   7  -2   6    2.70    1.18
   8  -2   6    1.89    1.19
   9  -2   6    1.01    1.53
  10  -2   6   41.61    5.38
  11  -2   6    1.95    1.97
 -10  -1   6    8.61    2.24
  -9  -1   6   -1.08    1.34
  -8  -1   6    8.41    2.18
  -7  -1   6    8.19    2.24
  -6  -1   6    8.74    2.13
  -5  -1   6   50.04    3.88
  -4  -1   6   26.84    2.78
  -3  -1   6   10.01    1.70
  -2  -1   6    0.53    1.09
  -1  -1   6   27.16    2.50
   0  -1   6   27.72    2.59
   1  -1   6   29.44    2.66
   2  -1   6   29.65    2.17
   3  -1   6   87.27    4.43
   4  -1   6    3.02    1.10
   5  -1   6   17.04    2.19
   6  -1   6   38.78    3.48
   7  -1   6    2.55    1.24
   8  -1   6   19.50    3.37
   9  -1   6   27.51    4.07
  10  -1   6    2.65    2.03
  11  -1   6    0.35    1.85
 -11   0   6    4.49    5.75
 -10   0   6    6.29    2.08
  -9   0   6    7.98    2.17
  -8   0   6   37.68    4.54
  -7   0   6    2.00    1.30
  -6   0   6    0.98    0.97
  -5   0   6   23.91    2.63
  -4   0   6    2.92    1.09
  -3   0   6    7.51    1.51
  -2   0   6   65.19    5.55
  -1   0   6   31.69    2.76
   0   0   6   17.54    2.04
   1   0   6   30.61    2.22
   2   0   6   47.96    2.97
   3   0   6    8.10    1.45
   4   0   6    3.98    1.23
   5   0   6   24.10    2.64
   6   0   6    2.73    1.15
   7   0   6    0.12    1.27
   8   0   6   33.63    4.41
   9   0   6    1.31    1.46
  10   0   6   11.62    2.97
  11   0   6    6.02    4.97
 -11   1   6   -0.82    1.49
 -10   1   6    4.10    2.01
  -9   1   6   23.22    3.65
  -8   1   6   12.56    2.69
  -7   1   6    2.95    1.25
  -6   1   6   35.14    3.35
  -5   1   6   18.91    2.35
  -4   1   6    3.78    1.20
  -3   1   6   99.31    4.89
  -2   1   6   30.52    2.75
  -1   1   6   29.96    2.67
   0   1   6   35.05    3.00
   1   1   6   33.63    2.37
   2   1   6    1.24    0.82
   3   1   6   10.09    1.73
   4   1   6   28.94    2.92
   5   1   6   55.07    4.13
   6   1   6    6.34    1.60
   7   1   6    4.09    1.81
   8   1   6    4.86    2.09
   9   1   6    1.97    2.03
  10   1   6   14.89    3.29
 -11   2   6    2.51    2.04
 -10   2   6   36.07    4.52
  -9   2   6   -0.73    1.42
  -8   2   6    0.77    1.14
  -7   2   6    4.94    1.45
  -6   2   6   23.84    2.80
  -5   2   6   30.17    3.09
  -4   2   6    8.45    1.65
  -3   2   6    0.32    0.74
  -2   2   6   47.54    3.62
  -1   2   6   32.76    2.98
   0   2   6   49.28    3.70
   1   2   6   87.51    4.44
   2   2   6    7.02    1.42
   3   2   6   15.40    2.03
   4   2   6    3.77    1.28
   5   2   6   20.25    2.60
   6   2   6   12.08    2.69
   7   2   6   -1.23    1.28
   8   2   6    7.03    2.50
   9   2   6    3.54    2.01
 -12   3   6    2.43    3.11
 -11   3   6   -0.59    1.74
 -10   3   6    1.87    1.87
  -9   3   6   12.07    2.75
  -8   3   6    4.80    1.54
  -7   3   6   57.94    4.45
  -6   3   6   37.90    3.43
  -5   3   6   13.69    2.08
  -4   3   6   10.46    1.83
  -3   3   6    9.87    1.42
  -2   3   6   93.77    4.88
  -1   3   6    0.37    0.84
   0   3   6    7.95    2.19
   1   3   6    6.92    1.43
   2   3   6   23.89    2.56
   3   3   6   37.23    3.30
   4   3   6    4.76    1.39
   5   3   6    4.53    1.80
   6   3   6   23.30    3.71
   7   3   6    5.81    2.29
   8   3   6    4.43    2.20
   9   3   6    1.03    2.15
 -12   4   6    8.33    2.53
 -11   4   6   15.44    3.38
 -10   4   6   39.99    4.89
  -9   4   6    3.60    1.50
  -8   4   6    5.90    1.70
  -7   4   6    4.07    1.42
  -6   4   6    4.67    1.48
  -5   4   6   27.50    2.85
  -4   4   6    3.72    1.49
  -3   4   6    5.98    1.47
  -2   4   6    4.80    1.31
  -1   4   6   12.89    2.00
   0   4   6    2.67    1.53
   1   4   6   23.25    3.54
   2   4   6   32.44    3.14
   3   4   6   60.35    4.51
   4   4   6    3.19    1.69
   5   4   6    7.36    2.20
   6   4   6    2.33    1.91
   7   4   6   35.42    6.82
   8   4   6    4.32    2.32
 -12   5   6    1.31    1.95
 -11   5   6    0.20    1.64
 -10   5   6    6.02    1.84
  -9   5   6    6.62    1.73
  -8   5   6    4.21    1.49
  -7   5   6   21.49    2.76
  -6   5   6   47.41    4.08
  -5   5   6   31.67    4.16
  -4   5   6   17.28    2.44
  -3   5   6   31.10    3.26
  -2   5   6   18.33    2.48
  -1   5   6   24.14    3.71
   0   5   6   27.80    3.95
   1   5   6   42.11    4.74
   2   5   6    6.14    1.57
   3   5   6    4.86    1.37
   4   5   6    3.98    1.91
   5   5   6    7.27    2.24
   6   5   6    2.39    1.66
   7   5   6   11.04    2.95
 -12   6   6    6.65    2.62
 -11   6   6    1.73    1.84
 -10   6   6    0.05    1.24
  -9   6   6   24.52    3.18
  -8   6   6   17.11    2.55
  -7   6   6    5.96    1.63
  -6   6   6    0.67    1.36
  -5   6   6   43.73    4.96
  -4   6   6   24.13    3.02
  -3   6   6   44.45    3.86
  -2   6   6    5.40    1.96
  -1   6   6   64.75    6.29
   0   6   6    0.39    1.45
   1   6   6    5.08    1.99
   2   6   6    1.82    1.50
   3   6   6    5.98    2.08
   4   6   6   30.19    4.41
   5   6   6    1.94    1.72
   6   6   6   12.78    2.85
 -12   7   6   11.88    3.13
 -11   7   6   46.12    4.47
 -10   7   6    2.56    1.52
  -9   7   6    0.11    1.28
  -8   7   6    9.58    2.61
  -7   7   6    2.79    1.89
  -6   7   6    4.77    1.97
  -5   7   6    3.84    1.38
  -4   7   6   67.02    5.07
  -3   7   6    1.26    1.17
  -2   7   6   17.13    3.30
  -1   7   6    7.69    2.42
   0   7   6    1.01    1.58
   1   7   6   18.20    3.38
   2   7   6   -0.01    1.96
   3   7   6    4.16    2.19
   4   7   6   12.66    2.86
   5   7   6    0.90    1.74
 -12   8   6    2.81    2.02
 -11   8   6    2.09    1.63
 -10   8   6    7.31    1.98
  -9   8   6    6.96    2.53
  -8   8   6   38.38    4.91
  -7   8   6   23.75    3.93
  -6   8   6    1.03    1.44
  -5   8   6    4.92    1.68
  -4   8   6    3.33    1.47
  -3   8   6    5.25    2.25
  -2   8   6   12.70    2.78
  -1   8   6    8.36    2.44
   0   8   6   33.95    4.74
   1   8   6   24.10    5.86
   2   8   6   30.88    6.69
   3   8   6    0.43    2.28
   4   8   6    5.57    2.62
 -12   9   6   -0.62    2.60
 -11   9   6    8.07    2.19
 -10   9   6    1.07    1.82
  -9   9   6    6.42    2.31
  -8   9   6   29.85    4.32
  -7   9   6    0.77    1.53
  -6   9   6   10.73    2.16
  -5   9   6    5.82    1.93
  -4   9   6    2.82    2.01
  -3   9   6   25.99    4.29
  -2   9   6   -0.58    1.50
  -1   9   6    4.89    2.30
   0   9   6    0.46    2.16
   1   9   6   -0.99    2.25
   2   9   6    1.97    2.86
 -11  10   6    5.69    2.50
 -10  10   6    9.39    2.84
  -9  10   6    5.68    2.43
  -8  10   6   35.79    4.90
  -7  10   6    1.89    1.74
  -6  10   6   38.34    4.16
  -5  10   6    4.97    2.36
  -4  10   6    3.14    2.22
  -3  10   6    3.91    2.27
  -2  10   6    3.20    2.10
  -1  10   6    2.52    2.09
   0  10   6    7.95    4.06
   1  10   6    3.00    2.99
 -10  11   6   -0.04    1.95
  -9  11   6    0.88    2.05
  -8  11   6    0.81    2.07
  -7  11   6   22.89    3.68
  -6  11   6    3.25    2.29
  -5  11   6    4.44    2.37
  -4  11   6   40.35    5.74
  -3  11   6    0.61    1.99
  -2  11   6    3.52    2.52
  -1  11   6    5.80    3.77
  -9  12   6    2.68    3.24
  -8  12   6   12.03    3.55
  -7  12   6    0.82    1.96
  -6  12   6    9.21    3.13
  -5  12   6    6.79    2.93
  -4  12   6    0.90    2.25
  -3  12   6    0.33    3.45
   3 -11   7    7.51    4.47
   4 -11   7    1.02    2.72
   5 -11   7    2.69    2.84
   6 -11   7    0.59    1.47
   7 -11   7    0.55    1.66
   2 -10   7    3.34    2.10
   3 -10   7    1.92    1.81
   4 -10   7   10.65    2.58
   5 -10   7   -0.56    1.13
   6 -10   7    1.50    1.26
   7 -10   7    0.49    1.18
   8 -10   7   13.13    2.87
   0  -9   7    2.20    2.46
   1  -9   7   13.54    2.79
   2  -9   7    1.67    1.64
   3  -9   7    0.92    1.49
   4  -9   7    5.52    1.58
   5  -9   7   27.62    3.04
   6  -9   7   19.14    2.53
   7  -9   7    3.29    1.79
   8  -9   7    3.64    1.81
   9  -9   7    1.26    1.57
  -2  -8   7   11.30    3.94
  -1  -8   7    5.05    2.83
   0  -8   7    4.55    1.79
   1  -8   7   20.19    3.25
   2  -8   7    2.24    1.60
   3  -8   7    2.49    1.56
   4  -8   7   -0.50    0.95
   5  -8   7    1.95    1.18
   6  -8   7   16.11    2.29
   7  -8   7    1.06    1.46
   8  -8   7    0.56    1.56
   9  -8   7   12.62    2.60
  10  -8   7    6.65    2.22
  -3  -7   7   -2.40    1.75
  -2  -7   7    0.93    2.13
  -1  -7   7    0.36    1.30
   0  -7   7    0.18    1.38
   1  -7   7   10.40    2.50
   2  -7   7    2.11    1.65
   3  -7   7   19.53    2.49
   4  -7   7    2.68    1.19
   5  -7   7    3.55    1.28
   6  -7   7    9.22    2.38
   7  -7   7   -0.86    1.09
   8  -7   7   17.07    3.19
   9  -7   7    1.66    1.71
  10  -7   7    1.70    1.65
  11  -7   7    1.66    3.05
  -4  -6   7    0.25    2.34
  -3  -6   7   20.74    5.12
  -2  -6   7   11.60    3.68
  -1  -6   7   15.81    3.03
   0  -6   7   12.08    2.59
   1  -6   7    0.71    1.31
   2  -6   7   10.64    2.24
   3  -6   7   10.19    1.82
   4  -6   7    7.45    1.50
   5  -6   7    0.70    0.96
   6  -6   7   16.18    2.84
   7  -6   7   13.11    2.74
   8  -6   7   -0.74    1.29
   9  -6   7    0.78    1.40
  10  -6   7   11.92    2.34
  -5  -5   7    1.55    2.51
  -4  -5   7   21.05    5.10
  -3  -5   7   -0.59    2.08
  -2  -5   7    3.69    1.71
  -1  -5   7   -0.57    1.16
   0  -5   7   14.90    2.83
   1  -5   7    4.07    1.52
   2  -5   7   52.73    4.04
   3  -5   7    3.02    1.15
   4  -5   7   18.11    2.29
   5  -5   7   14.12    2.68
   6  -5   7   -0.75    1.18
   7  -5   7    3.09    1.65
   8  -5   7    1.39    1.20
   9  -5   7   11.73    2.17
  10  -5   7    0.39    1.46
  -7  -4   7    3.84    4.08
  -6  -4   7    6.57    3.05
  -5  -4   7    3.39    2.63
  -4  -4   7    0.79    2.00
  -3  -4   7    2.87    1.53
  -2  -4   7    6.67    1.93
  -1  -4   7   18.78    3.00
   0  -4   7    7.97    2.17
   1  -4   7   27.27    3.59
   2  -4   7    0.87    0.89
   3  -4   7    1.70    1.06
   4  -4   7   10.80    2.39
   5  -4   7    2.19    1.37
   6  -4   7   10.46    1.90
   7  -4   7   14.93    2.32
   8  -4   7    1.06    1.21
   9  -4   7   34.32    3.51
  10  -4   7    0.96    1.62
  -8  -3   7   12.28    5.05
  -7  -3   7    0.58    1.99
  -6  -3   7   -1.04    1.73
  -5  -3   7    6.13    2.97
  -4  -3   7   18.85    3.03
  -3  -3   7    8.13    2.06
  -2  -3   7    3.73    1.60
  -1  -3   7    0.64    1.30
   0  -3   7   15.46    2.70
   1  -3   7    2.82    1.09
   2  -3   7    5.25    1.34
   3  -3   7   18.86    2.21
   4  -3   7   24.59    3.56
   5  -3   7   48.28    3.97
   6  -3   7    7.13    1.65
   7  -3   7    0.09    1.09
   8  -3   7    0.86    1.14
   9  -3   7   11.83    2.70
  10  -3   7   -0.31    1.75
  -8  -2   7    4.58    2.12
  -7  -2   7    0.89    1.73
  -6  -2   7    2.64    2.19
  -5  -2   7    2.48    1.75
  -4  -2   7   13.56    2.80
  -3  -2   7   49.85    5.13
  -2  -2   7   -0.40    1.12
  -1  -2   7    6.06    1.89
   0  -2   7   29.68    3.76
   1  -2   7    2.37    1.04
   2  -2   7   30.60    3.00
   3  -2   7    4.24    1.62
   4  -2   7    0.96    0.94
   5  -2   7    1.37    1.08
   6  -2   7    6.48    1.56
   7  -2   7    2.55    1.31
   8  -2   7   10.48    2.16
   9  -2   7    3.65    1.99
  10  -2   7   15.48    3.33
  -9  -1   7    2.11    2.97
  -8  -1   7   10.93    3.90
  -7  -1   7   22.13    3.73
  -6  -1   7   13.93    2.97
  -5  -1   7    0.05    1.29
  -4  -1   7    1.85    1.48
  -3  -1   7   22.78    3.56
  -2  -1   7    7.87    2.03
  -1  -1   7    1.67    1.45
   0  -1   7   17.42    2.18
   1  -1   7   16.50    2.17
   2  -1   7    1.12    1.35
   3  -1   7    6.45    1.42
   4  -1   7    2.06    1.08
   5  -1   7   23.49    2.75
   6  -1   7    1.40    1.21
   7  -1   7   14.56    2.13
   8  -1   7   -0.11    1.47
   9  -1   7    1.32    1.80
  -9   0   7    0.57    1.73
  -8   0   7    2.20    1.90
  -7   0   7    2.32    1.65
  -6   0   7   15.31    2.32
  -5   0   7   10.99    2.34
  -4   0   7   10.01    2.42
  -3   0   7   15.28    2.92
  -2   0   7   28.84    3.88
  -1   0   7   18.64    2.68
   0   0   7   -0.59    0.76
   1   0   7   18.78    2.63
   2   0   7   27.37    2.93
   3   0   7   17.61    2.27
   4   0   7    9.86    1.87
   5   0   7   14.18    2.08
   6   0   7   10.31    2.11
   7   0   7   -0.07    1.38
   8   0   7    1.21    1.78
   9   0   7    1.81    1.84
 -10   1   7    5.49    3.54
  -9   1   7    1.87    1.85
  -8   1   7    1.15    1.64
  -7   1   7   17.14    2.56
  -6   1   7    0.00    1.07
  -5   1   7   15.44    2.99
  -4   1   7    3.01    1.57
  -3   1   7    5.47    1.85
  -2   1   7    1.52    1.39
  -1   1   7   17.76    2.26
   0   1   7   17.99    2.34
   1   1   7    0.77    1.41
   2   1   7    2.51    1.47
   3   1   7   30.63    3.17
   4   1   7    1.22    1.14
   5   1   7    0.71    1.19
   6   1   7   14.99    2.55
   7   1   7   17.93    3.41
   8   1   7   16.30    3.48
   9   1   7    2.48    3.99
 -10   2   7    9.90    2.80
  -9   2   7    2.10    1.75
  -8   2   7    9.99    2.66
  -7   2   7    4.58    1.57
  -6   2   7    7.32    1.88
  -5   2   7    0.20    1.36
  -4   2   7    0.03    1.27
  -3   2   7    2.82    1.72
  -2   2   7   24.66    3.59
  -1   2   7    0.60    0.96
   0   2   7   27.06    3.83
   1   2   7    6.11    1.99
   2   2   7   -0.14    1.23
   3   2   7   65.90    4.67
   4   2   7    7.83    1.70
   5   2   7    2.02    1.31
   6   2   7   -0.37    1.48
   7   2   7    1.26    1.75
   8   2   7    2.81    2.04
 -10   3   7    0.02    1.75
  -9   3   7   20.65    3.60
  -8   3   7    0.30    1.36
  -7   3   7    1.67    1.38
  -6   3   7    9.61    1.90
  -5   3   7   63.03    6.21
  -4   3   7   34.18    4.48
  -3   3   7   13.10    2.77
  -2   3   7    5.60    1.48
  -1   3   7    4.64    1.79
   0   3   7   12.82    2.65
   1   3   7    0.93    1.30
   2   3   7    2.60    1.56
   3   3   7   10.88    2.75
   4   3   7   13.67    2.28
   5   3   7    6.70    2.22
   6   3   7    2.20    1.79
   7   3   7    1.78    1.95
 -11   4   7    1.62    3.61
 -10   4   7    1.27    1.83
  -9   4   7   30.99    3.58
  -8   4   7   -0.35    1.22
  -7   4   7   14.37    2.33
  -6   4   7   12.11    2.20
  -5   4   7    4.19    1.89
  -4   4   7   15.14    3.03
  -3   4   7    1.93    1.55
  -2   4   7    0.59    1.06
  -1   4   7   33.88    4.27
   0   4   7    9.45    2.50
   1   4   7   17.48    3.05
   2   4   7    5.83    1.98
   3   4   7    0.62    1.39
   4   4   7    0.89    1.44
   5   4   7    5.54    2.19
   6   4   7   10.45    2.74
   7   4   7    2.11    3.05
 -11   5   7   -0.08    3.29
 -10   5   7   -2.09    1.51
  -9   5   7    6.44    1.88
  -8   5   7    4.77    1.80
  -7   5   7    6.75    1.89
  -6   5   7    0.15    1.17
  -5   5   7   14.59    3.10
  -4   5   7   10.18    2.59
  -3   5   7    2.67    1.35
  -2   5   7   54.90    5.84
  -1   5   7    3.39    1.87
   0   5   7   12.74    3.07
   1   5   7    1.38    1.71
   2   5   7    2.37    1.75
   3   5   7   -0.21    2.08
   4   5   7   31.92    6.65
   5   5   7    1.01    1.73
   6   5   7    1.69    3.09
 -11   6   7    7.21    3.92
 -10   6   7   14.23    2.66
  -9   6   7    0.17    1.49
  -8   6   7    2.03    1.56
  -7   6   7   18.16    2.76
  -6   6   7   10.75    2.27
  -5   6   7   -0.07    1.56
  -4   6   7    8.31    2.49
  -3   6   7    9.13    2.52
  -2   6   7   10.46    2.60
  -1   6   7    2.82    1.79
   0   6   7   16.20    3.18
   1   6   7   13.15    3.16
   2   6   7    7.61    2.50
   3   6   7   15.73    4.68
   4   6   7    1.69    2.34
 -11   7   7    3.97    2.65
 -10   7   7    4.47    2.01
  -9   7   7    0.11    1.48
  -8   7   7   28.70    3.44
  -7   7   7    1.82    1.58
  -6   7   7   12.82    3.14
  -5   7   7    4.29    1.97
  -4   7   7   -1.14    1.64
  -3   7   7   17.15    3.58
  -2   7   7   -0.49    1.63
  -1   7   7   16.75    3.41
   0   7   7    2.07    1.73
   1   7   7    0.60    1.73
   2   7   7    0.39    2.65
   3   7   7    0.24    2.37
 -10   8   7    5.27    2.15
  -9   8   7   17.98    3.01
  -8   8   7    2.25    1.65
  -7   8   7   -0.73    1.81
  -6   8   7   10.38    3.13
  -5   8   7    0.13    1.72
  -4   8   7    0.78    1.77
  -3   8   7    4.59    2.41
  -2   8   7    0.01    1.90
  -1   8   7   29.44    4.57
   0   8   7    4.64    2.27
   1   8   7    4.82    3.00
   2   8   7   10.51    4.26
 -10   9   7    8.34    3.90
  -9   9   7    1.34    1.74
  -8   9   7   -1.08    1.80
  -7   9   7    3.01    1.89
  -6   9   7   17.48    3.25
  -5   9   7   23.99    4.32
  -4   9   7    6.12    2.65
  -3   9   7    0.99    1.94
  -2   9   7   -0.65    1.89
  -1   9   7   11.79    3.15
   0   9   7    2.49    3.05
  -9  10   7    8.40    3.73
  -8  10   7   19.07    4.08
  -7  10   7   -0.77    2.04
  -6  10   7   -3.42    2.65
  -5  10   7    0.18    2.05
  -4  10   7    6.27    4.21
  -3  10   7    2.07    2.21
  -2  10   7    5.12    2.78
  -5  11   7    3.11    3.93
  -4  11   7    1.40    3.75
   4  -9   8   -1.21    2.23
   5  -9   8    4.04    3.12
   6  -9   8    8.69    3.64
   1  -8   8   11.78    3.01
   2  -8   8   -0.47    1.73
   3  -8   8   -0.12    1.57
   4  -8   8    4.15    1.99
   5  -8   8    4.55    1.90
   6  -8   8    3.75    2.01
   7  -8   8    8.44    3.36
   0  -7   8    1.50    1.74
   1  -7   8   -0.09    1.60
   2  -7   8    4.50    2.07
   3  -7   8    2.40    1.76
   4  -7   8   18.43    3.25
   5  -7   8   -0.35    1.40
   6  -7   8   11.57    2.70
   7  -7   8    1.49    1.71
   8  -7   8   12.41    3.26
  -2  -6   8    4.85    3.30
  -1  -6   8    8.68    2.42
   0  -6   8    0.35    1.71
   1  -6   8   16.07    3.12
   2  -6   8    5.04    2.02
   3  -6   8   22.11    3.33
   4  -6   8    0.93    1.58
   5  -6   8    0.30    1.46
   6  -6   8    2.39    1.66
   7  -6   8    0.27    1.67
   8  -6   8   -1.20    1.44
  -3  -5   8    5.93    3.58
  -2  -5   8    1.43    1.79
  -1  -5   8    1.10    1.74
   0  -5   8   16.80    3.35
   1  -5   8    9.88    2.53
   2  -5   8    6.82    2.19
   3  -5   8    1.39    1.18
   4  -5   8   21.93    3.61
   5  -5   8   10.82    2.54
   6  -5   8   21.49    3.67
   7  -5   8    4.54    2.41
   8  -5   8   -2.19    1.54
   9  -5   8    1.87    2.50
  -4  -4   8    2.59    2.63
  -3  -4   8   18.65    3.34
  -2  -4   8    0.68    1.65
  -1  -4   8   20.06    3.44
   0  -4   8    2.39    1.77
   1  -4   8    2.05    1.73
   2  -4   8   19.71    3.32
   3  -4   8   12.74    2.75
   4  -4   8    2.99    1.91
   5  -4   8    7.84    2.26
   6  -4   8    6.98    2.34
   7  -4   8    1.68    1.76
   8  -4   8    1.37    1.44
   9  -4   8    6.05    3.73
  -5  -3   8   -1.03    2.46
  -4  -3   8    0.83    2.70
  -3  -3   8   18.16    3.24
  -2  -3   8    1.52    1.59
  -1  -3   8   15.53    3.11
   0  -3   8    8.22    2.40
   1  -3   8    0.62    1.51
   2  -3   8   23.40    3.65
   3  -3   8    3.18    1.74
   4  -3   8    3.39    1.88
   5  -3   8    6.48    2.21
   6  -3   8   22.24    2.91
   7  -3   8   21.08    2.86
   8  -3   8    6.06    1.92
  -6  -2   8    5.83    3.90
  -5  -2   8    8.02    3.95
  -4  -2   8    2.98    2.08
  -3  -2   8    8.44    2.44
  -2  -2   8   16.16    3.06
  -1  -2   8   29.07    3.93
   0  -2   8    0.75    1.36
   1  -2   8    8.11    2.22
   2  -2   8    0.10    1.32
   3  -2   8    2.82    1.75
   4  -2   8   16.02    3.23
   5  -2   8    0.98    1.28
   6  -2   8    1.57    1.45
   7  -2   8    2.01    1.48
   8  -2   8    4.14    2.10
  -6  -1   8   -1.28    2.80
  -5  -1   8   19.66    3.63
  -4  -1   8    4.89    2.06
  -3  -1   8    3.14    1.82
  -2  -1   8    1.86    1.67
  -1  -1   8    8.60    2.39
   0  -1   8    1.41    1.61
   1  -1   8    0.93    1.52
   2  -1   8    9.91    2.60
   3  -1   8   23.25    3.49
   4  -1   8   15.19    3.30
   5  -1   8   19.86    2.82
   6  -1   8    0.71    1.29
   7  -1   8   11.25    2.45
   8  -1   8    5.14    3.63
  -7   0   8    2.68    2.93
  -6   0   8    1.71    1.83
  -5   0   8    9.04    2.75
  -4   0   8    2.91    1.93
  -3   0   8    5.77    2.20
  -2   0   8   -0.74    1.30
  -1   0   8    3.19    1.71
   0   0   8  135.04   11.70
   1   0   8    2.50    1.67
   2   0   8   -0.32    1.42
   3   0   8    6.90    2.31
   4   0   8    0.91    1.48
   5   0   8    9.87    2.24
   6   0   8    1.72    1.44
   7   0   8    2.24    1.89
   8   0   8    6.11    4.11
  -7   1   8    5.19    3.02
  -6   1   8    0.36    1.61
  -5   1   8   14.41    3.17
  -4   1   8   10.17    2.58
  -3   1   8   20.87    3.61
  -2   1   8    8.94    2.42
  -1   1   8    0.97    1.47
   0   1   8    1.51    1.56
   1   1   8   11.77    2.84
   2   1   8    3.42    1.90
   3   1   8    1.05    1.74
   4   1   8   13.39    3.23
   5   1   8   26.25    4.13
   6   1   8   -0.82    1.55
   7   1   8   12.21    4.30
  -8   2   8    4.15    3.13
  -7   2   8    1.21    1.75
  -6   2   8    4.48    2.24
  -5   2   8    1.72    1.89
  -4   2   8   11.09    2.93
  -3   2   8    5.01    2.02
  -2   2   8    1.48    1.57
  -1   2   8   18.92    5.15
   0   2   8   -0.85    1.31
   1   2   8   20.64    3.55
   2   2   8    8.92    2.69
   3   2   8    8.56    2.57
   4   2   8    5.81    2.26
   5   2   8    6.17    2.55
   6   2   8    4.67    3.82
  -8   3   8    5.15    2.32
  -7   3   8   24.77    4.15
  -6   3   8   23.94    4.11
  -5   3   8    8.04    2.77
  -4   3   8    1.76    1.95
  -3   3   8   11.69    2.86
  -2   3   8    7.96    3.59
  -1   3   8    6.58    2.32
   0   3   8    6.15    2.20
   1   3   8    9.38    2.78
   2   3   8    1.16    1.61
   3   3   8   26.78    4.20
   4   3   8    3.72    2.22
   5   3   8   -2.07    2.39
  -8   4   8    3.22    2.15
  -7   4   8    2.09    2.31
  -6   4   8    1.54    2.09
  -5   4   8    6.95    2.64
  -4   4   8    5.38    2.34
  -3   4   8   11.06    4.34
  -2   4   8   12.97    4.78
  -1   4   8    2.26    1.89
   0   4   8    3.93    2.16
   1   4   8   23.76    4.13
   2   4   8   -1.21    1.74
   3   4   8   23.40    4.08
   4   4   8    2.71    2.75
  -9   5   8   -1.09    2.98
  -8   5   8    0.40    1.98
  -7   5   8    4.57    2.44
  -6   5   8   25.98    4.43
  -5   5   8   11.96    3.08
  -4   5   8   13.23    3.26
  -3   5   8    1.13    2.63
  -2   5   8    7.08    2.49
  -1   5   8   10.17    3.01
   0   5   8   10.88    2.76
   1   5   8    2.47    2.06
   2   5   8   -0.47    1.63
   3   5   8    3.70    3.30
  -9   6   8    9.88    5.13
  -8   6   8    2.44    2.20
  -7   6   8    1.04    1.98
  -6   6   8    1.16    2.00
  -5   6   8    0.82    1.89
  -4   6   8    0.71    2.57
  -3   6   8   26.01    6.31
  -2   6   8    3.97    2.40
  -1   6   8   16.38    3.56
   0   6   8    1.00    2.07
   1   6   8   15.14    3.52
   2   6   8    3.11    3.34
  -8   7   8    5.68    2.87
  -7   7   8   -0.48    1.99
  -6   7   8    6.42    2.69
  -5   7   8    1.63    2.93
  -4   7   8   20.85    5.71
  -3   7   8    1.77    2.26
  -2   7   8    7.20    2.65
  -1   7   8    0.92    2.31
   0   7   8   -0.78    1.95
   1   7   8    7.41    2.77
  -8   8   8   16.26    6.17
  -7   8   8    4.85    3.73
  -6   8   8    5.04    4.15
  -5   8   8    4.32    3.58
  -4   8   8    2.00    3.12
  -3   8   8    2.26    2.17
  -2   8   8   -0.74    2.07
  -1   8   8   10.74    3.07
   0   8   8    3.76    3.93
  -3   9   8   12.96    4.88
   2  -6   9   -0.31    2.90
   0  -5   9    6.10    2.53
   1  -5   9   -0.04    1.91
   2  -5   9    1.22    2.67
   3  -5   9   -1.13    2.63
   5  -5   9    2.38    2.81
  -2  -4   9    1.77    3.11
  -1  -4   9   14.17    3.25
   0  -4   9   -1.31    1.63
   1  -4   9    3.97    3.30
   2  -4   9    2.82    2.97
   3  -4   9    2.23    3.19
   4  -4   9    0.44    1.80
   5  -4   9   -1.25    2.45
  -3  -3   9    5.67    3.33
  -2  -3   9   -1.53    1.77
  -1  -3   9   -0.06    1.82
   0  -3   9    9.45    2.77
   1  -3   9    0.98    3.00
   2  -3   9    6.21    4.18
   3  -3   9   11.82    4.62
   4  -3   9    5.63    2.30
   5  -3   9    0.38    1.77
  -4  -2   9    1.79    2.69
  -3  -2   9    1.40    1.92
  -2  -2   9    2.71    1.92
  -1  -2   9   10.73    2.89
   0  -2   9    5.45    3.64
   1  -2   9    1.61    2.68
   2  -2   9    3.76    3.06
   3  -2   9    6.20    2.25
   4  -2   9    1.89    1.88
   5  -2   9   -1.24    1.64
  -4  -1   9   -0.41    1.88
  -3  -1   9    3.35    2.25
  -2  -1   9    5.57    2.53
  -1  -1   9    1.58    2.31
   0  -1   9    0.22    2.51
   1  -1   9    0.19    2.63
   2  -1   9    3.87    2.51
   3  -1   9    4.88    2.33
   4  -1   9   -0.79    1.78
   5  -1   9   14.47    3.38
  -5   0   9    1.09    2.98
  -4   0   9    1.40    2.19
  -3   0   9    9.41    2.73
  -2   0   9    6.97    2.57
  -1   0   9   -1.97    2.37
   0   0   9   -1.19    2.61
   1   0   9    1.86    3.02
   2   0   9    6.91    2.55
   3   0   9   10.95    3.07
   4   0   9    1.19    2.01
   5   0   9    4.67    3.46
  -5   1   9   16.28    3.60
  -4   1   9   -1.60    1.68
  -3   1   9    8.28    2.82
  -2   1   9    0.02    2.83
  -1   1   9    1.44    2.44
   0   1   9   -3.24    2.32
   1   1   9    0.70    2.16
   2   1   9    3.34    2.32
   3   1   9    7.92    2.81
   4   1   9   -0.23    2.14
  -6   2   9    2.33    3.03
  -5   2   9   -0.53    1.91
  -4   2   9    2.12    2.06
  -3   2   9    5.50    3.69
  -2   2   9    8.79    4.07
  -1   2   9    1.85    2.67
   0   2   9    9.08    4.32
   1   2   9   10.21    2.98
   2   2   9    2.92    2.04
   3   2   9    4.05    2.35
   4   2   9    1.56    3.38
  -6   3   9    0.38    3.45
  -5   3   9    2.07    2.26
  -4   3   9   11.20    3.04
  -3   3   9   12.01    4.60
  -2   3   9    8.82    3.92
  -1   3   9    5.19    3.44
   0   3   9   14.26    4.59
   1   3   9   -1.75    1.79
   2   3   9    0.86    2.12
   3   3   9    2.45    3.44
  -6   4   9   -1.37    3.26
  -5   4   9    0.69    2.17
  -4   4   9    0.27    3.09
  -3   4   9   -0.75    2.72
  -2   4   9    2.71    2.98
  -1   4   9    9.06    3.97
   0   4   9   -1.82    1.87
   1   4   9   20.46    3.75
   2   4   9    0.60    3.71
  -3   5   9   -1.01    2.92
  -2   5   9    1.56    3.69
  -1   5   9    0.51    3.50
   0   5   9    1.44    3.24
   0   0   0    0.00    0.00
;
_shelx_hkl_checksum              48770
loop_
_space_group_symop_operation_xyz
'x, y, z'
'-y, x-y, z'
'-x+y, -x, z'
'-x, -y, z+1/2'
'y, -x+y, z+1/2'
'x-y, x, z+1/2'
loop_
_atom_site_label
_atom_site_type_symbol
_atom_site_fract_x
_atom_site_fract_y
_atom_site_fract_z
_atom_site_U_iso_or_equiv
_atom_site_adp_type
_atom_site_occupancy
_atom_site_site_symmetry_order
_atom_site_calc_flag
_atom_site_refinement_flags_posn
_atom_site_refinement_flags_adp
_atom_site_refinement_flags_occupancy
_atom_site_disorder_assembly
_atom_site_disorder_group
La La 0.14574(8) 0.37450(7) 0.43979(16) 0.01976(18) Uani 1 1 d . . . . .
ZnA Zn 0.0000 0.0000 0.000(3) 0.086(4) Uani 0.737(12) 3 d S T P . .
ZnB Zn 0.0000 0.0000 0.209(8) 0.086(4) Uani 0.263(12) 3 d S T P . .
Ga Ga 0.3333 0.6667 0.8546(4) 0.0180(5) Uani 1 3 d S T P . .
Se1 Se 0.25125(16) 0.15198(15) 0.4722(3) 0.0275(4) Uani 1 1 d . . . . .
Se2 Se 0.51943(13) 0.09319(14) 0.2085(2) 0.0185(3) Uani 1 1 d . . . . .
Se3 Se 0.3333 0.6667 0.2261(4) 0.0183(4) Uani 1 3 d S T P . .
loop_
_atom_site_aniso_label
_atom_site_aniso_U_11
_atom_site_aniso_U_22
_atom_site_aniso_U_33
_atom_site_aniso_U_23
_atom_site_aniso_U_13
_atom_site_aniso_U_12
La 0.0178(3) 0.0144(3) 0.0264(4) -0.0016(3) -0.0016(3) 0.0075(2)
ZnA 0.0318(13) 0.0318(13) 0.195(12) 0.000 0.000 0.0159(6)
ZnB 0.0318(13) 0.0318(13) 0.195(12) 0.000 0.000 0.0159(6)
Ga 0.0193(7) 0.0193(7) 0.0154(11) 0.000 0.000 0.0097(4)
Se1 0.0263(7) 0.0193(6) 0.0402(9) -0.0059(6) -0.0047(6) 0.0139(5)
Se2 0.0169(6) 0.0162(6) 0.0194(5) 0.0002(5) 0.0014(5) 0.0060(5)
Se3 0.0188(6) 0.0188(6) 0.0172(10) 0.000 0.000 0.0094(3)
loop_
_atom_type_symbol
_atom_type_description
_atom_type_scat_dispersion_real
_atom_type_scat_dispersion_imag
_atom_type_scat_source
Zn Zn 0.2839 1.4301 'International Tables Vol C Tables 4.2.6.8 and 6.1.1.4'
Ga Ga 0.2307 1.6083 'International Tables Vol C Tables 4.2.6.8 and 6.1.1.4'
Se Se -0.0929 2.2259 'International Tables Vol C Tables 4.2.6.8 and 6.1.1.4'
La La -0.2871 2.4523 'International Tables Vol C Tables 4.2.6.8 and 6.1.1.4'
loop_
_geom_angle_atom_site_label_1
_geom_angle_atom_site_label_2
_geom_angle_atom_site_label_3
_geom_angle
_geom_angle_site_symmetry_1
_geom_angle_site_symmetry_3
Se2 La Se3 78.03(6) 5_565 .
Se2 La Se1 99.71(5) 5_565 2
Se3 La Se1 147.34(5) . 2
Se2 La Se1 140.62(7) 5_565 .
Se3 La Se1 120.47(4) . .
Se1 La Se1 82.03(6) 2 .
Se2 La Se2 78.76(7) 5_565 6
Se3 La Se2 76.33(6) . 6
Se1 La Se2 135.75(6) 2 6
Se1 La Se2 73.52(4) . 6
Se2 La Se1 141.36(5) 5_565 6_554
Se3 La Se1 83.63(7) . 6_554
Se1 La Se1 78.27(5) 2 6_554
Se1 La Se1 77.83(5) . 6_554
Se2 La Se1 129.26(5) 6 6_554
Se2 La Se2 72.39(6) 5_565 2
Se3 La Se2 77.93(4) . 2
Se1 La Se2 70.51(4) 2 2
Se1 La Se2 141.47(5) . 2
Se2 La Se2 144.58(4) 6 2
Se1 La Se2 70.65(5) 6_554 2
Se2 La ZnA 127.7(2) 5_565 4
Se3 La ZnA 154.3(2) . 4
Se1 La ZnA 41.08(3) 2 4
Se1 La ZnA 40.97(3) . 4
Se2 La ZnA 105.89(17) 6 4
Se1 La ZnA 75.3(3) 6_554 4
Se2 La ZnA 107.88(13) 2 4
ZnB ZnA ZnB 180.0 . 4_554
ZnB ZnA Se1 94.4(4) . 4_554
ZnB ZnA Se1 85.6(4) 4_554 4_554
ZnB ZnA Se1 94.4(4) . 6_554
ZnB ZnA Se1 85.6(4) 4_554 6_554
Se1 ZnA Se1 119.43(10) 4_554 6_554
ZnB ZnA Se1 94.4(4) . 5_554
ZnB ZnA Se1 85.6(4) 4_554 5_554
Se1 ZnA Se1 119.43(10) 4_554 5_554
Se1 ZnA Se1 119.43(10) 6_554 5_554
ZnB ZnA La 96.3(3) . 4_554
ZnB ZnA La 83.7(3) 4_554 4_554
Se1 ZnA La 60.13(5) 4_554 4_554
Se1 ZnA La 169.3(7) 6_554 4_554
Se1 ZnA La 59.36(5) 5_554 4_554
ZnB ZnA La 96.3(3) . 5_554
ZnB ZnA La 83.7(3) 4_554 5_554
Se1 ZnA La 169.3(7) 4_554 5_554
Se1 ZnA La 59.36(5) 6_554 5_554
Se1 ZnA La 60.13(5) 5_554 5_554
La ZnA La 118.81(10) 4_554 5_554
ZnB ZnA La 96.3(3) . 6_554
ZnB ZnA La 83.7(3) 4_554 6_554
Se1 ZnA La 59.36(5) 4_554 6_554
Se1 ZnA La 60.13(5) 6_554 6_554
Se1 ZnA La 169.3(7) 5_554 6_554
La ZnA La 118.81(10) 4_554 6_554
La ZnA La 118.81(10) 5_554 6_554
ZnA ZnB ZnA 180.0 . 4
ZnA ZnB Se1 57.1(9) . 4_554
ZnA ZnB Se1 122.9(9) 4 4_554
ZnA ZnB Se1 57.1(9) . 6_554
ZnA ZnB Se1 122.9(9) 4 6_554
Se1 ZnB Se1 93.3(12) 4_554 6_554
ZnA ZnB Se1 57.1(9) . 5_554
ZnA ZnB Se1 122.9(9) 4 5_554
Se1 ZnB Se1 93.3(12) 4_554 5_554
Se1 ZnB Se1 93.3(12) 6_554 5_554
ZnA ZnB Se1 125.8(8) . .
ZnA ZnB Se1 54.2(8) 4 .
Se1 ZnB Se1 177.2(17) 4_554 .
Se1 ZnB Se1 88.69(8) 6_554 .
Se1 ZnB Se1 88.69(8) 5_554 .
ZnA ZnB Se1 125.8(8) . 2
ZnA ZnB Se1 54.2(8) 4 2
Se1 ZnB Se1 88.69(8) 4_554 2
Se1 ZnB Se1 88.69(8) 6_554 2
Se1 ZnB Se1 177.2(17) 5_554 2
Se1 ZnB Se1 89.3(12) . 2
ZnA ZnB Se1 125.8(8) . 3
ZnA ZnB Se1 54.2(8) 4 3
Se1 ZnB Se1 88.69(8) 4_554 3
Se1 ZnB Se1 177.2(17) 6_554 3
Se1 ZnB Se1 88.69(8) 5_554 3
Se1 ZnB Se1 89.3(12) . 3
Se1 ZnB Se1 89.3(12) 2 3
Se3 Ga Se2 112.67(7) 1_556 5_565
Se3 Ga Se2 112.67(7) 1_556 4_665
Se2 Ga Se2 106.09(8) 5_565 4_665
Se3 Ga Se2 112.67(7) 1_556 6
Se2 Ga Se2 106.09(8) 5_565 6
Se2 Ga Se2 106.09(8) 4_665 6
ZnA Se1 ZnB 28.6(9) 4 4
ZnA Se1 ZnB 40.1(8) 4 .
ZnB Se1 ZnB 68.69(9) 4 .
ZnA Se1 La 79.56(5) 4 3
ZnB Se1 La 83.10(15) 4 3
ZnB Se1 La 78.98(6) . 3
ZnA Se1 La 78.90(5) 4 .
ZnB Se1 La 82.53(15) 4 .
ZnB Se1 La 78.47(7) . .
La Se1 La 156.47(6) 3 .
ZnA Se1 La 106.7(4) 4 5
ZnB Se1 La 78.1(9) 4 5
ZnB Se1 La 146.8(8) . 5
La Se1 La 97.89(5) 3 5
La Se1 La 97.25(5) . 5
Ga Se2 La 88.68(6) 4_664 6_654
Ga Se2 La 86.08(6) 4_664 5_554
La Se2 La 101.75(8) 6_654 5_554
Ga Se2 La 121.15(9) 4_664 3
La Se2 La 145.98(5) 6_654 3
La Se2 La 96.66(5) 5_554 3
Ga Se3 La 116.55(5) 1_554 3_565
Ga Se3 La 116.55(5) 1_554 .
La Se3 La 101.55(6) 3_565 .
Ga Se3 La 116.55(5) 1_554 2_665
La Se3 La 101.55(6) 3_565 2_665
La Se3 La 101.55(6) . 2_665
loop_
_geom_bond_atom_site_label_1
_geom_bond_atom_site_label_2
_geom_bond_distance
_geom_bond_site_symmetry_2
La Se2 2.986(2) 5_565
La Se3 3.047(3) .
La Se1 3.059(3) 2
La Se1 3.090(3) .
La Se2 3.099(3) 6
La Se1 3.193(3) 6_554
La Se2 3.213(3) 2
La ZnA 3.497(4) 4
ZnA ZnB 1.33(5) .
ZnA ZnB 1.86(5) 4_554
ZnA Se1 2.337(3) 4_554
ZnA Se1 2.337(3) 6_554
ZnA Se1 2.337(3) 5_554
ZnA La 3.497(3) 4_554
ZnA La 3.497(3) 5_554
ZnA La 3.497(3) 6_554
ZnB ZnA 1.86(5) 4
ZnB Se1 2.78(3) 4_554
ZnB Se1 2.78(3) 6_554
ZnB Se1 2.78(3) 5_554
ZnB Se1 2.87(3) .
ZnB Se1 2.87(3) 2
ZnB Se1 2.87(3) 3
Ga Se3 2.368(4) 1_556
Ga Se2 2.416(2) 5_565
Ga Se2 2.416(2) 4_665
Ga Se2 2.416(2) 6
Se1 ZnA 2.337(3) 4
Se1 ZnB 2.78(3) 4
Se1 La 3.059(3) 3
Se1 La 3.193(3) 5
Se2 Ga 2.416(2) 4_664
Se2 La 2.986(2) 6_654
Se2 La 3.099(3) 5_554
Se2 La 3.213(3) 3
Se3 Ga 2.368(4) 1_554
Se3 La 3.047(3) 3_565
Se3 La 3.047(3) 2_665
