#------------------------------------------------------------------------------
#$Date: 2021-03-17 11:35:53 +0200 (Wed, 17 Mar 2021) $
#$Revision: 263083 $
#$URL: file:///home/coder/svn-repositories/cod/cif/1/56/10/1561069.cif $
#------------------------------------------------------------------------------
#
# This file is available in the Crystallography Open Database (COD),
# http://www.crystallography.net/
#
# All data on this site have been placed in the public domain by the
# contributors.
#
data_1561069
loop_
_publ_author_name
'Dolyniuk, Juli-Anna'
'Lee, Shannon'
'Tran, Nhon'
'Wang, Jian'
'Wang, Lin-Lin'
'Kovnir, Kirill'
_publ_section_title
;
 Eu2P7X and Ba2As7X (X&#x202F;=&#x202F;Br, I): Chiral double-Zintl salts
 containing heptapnictotricyclane clusters
;
_journal_name_full               'Journal of Solid State Chemistry'
_journal_page_first              195
_journal_page_last               202
_journal_paper_doi               10.1016/j.jssc.2018.04.026
_journal_volume                  263
_journal_year                    2018
_chemical_formula_sum            'As7 I Sr2'
_chemical_formula_weight         826.58
_space_group_crystal_system      cubic
_space_group_IT_number           198
_space_group_name_Hall           'P 2ac 2ab 3'
_space_group_name_H-M_alt        'P 21 3'
_atom_sites_solution_hydrogens   .
_cell_angle_alpha                90
_cell_angle_beta                 90
_cell_angle_gamma                90
_cell_formula_units_Z            4
_cell_length_a                   10.261(6)
_cell_length_b                   10.261(6)
_cell_length_c                   10.261(6)
_cell_measurement_reflns_used    10970
_cell_measurement_temperature    90(2)
_cell_measurement_theta_max      28.27
_cell_measurement_theta_min      2.81
_cell_volume                     1080.4(11)
_computing_structure_refinement  'SHELXL-2016/6 (Sheldrick, 2016)'
_diffrn_ambient_temperature      90(2)
_diffrn_measured_fraction_theta_full 1.000
_diffrn_measured_fraction_theta_max 1.000
_diffrn_measurement_device_type  'Bruker APEX II CCD area-detector'
_diffrn_measurement_method       'profile data from \w scans'
_diffrn_radiation_type           MoK\a
_diffrn_radiation_wavelength     0.71073
_diffrn_reflns_av_R_equivalents  0.1547
_diffrn_reflns_av_unetI/netI     0.0673
_diffrn_reflns_Laue_measured_fraction_full 1.000
_diffrn_reflns_Laue_measured_fraction_max 1.000
_diffrn_reflns_limit_h_max       13
_diffrn_reflns_limit_h_min       -13
_diffrn_reflns_limit_k_max       13
_diffrn_reflns_limit_k_min       -13
_diffrn_reflns_limit_l_max       13
_diffrn_reflns_limit_l_min       -13
_diffrn_reflns_number            10970
_diffrn_reflns_point_group_measured_fraction_full 1.000
_diffrn_reflns_point_group_measured_fraction_max 1.000
_diffrn_reflns_theta_full        25.242
_diffrn_reflns_theta_max         28.268
_diffrn_reflns_theta_min         2.807
_diffrn_source                   'fine-focus sealed tube'
_exptl_absorpt_coefficient_mu    33.940
_exptl_absorpt_correction_T_max  0.38
_exptl_absorpt_correction_T_min  0.24
_exptl_absorpt_correction_type   multi-scan
_exptl_absorpt_process_details   'SADABS v2.03 (Bruker, 2003)'
_exptl_crystal_colour            black
_exptl_crystal_density_diffrn    5.082
_exptl_crystal_description       block
_exptl_crystal_F_000             1440
_exptl_crystal_size_max          0.050
_exptl_crystal_size_mid          0.040
_exptl_crystal_size_min          0.035
_refine_diff_density_max         1.090
_refine_diff_density_min         -1.353
_refine_diff_density_rms         0.291
_refine_ls_abs_structure_details
;
 Flack x determined using 269 quotients [(I+)-(I-)]/[(I+)+(I-)]
 (Parsons, Flack and Wagner, Acta Cryst. B69 (2013) 249-259).
;
_refine_ls_abs_structure_Flack   -0.02(3)
_refine_ls_extinction_coef       .
_refine_ls_extinction_method     none
_refine_ls_goodness_of_fit_ref   1.044
_refine_ls_hydrogen_treatment    undef
_refine_ls_matrix_type           full
_refine_ls_number_parameters     31
_refine_ls_number_reflns         911
_refine_ls_number_restraints     0
_refine_ls_restrained_S_all      1.044
_refine_ls_R_factor_all          0.0594
_refine_ls_R_factor_gt           0.0406
_refine_ls_shift/su_max          0.000
_refine_ls_shift/su_mean         0.000
_refine_ls_structure_factor_coef Fsqd
_refine_ls_weighting_details
'w=1/[\s^2^(Fo^2^)+(0.0272P)^2^+0.6044P] where P=(Fo^2^+2Fc^2^)/3'
_refine_ls_weighting_scheme      calc
_refine_ls_wR_factor_gt          0.0743
_refine_ls_wR_factor_ref         0.0814
_reflns_Friedel_coverage         0.732
_reflns_Friedel_fraction_full    1.000
_reflns_Friedel_fraction_max     1.000
_reflns_number_gt                731
_reflns_number_total             911
_reflns_threshold_expression     'I > 2\s(I)'
_cod_data_source_file            JSSC-2018-263-195.cif
_cod_data_source_block           6
_cod_original_cell_volume        1080.4(19)
_cod_database_code               1561069
_shelx_space_group_comment
;
The symmetry employed for this shelxl refinement is uniquely defined
by the following loop, which should always be used as a source of
symmetry information in preference to the above space-group names.
They are only intended as comments.
;
_shelx_estimated_absorpt_t_min   0.282
_shelx_estimated_absorpt_t_max   0.383
_shelx_res_file
;
TITL NT185_BaSrAsBr_multiint in P2(1)3
    shelx.res
    created by SHELXL-2016/6 at 12:56:09 on 23-Jan-2018
CELL 0.71073  10.26100  10.26100  10.26100  90.0000  90.0000  90.0000
ZERR    4.00   0.00600   0.00600   0.00600   0.0000   0.0000   0.0000
LATT -1
SYMM 0.5-X, -Y, 0.5+Z
SYMM -X, 0.5+Y, 0.5-Z
SYMM 0.5+X, 0.5-Y, -Z
SYMM Z, X, Y
SYMM 0.5+Z, 0.5-X, -Y
SYMM 0.5-Z, -X, 0.5+Y
SYMM -Z, 0.5+X, 0.5-Y
SYMM Y, Z, X
SYMM -Y, 0.5+Z, 0.5-X
SYMM 0.5+Y, 0.5-Z, -X
SYMM 0.5-Y, -Z, 0.5+X
SFAC AS I SR
UNIT 28 4 8
temp -183
size 0.035 0.04 0.05

L.S. 17
BOND
FMAP 2
PLAN -20
acta
WGHT    0.027200    0.604400
FVAR       0.05537
AS1   1    0.981055    0.638659    0.559138    11.00000    0.01283    0.01451 =
         0.01347   -0.00085   -0.00035    0.00017
AS2   1    0.856079    0.816600    0.475942    11.00000    0.01470    0.01500 =
         0.01420   -0.00189   -0.00061   -0.00018
AS3   1    0.222826    0.222826    0.222826    10.33333    0.01425    0.01425 =
         0.01425   -0.00053   -0.00053   -0.00053
I1    2    0.846224    0.846224    0.846224    10.33333    0.01689    0.01689 =
         0.01689   -0.00141   -0.00141   -0.00141
SR1   3    0.401056    0.401056    0.401056    10.33333    0.01645    0.01645 =
         0.01645   -0.00205   -0.00205   -0.00205
SR2   3    0.651443    0.651443    0.651443    10.33333    0.01450    0.01450 =
         0.01450   -0.00073   -0.00073   -0.00073
HKLF 4




REM  NT185_BaSrAsBr_multiint in P2(1)3
REM R1 =  0.0406 for     731 Fo > 4sig(Fo)  and  0.0594 for all     911 data
REM     31 parameters refined using      0 restraints

END

WGHT      0.0276      0.3727

REM Highest difference peak  1.090,  deepest hole -1.353,  1-sigma level  0.291
Q1    1   0.9798  0.7922  0.3810  11.00000  0.05    1.09
Q2    1   0.8018  0.7631  0.3934  11.00000  0.05    1.09
Q3    1   0.8578  0.8187  0.5556  11.00000  0.05    1.08
Q4    1   0.9999  0.7771  0.7172  11.00000  0.05    1.02
Q5    1   1.0948  0.7455  0.5315  11.00000  0.05    1.01
Q6    1   0.9544  0.5456  0.4544  10.33333  0.05    1.01
Q7    1   1.1883  0.7151  0.6505  11.00000  0.05    1.01
Q8    1   1.0046  0.6742  0.3746  11.00000  0.05    0.98
Q9    1   0.9453  0.7442  0.8099  11.00000  0.05    0.97
Q10   1   1.2257  0.6837  0.4626  11.00000  0.05    0.97
Q11   1   0.8347  0.5324  0.3890  11.00000  0.05    0.93
Q12   1   0.9217  0.7385  0.3805  11.00000  0.05    0.92
Q13   1   0.7567  0.7017  0.4997  11.00000  0.05    0.92
Q14   1   0.8629  0.7787  0.9593  11.00000  0.05    0.92
Q15   1   1.1229  0.6435  0.6053  11.00000  0.05    0.91
Q16   1   0.9181  0.6807  0.4613  11.00000  0.05    0.90
Q17   1   0.7860  0.6838  0.4718  11.00000  0.05    0.87
Q18   1   1.0008  0.8126  0.5542  11.00000  0.05    0.87
Q19   1   0.8242  0.8351  0.3415  11.00000  0.05    0.87
Q20   1   0.8447  0.6371  0.5019  11.00000  0.05    0.86
;
_shelx_res_checksum              52201
_shelx_hkl_file
;
  -1   0   0   -0.14    0.55
   0  -1   0    1.16    0.74
   0  -1   0    1.13    0.73
   0  -1   0   -0.06    0.50
   0   0  -1    0.38    0.95
   0   0   1   -0.11    0.55
   1   0   0    0.30    0.96
  -1  -1   0   15.26    1.97
  -1  -1   0   15.74    2.03
  -1   0  -1   22.09    2.60
  -1   0   1   14.63    1.69
  -1   1   0   17.59    1.95
   0  -1  -1   13.43    2.18
   0  -1  -1   15.51    2.05
   0  -1   1   19.42    2.54
   0  -1   1   15.70    1.70
   0   1  -1   13.82    1.68
   1  -1   0   13.28    2.09
   1   0  -1   12.77    2.62
   1   0  -1   11.88    1.52
   1   0   1   15.96    1.90
   1   0   1   17.11    2.01
   1   1   0   23.40    3.22
  -1  -1  -1   17.82    2.78
  -1  -1  -1   12.43    2.82
   1  -1   1   13.14    1.45
   1   1  -1   13.17    2.91
  -1   1   1   12.67    1.67
   1  -1   1   15.36    2.35
   1  -1  -1   15.24    1.99
   1  -1  -1   13.38    2.13
  -1  -1   1   11.20    1.75
  -1   1  -1   17.18    2.20
   1   1   1   16.49    2.70
  -2   0   0   -0.55    0.91
  -2   0   0   -1.25    1.06
   0  -2   0    1.27    1.36
   0  -2   0    0.62    1.28
   0  -2   0    0.02    1.03
   0   0  -2   -1.59    1.72
   0   0   2   -0.25    1.04
   2   0   0   -6.70    1.88
   2   1   0   33.85    5.58
   0  -2   1   37.86    3.19
   0   2  -1   36.84    2.76
   1   0  -2   54.74    6.27
   1   0  -2   33.62    3.05
   1   0   2   34.36    2.93
   1   0   2   33.31    3.25
   2  -1   0   36.87    4.14
   0  -2  -1   36.81    3.21
   0  -2  -1   32.11    4.16
   0  -2  -1   36.62    3.28
   0  -2   1   32.81    4.04
  -1   0  -2   29.92    4.42
  -1   0   2   34.31    3.25
  -2  -1   0   32.21    3.02
  -2   1   0   35.57    3.49
  -2  -1   0   41.38    3.46
   2   0   1   18.17    2.91
   2   0  -1   14.48    4.29
   2   0  -1   16.77    2.13
   1  -2   0   16.67    2.16
   1   2   0   16.80    3.19
   0   1  -2   17.84    3.31
   0   1   2   18.29    2.76
   1  -2   0   12.62    2.49
   1  -2   0   15.97    2.15
  -2   0  -1   15.63    2.46
  -2   0   1   15.66    2.06
  -1  -2   0   13.02    2.35
  -1  -2   0   15.95    1.90
   0  -1  -2   23.62    3.08
   0  -1   2   17.07    2.68
   0  -1   2   23.38    2.67
  -2   0  -1   16.91    2.53
  -2  -1  -1   32.78    4.05
  -2  -1  -1   27.31    3.58
   1   1  -2   30.40    4.60
   2  -1   1   22.19    3.53
   2   1  -1   34.11    5.66
  -1  -2  -1   24.56    3.78
  -1  -2  -1   27.07    3.34
   1  -2   1   31.35    3.73
  -1  -1  -2   31.16    4.83
   1  -1   2   25.53    2.72
   1   2  -1   24.67    4.11
  -1   1   2   28.12    2.91
   1  -2   1   31.51    2.52
   1  -1   2   26.76    3.28
   1   1  -2   27.45    2.67
  -1  -2   1   24.46    3.09
  -1   2  -1   27.02    2.91
   1  -1  -2   23.96    3.11
   1  -1  -2   30.93    3.10
   1  -2  -1   26.72    3.41
  -1  -1   2   24.74    2.98
  -2  -1   1   25.72    2.93
   1  -2  -1   24.95    2.96
   1   1   2   26.11    3.70
  -1   1  -2   24.14    3.19
   1   2   1   29.48    3.64
   2  -1  -1   29.53    3.72
   2  -1  -1   27.30    2.82
  -2  -1   1   21.27    2.31
  -2   1  -1   25.11    3.05
   2   1   1   18.08    4.44
  -2  -2   0   42.02    4.05
  -2  -2   0   36.64    4.40
  -2   0  -2   45.12    4.87
  -2   0   2   37.53    3.60
  -2   2   0   36.81    3.83
   0  -2  -2   39.99    4.01
   0  -2   2   40.85    4.77
   0  -2   2   39.16    3.57
   0   2  -2   43.22    3.68
   0   2   2   45.18    4.76
   2  -2   0   41.49    4.45
   2   0  -2   43.44    6.37
   2   0  -2   35.51    3.26
   2   0   2   38.75    3.92
   2   0   2   36.64    4.03
   2   2   0   41.38    5.68
  -2  -2  -1    0.28    1.89
  -2  -2  -1   -0.56    2.52
   2   1  -2   -0.34    0.83
  -2  -1  -2    3.98    2.21
  -2  -1  -2   -3.49    2.58
   2  -1   2    1.50    1.59
   2  -1   2    1.84    1.21
  -2   1   2    0.89    1.34
   1  -2   2    0.43    1.76
  -1  -2  -2    0.20    2.02
  -1  -2  -2    1.42    2.13
   1  -2   2    0.43    1.11
   2   1  -2   -1.92    3.55
  -1   2   2    1.52    1.73
   1   2  -2    0.26    2.36
   2   2  -1    1.95    3.68
   2  -2   1   -2.05    1.38
  -2   2  -1    0.75    1.54
   1  -2  -2    1.61    1.44
   2  -2  -1    0.28    1.51
   2  -2  -1    0.89    1.30
  -1  -2   2    1.80    1.56
   2  -1  -2    1.45    2.07
   2  -1  -2    3.19    1.42
  -2  -1   2    0.52    1.33
  -2   1  -2    2.26    1.82
  -1   2  -2    1.59    1.36
  -2  -2   1    0.98    1.59
   2   1   2    0.11    1.82
   1  -2  -2    1.88    1.67
   2   2   1    4.61    3.10
  -2  -2  -2  227.02   14.14
  -2  -2  -2  213.72   14.43
   2   2  -2  210.95   15.33
   2  -2   2  214.00   12.09
  -2   2   2  220.88   12.46
   2  -2   2  216.55   13.95
   2  -2  -2  225.32   13.62
  -2   2  -2  220.31   13.13
  -2  -2   2  221.00   12.97
   2   2   2  238.17   13.95
  -3   0   0   -1.65    1.11
  -3   0   0    1.38    1.57
   0  -3   0    0.77    1.88
   0  -3   0   -0.35    1.67
   0  -3   0   -0.52    1.14
   0   0  -3   -2.92    1.91
   0   0   3   -1.37    1.30
   3   0   0   -2.93    2.29
   1   0  -3   76.96    7.42
   1   0  -3   71.34    5.63
   1   0   3   71.02    5.71
   3  -1   0   83.27    6.84
   3   1   0   70.62    8.11
   0  -3  -1   82.31    6.71
   0  -3  -1   83.50    5.65
   0  -3   1   73.21    6.53
   0  -3   1   81.43    5.73
   0   3  -1   71.99    5.00
  -1   0  -3   73.97    7.84
  -1   0   3   77.13    5.67
   0  -3  -1   78.67    5.87
  -3  -1   0   79.54    5.52
  -3  -1   0   79.22    5.39
  -3   1   0   74.20    5.80
  -2   0  -3 1000.00   52.16
  -2   0   3  949.38   50.37
   0  -3  -2  973.57   52.22
   0  -3  -2  959.53   51.27
   0  -3  -2  957.13   50.89
   0  -3   2  958.30   53.65
   0  -3   2  950.77   50.34
   0   3  -2  930.82   50.12
   2   0  -3  952.30   53.79
   2   0  -3  998.66   50.57
   2   0   3  999.38   52.44
   2   0   3  964.12   50.64
   3  -2   0  965.76   53.61
   3   2   0  978.59   54.56
  -3   2   0  944.66   50.90
  -3  -2   0  976.58   50.44
  -3  -2   0  997.48   50.73
  -3   0   1   82.65    5.08
   3   0   1   69.12    6.71
  -3   0  -1   65.42    5.76
   1  -3   0   86.76    6.51
   1  -3   0   76.07    5.59
  -1  -3   0   76.17    5.00
   0  -1  -3   80.28    6.40
   0  -1   3   81.08    6.22
   0  -1   3   67.17    5.58
   0   1  -3   70.55    7.17
   0   1   3   81.44    5.96
  -3   0  -1   77.82    5.78
   1  -3   0   85.41    5.56
  -3   0   1   77.15    5.42
  -1  -3   0   73.95    5.97
   3   0  -1   69.86    7.56
  -3  -1  -1   42.74    4.45
   1  -1   3   47.01    4.50
   3  -1   1   51.93    5.41
   3   1  -1   42.20    7.28
   1  -1   3   38.97    4.05
  -3  -1  -1   40.40    4.84
   1  -3   1   47.03    4.00
  -1  -3  -1   46.81    5.36
  -1  -1  -3   43.09    6.19
   1   1  -3   48.04    4.20
  -3   1   1   44.70    4.27
  -1   1   3   45.21    4.32
   1  -3   1   39.20    5.18
  -1  -3  -1   38.45    3.97
   1   1  -3   44.62    5.90
   1  -3  -1   55.88    4.59
  -1   3  -1   49.62    4.03
   1   1   3   41.93    4.92
   1   3   1   53.88    4.78
   1  -3  -1   48.07    4.65
  -3  -1   1   53.50    4.26
  -1   1  -3   49.67    5.72
   1  -3  -1   52.96    5.05
  -1  -1   3   53.92    4.54
  -1  -3   1   58.91    4.76
   1  -1  -3   51.06    4.31
   3  -1  -1   52.58    5.59
  -3  -1   1   52.88    3.87
  -3   1  -1   49.64    4.64
   3   1   1   48.10    6.14
   1  -1  -3   48.34    4.41
  -1  -3  -2   51.54    6.33
   1  -3   2   67.27    4.58
   1   3  -2   57.63    6.33
  -1   3   2   54.61    5.46
   3  -2   1   61.01    5.95
   3   2  -1   69.48    9.42
  -1  -3  -2   54.94    5.35
   2  -1   3   51.20    4.62
  -2  -1  -3   56.02    7.42
   2   1  -3   62.43    4.33
  -3  -2  -1   60.25    5.96
  -2   1   3   62.04    4.85
   2  -1   3   63.20    5.26
  -3  -2  -1   65.29    5.74
   1  -3   2   53.05    5.76
   2   1  -3   69.45    8.03
  -3   2  -1   52.58    5.14
   1  -3  -2   64.81    4.98
   2   1   3   52.36    5.64
   3  -2  -1   50.24    5.88
  -3  -2   1   58.98    3.98
  -1   3  -2   57.09    4.72
   1   3   2   59.41    4.79
  -2  -1   3   56.80    4.94
   2  -1  -3   59.58    4.94
   3   2   1   63.99    7.53
   2  -1  -3   52.91    5.48
   3  -2  -1   57.68    4.91
  -1  -3   2   56.48    5.06
  -2   1  -3   47.79    5.45
  -3  -2   1   61.36    5.16
   1  -3  -2   61.61    5.16
   0   2  -3  251.82   15.09
   3   0   2  243.71   15.33
   0   2   3  253.91   14.99
   0  -2   3  253.59   15.70
   2   3   0  240.77   16.02
   0  -2   3  244.17   14.25
   3   0  -2  245.30   13.92
   0  -2  -3  265.53   15.03
   2  -3   0  241.61   15.44
   3   0   2  247.30   14.51
   3   0  -2  232.33   16.59
  -2  -3   0  248.57   13.72
  -2   3   0  246.36   14.40
  -3   0   2  247.18   13.91
  -2  -3   0  253.36   14.74
  -3   0  -2  249.09   14.80
   1   2  -3  340.15   19.66
   3   1  -2  319.19   22.81
   3   1  -2  354.01   18.96
  -2  -3  -1  340.69   19.99
   2  -3   1  352.74   21.31
   2   3  -1  357.65   22.19
  -2  -3  -1  361.48   20.40
   1  -2   3  343.05   19.40
   1   2  -3  353.08   21.91
   3  -1   2  351.68   21.11
   3  -1   2  350.39   19.00
  -3  -1  -2  349.19   20.36
  -3  -1  -2  354.61   20.55
  -1  -2  -3  367.24   21.09
  -3   1   2  369.70   19.14
   1  -2   3  345.09   20.98
   2  -3  -1  347.32   19.87
  -2   3  -1  359.85   19.82
  -1   2  -3  353.06   20.07
   1  -2  -3  379.26   20.19
  -1  -2   3  349.94   19.68
   3  -1  -2  354.27   21.46
   3  -1  -2  359.73   19.63
   3   1   2  369.04   21.13
   1   2   3  352.08   20.61
   2  -3  -1  340.55   20.96
  -3  -1   2  368.48   19.55
  -3   1  -2  339.47   20.10
  -2  -3   1  370.92   20.03
   2   3   1  372.65   21.28
  -3  -2  -2   51.98    5.75
  -3  -2  -2   34.95    6.04
   2  -2   3   45.57    4.96
   2  -2   3   40.98    3.85
  -3   2   2   39.63    3.60
  -2  -3  -2   55.56    6.09
  -2  -3  -2   45.59    5.37
   2  -3   2   42.78    3.51
  -2  -2  -3   39.76    5.98
  -2  -2  -3   42.84    6.54
   3  -2   2   42.51    4.97
   3   2  -2   41.16    7.60
  -2   2   3   39.60    4.13
   2   2  -3   42.04    3.27
  -2   3   2   50.68    4.43
   2   2  -3   33.51    6.10
   2   3  -2   42.23    6.66
   2  -3   2   52.27    5.35
  -2  -3   2   45.97    4.65
   2  -3  -2   43.51    4.58
   2  -2  -3   44.15    4.51
  -3  -2   2   36.24    4.28
  -3   2  -2   51.73    4.89
   2  -3  -2   52.68    4.83
  -2   3  -2   48.57    4.55
   2  -2  -3   44.11    4.56
   2   3   2   43.44    5.17
   3  -2  -2   41.48    5.33
   3  -2  -2   41.52    4.35
  -2  -2   3   51.64    4.58
  -2   2  -3   41.68    4.85
   3   2   2   53.62    6.20
  -3  -3   0    7.13    2.50
  -3  -3   0    2.12    2.35
  -3   0  -3   13.21    3.59
  -3   0   3    5.15    2.06
  -3   3   0    2.49    1.97
   0  -3  -3    5.87    2.26
   0  -3   3   -1.10    2.03
   0  -3   3    2.96    1.67
   0   3  -3    5.54    1.98
   0   3   3    4.30    2.47
   3  -3   0    2.78    2.52
   3   0  -3    2.55    4.17
   3   0  -3    4.52    1.84
   3   0   3    1.98    1.77
   3   0   3   10.46    2.73
   3   3   0    7.06    3.84
  -3  -3  -1   36.51    5.31
  -3  -3  -1   25.83    4.62
   3   1  -3   29.33    3.10
  -3  -1  -3   33.40    5.90
   1   3  -3   36.15    4.41
   3   3  -1   38.11    6.88
  -3   1   3   31.81    3.51
   3   1  -3   32.41    7.24
  -1  -3  -3   24.41    4.58
  -1  -3  -3   31.61    4.97
   3  -1   3   32.58    4.33
   3  -1   3   30.47    3.56
  -1   3   3   34.53    4.97
   3  -3   1   37.11    5.03
   1   3  -3   33.59    5.66
   1  -3   3   36.18    5.45
   1  -3   3   27.94    3.53
   1  -3  -3   37.86    4.41
  -3  -1   3   35.24    4.00
   3  -3  -1   29.78    4.96
   3  -3  -1   33.98    3.94
   1  -3  -3   37.67    3.45
   3  -1  -3   39.91    5.53
   3  -1  -3   37.41    3.89
  -1  -3   3   38.12    4.14
  -1   3  -3   32.26    3.90
  -3   3  -1   41.89    4.44
  -3  -3   1   43.69    4.60
   3   1   3   28.58    3.93
   3   1   3   34.48    4.91
  -3   1  -3   41.96    4.93
   3   3   1   48.04    6.75
  -3  -3  -2   21.85    4.63
  -3  -3  -2   11.75    3.96
   3   2  -3   15.08    5.77
  -3  -2  -3   25.89    4.89
  -3  -2  -3   10.25    3.97
   3   3  -2   15.02    5.43
   3  -2   3   20.26    3.90
  -3   2   3   16.25    2.83
   3  -3   2    4.80    2.70
  -3   3   2   19.29    2.64
  -2  -3  -3   14.86    3.81
  -2  -3  -3    3.13    2.89
   3  -2   3   15.51    2.47
   2   3  -3   12.09    4.39
  -2   3   3   10.26    2.38
   2  -3   3   16.09    2.50
   3   2  -3   17.38    2.15
   2  -3   3   19.45    3.92
   2  -3  -3   17.33    3.23
  -2   3  -3   16.04    3.30
   2  -3  -3   18.62    3.65
   3  -3  -2   11.69    2.91
  -3   3  -2   17.39    3.59
   3  -2  -3   15.06    3.56
   3  -2  -3   20.66    3.43
  -3   2  -3   18.64    3.88
  -2  -3   3   13.64    3.02
  -3  -3   2    9.27    2.55
   3  -3  -2   14.25    3.71
   3   2   3   13.96    3.42
  -3  -2   3   18.76    3.17
   3   3   2   21.00    4.73
  -3  -3  -3  390.34   23.47
  -3  -3  -3  388.54   23.82
   3  -3   3  392.20   21.01
   3   3  -3  379.17   25.75
  -3   3   3  395.32   21.42
   3  -3   3  387.59   23.92
   3  -3  -3  395.87   22.49
   3  -3  -3  392.86   23.09
  -3  -3   3  382.34   22.29
  -3   3  -3  386.01   22.50
   3   3   3  381.25   23.17
  -4   0   0  167.08    9.60
  -4   0   0  163.99   10.24
   0  -4   0  161.88   11.24
   0  -4   0  162.99   10.51
   0  -4   0  164.21    9.79
   0   0  -4  165.61   11.69
   0   0   4  159.71   10.44
   4   0   0  149.83   12.22
   0  -4  -1   17.97    2.93
   0  -4   1   14.78    3.49
   0  -4   1   19.81    3.22
   0   4  -1   22.04    2.70
   1   0  -4   25.16    4.80
   1   0  -4   19.95    3.54
   1   0   4   19.83    3.43
   4  -1   0   18.38    4.35
   4   1   0   20.08    5.30
  -1   0  -4   23.00    5.07
  -1   0   4   16.69    3.03
   0  -4  -1   16.13    3.42
   0  -4  -1   26.11    4.45
  -4  -1   0   16.12    2.97
  -4   1   0   21.40    3.59
  -4  -1   0   16.34    2.88
   0  -4   2   25.22    5.16
   0  -4  -2   19.15    4.13
   0  -4  -2   15.85    3.08
   2   0  -4   17.58    3.14
   2   0   4   21.09    3.09
   2   0   4   20.85    3.56
  -2   0   4   21.29    3.58
   0  -4  -2   17.73    3.19
   0  -4   2   20.22    3.11
   0   4  -2   21.84    2.75
   2   0  -4   17.99    5.28
   4  -2   0   13.82    4.08
   4   2   0   28.60    7.03
  -2   0  -4   15.66    4.58
  -4   2   0   20.02    3.41
  -4  -2   0   16.92    3.04
  -4  -2   0   23.33    3.74
   0  -4  -3   20.48    4.35
  -4  -3   0   15.49    3.79
  -4  -3   0   20.51    3.97
  -3   0  -4   19.84    5.00
  -3   0   4   16.67    3.44
   0   4  -3   25.81    3.26
   3   0  -4   20.81    5.37
   3   0  -4   14.55    2.80
   3   0   4   21.01    3.37
   3   0   4   16.00    3.18
   4  -3   0   22.60    4.62
   4   3   0   15.57    5.86
   0  -4   3   20.80    3.67
  -4   3   0   24.60    3.75
   0  -4  -3   19.14    3.47
   0  -4   3   26.92    5.52
   0  -4  -3   21.67    3.13
   0   1   4   15.24    3.15
   0   1  -4   22.37    4.00
   0   1  -4   20.89    4.31
   0  -1  -4   24.12    4.10
   0  -1   4   23.00    3.71
  -4   0  -1   17.75    3.22
  -4   0  -1   13.84    3.27
  -4   0   1   21.21    2.79
  -4   0   1   21.43    3.10
  -1  -4   0   17.94    3.95
  -1  -4   0   20.90    3.77
  -1  -4   0   23.82    2.65
   4   0  -1    5.97    3.87
   4   0   1   20.10    4.57
   1  -4   0   18.31    3.01
   1  -4   0   24.50    4.28
   1  -4   0   24.59    3.81
   1  -1   4   25.76    3.94
   1  -4   1    7.74    2.28
  -1  -4  -1   11.88    2.56
   1   1  -4   18.17    4.33
   1  -4   1   14.31    3.45
  -1  -4  -1   18.11    3.88
  -4  -1  -1   22.08    3.54
   4   1  -1   17.30    5.57
   4  -1   1   25.14    4.77
  -1  -1  -4   18.21    4.71
  -4   1   1   14.77    2.94
  -1  -4  -1   22.75    3.84
   1   1  -4   25.06    3.86
  -4  -1  -1   14.60    3.14
  -1   1   4   17.23    3.28
   1  -1   4   17.21    3.13
  -1  -4   1   16.51    3.24
   1  -4  -1   19.45    3.66
  -4  -1   1   10.88    2.40
  -1   1  -4   20.92    4.97
   1  -4  -1   13.52    3.25
  -1  -1   4   17.76    3.23
   1  -4  -1   20.20    3.39
  -1  -4   1   13.55    3.95
   1   1   4   11.74    2.89
   4  -1  -1    8.77    3.24
  -4   1  -1   20.64    3.86
  -4  -1   1   16.81    2.84
   4   1   1   16.33    4.74
   1  -1  -4   16.52    3.43
  -1   4  -1   16.83    2.87
   4  -2   1   26.79    5.01
  -1  -4  -2   27.51    4.16
   1  -4   2   36.98    3.75
  -4  -2  -1   36.84    5.04
  -4  -2  -1   28.69    4.66
   2  -1   4   31.79    4.14
   2   1  -4   37.76    6.77
   4   2  -1   27.24    7.33
  -4   2   1   30.21    4.36
   2  -1   4   33.26    4.13
  -2   1   4   20.63    3.59
  -1  -4  -2   26.26    5.00
   1  -4   2   29.81    5.00
   2   1  -4   32.09    3.44
  -2  -1  -4   45.37    7.13
   2  -1  -4   37.25    5.15
  -2   1  -4   32.83    5.55
   1  -4  -2   32.72    3.99
   1  -4  -2   21.52    4.13
   1  -4  -2   30.49    4.04
   2  -1  -4   44.81    4.23
  -1  -4   2   27.78    5.17
  -1  -4   2   37.12    4.16
  -4   2  -1   37.47    4.53
   4   2   1   33.27    6.91
  -1   4  -2   34.72    3.72
   4  -2  -1   30.72    5.50
   2   1   4   31.30    5.01
  -4  -2   1   30.29    4.30
  -4  -2   1   38.88    3.44
  -2  -1   4   35.33    4.21
   4  -3   1  117.25   10.12
   3   1  -4  117.46    8.08
   3   1  -4  126.85   12.33
   3  -1   4  128.38    9.16
   3  -1   4  123.14    8.57
   4   3  -1  133.05   12.76
  -4  -3  -1  124.92    9.37
  -4  -3  -1  115.47    9.76
  -4   3   1  123.97    9.10
  -3   1   4  125.93    8.60
  -1  -4  -3  123.97   10.18
  -1   4   3  128.99    9.66
  -3  -1  -4  132.95   11.35
   1   4  -3  114.50   10.52
   1  -4   3  114.88    9.95
   1  -4   3  117.97    8.31
  -1  -4  -3  124.73    9.32
   1  -4  -3  130.46    9.24
   3   1   4  130.77    8.51
  -3   1  -4  120.64    9.86
  -4  -3   1  131.37    9.08
   4  -3  -1  119.96    9.94
   1   4   3  126.57    8.36
   3  -1  -4  129.51    9.87
   3  -1  -4  140.87    8.90
   1  -4  -3  133.42    8.61
  -1  -4   3  128.69    9.00
  -1   4  -3  134.31    8.56
   3   1   4  121.47    9.49
  -4   3  -1  128.95    9.16
   4   3   1  135.24   12.24
  -3  -1   4  126.28    8.73
   2  -4   0  105.25    8.61
  -4   0   2  107.96    7.29
  -4   0  -2  112.25    8.06
  -2   4   0  115.56    7.79
  -4   0  -2  108.59    8.13
  -4   0   2  107.29    7.12
   0   2   4  109.87    8.33
   2   4   0  106.47    9.02
   0  -2   4   97.53    8.68
   0  -2   4  119.12    7.93
   0  -2  -4  105.24    8.63
  -2  -4   0  104.82    6.77
  -2  -4   0  114.56    8.47
   4   0  -2  111.82   10.38
   4   0   2  103.66    8.65
   0   2  -4  114.86    9.63
  -4  -1  -2    8.78    3.15
   1  -2   4   -0.19    2.26
  -1  -2  -4    9.07    3.29
   4   1  -2    9.25    5.67
  -2  -4  -1    5.91    2.09
   4  -1   2    6.54    3.02
  -2  -4  -1   16.86    3.84
   1   2  -4    8.59    3.52
   1   2  -4    7.62    2.67
   2  -4   1    2.79    2.53
   2   4  -1    1.23    2.69
  -1   2   4    6.09    2.26
  -4   1   2    7.42    1.91
  -4  -1  -2    8.90    3.00
   1  -2   4    7.83    2.34
   2  -4  -1    1.89    2.20
   4  -1  -2    4.86    3.30
  -4  -1   2    3.44    1.89
  -4  -1   2    4.26    1.94
  -4   1  -2    4.96    2.32
   4  -1  -2    4.24    1.73
   2  -4  -1    6.28    2.29
   2  -4  -1    7.55    2.40
  -2  -4   1    4.67    2.36
   2   4   1    5.12    3.22
  -1  -2   4    7.86    2.46
  -1   2  -4    2.01    3.00
   4   1   2    3.34    2.91
   1  -2  -4    2.91    2.13
   1   2   4    5.37    2.69
  -2   4  -1    5.74    2.16
  -2   2   4   24.17    3.81
  -2  -4  -2   30.80    5.59
  -4  -2  -2   23.76    4.84
  -4  -2  -2   19.04    4.70
   2  -2   4   21.38    4.08
   2  -2   4   21.68    3.31
   2   2  -4   37.36    7.00
  -2  -4  -2   18.59    3.77
   2   4  -2   27.15    5.54
   2  -4   2   23.97    4.42
  -2   4   2   12.71    3.14
   2   2  -4   24.17    2.80
   4  -2   2   27.15    5.08
  -2  -2  -4   23.17    5.50
   2  -4   2   24.95    2.98
   4   2  -2   22.28    7.06
  -2   4  -2   22.30    3.76
   2   4   2   22.18    4.02
   4  -2  -2   22.06    5.21
   2  -2  -4   30.46    3.58
   4   2   2   24.32    5.09
   2  -2  -4   18.77    3.48
  -2  -2   4   22.48    3.95
  -2   2  -4   27.13    4.63
   4  -2  -2   22.12    3.55
   2   2   4   22.27    4.35
   2  -4  -2   22.12    3.91
  -4  -2   2   24.03    3.98
  -4  -2   2   21.30    2.69
  -4   2  -2   21.03    4.12
   2  -4  -2   24.40    3.99
  -2  -4   2   13.24    3.45
   4   3  -2   36.50    7.94
  -2  -4  -3   36.22    5.49
   2  -4   3   24.69    3.23
  -2   4   3   30.73    4.62
   2   4  -3   25.37    5.76
  -3  -2  -4   19.87    5.46
   2  -4   3   33.02    6.07
   3   2  -4   35.54    8.15
   3   2  -4   23.42    2.80
  -3   2   4   27.56    4.04
  -2  -4  -3   27.18    5.11
  -4  -3  -2   11.70    4.38
   3  -2   4   37.16    5.52
   3  -2   4   33.31    4.07
  -4  -3  -2   29.31    5.56
   4  -3   2   23.54    4.80
  -4  -3   2   31.93    4.88
   2  -4  -3   20.07    3.79
   4  -3  -2   23.95    3.90
  -3  -2   4   28.21    4.43
   2   4   3   24.21    4.61
   3  -2  -4   30.62    4.56
  -3   2  -4   22.44    4.59
   3   2   4   41.19    6.31
   4   3   2   33.95    6.54
   3  -2  -4   21.05    3.90
   2  -4  -3   19.30    3.71
  -4   3  -2   25.54    4.32
  -2  -4   3   27.31    4.50
  -2   4  -3   30.73    4.55
   4  -3  -2   32.96    5.78
   4   0   3   60.13    6.16
   3  -4   0   64.24    6.64
  -4   0  -3   54.66    6.33
  -4   0   3   62.09    5.34
   3   4   0   61.87    8.05
  -3  -4   0   60.05    5.00
  -3   4   0   61.56    5.74
   0  -3  -4   66.26    6.33
   0  -3   4   69.30    7.12
   0  -3   4   63.30    5.43
   0   3  -4   57.74    6.64
   4   0   3   68.46    5.81
  -3  -4   0   55.75    6.09
   0   3   4   51.24    6.21
   4   0  -3   67.90    8.80
   4   0  -3   73.73    5.29
  -4  -1  -3    1.74    2.91
   4   1  -3    0.74    1.27
   1  -3   4    6.56    3.09
  -3  -4  -1    4.65    2.55
  -3  -4  -1    0.69    1.96
   3  -4   1    1.29    2.59
   4  -1   3    2.42    1.48
   4   1  -3    4.95    5.33
   1   3  -4   -1.66    2.37
   1   3  -4    4.02    2.44
  -4   1   3    0.55    1.44
  -1  -3  -4    1.24    2.44
  -1   3   4    3.86    2.37
   3   4  -1    4.50    3.75
   4  -1   3    1.39    2.07
   1  -3   4    2.76    1.60
  -1  -3   4    7.68    2.61
   1  -3  -4    3.37    2.11
  -4  -1   3    1.41    1.74
   4   1   3    4.04    2.47
  -4   1  -3    1.43    2.23
   3  -4  -1    3.79    2.45
   3  -4  -1    3.15    1.91
  -3  -4   1    1.61    2.14
  -1   3  -4    3.51    2.67
   3   4   1    9.02    3.88
   4  -1  -3   -3.08    2.33
   4  -1  -3    1.85    1.56
   1   3   4    6.95    3.29
  -3   4  -1    1.85    1.92
   3   4  -2    4.78    3.79
  -3   4   2    2.82    1.59
  -2  -3  -4    0.17    2.62
  -3  -4  -2   -0.89    2.27
   4  -2   3   -0.08    1.90
   4   2  -3   -4.60    4.09
  -3  -4  -2    0.16    2.13
   3  -4   2    0.63    2.13
  -4  -2  -3   -0.75    2.00
  -4  -2  -3    1.66    3.00
   2  -3   4    1.00    2.24
   2  -3   4   -1.60    1.28
   2   3  -4   -4.49    2.50
  -4   2   3   -1.88    1.09
  -2   3   4   -1.11    1.56
   3  -4  -2    0.11    1.97
   2  -3  -4    0.56    1.57
   2  -3  -4    0.84    1.72
  -4  -2   3   -0.05    1.68
   3  -4  -2   -0.43    1.45
  -4   2  -3   -0.26    2.00
   2   3   4   -0.90    1.99
   4  -2  -3    1.22    1.66
   4   2   3   -3.45    2.10
  -3  -4   2    0.12    1.73
  -3   4  -2   -3.35    1.47
   3   4   2   -0.39    3.18
   4  -2  -3   -1.39    1.95
  -2  -3   4   -1.23    1.33
  -2   3  -4    0.85    1.91
  -4  -2   3   -1.07    1.13
  -4  -3  -3   59.78    7.23
  -4  -3  -3   49.02    7.93
   3  -3   4   60.01    5.00
   4  -3   3   67.37    7.04
  -4   3   3   62.40    4.96
  -3  -4  -3   61.29    7.38
  -3  -4  -3   59.44    7.10
   3   4  -3   41.40    8.18
  -3  -3  -4   62.67    7.35
  -3  -3  -4   63.02    8.08
   4   3  -3   68.04   11.10
   3   3  -4   83.08   11.51
  -3   3   4   62.32    5.51
   3  -4   3   53.27    6.57
  -3   4   3   61.16    5.29
   3   3  -4   60.16    4.13
   3  -3   4   44.73    6.26
  -3  -4   3   59.37    6.15
   3  -3  -4   63.81    5.84
   3  -3  -4   60.84    5.95
   3  -4  -3   61.22    6.07
  -4  -3   3   65.93    6.02
  -3   3  -4   57.31    6.31
   3  -4  -3   64.15    6.24
  -3   4  -3   63.74    6.16
   3   4   3   66.29    7.40
   4  -3  -3   58.45    6.45
   4  -3  -3   68.98    6.13
  -4   3  -3   64.22    6.35
  -3  -3   4   58.21    5.94
   4   3   3   68.29    7.46
  -4  -4   0   38.88    5.88
  -4  -4   0   39.56    5.03
  -4   0  -4   39.67    6.14
  -4   0   4   41.70    4.47
  -4   4   0   37.19    4.84
   0  -4  -4   29.00    4.77
   0  -4   4   37.06    6.93
   0  -4   4   33.47    4.39
   0   4  -4   36.63    5.21
   0   4   4   33.48    5.77
   4  -4   0   44.71    5.72
   4   0  -4   51.77    8.29
   4   0  -4   24.86    4.13
   4   0   4   34.31    5.25
   4   0   4   30.88    4.99
   4   4   0   30.28    7.25
  -4  -4  -1   52.34    6.00
  -4  -4  -1   50.36    6.16
   1   4  -4   55.35    7.04
  -4  -1  -4   57.11    7.11
   4   4  -1   50.91    9.19
   4  -1   4   53.17    4.95
  -4   1   4   58.78    5.13
   4   1  -4   51.66    4.42
  -4   4   1   36.32    5.59
  -1  -4  -4   61.52    6.58
   1  -4   4   35.58    6.56
   4   1  -4   57.49   10.05
  -1   4   4   53.14    5.97
   1   4  -4   49.55    5.82
   4  -4   1   58.20    6.70
   1  -4   4   55.32    5.03
   4  -1   4   51.62    5.60
  -1  -4   4   52.31    5.38
   1   4   4   53.09    6.66
   1  -4  -4   42.54    5.55
  -4  -4   1   53.93    5.79
   4  -1  -4   50.09    6.75
   4  -1  -4   48.13    5.15
   4  -4  -1   38.62    6.66
  -4   1  -4   43.43    5.84
  -1   4  -4   47.01    5.19
  -4   4  -1   49.44    5.59
   4   1   4   51.51    5.45
   4   1   4   44.44    5.62
  -4  -1   4   50.15    5.21
   4   4   1   58.04    8.88
  -4  -4  -2   28.02    5.67
  -4  -4  -2   17.92    4.70
   2  -4   4   26.65    3.71
  -4  -2  -4   25.96    6.18
   4   4  -2   22.68    6.62
   4  -2   4   18.84    2.99
  -4   2   4   24.74    3.67
   4   2  -4   16.53    2.69
  -2  -4  -4   24.61    5.95
  -2  -4  -4   24.13    5.14
   4  -4   2   36.36    6.43
   4   2  -4   15.95    7.49
  -2   4   4   26.55    4.72
   2   4  -4   26.80    6.42
   4  -2   4   19.57    4.24
   2  -4   4   22.31    4.80
  -2  -4   4   11.85    3.12
   2  -4  -4   23.11    3.73
   4  -4  -2   17.55    4.55
  -4  -4   2   19.42    4.33
   2  -4  -4   27.19    5.02
   4  -2  -4   24.15    4.57
   4  -2  -4   20.63    3.73
   4  -4  -2   16.10    3.75
  -4   2  -4   29.84    5.15
  -2   4  -4   19.24    3.99
  -4   4  -2   24.45    4.82
   4   2   4   25.44    4.15
   4   2   4   26.88    5.23
  -4  -2   4   22.95    4.09
   4   4   2   29.11    5.92
  -4  -4  -3   57.36    7.37
  -4  -4  -3   42.05    7.62
   4   3  -4   52.34   10.32
  -4  -3  -4   43.43    7.24
  -4  -3  -4   53.48    8.09
   3   4  -4   41.83    9.16
   4  -3   4   51.93    6.60
  -4   3   4   49.93    4.83
   4  -4   3   55.23    7.06
  -4   4   3   52.08    4.61
  -3  -4  -4   60.67    7.37
  -3  -4  -4   63.32    7.45
   4  -3   4   52.98    4.50
   3  -4   4   41.44    6.97
  -3   4   4   55.09    5.35
   4   4  -3   63.35   11.22
   3  -4   4   46.80    4.58
  -3   4  -4   49.72    5.77
   3  -4  -4   51.99    5.72
  -4  -3   4   48.54    5.69
   4  -4  -3   55.19    6.16
   4  -4  -3   55.76    5.91
  -4   4  -3   37.20    5.71
   4  -3  -4   55.67    6.14
   4  -3  -4   48.76    5.62
  -4   3  -4   44.92    5.92
  -3  -4   4   57.81    5.98
  -4  -4   3   48.71    5.66
   4   3   4   44.60    5.58
   3  -4  -4   54.72    5.65
   4   4   3   49.10    7.36
  -4  -4  -4   33.95    6.47
  -4  -4  -4   24.69    6.29
   4   4  -4   30.39    9.06
   4  -4   4   27.68    5.76
  -4   4   4   35.88    4.32
   4  -4  -4   45.40    5.49
   4  -4  -4   28.48    5.35
  -4   4  -4   33.20    6.16
  -4  -4   4   39.85    6.21
   4   4   4   41.50    6.13
  -5   0   0   -1.25    1.33
  -5   0   0   -0.35    1.54
   0  -5   0   -1.48    1.92
   0  -5   0    1.58    2.23
   0  -5   0   -1.07    1.26
   0   0  -5   -1.80    2.09
   0   0   5   -0.08    1.72
   5   0   0   -0.61    2.66
   0  -5  -1   16.96    3.28
   0  -5   1    8.25    3.43
   0  -5   1   19.91    3.70
   0   5  -1   18.28    2.80
   1   0  -5   20.11    4.84
   1   0  -5   20.17    3.88
   1   0   5   16.98    3.42
   5  -1   0   18.43    4.28
   5   1   0   10.90    4.98
   0  -5  -1   14.42    3.60
  -5  -1   0   20.46    3.40
  -5  -1   0   19.43    3.47
  -5   1   0   14.56    3.51
  -1   0  -5   17.60    4.81
  -1   0   5   10.83    2.97
   0  -5  -1   16.39    4.20
   5   2   0   18.18    6.04
   0  -5  -2    6.32    3.02
   0  -5  -2    9.28    2.86
   0  -5   2    5.20    3.23
   0  -5   2    7.62    2.42
   0   5  -2    8.42    2.14
   2   0  -5    8.71    4.76
   2   0  -5    9.53    2.84
   2   0   5   10.48    3.15
   5  -2   0    7.70    3.75
  -5  -2   0    9.43    2.55
  -5   2   0    6.93    2.78
  -2   0  -5    6.30    4.08
  -2   0   5   10.10    2.88
   0  -5  -2   28.34    4.47
  -5  -2   0   10.99    2.94
   0  -5  -3  453.31   26.29
   0  -5  -3  465.53   27.03
   0  -5   3  437.54   25.60
  -5  -3   0  454.57   26.28
  -5  -3   0  436.79   25.45
   3   0   5  443.67   26.14
   3   0   5  456.10   26.16
   5   3   0  479.62   29.78
  -3   0   5  452.44   25.65
   3   0  -5  451.39   28.16
   3   0  -5  466.90   25.64
   0  -5  -3  468.49   26.13
   0  -5   3  469.75   28.46
   0   5  -3  460.49   24.94
  -5   3   0  461.67   26.22
  -3   0  -5  445.72   28.17
   4   0   5   81.65    7.03
   5   4   0   52.36    9.45
   5  -4   0   75.07    8.36
   0  -5   4   79.22    9.10
   0  -5   4   85.71    6.99
   0   5  -4   83.26    6.69
  -5  -4   0   78.33    7.66
  -5  -4   0   67.85    7.25
  -5   4   0   73.86    7.20
  -4   0  -5   75.17    8.74
   4   0  -5   87.61    6.61
   0   5   4   88.85    8.54
   4   0  -5   82.00    9.88
   0  -5  -4   86.86    7.69
  -4   0   5   81.75    7.00
   4   0   5   86.32    7.26
   5   0  -1   12.48    5.12
   5   0   1   13.83    4.02
  -1  -5   0   13.42    3.45
   0   1   5    5.36    2.19
  -1  -5   0   16.67    4.04
  -5   0   1    8.71    2.20
   0   1  -5   11.29    3.35
  -5   0  -1   12.13    3.03
   0  -1   5    5.51    2.27
   0   1  -5   12.69    4.33
   1  -5   0    9.12    3.09
   1  -5   0    5.89    2.55
   1  -5   0   12.94    2.74
  -5   0   1    9.84    2.78
  -1  -5   0   10.13    2.31
   0  -1  -5   10.58    3.46
  -5   0  -1    8.50    2.46
   1   1  -5  165.55   10.91
   1  -5   1  156.96   11.73
  -1   1   5  159.87   10.87
   5  -1   1  157.89   12.28
  -1  -1  -5  146.22   12.28
   1  -1   5  155.93   10.88
   1  -1   5  148.27   10.45
   1   1  -5  154.24   12.03
  -1  -5  -1  161.22   10.20
  -1  -5  -1  166.59   11.42
  -5  -1  -1  164.29   10.67
  -5  -1  -1  157.83   10.57
  -1  -5  -1  157.05   11.34
   1  -5   1  175.55   10.29
   5   1  -1  141.68   13.61
  -5   1   1  158.67   10.45
  -1   1  -5  154.19   12.70
   1  -1  -5  159.97   11.09
   1  -5  -1  157.85   11.08
   5  -1  -1  177.38   12.73
   5   1   1  150.06   12.56
  -1  -1   5  167.81   10.65
   1   1   5  149.46   10.98
  -1  -5   1  168.18   12.22
  -1  -5   1  159.09   10.83
  -5  -1   1  153.33   10.12
  -5  -1   1  148.41   10.01
  -5   1  -1  154.96   10.84
  -1   5  -1  157.73   10.07
   1  -5  -1  152.83   10.53
   1  -5  -1  166.08   11.17
  -5   2   1   40.72    5.28
  -5  -2  -1   55.73    5.64
  -5  -2  -1   54.55    5.62
   2   1  -5   69.16    9.00
   5   2  -1   54.02    9.18
   1  -5   2   41.90    5.86
   2  -1   5   52.85    5.18
   1   5  -2   42.33    3.73
  -1  -5  -2   49.94    5.14
   1  -5   2   53.32    4.95
  -2   1   5   52.85    5.27
  -1  -5  -2   44.06    5.30
   2   1  -5   52.16    4.87
   2  -1   5   53.11    5.08
  -1  -5  -2   34.25    5.88
  -2  -1  -5   44.65    7.37
   5  -2   1   41.41    6.60
   1  -5  -2   45.96    5.83
  -5  -2   1   58.66    5.34
   5   2   1   52.28    8.53
  -1   5  -2   52.81    4.78
   1  -5  -2   50.50    5.23
   5  -2  -1   45.60    7.02
  -1  -5   2   56.38    5.49
  -5  -2   1   45.83    4.51
  -5   2  -1   56.64    5.85
  -1  -5   2   51.65    6.74
   2  -1  -5   48.99    5.68
   2  -1  -5   47.59    5.17
  -2   1  -5   63.28    8.56
  -2  -1   5   48.70    5.23
   1  -5  -2   50.20    5.33
   2   1   5   59.91    5.88
   3   1  -5   77.03   10.88
  -3   1   5   67.54    6.07
   3   1  -5   71.34    5.66
  -3  -1  -5   74.70    8.86
   1  -5   3   74.71    5.93
   5  -3   1   71.22    7.64
   1  -5   3   67.95    7.65
   3  -1   5   61.74    6.09
  -5  -3  -1   73.20    6.84
  -5  -3  -1   48.61    6.60
  -1  -5  -3   66.07    7.54
  -1  -5  -3   62.31    6.42
   3  -1   5   69.85    6.20
  -5   3   1   72.20    6.67
   5   3  -1   57.20   10.17
   1   5  -3   59.37    4.96
   1  -5  -3   57.21    5.85
   1   5   3   68.70    6.04
   3  -1  -5   70.31    7.04
   3  -1  -5   67.55    6.12
   5   3   1   71.12    9.63
  -5  -3   1   72.87    6.53
   3   1   5   67.63    6.82
  -1  -5   3   72.61    6.44
  -1   5  -3   67.60    5.82
   5  -3  -1   77.29    7.87
  -3  -1   5   77.62    6.61
  -3   1  -5   61.09    7.52
  -5  -3   1   61.58    5.28
  -5   3  -1   65.08    6.52
   1  -5  -3   66.94    6.58
   5   4  -1   12.13    6.19
  -5   4   1   15.54    3.86
   1   5  -4   18.58    5.31
   4  -1   5   11.39    3.16
  -5  -4  -1   21.72    5.01
  -4   1   5   11.92    3.12
   4   1  -5   15.00    6.43
   5  -4   1   11.86    4.09
  -4  -1  -5   15.53    5.19
  -1  -5  -4   18.07    4.81
   4  -1   5   29.03    4.45
  -5  -4  -1   19.13    4.19
   1  -5   4   18.72    4.65
   4   1  -5   15.20    2.89
   1  -5   4   13.41    3.22
   1   5  -4   21.75    4.05
  -1   5   4   16.65    4.18
  -1  -5  -4   22.88    4.78
   5   4   1   18.50    6.59
  -5  -4   1   12.75    3.70
   5  -4  -1   22.38    5.92
   4   1   5   28.03    4.99
   4   1   5   21.11    3.91
  -5   4  -1   14.92    3.71
  -4  -1   5   12.47    3.43
   1  -5  -4   11.93    3.35
  -4   1  -5   15.65    4.70
   4  -1  -5   21.46    4.88
  -1  -5   4   17.65    3.79
   1  -5  -4   18.76    3.44
  -1   5  -4   14.89    3.58
   4  -1  -5   19.77    3.76
   0   2  -5  222.36   15.01
   5   0   2  207.70   15.09
  -5   0  -2  223.12   14.08
   5   0  -2  199.09   16.37
  -5   0  -2  211.73   13.63
   0   2  -5  183.74   14.91
   0   2   5  226.59   14.23
   0  -2  -5  244.83   15.15
   0  -2   5  241.79   13.78
  -2   5   0  227.23   13.65
  -5   0   2  213.17   12.88
  -5   0   2  229.16   13.33
  -2  -5   0  221.93   14.36
   2  -5   0  202.84   14.70
   2  -5   0  221.64   13.37
  -2  -5   0  215.61   12.55
   2   5   0  202.97   15.11
   2  -5   1   36.70    5.92
  -5   1   2   38.91    4.50
   2   5  -1   38.07    6.27
  -2  -5  -1   40.64    4.24
  -5  -1  -2   45.57    5.40
  -1   2   5   40.55    4.94
   1   2  -5   35.77    5.11
   1  -2   5   42.13    5.63
   1  -2   5   43.54    4.42
  -5  -1  -2   39.42    5.79
  -2  -5  -1   43.72    5.49
   5   1  -2   28.80    7.59
  -1  -2  -5   51.02    7.73
   5  -1   2   31.66    6.26
  -5   1   2   38.12    3.59
   1   2  -5   49.51    7.50
   2  -5   1   42.43    4.21
   1   2   5   36.56    5.44
  -2   5  -1   35.98    4.21
   1  -2  -5   33.25    5.38
  -1  -2   5   42.82    4.80
  -5  -1   2   33.50    4.16
  -2  -5   1   30.04    4.93
  -5   1  -2   29.49    5.00
  -5  -1   2   39.94    3.98
   5   1   2   33.96    6.05
  -1   2  -5   34.42    6.35
   2  -5  -1   36.77    4.55
   2  -5  -1   27.54    4.63
   2  -5  -1   27.83    5.13
   5  -1  -2   26.05    5.96
   2   5   1   43.76    5.57
   2  -2   5   36.99    4.98
   2  -5   2   30.70    3.67
   2  -5   2   32.21    6.38
   5  -2   2   41.49    7.28
  -5   2   2   37.43    4.74
  -2  -5  -2   28.90    5.74
  -2  -5  -2   35.81    4.52
  -5  -2  -2   34.99    5.90
  -2  -2  -5   37.46    7.41
   5   2  -2   40.57    9.38
   2   2  -5   31.36    3.87
  -2   2   5   34.27    5.18
   2   2  -5   44.76    8.03
   2   5  -2   17.74    5.31
  -5  -2  -2   28.93    5.23
   2  -2   5   35.20    4.63
   2   2   5   37.25    5.83
   2  -2  -5   37.55    4.66
   2  -2  -5   37.51    3.87
   5  -2  -2   40.06    6.78
   2  -5  -2   46.13    4.94
  -2   2  -5   32.62    5.97
  -5   2  -2   36.16    5.34
  -2  -2   5   39.60    5.72
   5   2   2   29.06    6.02
  -5  -2   2   30.06    3.65
  -5  -2   2   39.94    4.71
  -2  -5   2   27.08    4.84
  -2   5  -2   34.54    5.05
   2  -5  -2   26.87    4.71
   2  -5  -2   31.87    5.37
   2   5   2   41.41    6.27
  -2  -5  -3   82.33    8.86
  -2   5   3   98.51    7.86
   5   3  -2   72.53   12.00
   3  -2   5   74.83    6.67
  -5  -3  -2   80.76    8.24
  -5  -3  -2   95.44    8.96
   3  -2   5   84.53    7.92
  -5   3   2   86.90    7.65
   3   2  -5   92.29   11.37
  -2  -5  -3   95.85    8.11
   3   2  -5   81.73    6.36
   2  -5   3   82.82    8.52
   5  -3   2   84.50    8.71
   2  -5   3   82.87    6.55
   2   5  -3   89.34    9.65
  -3  -2  -5   91.01    9.72
  -3   2   5   98.43    7.33
   2  -5  -3   83.35    7.31
   5   3   2  117.47   10.41
  -5  -3   2   83.45    7.44
  -3  -2   5   80.14    7.40
   5  -3  -2   91.07    8.69
   3  -2  -5   88.64    7.34
  -5  -3   2   90.80    5.96
  -3   2  -5   97.75    8.86
  -5   3  -2   91.57    8.08
   2  -5  -3   79.26    7.49
  -2  -5   3   93.67    7.73
   3  -2  -5   99.96    7.72
   2   5   3   93.19    7.82
  -2   5  -3   90.43    7.26
   3   2   5  100.65    8.68
  -5  -4  -2    3.15    2.97
   5   4  -2    6.84    6.74
  -2  -5  -4    7.34    4.24
  -2  -5  -4    8.38    3.37
   4   2  -5    2.76    5.85
  -4   2   5    3.58    2.20
  -4  -2  -5    2.62    3.48
   2  -5   4    7.86    3.50
   5  -4   2    0.54    2.49
  -5  -4  -2    0.23    2.98
  -2   5   4    3.22    2.59
   4  -2   5    3.43    1.72
   4  -2   5    4.79    2.62
   4   2  -5    2.82    1.84
   2   5  -4    5.66    4.06
   2  -5   4    3.62    2.30
  -2  -5   4    8.21    3.14
  -4   2  -5    2.17    2.95
   4  -2  -5    3.66    2.91
   4  -2  -5    3.44    2.28
   5  -4  -2   12.68    4.50
   2  -5  -4    9.62    2.98
   2  -5  -4    7.32    2.88
   5   4   2    1.23    4.65
  -2   5  -4    4.74    2.78
  -4  -2   5    8.09    2.97
  -5  -4   2   16.01    4.04
  -5   4  -2    7.69    3.27
   4   2   5    9.07    3.59
   3   5   0   38.28    6.88
  -5   0  -3   42.79    5.56
   5   0  -3   35.10    4.09
   0   3  -5   41.54    6.68
  -5   0   3   33.86    4.07
  -3  -5   0   35.58    3.63
  -3   5   0   42.19    4.99
   0  -3  -5   25.05    5.10
   0  -3   5   54.34    7.70
   0   3   5   32.71    5.32
   3  -5   0   44.06    5.73
   5   0   3   49.91    5.78
   0  -3   5   41.92    4.69
   5   0   3   33.84    4.94
   5   0  -3   29.67    6.74
  -3  -5   0   45.35    5.71
  -1   3   5   43.14    5.26
   5  -1   3   51.94    6.07
   1  -3   5   45.65    7.06
  -1  -3  -5   43.00    6.79
  -3  -5  -1   38.39    4.57
   3   5  -1   45.85    7.96
   5  -1   3   42.73    4.34
   5   1  -3   24.00    7.55
  -5  -1  -3   34.49    5.70
   1   3  -5   41.98    7.52
   1   3  -5   46.89    5.60
  -5   1   3   50.41    4.45
  -3  -5  -1   37.65    6.18
   1  -3   5   41.07    4.72
   3  -5   1   34.10    6.03
  -5  -1  -3   50.68    5.82
   3  -5  -1   36.45    6.27
   3   5   1   41.46    6.78
   1   3   5   30.00    5.84
  -5  -1   3   34.83    4.44
   1  -3  -5   45.52    5.61
   5  -1  -3   58.74    8.95
  -1  -3   5   38.38    4.75
  -1   3  -5   20.77    5.05
   5  -1  -3   47.30    4.60
  -3   5  -1   37.98    4.80
  -5  -1   3   49.74    4.26
   3  -5  -1   41.53    4.98
  -3  -5   1   32.87    5.60
  -5   1  -3   46.69    5.60
   5   1   3   47.02    6.72
   5  -2   3  450.48   28.20
  -3   5   2  465.54   25.45
  -5   2   3  458.60   24.96
  -3  -5  -2  436.85   27.35
  -3  -5  -2  472.73   26.58
  -2   3   5  468.30   26.39
   5   2  -3  446.41   30.77
   2   3  -5  450.73   25.05
  -5  -2  -3  498.14   27.36
  -5  -2  -3  461.09   27.70
   2  -3   5  451.18   25.65
   3  -5   2  440.13   28.41
   3   5  -2  472.62   29.81
   2   3  -5  474.05   29.73
  -2  -3  -5  455.29   28.15
   2  -3   5  456.80   27.93
   2  -3  -5  455.42   26.72
   3   5   2  447.80   27.91
   5   2   3  464.05   27.96
   2   3   5  453.34   27.27
  -2  -3   5  456.42   26.37
  -2   3  -5  481.10   27.34
  -3  -5   2  448.60   26.56
  -3   5  -2  472.33   26.27
  -5  -2   3  453.04   25.98
   5  -2  -3  439.20   27.86
  -5   2  -3  453.57   26.94
  -5  -2   3  450.74   24.73
   3  -5  -2  464.08   27.52
   3  -5  -2  462.71   26.60
   5  -2  -3  455.58   26.15
   2  -3  -5  467.52   26.05
   3   3  -5    5.09    4.79
  -5  -3  -3    3.08    3.73
   3   5  -3    5.91    3.72
   5   3  -3   11.30    6.10
  -3  -5  -3    3.04    2.71
  -3  -5  -3    4.95    3.18
   3  -3   5    7.67    2.28
  -3  -3  -5    1.09    2.80
   5  -3   3    8.02    3.96
   3  -5   3    7.19    3.82
  -3   3   5   -0.52    1.72
  -5  -3  -3    2.94    2.71
  -3   5   3    2.90    2.31
   3   3  -5    8.06    2.06
   3  -3   5    5.57    2.93
  -3   5  -3    4.59    2.69
  -3  -3   5    7.39    3.09
  -3  -5   3    7.48    3.04
  -3   3  -5    7.29    3.12
  -5  -3   3    1.01    1.83
   3  -3  -5    6.32    2.73
   3  -5  -3    5.37    3.12
   3   3   5    7.73    3.17
   3  -3  -5    8.43    3.10
   3   5   3    9.56    3.99
   5  -3  -3    2.37    2.73
   5  -3  -3    3.14    2.06
   3  -5  -3    6.65    2.38
  -5   3  -3    5.04    2.83
   5   3   3   10.97    3.55
   3  -5   4   28.13    4.05
  -4   3   5   38.26    5.42
  -3  -5  -4   24.34    5.51
   4  -3   5   34.21    5.94
   4  -3   5   30.24    3.87
   4   3  -5   13.27    7.40
   4   3  -5   31.42    3.30
   3  -5   4   42.07    7.53
  -3  -5  -4   16.03    4.75
   3   5  -4   35.35    7.75
   5  -4   3   32.48    6.23
   5   4  -3   37.85   10.34
  -5  -4  -3   23.75    5.82
  -5  -4  -3   17.18    5.22
  -4  -3  -5   25.45    6.04
  -3   5   4   27.79    4.80
  -5   4  -3   40.96    6.37
  -4  -3   5   34.95    5.62
  -4   3  -5   45.16    6.78
   5  -4  -3   24.73    5.76
   5  -4  -3   27.80    5.11
   3   5   4   35.52    6.27
  -3   5  -4   38.49    6.01
   4  -3  -5   44.53    5.33
   3  -5  -4   37.09    5.56
   3  -5  -4   29.93    5.63
   4   3   5   42.00    7.42
  -5  -4   3   32.63    5.80
   4  -3  -5   33.73    5.43
  -3  -5   4   38.05    6.13
   5   4   3   51.61    7.66
  -4  -5   0   -0.36    2.17
  -5   0   4   -0.04    1.73
  -4   5   0    3.03    2.49
   0  -4  -5    5.44    3.03
   0  -4   5   12.99    4.40
   5   0   4    7.24    2.78
   0   4  -5    7.10    3.76
   0   4   5    0.56    2.38
   5   0  -4    8.06    4.56
   5   0  -4    3.71    1.84
   5   0   4    3.54    2.61
   0  -4   5    1.85    2.20
  -5   0  -4    8.13    3.38
   4   5   0    9.44    4.53
   4  -5   0    7.89    3.20
  -4  -5   0    3.30    1.99
   5  -1   4   37.42    4.21
   1   4  -5   44.47    7.90
   4  -5   1   29.54    5.94
   4   5  -1   29.85    7.28
   5   1  -4   30.55    3.72
  -1  -4  -5   28.05    5.38
  -5   1   4   30.56    4.54
   5   1  -4   32.03    8.00
   1  -4   5   35.06    4.51
  -4  -5  -1   29.32    4.57
   1   4  -5   30.00    5.09
   5  -1   4   29.43    5.66
  -5  -1  -4   40.63    6.95
  -1   4   5   37.71    6.02
  -4   5   1   32.76    5.46
   1  -4   5   44.27    7.49
  -4  -5  -1   21.78    5.24
  -4   5  -1   32.28    5.18
  -1   4  -5   33.51    5.61
   5  -1  -4   24.61    4.30
   1  -4  -5   26.68    4.78
  -4  -5   1   29.52    5.11
   5   1   4   23.87    4.82
  -1  -4   5   28.75    4.83
   5  -1  -4   29.50    6.33
   1   4   5   19.51    5.00
   4  -5  -1   28.44    5.60
   4   5   1   31.93    6.98
   5   1   4   39.65    6.09
  -5   1  -4   29.40    5.26
  -5  -1   4   35.55    5.13
  -4  -5  -2   68.69    7.87
   5  -2   4   66.15    5.40
   5   2  -4   71.55   12.22
  -5   2   4   74.39    5.98
  -2  -4  -5   63.75    8.01
   2   4  -5   65.00    5.28
   4  -5   2   65.12    7.65
  -2   4   5   70.50    6.73
   5  -2   4   72.12    7.72
  -5  -2  -4   67.12    8.46
   2  -4   5   70.71    7.88
   2  -4   5   67.89    5.96
   2   4  -5   77.02    9.87
  -4  -5  -2   69.21    7.31
   4   5  -2   63.66   10.78
   2  -4  -5   59.50    6.65
  -2  -4   5   71.30    6.85
  -2   4  -5   64.13    7.02
   2   4   5   78.25    8.30
   4   5   2   67.41    9.12
   4  -5  -2   70.61    6.93
   5  -2  -4   64.93    6.40
   2  -4  -5   64.60    5.71
  -5   2  -4   67.37    7.36
  -5  -2   4   65.48    6.56
   5   2   4   50.88    6.41
   5  -2  -4   74.27    7.57
  -4  -5   2   61.49    6.79
  -4   5  -2   75.28    7.10
   4  -5  -2   71.77    7.73
  -5  -3  -4    1.13    2.76
  -3   4   5   -0.19    1.88
  -3  -4  -5    4.65    3.48
  -4  -5  -3   -1.69    2.12
   3  -4   5   -1.02    2.33
   3  -4   5    0.81    1.70
   3   4  -5    4.10    4.76
  -4   5   3    0.17    1.35
   5   3  -4    3.86    5.56
  -4  -5  -3    1.45    3.12
   4  -5   3   -0.34    2.41
   4   5  -3   -1.02    4.24
  -5  -3  -4   -0.48    2.96
  -5   3   4    1.57    1.73
   5  -3   4   -0.25    2.22
   5  -3  -4   -0.91    1.93
   4  -5  -3    3.08    2.57
   5   3   4    2.24    2.68
   4   5   3    3.29    3.57
  -5  -3   4    0.26    2.04
  -5   3  -4   -1.42    2.02
   5  -3  -4   -2.29    2.35
   3  -4  -5    2.94    2.00
   4  -5  -3    0.59    2.26
  -4  -5   3    2.26    2.50
  -4   5  -3    6.28    2.96
   3   4   5   -2.10    2.44
   3  -4  -5   -0.44    1.73
  -3  -4   5    2.58    2.48
  -3   4  -5   -0.78    2.05
  -5  -4  -4    8.71    4.22
  -5  -4  -4    9.64    4.30
   5  -4   4    6.32    4.01
   5   4  -4   23.77    8.82
  -5   4   4   15.87    3.10
  -4  -5  -4    5.09    3.22
  -4  -5  -4   11.57    4.43
   4   4  -5    1.83    5.65
  -4  -4  -5    3.95    3.89
   4   5  -4   19.15    7.51
   4  -5   4    5.55    3.79
  -4   4   5   11.42    3.42
   4  -4   5    9.68    2.54
  -4   5   4   11.53    3.27
   4  -4   5   22.27    5.76
   4  -5  -4   14.50    4.11
  -4   4  -5    8.21    3.51
   4  -4  -5    7.42    3.27
   4  -4  -5    6.86    2.97
   4  -5  -4    6.98    2.94
  -4   5  -4    8.90    3.68
  -4  -5   4    1.60    2.31
   4   4   5    2.03    2.97
  -4  -4   5    6.99    3.26
   4   5   4    5.35    4.49
   5  -4  -4    4.99    3.09
   5  -4  -4    6.48    3.32
  -5  -4   4   14.25    4.15
  -5   4  -4    6.06    3.14
   5   4   4    7.06    3.52
  -5  -5   0   -1.14    1.94
  -5  -5   0    3.47    2.43
  -5   0  -5   -0.76    2.52
  -5   0   5    3.15    2.28
  -5   5   0    1.30    2.48
   0  -5  -5    4.38    3.33
   0  -5   5    4.22    3.74
   0  -5   5    1.68    2.41
   0   5  -5    1.41    2.72
   0   5   5    0.58    2.73
   5  -5   0    1.55    2.45
   5   0  -5   -3.31    4.06
   5   0  -5    1.65    1.79
   5   0   5    1.96    2.50
   5   0   5    3.63    1.99
   5   5   0    1.51    5.45
  -5  -5  -1  142.62   11.44
  -5  -5  -1  130.08   10.91
   1   5  -5  156.02   13.21
  -5  -1  -5  152.27   12.98
   5   5  -1  118.12   14.11
   5  -1   5  132.21   10.22
  -5   1   5  147.04   10.30
   5   1  -5  153.91    9.86
  -5   5   1  135.88   11.09
  -1  -5  -5  154.11   11.93
   1  -5   5  158.77   13.20
   5   1  -5  161.76   14.64
  -1   5   5  144.89   11.45
   1   5  -5  133.27   10.88
   5  -5   1  147.57   12.66
   1  -5   5  150.83   10.39
   5  -1   5  138.96   11.25
  -1  -5   5  151.45   10.92
   1   5   5  150.25   12.21
   1  -5  -5  147.80   11.57
  -5  -5   1  126.66   10.96
   5  -1  -5  147.73   12.48
   5  -1  -5  147.53   10.43
   5  -5  -1  148.97   12.34
  -5   1  -5  138.21   11.79
  -1   5  -5  139.61   10.88
  -5   5  -1  136.50   10.97
   5   1   5  140.07   10.62
   5   1   5  136.51   11.20
  -5  -1   5  138.19   10.44
   5   5   1  148.67   14.09
  -5  -5  -2   17.57    4.79
  -5  -5  -2   10.27    4.33
   2   5  -5    7.19    5.04
  -5  -2  -5   14.82    5.32
   5  -2   5    8.65    2.52
   5   2  -5    0.64    6.19
  -5   2   5   10.01    3.38
   2  -5   5   16.63    3.77
  -2  -5  -5   12.80    4.61
   5   5  -2    0.69    5.66
   2  -5   5   -0.18    3.03
  -2   5   5   11.76    3.78
   5  -2   5    9.93    3.72
   5  -5   2   12.05    4.44
   5   2  -5   11.60    2.77
  -5   5  -2    9.20    3.65
   2  -5  -5   10.24    2.77
  -2   5  -5   12.18    3.98
   5  -5  -2    4.97    3.76
   2  -5  -5   15.92    4.80
   5  -2  -5    9.37    3.70
   5  -2  -5   11.59    3.37
  -5  -5   2    7.78    3.43
  -5  -2   5    9.70    3.23
  -5   2  -5    8.29    3.86
   2   5   5   11.89    4.61
   5   2   5   22.99    4.36
   5   2   5    7.32    3.46
  -2  -5   5    5.40    2.92
   5   5   2    5.27    4.90
  -5  -5  -3    5.10    3.53
  -5  -5  -3   14.62    5.02
   5   5  -3    4.75    5.81
  -5  -3  -5    7.36    4.48
   5  -3   5    9.90    2.48
   5   3  -5   -4.54    5.65
  -5   3   5   10.06    3.00
   3  -5   5   13.10    2.99
  -3  -5  -5   15.08    5.16
   5  -5   3    5.89    3.41
   3   5  -5    6.43    5.08
  -3   5   5   14.87    4.22
   5  -3   5   15.51    4.56
   3  -5   5    8.24    3.73
  -3  -5   5   15.67    4.36
  -5   5  -3   13.59    3.93
   3  -5  -5    6.29    2.70
   5  -5  -3   13.29    4.41
   5  -5  -3    6.59    2.98
   3  -5  -5    6.25    3.24
   5  -3  -5    9.71    3.78
   5  -3  -5    6.09    3.06
  -3   5  -5   10.23    3.95
  -5  -3   5    9.44    3.60
  -5   3  -5    8.51    4.00
   5   3   5   18.70    3.98
   5   3   5    5.15    3.47
  -5  -5   3   16.58    4.18
   5   5   3   14.86    5.51
  -5  -5  -4   49.97    8.69
  -5  -5  -4   59.47    9.40
   5   5  -4   71.49   13.77
  -5  -4  -5   63.87    9.88
   4   5  -5   77.16   12.92
   5  -4   5   67.32    8.47
  -5   4   5   63.55    6.21
   5  -5   4   71.73    8.81
  -5   5   4   74.48    6.15
  -4  -5  -5   75.23    9.22
  -4  -5  -5   82.38    9.28
   5   4  -5   64.26   13.02
   4  -5   5   83.04    9.48
  -4   5   5   74.80    6.84
   4  -5   5   71.28    6.11
   4  -5  -5   63.56    7.55
  -4   5  -5   70.49    8.04
   4  -5  -5   74.61    7.45
  -5  -4   5   70.54    7.74
   5  -5  -4   87.97    8.27
   5  -5  -4   69.73    7.70
  -5   5  -4   79.59    8.07
   5  -4  -5   74.69    7.71
   5  -4  -5   64.24    7.57
  -5   4  -5   61.52    7.91
  -4  -5   5   62.67    7.60
   5   4   5   59.18    6.81
  -5  -5   4   60.68    7.55
   5   5   4   75.05    9.08
  -5  -5  -5  422.60   26.77
  -5  -5  -5  413.37   26.33
   5   5  -5  347.77   29.71
   5  -5   5  436.85   27.64
  -5   5   5  421.13   23.22
   5  -5  -5  384.74   25.09
   5  -5  -5  393.09   24.99
  -5   5  -5  369.92   25.07
  -5  -5   5  385.53   25.02
  -6   0   0  282.93   16.17
  -6   0   0  298.13   17.13
   0  -6   0  271.39   18.32
   0  -6   0  283.05   17.44
   0  -6   0  274.62   16.39
   0   0  -6  277.69   18.58
   0   0   6  274.58   17.25
   6   0   0  262.44   19.71
   1   0  -6   58.06    6.37
   1   0   6   45.76    5.83
   6  -1   0   54.48    7.26
   6   1   0   47.25    8.96
   1   0  -6   57.08    7.16
   0  -6   1   55.21    5.82
   0   6  -1   48.64    4.71
  -6  -1   0   55.46    5.50
  -6  -1   0   58.95    5.74
  -6   1   0   65.62    6.24
  -1   0  -6   51.34    8.16
  -1   0   6   59.39    5.90
   0  -6  -1   65.35    6.47
   0  -6  -1   57.33    6.93
   0  -6  -1   47.50    5.24
   0  -6   1   52.75    6.81
   0  -6   2    6.25    4.13
   0  -6   2   17.67    3.64
   0  -6  -2   10.12    3.31
  -2   0  -6   11.26    4.41
  -2   0   6    6.02    2.65
   0  -6  -2    9.62    3.33
   0  -6  -2   14.94    4.29
  -6   2   0   18.06    4.01
   6   2   0   14.71    5.88
   0   6  -2   10.02    2.54
   2   0  -6    9.21    4.56
   2   0  -6   16.26    3.64
   2   0   6   10.37    3.13
   6  -2   0   12.10    4.35
  -6  -2   0   10.00    2.83
  -6  -2   0   17.72    3.96
  -3   0  -6   16.12    5.29
   0  -6  -3   19.08    4.95
   0   6  -3   18.70    3.34
   3   0  -6   20.67    6.07
  -6   3   0   20.03    4.49
   0  -6   3   31.47    7.44
  -6  -3   0   21.05    4.13
   0  -6  -3   23.57    4.89
  -3   0   6   15.28    3.71
   0  -6   3   14.62    3.82
   0  -6  -3   19.41    3.96
   3   0  -6   16.31    3.76
   3   0   6   16.35    4.23
   6  -3   0   20.11    5.41
   6   3   0   16.74    6.90
  -6  -3   0   27.44    4.89
   0  -6   4   97.48   10.85
  -6   4   0  112.93    9.53
   4   0   6  118.08    8.75
  -6  -4   0  107.95    9.43
   0  -6  -4  112.37    9.83
   4   0  -6   95.94   11.44
   4   0  -6  116.53    8.72
  -6  -4   0  103.04    9.57
  -4   0   6  105.14    8.97
   0  -6  -4  118.19    8.59
   4   0   6  145.39   10.13
   6  -4   0  108.69   10.80
   6   4   0  141.18   14.11
   0  -6   4  121.43    9.27
   0   6  -4  103.01    8.37
  -4   0  -6  131.04   11.97
  -5   0   6    0.22    2.14
   5   0   6    4.60    2.57
  -6   5   0   -1.71    2.24
   0   6   5   -0.51    3.05
   5   0  -6   -0.18    4.02
   5   0  -6   -1.11    1.64
   5   0   6    3.19    2.29
  -6  -5   0   -1.53    2.30
  -5   0  -6    1.56    3.81
   0  -6  -5    1.89    2.62
   0  -6   5    6.57    4.50
   0  -6   5   -0.04    2.25
   0   6  -5    0.08    2.72
   6   5   0   -7.35    4.15
   6  -5   0   -0.11    3.12
  -6  -5   0    2.16    3.20
   6   0  -1   64.18    8.69
  -1  -6   0   62.23    7.37
   0   1  -6   67.86    7.02
  -1  -6   0   65.51    5.43
   0  -1  -6   63.20    7.44
   0  -1   6   59.79    6.28
   1  -6   0   73.61    6.66
   1  -6   0   69.79    6.06
  -6   0  -1   55.34    6.01
   6   0   1   53.23    8.93
   0   1   6   60.16    6.63
   1  -6   0   74.17    7.04
  -6   0   1   69.75    5.55
  -1  -6   0   67.05    6.88
  -6   0  -1   73.22    6.47
  -6   0   1   73.68    6.28
   0   1  -6   77.26    8.21
  -6  -1  -1   62.52    6.47
   6  -1   1   72.82    8.42
   1  -1   6   65.38    6.66
  -1   1   6   69.18    6.68
  -6   1   1   72.74    6.45
   1  -1   6   74.98    6.71
  -1  -6  -1   84.45    7.85
  -1  -6  -1   78.81    6.16
   1   1  -6   72.62    8.38
   6   1  -1   70.13   11.33
  -1  -1  -6   67.17    8.09
  -1  -6  -1   83.26    7.55
   1   6  -1   68.33    5.27
   1   1  -6   69.05    7.06
   1  -6   1   79.37    7.69
   1  -6   1   74.71    6.45
  -6  -1  -1   76.00    6.71
  -1   1  -6   71.81    9.91
  -1  -6   1   68.63    7.81
   6  -1  -1   63.45    8.16
   1  -1  -6   62.54    7.08
  -6  -1   1   58.37    5.81
   6   1   1   66.45    8.86
   1  -6  -1   73.91    6.44
   1   1   6   62.94    7.04
  -1  -6   1   69.47    6.75
   1  -6  -1   74.62    7.30
  -1   6  -1   65.30    5.87
  -6   1  -1   68.26    6.72
  -6  -1   1   68.72    6.03
  -1  -1   6   55.86    6.11
   1  -6  -1   77.15    7.02
   1   6  -2   60.59    4.79
  -6  -2  -1   71.83    6.47
  -1  -6  -2   67.29    6.66
   2   1  -6   85.55   10.94
  -1  -6  -2   58.16    6.04
  -2   1   6   74.56    6.58
   2  -1   6   65.31    6.55
   1  -6   2   73.76    7.72
  -6  -2  -1   72.67    6.77
   6  -2   1   62.46    7.74
   6   2  -1   65.84   11.20
  -1  -6  -2   67.32    7.75
  -6   2   1   64.38    6.30
  -2  -1  -6   64.36    8.32
   2   1  -6   64.85    6.04
   2  -1   6   72.85    6.53
   1  -6   2   61.78    5.85
   6   2   1   76.96    9.05
   2   1   6   83.42    7.31
   1  -6  -2   69.76    6.53
   1  -6  -2   70.78    6.63
  -1  -6   2   49.84    6.04
  -2  -1   6   44.27    5.74
  -2   1  -6   64.86    9.31
   2  -1  -6   62.50    6.24
  -6  -2   1   64.77    6.30
  -6  -2   1   64.07    5.57
  -6   2  -1   53.39    6.34
  -1  -6   2   63.66    7.81
   1  -6  -2   51.49    7.71
  -1   6  -2   54.39    5.44
   2  -1  -6   54.78    6.28
   6  -2  -1   66.95    8.25
   6  -3   1   14.34    4.37
   3   1  -6   14.81    3.38
  -3   1   6   17.77    4.07
   1  -6   3   15.83    5.02
  -6   3   1   11.88    3.54
  -3  -1  -6   15.82    5.04
   3  -1   6   15.75    3.75
   1  -6   3   22.27    4.32
  -6  -3  -1    9.75    3.45
  -1  -6  -3   13.26    4.76
  -1  -6  -3   20.45    4.46
   1   6  -3   22.77    3.10
   6   3  -1   14.53    7.42
   3  -1   6   24.60    4.49
   3   1  -6    9.01    5.61
  -6  -3  -1   18.35    4.25
   1  -6  -3   11.89    3.32
   3   1   6   14.18    3.75
  -6  -3   1    7.84    3.05
  -1  -6   3   11.01    4.42
  -1  -6   3   14.51    3.88
   3  -1  -6   21.57    4.48
  -3  -1   6   14.20    3.75
  -3   1  -6   23.59    6.35
  -6  -3   1   13.93    3.22
  -6   3  -1    4.91    3.03
  -1   6  -3   11.76    3.08
   1  -6  -3   16.49    4.22
   1  -6  -3   11.63    4.03
   3  -1  -6   11.54    3.80
   6   3   1   22.84    6.73
   6  -3  -1   22.83    5.82
  -1  -6  -4   22.63    5.62
   4  -1   6   25.96    4.71
  -4  -1  -6   17.22    5.89
   1   6  -4   15.62    5.28
   6  -4   1   22.68    5.99
   6   4  -1   14.72    6.78
   4   1  -6   21.93    8.00
  -1   6   4   15.94    5.06
   4   1  -6   24.33    3.81
  -4   1   6   18.61    4.18
  -1  -6  -4   15.15    4.93
  -6  -4  -1   19.28    5.09
  -6  -4  -1   16.24    4.91
   1  -6   4   25.21    4.60
   4  -1   6   16.91    3.96
   1  -6   4   11.47    5.02
  -6   4   1   28.70    5.17
  -6  -4   1   26.66    4.35
  -6   4  -1   21.15    4.76
   4  -1  -6   32.34    6.07
   6  -4  -1   28.60    6.69
   4   1   6   32.84    5.37
  -1  -6   4   18.22    4.48
  -1   6  -4   20.78    3.98
  -6  -4   1   13.03    3.98
   4  -1  -6   23.51    4.79
  -4  -1   6   21.57    4.41
  -4   1  -6   22.24    5.62
   1  -6  -4   23.43    4.87
   1  -6  -4   25.77    4.16
   1   6   4   33.00    4.83
   6   4   1   24.13    7.65
   1  -6   5    4.03    2.68
  -6   5   1    7.84    3.93
  -5  -1  -6   12.38    5.11
  -5   1   6    5.34    2.93
   5   1  -6   18.38    3.68
   1  -6   5    7.42    5.09
   6  -5   1    9.48    4.48
   6   5  -1   19.08    7.41
   5  -1   6    6.84    2.98
   5   1  -6   11.71    6.48
   1   6  -5   19.61    6.67
   5  -1   6   14.07    4.07
  -6  -5  -1    9.10    4.08
  -6  -5  -1   16.12    4.76
  -1   6   5   10.62    4.91
  -1  -6  -5   11.41    4.41
   5  -1  -6    7.90    2.94
  -6   5  -1    9.91    3.85
   5  -1  -6   16.63    5.15
   5   1   6    8.93    3.46
  -6  -5   1   15.61    4.63
   1  -6  -5    3.94    3.14
   6   5   1    4.97    6.09
  -1  -6   5    9.44    3.23
  -1   6  -5   18.73    4.34
  -5  -1   6   10.37    3.70
   6  -5  -1    5.50    3.87
   1   6   5    9.06    4.47
   5   1   6    6.65    3.32
  -5   1  -6   16.86    5.58
   2  -6   0    7.73    3.64
  -6   0  -2   11.32    3.82
   0   2   6    8.76    3.07
   0  -2  -6    9.08    3.96
  -2  -6   0    6.28    3.20
  -2  -6   0    4.81    1.97
  -2   6   0    4.61    2.39
   2  -6   0    7.27    2.98
   2   6   0    8.63    3.73
  -6   0   2    2.97    2.01
  -6   0   2    7.43    2.56
  -6   0  -2   10.67    3.24
   0  -2   6    7.49    2.55
   0   2  -6    5.56    3.18
   0   2  -6    3.06    3.32
   6   0  -2    4.25    3.80
   6   0   2    6.93    3.69
  -6   1   2  142.12    9.59
  -6   1   2  127.84    8.22
   1  -2   6  137.60    9.48
   1   2  -6  108.21   11.01
  -2  -6  -1  130.19    8.83
   1   2  -6  127.79   10.01
   6  -1   2  111.45   10.87
  -6  -1  -2  121.87    9.91
  -6  -1  -2  119.35    9.65
   2  -6   1  120.62   10.42
   2  -6   1  127.28    9.07
   2   6  -1  138.10   11.56
  -1  -2  -6  135.26   11.18
   6   1  -2  126.70   12.93
   1  -2   6  118.03   10.25
  -1   2   6  120.94    9.70
  -2  -6  -1  108.43    9.98
  -6  -1   2  127.42    9.13
  -6  -1   2  138.25    9.00
   1   2   6  118.82    9.95
  -2   6  -1  126.33    9.04
   2  -6  -1  121.80    9.77
   2  -6  -1  128.47    9.59
   2   6   1  121.85   10.65
  -1   2  -6  131.49   11.80
  -6   1  -2  120.56    9.76
   1  -2  -6  134.64   10.32
   2  -6  -1  120.62   10.28
  -2  -6   1  129.98    9.99
   6   1   2  127.27   11.17
   6  -1  -2  135.34   11.79
  -1  -2   6  125.59    9.64
  -2   2   6    2.76    2.31
   2   6  -2    4.87    3.98
   2  -6   2    8.76    2.71
   2   2  -6    4.10    2.38
  -6   2   2    7.01    2.74
   6  -2   2    5.46    3.35
   2  -2   6    4.30    3.27
  -6  -2  -2    2.16    2.65
   2   2  -6    2.71    4.91
   6   2  -2   -6.27    3.76
  -2  -6  -2    6.03    3.95
  -2  -6  -2    5.97    2.63
   2  -2   6    5.91    2.44
  -2  -2  -6    3.13    3.34
  -6  -2  -2    3.36    2.44
   2  -6   2    2.20    2.66
   2  -6  -2    6.66    2.77
  -6   2  -2    7.96    3.24
   6   2   2    8.08    4.40
   2  -6  -2    3.91    2.60
  -6  -2   2    8.21    2.88
  -6  -2   2    3.30    1.98
   2  -2  -6    2.99    2.70
   2   6   2    2.38    3.07
   6  -2  -2    3.06    3.63
   2  -6  -2    8.74    3.53
  -2  -6   2    2.87    2.57
  -2   6  -2    8.29    2.58
  -2   2  -6    8.34    4.70
   2   2   6    1.97    2.01
  -2  -2   6    6.37    3.04
   6  -3   2  320.37   21.11
  -6  -3  -2  329.46   19.74
  -2  -6  -3  302.10   18.94
   3   2  -6  298.87   17.59
   3  -2   6  297.10   19.50
   2   6  -3  317.01   21.97
   6   3  -2  285.54   23.21
  -6  -3  -2  289.85   19.63
  -2  -6  -3  300.62   20.37
  -2   6   3  303.73   19.13
   2  -6   3  301.53   20.65
  -6   3   2  306.40   18.98
   3  -2   6  295.75   18.11
   3   2  -6  286.35   22.28
  -3   2   6  298.61   18.37
  -3  -2  -6  323.18   21.31
   2  -6   3  308.31   17.82
  -6   3  -2  301.39   19.20
  -3  -2   6  298.55   18.67
  -6  -3   2  303.29   18.64
   6   3   2  295.59   20.87
  -2  -6   3  291.46   18.85
  -2   6  -3  299.75   18.25
   2  -6  -3  301.10   19.03
   3   2   6  297.98   19.49
   6  -3  -2  299.47   20.63
  -6  -3   2  303.87   17.09
   3  -2  -6  293.45   18.83
   2  -6  -3  300.44   18.98
   3  -2  -6  287.47   18.31
  -3   2  -6  285.13   20.49
   2   6   3  298.27   19.22
  -2  -6  -4   13.55    4.86
  -6  -4  -2   23.62    5.61
  -6  -4  -2   10.04    4.35
   2  -6   4   15.32    3.52
   2   6  -4   13.69    5.84
   4  -2   6   12.82    3.50
  -2   6   4   17.03    4.59
   6  -4   2    6.51    3.54
   6   4  -2   25.39    8.93
  -6   4   2   13.36    4.21
   2  -6   4    6.84    3.80
  -4  -2  -6   26.93    6.77
   4  -2   6    9.27    3.54
  -4   2   6    6.06    3.12
   4   2  -6   13.78    6.85
   4   2  -6    8.99    2.67
  -2  -6  -4    7.08    3.35
  -2  -6   4   13.28    3.80
   4   2   6   12.37    4.24
  -6  -4   2   13.99    4.35
  -2   6  -4   17.11    3.84
  -6   4  -2   11.61    4.36
   6   4   2   19.17    6.89
   2  -6  -4   17.05    4.08
   4  -2  -6   15.29    4.32
   6  -4  -2   11.51    4.57
   2   6   4   11.65    3.61
  -4   2  -6   16.78    5.17
   4  -2  -6   17.43    3.89
  -4  -2   6   11.09    3.89
   2  -6  -4    9.09    3.44
   5  -2   6   21.48    4.09
  -5  -2  -6   13.27    5.58
   5  -2   6   14.57    4.51
  -6   5   2   11.17    4.33
   5   2  -6   20.71    8.58
   6  -5   2   11.10    4.42
  -5   2   6   12.86    3.48
  -2  -6  -5   16.37    5.48
   2  -6   5    0.76    3.68
   6   5  -2    9.92    7.03
   2   6  -5   12.90    5.43
  -6  -5  -2    9.19    4.49
   2  -6   5   12.79    3.26
  -2   6   5    8.43    3.71
  -6  -5  -2   20.18    5.10
   5   2  -6   17.04    3.57
   5  -2  -6   13.59    4.04
   2  -6  -5   20.10    4.11
   5   2   6   17.89    5.35
  -5   2  -6   22.97    6.11
  -2  -6   5    8.62    3.44
   6  -5  -2   12.38    5.33
  -2   6  -5   17.64    4.79
   2  -6  -5   14.21    4.11
   6   5   2   18.55    7.42
  -5  -2   6   16.96    4.68
  -6   5  -2    3.33    3.05
  -6  -5   2   12.20    3.99
   5  -2  -6   20.07    5.26
  -6   0   3   19.03    3.37
  -6   0  -3   15.34    4.46
   6   0  -3   20.73    6.63
   0   3  -6   14.58    4.40
   6   0   3    9.14    3.06
   6   0   3   14.90    4.56
   0  -3  -6   12.65    4.10
   3   6   0    8.53    4.16
  -3  -6   0    8.12    3.54
   0   3  -6    4.90    3.67
   0  -3   6    6.78    2.65
  -6   0   3   13.70    3.18
  -3  -6   0   11.38    2.45
  -3   6   0    8.81    3.15
   3  -6   0   12.83    4.18
   0   3   6    4.39    2.18
  -6  -1  -3  116.97    9.90
   1  -3   6  101.11   10.30
   3  -6   1  117.17   10.64
  -6   1   3  115.90    8.90
  -6  -1  -3  111.27    9.81
  -1  -3  -6  116.39   11.09
  -6   1   3  114.32    8.07
  -3  -6  -1  103.86    9.85
  -3  -6  -1  110.98    8.43
   6  -1   3  121.35   10.76
  -1   3   6  119.00    9.77
   1   3  -6  112.08    9.63
   6   1  -3  100.86   12.80
   1  -3   6  108.60    8.96
   3   6  -1  117.59   11.95
   1   3  -6  112.18   11.38
   1   3   6  122.55   10.13
   3  -6  -1  122.67   10.27
  -6   1  -3  131.73   10.14
   1  -3  -6  134.62   10.29
   3   6   1  116.30   10.74
  -1  -3   6  123.06    9.31
   3  -6  -1  121.99    9.09
   6  -1  -3  128.87   11.69
  -3  -6   1  114.23    9.68
  -3   6  -1  130.03    9.33
  -6  -1   3  135.13    8.50
   3  -6  -1  131.25    9.73
  -6  -1   3  124.15    8.91
   6   1   3  119.17   10.33
  -1   3  -6  111.79   11.34
  -6  -2  -3   49.38    7.31
   2   3  -6   50.94    5.31
  -6   2   3   61.72    6.21
   2   3  -6   49.97    8.96
   6  -2   3   56.90    7.25
   6   2  -3   49.81   10.12
  -3  -6  -2   42.46    6.18
  -3   6   2   48.84    6.00
  -6  -2  -3   55.10    7.85
   2  -3   6   46.57    5.44
   3   6  -2   40.33    8.74
  -2   3   6   53.61    6.14
   3  -6   2   46.29    7.91
   2  -3   6   51.99    8.12
  -2  -3  -6   45.26    7.31
  -3  -6  -2   50.89    7.97
  -3   6  -2   48.91    5.79
   2   3   6   61.71    8.63
   3  -6  -2   49.77    6.40
   3  -6  -2   42.17    6.72
  -6  -2   3   49.68    4.80
  -3  -6   2   53.97    6.37
   6  -2  -3   56.92    8.79
  -6  -2   3   51.87    5.73
  -6   2  -3   56.49    6.85
   6   2   3   57.77    7.32
   2  -3  -6   53.11    6.46
  -2   3  -6   44.95    7.90
  -2  -3   6   58.66    6.17
   3   6   2   56.43    7.22
  -3  -6  -3   12.79    4.70
  -3  -3  -6   17.73    5.43
   3   3  -6   12.11    2.71
   3  -3   6   13.58    4.14
   3  -3   6   15.02    3.25
   3  -6   3   18.65    3.26
  -6  -3  -3   11.39    3.71
  -6  -3  -3   11.50    4.68
  -3  -6  -3   12.53    3.97
  -3   3   6   11.41    3.60
   3  -6   3   11.49    4.34
  -3   6   3   21.54    4.76
   6   3  -3    7.88    6.87
   3   6  -3   14.10    5.74
   3   3  -6   24.13    7.45
   6  -3   3    6.71    3.98
   6  -3  -3   10.27    4.18
   3  -6  -3   12.00    4.32
  -6   3  -3   10.95    3.67
  -3  -6   3   11.13    3.87
   3  -3  -6   16.36    3.67
  -3  -3   6   12.21    3.68
  -3   3  -6   21.06    5.30
  -6  -3   3   10.37    2.49
  -3   6  -3    8.25    3.38
   3  -3  -6   11.04    3.82
   3  -6  -3   10.19    3.49
  -6  -3   3    9.55    3.49
   3   6   3   15.61    5.10
   6   3   3   18.93    5.26
   3   3   6   11.48    4.47
  -3  -6  -4   21.26    5.71
  -4   3   6    8.79    3.49
   4   3  -6   10.89    7.18
  -3   6   4   14.56    3.95
  -6  -4  -3   19.13    5.08
   4   3  -6    7.54    2.33
   3  -6   4   16.63    4.99
   3  -6   4   12.69    2.87
   3   6  -4    9.09    5.71
  -6  -4  -3   21.31    5.18
  -3  -6  -4   14.94    4.84
   4  -3   6   11.03    3.04
   4  -3   6   13.32    4.35
   6  -4   3    7.47    4.25
   6   4  -3    9.46    6.76
  -4  -3  -6   -1.11    3.16
  -6   4  -3    9.98    3.63
   3   6   4   15.71    5.14
  -3   6  -4   13.34    3.75
  -3  -6   4   16.76    4.83
   4   3   6   11.14    4.35
  -4   3  -6    5.93    3.57
   6  -4  -3   22.30    5.79
   6  -4  -3   10.59    3.83
   6   4   3    9.71    4.60
  -4  -3   6    9.33    3.45
   4  -3  -6    8.82    3.32
   3  -6  -4   10.22    4.06
   4  -3  -6    7.16    3.31
   3  -6  -4    9.43    3.60
  -6  -4   3    8.39    3.42
   6   5  -3   68.52   12.88
   5   3  -6   51.06   11.91
   5  -3   6   58.80    5.88
  -3   6   5   63.80    7.08
  -6  -5  -3   37.76    8.04
   3  -6   5   67.47   10.70
  -3  -6  -5   61.86   10.53
   3   6  -5   61.32   12.03
  -5   3   6   59.34    6.38
  -6  -5  -3   74.38   10.11
   6  -5   3   46.56    9.09
  -3  -6  -5   74.54   10.51
  -5  -3  -6   63.49    9.59
   3  -6   5   59.05    5.90
   5  -3   6   55.30    8.52
  -6   5  -3   56.22    7.36
  -6  -5   3   62.70    7.45
  -3   6  -5   59.81    7.43
   3  -6  -5   66.31    6.79
   6   5   3   47.59    8.39
  -3  -6   5   62.95    7.66
   6  -5  -3   46.47    7.45
  -5   3  -6   63.30    8.19
   5  -3  -6   57.07    7.06
   5  -3  -6   71.28    7.49
   3  -6  -5   58.92    7.39
   5   3   6   65.71    9.50
  -5  -3   6   51.31    7.75
   6  -5  -3   50.13    8.46
   6   0   4    0.83    2.89
   6   0   4    9.00    3.22
  -4  -6   0    2.27    2.62
  -4  -6   0    8.19    2.17
  -4   6   0   10.37    3.71
   0  -4  -6    8.41    3.45
   4   6   0    9.58    5.35
   6   0  -4    4.99    4.54
   0   4   6    5.75    3.17
   4  -6   0    5.67    3.43
  -6   0  -4    2.57    3.05
   6   0  -4    5.21    2.45
   0  -4   6    7.03    3.03
   0   4  -6    4.60    4.13
  -6   0   4    6.59    2.47
   4  -6   1    6.83    3.53
   6  -1   4    2.22    1.89
  -1   4   6   -0.75    1.92
   1   4  -6    1.62    3.13
   1  -4   6    7.53    3.61
  -6  -1  -4    3.79    3.23
   6  -1   4   -0.52    2.62
  -1  -4  -6    5.95    3.49
   6   1  -4   -3.50    4.97
  -4   6   1   -2.99    1.94
   4   6  -1    1.35    4.20
  -6   1   4    1.80    1.98
  -4  -6  -1    3.15    2.79
  -4  -6  -1    4.63    2.20
   1   4  -6    5.52    3.18
   1  -4   6    1.96    2.18
   4   6   1    2.07    3.75
   1  -4  -6    3.09    2.86
  -6  -1   4    1.89    2.18
   4  -6  -1    2.96    2.91
  -6  -1   4    4.72    2.39
  -1  -4   6    3.37    2.71
  -1   4  -6    1.13    3.11
   6  -1  -4   11.17    5.06
  -4   6  -1   -0.10    2.03
  -6   1  -4    2.12    2.85
   6   1   4    2.30    2.65
   6  -1  -4    0.78    2.02
   1   4   6    4.85    3.08
  -4  -6   1   -2.48    1.92
   6   1   4    4.37    2.89
  -6  -2  -4   26.24    6.00
   4   6  -2   26.65    7.72
  -6   2   4   24.78    4.17
  -4  -6  -2   26.27    6.09
  -4  -6  -2   28.29    5.59
   2  -4   6   41.59    7.28
   4  -6   2   35.39    7.27
   6  -2   4   28.90    6.50
   6   2  -4   35.75    9.51
  -2  -4  -6   27.34    6.29
   2   4  -6   24.41    4.11
   2  -4   6   30.70    4.80
   2   4  -6   26.48    7.55
  -6  -2  -4   32.47    7.34
  -2   4   6   23.77    5.30
   2  -4  -6   22.68    4.69
   6   2   4   37.04    6.23
  -2   4  -6   33.92    6.44
  -2  -4   6   43.44    6.31
   2   4   6   28.08    5.97
   4  -6  -2   36.62    6.78
  -6  -2   4   39.43    4.20
   4  -6  -2   29.60    5.20
   4   6   2   23.97    6.06
   6  -2  -4   44.45    7.32
   6  -2  -4   26.88    4.82
  -4  -6   2   42.85    7.19
  -4   6  -2   34.62    5.93
  -6  -2   4   30.55    5.34
  -6   2  -4   33.83    6.21
  -6  -3  -4    8.36    4.20
   4   6  -3   14.49    6.35
  -4  -6  -3    8.66    4.21
   4  -6   3   22.50    6.21
   6   3  -4   11.00    7.47
  -6   3   4   11.40    2.75
  -4  -6  -3    7.48    4.34
   3  -4   6   16.76    4.84
   3  -4   6   22.41    4.02
   3   4  -6   12.42    6.41
  -4   6   3   20.69    3.79
   6  -3   4   18.93    5.20
  -6  -3  -4   12.91    5.11
  -3   4   6   14.18    3.75
  -3  -4  -6    9.36    4.53
   3  -4  -6   15.46    3.59
  -3   4  -6   16.02    5.05
  -6  -3   4   13.55    4.17
  -6   3  -4   13.82    4.66
   4   6   3   11.14    5.65
   6  -3  -4    8.22    4.29
   4  -6  -3   15.19    4.54
  -4  -6   3   14.78    4.27
  -4   6  -3    9.64    3.74
   3   4   6   16.90    5.43
  -3  -4   6   12.00    3.76
   6   3   4   19.10    5.18
   6  -3  -4    8.53    3.11
   4  -6  -3   15.34    4.27
   3  -4  -6   12.65    3.83
  -4   6   4    3.97    2.64
  -6  -4  -4   18.74    5.80
  -4  -6  -4    6.22    3.96
   4   4  -6    3.10    6.31
   6  -4   4    5.26    3.99
   4  -4   6   17.16    5.40
   6   4  -4   11.52    6.90
  -4  -6  -4    6.60    4.26
   4   6  -4   30.09    9.29
  -4  -4  -6    6.79    3.93
  -6  -4  -4    2.65    3.41
   4  -4   6   14.77    3.41
  -4   4   6   11.28    3.20
   4  -6   4    9.09    4.68
  -6   4   4   10.25    2.89
   4   6   4   12.19    5.28
   4  -6  -4   12.88    4.49
  -4   6  -4   18.37    4.74
  -4  -6   4    2.41    2.97
  -6   4  -4    9.88    4.02
   4  -4  -6   13.61    3.96
   6   4   4    9.35    4.19
   6  -4  -4   13.08    4.00
   4   4   6   11.87    5.12
  -4  -4   6    8.30    3.47
  -4   4  -6    4.81    3.53
   4  -6  -4   15.06    4.37
   6  -4  -4   10.51    4.28
   4  -4  -6   11.46    3.77
  -6  -4   4    7.08    3.54
  -4  -6  -5   58.76   10.55
   4  -6   5   62.54    9.98
   4  -6   5   56.05    5.85
  -4  -6  -5   49.95    8.57
   5   4  -6   81.15   15.72
   6   5  -4   65.05   13.40
   5  -4   6   61.78    6.04
  -5  -4  -6   71.75   11.16
  -6  -5  -4   68.52   10.69
  -6  -5  -4   72.61   10.41
  -5   4   6   68.26    6.56
   4   6  -5   43.52   12.36
   5  -4   6   54.10    9.29
  -4   6   5   50.75    6.65
   6  -5   4   37.14    7.81
   6  -5  -4   57.95    7.39
  -5  -4   6   67.07    7.62
   4  -6  -5   62.56    6.91
   5  -4  -6   73.94    7.83
   6   5   4   65.99    9.61
  -6   5  -4   69.16    9.79
  -4  -6   5   57.61    8.48
  -4   6  -5   57.62    7.61
   6  -5  -4   50.41    8.66
   4  -6  -5   59.43    7.52
   5  -4  -6   53.35    6.83
  -5   4  -6   78.56    8.87
   5   4   6   64.70   10.13
  -6  -5   4   50.39    8.23
   5  -6   0    3.29    2.97
   5   6   0    0.66    5.03
  -6   0   5    0.90    2.21
  -5  -6   0    5.17    3.43
  -5   6   0    0.79    2.36
   6   0   5    4.21    3.04
  -6   0  -5    4.68    3.36
   6   0  -5   -2.20    3.83
   0  -5  -6    1.23    3.13
   0  -5   6   -2.13    2.70
   0  -5   6   -2.25    2.03
   0   5  -6    3.08    3.85
   6   0   5    1.74    2.91
   0   5   6   -1.66    3.05
   6   0  -5    0.49    1.94
  -5  -6  -1   32.04    6.71
   5   6  -1   43.93    9.24
  -5   6   1   55.15    6.87
   5  -6   1   32.18    7.23
   6   1  -5   46.79    4.96
   6  -1   5   43.10    7.42
  -6  -1  -5   35.25    7.48
  -5  -6  -1   46.92    6.24
  -6   1   5   47.78    5.38
   1  -5   6   49.46    5.71
   1   5  -6   34.19    8.02
   1   5  -6   43.72    6.53
   6  -1   5   45.85    5.46
   6   1  -5   40.28   10.22
   1  -5   6   36.82    7.71
  -1   5   6   58.79    7.19
  -1  -5  -6   53.03    8.81
  -6   1  -5   49.73    8.00
   6  -1  -5   34.83    5.68
  -5  -6   1   38.30    7.23
  -1  -5   6   44.82    6.76
   5  -6  -1   44.25    7.76
   5   6   1   39.61    8.71
   6   1   5   34.76    6.40
   6   1   5   57.26    7.88
  -6  -1   5   46.93    6.83
   1   5   6   56.52    8.60
   6  -1  -5   46.27    8.50
  -5   6  -1   33.41    5.94
   1  -5  -6   45.85    7.54
  -1   5  -6   44.23    7.32
  -6   2   5   65.07    6.43
  -5  -6  -2   61.40    7.72
   6  -2   5   62.77    6.00
  -5  -6  -2   78.80   11.09
   6  -2   5   62.65    7.89
   2   5  -6   99.98   11.80
  -5   6   2   70.64    8.07
  -6  -2  -5   65.73   10.27
   5  -6   2   74.32    8.96
   5   6  -2   81.58   13.82
   2  -5   6   63.39    6.54
  -2  -5  -6   64.03    9.69
   2  -5   6   61.59   10.07
  -2   5   6   70.96    7.52
   6   2  -5   51.26   11.52
  -5   6  -2   66.56    7.51
  -2  -5   6   69.22    7.41
  -2   5  -6   65.07    8.11
   6  -2  -5   57.97    8.08
   2  -5  -6   54.79    7.38
  -5  -6   2   62.89    9.14
   5   6   2   56.30    9.72
   6   2   5   61.18    8.69
   2   5   6   55.56    9.13
   5  -6  -2   76.82    8.48
   6  -2  -5   75.69    7.23
  -6  -2   5   67.34    7.20
  -6  -2   5   63.31    5.71
  -6   2  -5   70.66    8.12
   6   2   5   74.37    7.55
   3   5  -6   13.23    6.10
  -5  -6  -3   21.72    5.88
   3  -5   6   24.81    6.57
   6  -3   5   16.22    5.21
   6   3  -5   36.76   10.95
  -6  -3  -5   36.65    7.86
   3  -5   6   28.42    4.66
  -3  -5  -6   15.88    5.62
  -6   3   5   21.75    4.06
   5   6  -3   22.52    8.46
  -5  -6  -3   14.87    4.84
   5  -6   3   18.54    6.12
  -3   5   6   26.27    5.63
  -5  -6   3   21.66    5.40
   6   3   5   23.73    4.87
   6   3   5   31.64    6.81
  -5   6  -3   22.95    5.63
   3   5   6   21.42    5.81
   3  -5  -6   11.62    4.00
  -6   3  -5   22.25    5.59
  -6  -3   5   25.19    5.31
   5   6   3   32.25    8.03
   6  -3  -5   31.44    6.94
   6  -3  -5   30.09    6.01
  -3  -5   6   18.85    5.38
  -3   5  -6   22.13    5.34
   5  -6  -3   21.71    5.61
   5  -6  -3   16.92    4.99
   3  -5  -6   31.29    4.85
  -6  -4  -5    7.83    4.77
  -5   6   4   19.32    4.36
  -4  -5  -6   23.48    6.03
  -5  -6  -4   13.51    5.48
  -6   4   5   25.16    4.46
  -4   5   6   25.92    5.33
   6   4  -5   32.31   10.27
  -6  -4  -5   26.12    6.06
   4  -5   6   28.39    6.63
   4  -5   6   24.24    4.56
   4   5  -6    8.22    7.14
   6  -4   5   17.60    5.66
  -5  -6  -4   25.39    6.04
   5   6  -4   22.04    8.55
   5  -6   4   14.82    5.63
   5  -6  -4   23.26    5.85
   5   6   4   22.21    6.85
   6  -4  -5   20.34    5.38
   6  -4  -5   16.31    4.63
   4   5   6   30.72    7.53
   4  -5  -6   27.05    5.12
   6   4   5   16.28    4.96
  -4  -5   6   18.79    5.34
   5  -6  -4   24.52    5.97
  -5  -6   4   28.21    6.27
  -5   6  -4   28.42    6.45
   4  -5  -6   17.46    4.97
  -6  -4   5   26.01    6.05
  -6   4  -5   26.93    6.65
  -4   5  -6   20.07    5.39
  -6  -5  -5   61.76   10.29
  -6  -5  -5   59.50   10.38
   5   6  -5   78.89   14.42
  -5  -5  -6   90.94   10.06
  -5  -6  -5   80.01   12.04
  -5  -6  -5   77.35    9.50
   6   5  -5   64.83   14.30
  -5   5   6   46.66    7.02
   5   5  -6   68.75   14.50
   5  -6   5   52.47    9.97
   6  -5   5   78.60    9.70
   5  -5   6   47.24    9.54
  -5   6   5   66.07    7.03
  -6   5  -5   71.34    8.75
  -5   6  -5   63.06    9.77
  -5   5  -6   75.92    9.13
   5  -5  -6   73.10    7.89
   5  -5  -6   62.35    7.84
   5  -6  -5   63.56    7.80
  -5  -5   6   52.28    8.40
   5   5   6   71.52   10.70
  -6  -5   5   52.65    8.65
   6  -5  -5   64.35    8.05
   6  -5  -5   70.58    8.31
   5  -6  -5   72.45    8.44
  -5  -6   5   64.14    8.40
  -6  -6   0  196.10   15.11
  -6   0  -6  220.10   16.76
  -6   0   6  203.44   13.81
  -6   6   0  197.70   14.71
   0  -6  -6  193.86   15.30
   0  -6   6  216.25   17.47
   0  -6   6  198.92   14.21
   0   6  -6  160.68   14.53
   0   6   6  192.49   15.30
   6  -6   0  176.46   15.88
   6   0  -6  213.70   17.11
   6   0  -6  217.18   13.71
   6   0   6  177.54   14.12
   6   0   6  210.50   14.20
   6   6   0  179.36   18.08
  -6  -6  -1   12.62    4.73
   1   6  -6   16.72    6.28
  -6  -1  -6   18.77    6.28
   6  -1   6   12.77    3.48
   6   1  -6   11.30    7.81
  -6   1   6   17.46    4.30
   1  -6   6   14.05    4.05
  -6   6   1   16.83    5.43
  -1  -6  -6   12.63    4.92
   1  -6   6   17.41    6.21
   6   1  -6   11.60    3.12
  -1   6   6    9.50    3.97
   6  -6   1   14.19    5.13
   6   6  -1    5.37    6.68
   6  -1   6   16.07    4.30
  -6   6  -1   14.72    4.42
  -1  -6   6    9.75    3.90
   6  -6  -1   10.32    4.43
   1  -6  -6   16.28    5.36
   6  -1  -6   14.50    5.52
   6  -1  -6    7.13    3.19
  -6  -6   1   14.29    4.68
  -6  -1   6   11.98    4.14
  -6   1  -6    2.21    3.88
  -1   6  -6    9.93    4.43
   6   1   6   15.83    4.42
   6   1   6   23.95    5.63
   1   6   6    6.38    4.46
   6   6   1   16.46    7.46
  -6  -6  -2    3.57    3.94
  -6  -6  -2    7.66    4.08
   2   6  -6    8.04    6.28
  -6  -2  -6    6.30    5.06
   6  -2   6    4.93    2.49
   6   2  -6    7.80    8.33
  -6   2   6    6.65    3.07
   6   6  -2   12.16    8.07
  -6   6   2    3.90    3.79
  -2  -6  -6   11.72    4.49
   2  -6   6    1.63    3.96
   6  -2   6    2.10    3.21
  -2   6   6    3.31    2.83
   6  -6   2    0.81    3.23
   2  -6   6    3.60    2.47
  -2  -6   6    3.72    3.40
  -6  -6   2    4.77    3.41
   2   6   6    5.16    3.94
   6  -6  -2    5.43    4.48
   2  -6  -6    6.77    3.91
   6  -2  -6    4.89    4.59
   6  -2  -6    0.00    2.60
  -2   6  -6    2.76    3.34
  -6  -2   6   -0.80    2.43
  -6   2  -6   -0.93    2.72
   6   2   6   -2.27    2.91
  -6   6  -2    0.82    3.22
   6   6   2   -4.03    4.96
  -6  -6  -3   -0.24    3.15
  -6  -6  -3    2.69    3.81
   6  -3   6    4.70    3.36
  -6  -3  -6    2.62    4.29
   6  -6   3   -0.11    3.55
   6   6  -3   -3.30    6.64
  -6   3   6    2.39    2.60
   3   6  -6   -0.79    4.89
  -3  -6  -6    0.78    3.32
   3  -6   6    0.20    3.93
   3  -6   6    4.64    2.96
  -3   6   6    3.83    3.26
   6   3  -6    4.73    7.72
  -3  -6   6   -0.44    2.36
  -3   6  -6    4.07    3.67
  -6   6  -3   -1.38    2.48
   3  -6  -6   -0.38    2.22
   6  -6  -3    4.45    2.90
  -6  -3   6    4.79    3.50
   6  -3  -6    5.63    3.37
   6  -3  -6    4.50    3.09
  -6  -6   3    3.19    3.84
   3   6   6    0.31    3.24
   6   3   6    1.58    2.96
  -6   3  -6    1.85    3.61
   6   6   3    3.79    5.65
  -6  -6  -4   28.51    7.42
  -6  -6  -4   27.15    6.52
   4   6  -6   34.93   11.10
  -6  -4  -6   29.04    7.42
   6  -4   6   29.15    7.27
   6   4  -6   17.29    9.74
  -6   4   6   25.78    4.75
   6   6  -4   26.55    9.88
  -4  -6  -6   35.79    7.66
   6  -6   4   19.04    6.19
   4  -6   6   24.67    6.69
  -4   6   6   22.34    5.33
   4  -6   6   22.85    4.74
   4  -6  -6   28.31    6.68
  -4   6  -6   32.60    7.24
   4  -6  -6   27.07    5.53
  -6  -6   4   35.42    7.17
   4   6   6   23.40    7.10
   6  -6  -4   34.86    7.59
   6  -6  -4   32.32    6.62
  -4  -6   6   32.76    6.55
   6  -4  -6   30.54    6.44
   6  -4  -6   41.40    7.18
  -6  -4   6   45.12    7.69
  -6   4  -6   39.94    7.98
   6   4   6   35.43    7.62
  -6   6  -4   35.78    7.17
   6   6   4   24.89    7.14
  -6  -6  -5    7.73    4.56
  -6  -6  -5   -1.82    3.61
   6  -5   6    6.05    5.28
  -6  -5  -6   11.71    5.96
   6  -6   5   12.57    5.71
   6   6  -5   13.60    9.59
   5   6  -6   -2.43    6.25
  -5  -6  -6   13.16    5.40
   6   5  -6   19.77   10.35
   5  -6   6    9.45    5.38
  -5   6   6    2.68    2.90
   5  -6  -6    9.06    4.46
   5  -6  -6    4.12    4.00
  -5   6  -6    1.84    3.62
  -6   6  -5    5.01    3.80
   5   6   6    4.46    4.00
   6  -6  -5   12.56    5.40
   6  -6  -5    6.67    3.29
  -6  -5   6    3.63    3.50
   6  -5  -6    6.70    4.21
   6  -5  -6   -3.32    2.59
  -6  -6   5    4.32    4.20
  -5  -6   6    7.69    4.20
   6   5   6   10.92    5.05
  -6   5  -6    1.58    3.39
  -6  -6  -6   94.74   11.34
   6  -6   6  105.38   12.84
   6   6  -6   62.22   15.80
   6  -6  -6  102.07   10.53
   6  -6  -6   96.42   10.54
  -6  -6   6  113.62   11.26
  -6   6  -6  104.49   11.64
   6   6   6   71.90   12.02
  -7   0   0   -2.41    1.63
  -7   0   0   -0.92    2.00
   0  -7   0   -0.22    2.85
   0  -7   0   -2.50    1.79
   0  -7   0   -1.58    1.69
   0   0  -7    0.70    2.53
   0   0   7   -0.89    1.79
   7   0   0   -1.24    3.37
  -7   1   0   69.68    6.68
  -1   0  -7   55.32    8.95
  -1   0   7   56.56    6.32
   0  -7  -1   52.58    6.85
   0  -7  -1   63.11    7.57
   0  -7  -1   59.97    6.13
   0  -7   1   61.31    7.86
   0  -7   1   49.74    6.34
   0   7  -1   59.62    5.47
   1   0  -7   56.83    7.81
   1   0   7   65.48    6.84
   7  -1   0   58.73    9.45
   7   1   0   51.63   10.01
  -7  -1   0   63.88    6.17
  -7  -1   0   51.67    6.03
  -2   0  -7  178.69   14.82
  -2   0   7  175.90   12.64
   0  -7  -2  161.89   12.82
   0  -7  -2  194.38   13.97
   0  -7  -2  184.17   12.45
   0  -7   2  181.75   14.48
  -7  -2   0  177.60   12.02
  -7   2   0  175.50   12.71
   2   0  -7  189.43   13.94
   2   0  -7  175.76   12.56
   2   0   7  187.99   13.15
   7  -2   0  176.04   14.82
   7   2   0  164.15   15.27
   0   7  -2  161.99   11.07
  -7  -2   0  184.81   12.43
   0  -7   2  166.36   12.27
   0   7  -3   12.86    3.17
   3   0  -7    2.91    4.83
   3   0  -7    6.06    2.72
   3   0   7    8.50    3.21
   0  -7   3    5.21    4.01
   7   3   0    8.79    6.09
  -3   0  -7   14.83    5.49
   0  -7   3    6.94    3.08
   0  -7  -3   12.71    3.85
   0  -7  -3    6.45    3.70
   0  -7  -3    9.18    3.56
  -3   0   7   12.52    3.87
  -7   3   0   12.25    3.61
  -7  -3   0   18.10    4.71
  -7  -3   0   11.84    3.58
   7  -3   0    6.79    4.63
   4   0  -7   23.33    6.54
   7   4   0   29.67    8.68
   4   0   7   18.41    4.55
   0  -7   4   34.18    7.43
   0  -7   4   28.83    5.63
   0   7  -4   11.57    3.29
   0  -7  -4   12.03    4.59
   4   0  -7   23.26    4.53
   0  -7  -4   11.86    3.89
   7  -4   0   12.52    5.43
   0  -7  -4   23.57    5.50
  -4   0  -7   15.72    5.97
  -4   0   7   21.10    5.16
  -7   4   0   11.85    3.84
  -7  -4   0   23.32    5.30
  -7  -4   0   13.29    4.33
   0  -7   5   23.03    4.90
   5   0  -7   32.12    7.92
   0  -7   5   27.58    7.64
   7   5   0    7.43    7.37
   5   0   7   31.42    6.05
   5   0  -7   28.12    5.01
  -7  -5   0   35.91    6.91
  -5   0   7   25.13    5.11
   0  -7  -5   35.60    7.05
   0   7   5   16.15    5.19
   7  -5   0   15.86    5.97
  -7   5   0   30.56    6.61
  -5   0  -7   15.68    6.63
   0  -7  -6   52.10    9.03
   0  -7   6   50.58   10.61
   6   0  -7   41.72    8.57
   6   0  -7   47.62    7.15
  -6   0  -7   43.27    8.92
   0  -7   6   59.30    7.05
  -7   6   0   39.74    7.39
  -6   0   7   47.63    7.38
  -7  -6   0   46.57    8.31
   0   7   6   58.77    9.73
   6   0   7   49.82    7.49
   7  -6   0   41.60    8.51
   7   6   0   38.72   10.66
  -1  -7   0   12.60    4.13
   0  -1   7   24.21    4.77
   7   0  -1   20.29    6.44
   0   1  -7   26.56    5.85
   1  -7   0   14.61    4.50
   0   1  -7   20.25    4.91
  -7   0  -1   18.31    4.37
   1  -7   0   18.19    4.42
   1  -7   0   26.39    4.59
   0   1   7   14.63    4.49
   7   0   1   18.82    5.76
   0  -1  -7   12.70    4.62
  -7   0   1   23.77    3.96
  -7   0   1   15.22    3.96
  -1  -7   0   14.23    3.06
  -1  -7   0   21.31    4.68
  -1  -7  -1   22.70    5.60
   1   1  -7   27.78    5.89
   1   7  -1   23.47    3.49
   1   1  -7   28.08    5.50
  -1   1   7   20.10    4.82
  -7   1   1   23.85    4.86
  -1  -7  -1   18.52    4.97
  -1  -1  -7   14.39    4.52
   1  -7   1   30.70    5.47
   7   1  -1   21.43    6.94
   1  -1   7   23.19    4.62
   1  -7   1   21.00    5.20
  -1  -7  -1   31.77    4.71
  -7  -1  -1   31.01    5.51
   7  -1   1   16.63    5.22
  -7  -1  -1   33.15    5.27
   1   1   7   19.28    4.46
  -1  -7   1   14.61    5.13
   1  -7  -1   17.88    4.77
  -7  -1   1   30.32    5.06
  -1   7  -1   14.40    3.56
  -1  -1   7   15.48    3.88
  -1   1  -7   18.26    4.06
  -1   1  -7   26.19    6.76
   1  -7  -1   21.03    4.29
  -7  -1   1   21.93    4.33
  -7   1  -1   23.99    4.85
   1  -7  -1   26.80    5.45
   1  -1  -7   35.16    6.80
   7   1   1   21.22    6.61
  -1  -7   1   11.98    3.74
   7  -1  -1   20.25    5.70
  -7  -2  -1    7.94    3.31
  -1  -7  -2    2.92    3.63
   2  -1   7    2.99    2.72
  -1  -7  -2    6.14    3.38
  -2   1   7    9.68    3.54
   7   2  -1   15.71    6.99
  -2  -1  -7    7.03    4.27
   7  -2   1    7.70    4.46
   2   1  -7   -0.86    4.40
   2   1  -7    5.31    3.08
   1  -7   2    6.07    2.88
   1  -7   2    6.29    3.74
  -7  -2  -1    2.29    2.83
  -7   2   1    8.14    3.13
   2  -1   7    1.69    2.56
  -1  -7  -2    1.24    2.25
   1   7  -2    7.77    2.12
   7  -2  -1    2.76    3.50
   2   1   7   12.29    4.02
  -2   1  -7   20.75    6.16
   2  -1  -7    5.48    3.01
  -1   7  -2    8.96    3.06
   7   2   1    6.40    3.92
  -2  -1   7    7.00    2.93
  -1  -7   2    7.83    3.88
  -7  -2   1    6.61    3.13
  -7  -2   1    8.61    2.81
   1  -7  -2    5.83    3.16
   1  -7  -2    3.12    3.15
   1  -7  -2    7.75    3.12
  -7   2  -1    7.96    3.48
  -1  -7   2    3.80    2.92
   3   1  -7    4.88    2.64
  -7  -3  -1    4.84    2.87
   7   3  -1    5.26    5.50
  -3  -1  -7    7.45    3.94
   7  -3   1    0.55    2.92
   3  -1   7    6.26    3.21
  -3   1   7    4.88    2.79
  -1  -7  -3    6.60    4.05
  -7   3   1   -1.31    2.14
   1  -7   3    5.69    3.55
   1  -7   3    1.45    2.13
  -7  -3  -1    0.38    2.91
  -1  -7  -3    6.77    3.48
   3   1  -7    6.50    5.53
   3  -1   7   -1.58    1.83
   1  -7  -3    8.12    3.26
   1  -7  -3    1.69    3.05
   7  -3  -1    2.72    3.71
  -3  -1   7    1.16    2.09
   3  -1  -7   -0.14    2.31
   7   3   1    3.43    4.76
   1  -7  -3   -0.32    2.09
  -3   1  -7    2.26    4.18
  -7  -3   1   -1.05    2.05
  -7   3  -1    3.80    2.66
   3  -1  -7    4.50    3.04
  -1   7  -3    5.67    2.66
   3   1   7    1.83    2.67
  -1  -7   3    1.26    2.47
  -7  -3   1   -1.07    2.15
  -7   4   1   26.88    5.47
   4  -1   7   29.34    5.53
   4  -1   7   19.38    4.73
   4   1  -7   29.30    8.34
  -1  -7  -4   19.52    5.96
   7   4  -1   30.43   10.00
  -7  -4  -1   30.43    6.12
  -7  -4  -1   31.72    6.57
  -4  -1  -7   23.63    6.52
   1   7  -4   27.43    7.80
   4   1  -7   22.60    4.31
   1  -7   4   21.14    6.15
  -1   7   4   30.72    6.75
   7  -4   1   10.03    5.23
   1  -7   4   24.47    4.98
  -1  -7  -4   23.83    5.71
  -4   1   7   24.51    5.04
  -1  -7   4   28.12    5.73
   1  -7  -4   19.96    4.49
  -4  -1   7   22.53    5.37
  -4   1  -7   37.12    7.99
   4  -1  -7   37.19    6.57
  -7  -4   1   27.62    5.85
   1  -7  -4   25.60    5.50
   4  -1  -7   35.01    6.05
   7  -4  -1   29.86    7.61
   4   1   7   17.22    4.74
   1   7   4   28.10    5.34
  -7   4  -1   23.78    5.74
  -1   7  -4   28.03    5.24
   7   4   1   29.94    8.24
   1  -7   5   47.10    9.15
  -1  -7  -5   55.19    8.87
   1   7  -5   61.28   11.01
   5   1  -7   62.64   11.15
  -7  -5  -1   59.13    8.09
   1  -7   5   55.10    6.69
   5  -1   7   50.09    7.32
   7   5  -1   42.11   10.82
  -5   1   7   48.81    7.47
  -7   5   1   47.08    7.72
   7  -5   1   37.45    8.56
   5   1  -7   53.67    6.05
   5  -1   7   54.12    6.87
  -5  -1  -7   52.93    9.92
  -1   7   5   68.24    9.96
  -7  -5  -1   46.32    8.00
  -7  -5   1   54.72    8.22
   1   7   5   41.46    8.02
   5  -1  -7   70.31    8.46
   5   1   7   53.08    8.12
   7  -5  -1   51.47    9.44
  -1  -7   5   48.46    7.78
  -7   5  -1   54.11    7.90
  -5  -1   7   53.67    6.77
  -5   1  -7   64.74   10.76
   7   5   1   50.56   10.43
  -1   7  -5   46.40    7.22
   5  -1  -7   58.93    6.64
   1  -7  -5   49.41    8.52
   1   7  -6    4.02    4.73
  -1   7   6   -3.41    3.16
  -7   6   1    4.14    3.47
   6   1  -7   -6.72    4.87
   6  -1   7    3.13    2.94
  -7  -6  -1    1.58    2.77
   7   6  -1   10.22    6.58
   6  -1   7    1.92    2.70
  -6   1   7   -0.29    2.33
   7  -6   1    1.29    3.62
  -6  -1  -7   -0.61    3.72
   6   1  -7   -0.72    2.66
   1  -7   6    1.97    3.93
   1  -7   6   -4.13    2.08
  -1  -7  -6    0.44    3.17
  -6   1  -7   -4.99    3.18
   1  -7  -6   -0.95    2.95
   7  -6  -1   -0.89    3.17
  -1  -7   6   -0.61    2.80
   6  -1  -7    5.07    4.27
  -7   6  -1    2.02    3.04
   7   6   1    3.36    6.48
   6  -1  -7   -1.72    2.44
   6   1   7   -0.66    2.54
  -6  -1   7    3.17    3.33
  -7  -6   1   -1.15    2.74
   1   7   6    0.06    3.20
   0   2   7    4.77    3.31
  -7   0   2    0.45    1.79
   2  -7   0   -0.04    2.58
   0  -2   7    1.62    2.39
  -2   7   0    2.27    2.27
   0   2  -7    0.68    3.16
   7   0  -2    4.87    4.53
   7   0   2    8.53    4.02
   0   2  -7   10.06    4.06
   2  -7   0    2.04    2.84
  -7   0  -2    0.68    2.39
  -7   0  -2    0.67    2.25
   2   7   0    4.38    3.18
  -7   0   2    4.53    2.34
  -2  -7   0    1.31    2.88
  -2  -7   0    4.25    2.10
   0  -2  -7    1.47    3.20
   1   2  -7   12.93    4.57
   7  -1   2    6.30    4.14
   2  -7   1    3.83    2.72
  -7  -1  -2   13.76    4.07
  -7  -1  -2   13.46    4.19
   7   1  -2   18.16    6.80
  -7   1   2   15.24    3.62
  -2  -7  -1    8.02    3.81
  -2  -7  -1   12.86    3.18
   2   7  -1   13.20    5.16
  -1   2   7    4.28    2.86
  -1  -2  -7    6.63    4.02
   1   2  -7    8.26    3.42
   1  -2   7   11.94    3.46
   2  -7   1   11.91    3.31
  -1  -2   7    8.54    3.18
  -7  -1   2    8.88    3.10
  -2   7  -1    9.48    3.19
  -1   2  -7    6.37    4.06
   1  -2  -7   11.38    3.82
  -2  -7   1    5.04    3.34
   2   7   1    7.84    3.73
   7  -1  -2    8.82    4.60
   2  -7  -1    5.66    2.78
   2  -7  -1    3.51    2.97
   2  -7  -1   20.45    4.80
   1   2   7    9.99    3.46
   7   1   2    9.42    4.50
  -7   1  -2   12.71    4.04
  -7  -1   2   12.39    3.58
  -7  -2  -2   18.48    4.72
  -2  -7  -2    8.69    4.02
   2  -2   7   17.19    4.44
  -7   2   2   18.88    4.20
   2  -7   2   12.59    3.34
  -2   2   7   11.42    3.96
   7  -2   2    9.57    5.17
  -2  -7  -2   13.73    4.10
   2   2  -7    5.77    4.85
  -2  -2  -7   10.92    4.55
   2   7  -2   15.73    5.97
  -7  -2  -2   10.38    4.05
   7   2  -2    6.29    6.67
   2  -2   7   20.54    5.50
   2   2  -7   21.61    4.43
   2  -7   2    9.85    4.07
  -2  -2   7   21.30    4.46
   2   2   7    2.90    2.55
  -2   2  -7   11.13    5.53
  -2   7  -2    9.86    3.08
   2  -2  -7   11.89    4.02
   7   2   2   12.20    4.75
   2   7   2   15.93    4.69
   7  -2  -2   14.53    5.32
  -2  -7   2   10.74    3.73
  -7  -2   2   13.82    3.69
  -7  -2   2   21.71    3.96
  -7   2  -2   12.73    4.23
   2  -7  -2   12.18    3.79
   2  -7  -2   11.31    4.30
   2  -7  -2   12.81    4.08
  -3   2   7    8.20    3.19
  -7  -3  -2    0.58    3.55
   2  -7   3    2.53    3.38
   2  -7   3    2.89    2.41
   2   7  -3    5.27    4.25
   3   2  -7   19.50    7.56
   3   2  -7    2.59    2.22
  -3  -2  -7    3.85    4.39
   3  -2   7    0.51    2.30
  -2  -7  -3    7.25    3.57
  -7  -3  -2    6.25    3.51
   7   3  -2    2.55    5.83
  -7   3   2    5.01    2.81
   3  -2   7    7.72    3.65
  -2  -7  -3    9.24    4.32
  -2   7   3    5.25    3.51
   7  -3   2    1.88    3.57
  -2   7  -3    8.54    3.21
  -3   2  -7   16.07    5.18
   2   7   3    7.09    3.38
   3  -2  -7    6.59    2.94
   2  -7  -3    2.81    2.71
   2  -7  -3   10.59    3.97
   7  -3  -2    4.98    3.83
  -2  -7   3    8.12    3.67
   7   3   2    9.32    4.60
  -7  -3   2    4.40    2.64
  -7  -3   2    4.00    3.09
  -3  -2   7    8.52    3.59
  -7   3  -2    9.91    3.69
   3   2   7    3.86    2.70
   3  -2  -7    1.51    2.37
  -4  -2  -7   15.47    5.70
   4   2  -7   19.27    4.10
   4  -2   7   27.18    5.27
   2  -7   4   18.09    4.14
  -7  -4  -2   26.90    6.31
  -2   7   4   21.91    5.65
   4   2  -7   24.99    8.45
   2   7  -4   15.75    6.82
  -7   4   2   19.17    5.24
   7  -4   2   14.54    5.84
   2  -7   4   14.71    5.76
  -2  -7  -4   13.28    4.62
  -4   2   7   19.01    4.34
  -2  -7  -4   10.53    4.94
   4  -2   7   19.11    4.61
   7   4  -2   23.41    8.63
  -7  -4  -2   20.35    5.84
   7   4   2    8.62    5.50
   2  -7  -4   19.53    5.29
   2   7   4   16.67    4.76
   2  -7  -4   18.88    4.39
  -4  -2   7   18.75    4.67
   4  -2  -7   15.37    4.40
  -7   4  -2   14.60    4.78
  -7  -4   2   17.21    4.70
  -2  -7   4   14.31    4.44
   7  -4  -2    5.48    3.50
   4   2   7   12.23    3.83
  -2   7  -4   17.23    4.31
   4  -2  -7   19.95    4.82
  -4   2  -7   34.51    7.15
  -2   7   5   51.97    8.30
  -2  -7  -5   55.96    9.87
  -2  -7  -5   57.12    9.02
   2  -7   5   71.11   11.47
  -5   2   7   56.14    6.74
   5  -2   7   58.83    7.88
  -7  -5  -2   55.26    9.46
   5   2  -7   60.57   12.31
   2   7  -5   91.97   14.91
   2  -7   5   62.79    6.89
  -7   5   2   65.01    8.32
  -7  -5  -2   86.70    9.51
   7  -5   2   40.83    8.75
   7   5  -2   38.10   11.34
   5  -2   7   72.08    7.11
   5   2  -7   60.14    6.20
  -5  -2  -7   65.37   10.16
  -5  -2   7   61.60    7.49
   5  -2  -7   51.38    7.23
   5   2   7   65.65    8.06
   2  -7  -5   62.40    7.65
   7   5   2   54.16   10.24
  -7   5  -2   62.90    8.05
  -7  -5   2   68.13    9.46
  -5   2  -7   64.85   10.09
   2  -7  -5   59.76    6.68
   5  -2  -7   56.99    7.00
  -2  -7   5   58.65    8.63
   7  -5  -2   55.60    9.58
  -2   7  -5   55.89    8.19
  -2  -7  -6   28.16    6.96
   2   7  -6   21.14    8.34
   2  -7   6   27.34    8.06
   6  -2   7   26.07    5.80
   2  -7   6   26.23    5.27
   7  -6   2   20.75    7.00
   6  -2   7   22.66    4.73
  -2   7   6   22.91    6.18
  -7   6   2   12.80    4.99
  -6  -2  -7   25.10    7.09
   6   2  -7   20.03    9.31
   7   6  -2   29.54   10.34
  -6   2   7   22.65    5.14
  -7  -6  -2   12.24    5.47
  -7  -6   2   15.17    5.20
  -6   2  -7    6.72    5.13
   7   6   2    5.29    6.08
  -2  -7   6   15.29    5.31
  -6  -2   7   17.51    5.09
   6   2   7   17.76    5.50
   7  -6  -2   16.50    5.87
   6  -2  -7   10.65    4.51
   6  -2  -7   11.07    4.29
  -7   6  -2   19.66    5.37
   2   7   6   23.40    7.39
   2  -7  -6   22.34    6.02
  -2   7  -6   15.78    5.17
   0  -3   7    7.54    3.21
   0   3  -7    2.43    3.49
  -7   0  -3   10.01    4.40
  -3  -7   0   11.37    4.28
  -3  -7   0   10.97    2.74
  -7   0   3    9.75    3.05
   3  -7   0    4.77    3.25
  -7   0   3    7.86    3.08
   0  -3  -7   14.61    4.90
  -3   7   0   12.47    3.88
   3   7   0    7.57    4.53
   7   0  -3    9.86    4.90
   0   3   7    7.04    3.18
   3  -7   0    6.73    4.07
   7   0   3   10.94    4.33
   7   0   3    8.19    2.96
   0   3  -7   10.26    4.54
   1  -3   7   41.24    6.21
   7  -1   3   37.29    7.77
   7   1  -3   30.72    8.55
  -7  -1  -3   59.58    8.17
  -7  -1  -3   56.24    7.10
   3   7  -1   44.67    9.35
  -1   3   7   36.46    6.34
   3  -7   1   35.47    7.32
  -7   1   3   43.76    4.72
  -7   1   3   44.59    5.80
  -1  -3  -7   36.44    7.71
   1   3  -7   42.26    6.54
  -3  -7  -1   46.24    7.83
   1  -3   7   34.04    7.08
  -3  -7  -1   41.39    5.06
   1   3  -7   52.54    9.35
   7   1   3   41.65    7.68
  -7  -1   3   43.42    5.11
  -7   1  -3   48.22    7.91
  -7  -1   3   52.50    5.66
   3   7   1   54.25    8.91
   7  -1  -3   59.64   10.08
  -3   7  -1   41.60    6.22
   1   3   7   35.72    6.35
   3  -7  -1   53.34    6.97
   3  -7  -1   40.02    6.66
  -1  -3   7   50.49    6.16
  -1   3  -7   38.20    7.77
   3  -7  -1   40.75    6.26
   1  -3  -7   36.60    6.40
  -3  -7   1   38.29    6.86
   2   3  -7    4.44    5.25
   7   2  -3    9.58    7.30
  -3  -7  -2   22.76    6.06
  -7  -2  -3   13.30    4.60
   3  -7   2    8.12    4.16
   3  -7   2   12.01    3.58
   3   7  -2   10.26    5.32
   2  -3   7   11.55    4.90
   2  -3   7   15.67    4.25
  -7  -2  -3   12.08    4.55
   7  -2   3   13.04    5.27
  -2   3   7   10.13    4.15
  -7   2   3   12.72    3.80
  -2  -3  -7   13.41    5.00
   2   3  -7   19.03    4.17
  -3  -7  -2   11.59    3.63
   7   2   3   14.09    4.98
  -7   2  -3   13.06    4.41
  -7  -2   3   12.00    3.99
   7  -2  -3   16.15    5.49
   2  -3  -7   16.47    4.25
   3   7   2   13.40    4.74
   3  -7  -2   13.42    4.12
  -2   3  -7   14.05    5.87
   3  -7  -2   12.65    4.45
  -3  -7   2   25.07    5.48
  -3   7  -2   14.69    4.05
  -7  -2   3   14.90    3.40
  -2  -3   7    9.85    3.60
   2   3   7    0.78    2.38
   3  -3   7   64.19    7.98
  -3  -7  -3   51.47    8.60
   3  -7   3   69.32    8.47
   3   3  -7   59.17    5.81
   3   7  -3   55.92   11.06
   3  -7   3   50.73    5.58
  -7  -3  -3   58.07    9.07
  -7  -3  -3   70.52    8.54
   7  -3   3   54.25    9.20
  -3   3   7   47.90    7.35
  -7   3   3   54.87    6.96
   3  -3   7   58.46    6.28
   3   3  -7   84.96   12.80
   7   3  -3   60.95   12.22
  -3  -3  -7   74.88    9.09
  -3  -7  -3   75.62    7.63
  -3   7   3   61.87    7.08
   3  -7  -3   42.55    7.59
  -3  -3   7   50.12    7.81
  -3   3  -7   43.54    8.27
   3  -7  -3   57.10    7.06
   3   7   3   57.07    8.78
   3   3   7   51.83    8.22
  -3   7  -3   51.87    6.55
  -3  -7   3   49.05    7.74
   7   3   3   53.30    9.99
  -7   3  -3   61.16    7.52
   7  -3  -3   43.50    8.70
   3  -3  -7   42.32    7.38
  -7  -3   3   51.40    6.55
   7  -4   3    8.64    4.48
  -4   3   7    2.85    2.69
   4  -3   7    8.27    2.96
  -4  -3  -7    9.40    4.93
   3  -7   4    3.38    3.72
   7   4  -3   14.79    8.58
  -7   4   3   11.35    4.41
   4  -3   7    6.20    3.56
  -3  -7  -4   12.12    5.12
  -3  -7  -4    5.62    3.92
  -7  -4  -3   12.48    4.95
   4   3  -7    6.28    7.58
  -3   7   4   16.53    4.66
   3   7  -4    9.92    6.53
  -7  -4  -3    3.40    4.51
   3  -7   4    7.47    2.61
  -4   3  -7    5.61    4.72
   3  -7  -4    3.75    3.01
   3   7   4    4.03    4.49
   4  -3  -7    5.87    3.11
   7  -4  -3    5.29    4.18
  -7  -4   3    9.68    3.99
   3  -7  -4    0.41    2.45
   7   4   3    9.97    5.66
   4   3   7   14.26    4.78
  -3   7  -4    8.44    3.52
  -3  -7   4    7.19    3.56
  -4  -3   7   11.11    4.09
   4  -3  -7    1.75    2.41
  -7   4  -3    5.49    3.64
  -5   3   7   28.73    5.51
   7  -5   3   27.67    7.26
   7   5  -3   18.14    9.04
  -3   7   5   17.07    5.03
   5   3  -7   22.27   10.42
  -3  -7  -5   25.66    7.01
   3  -7   5   24.50    7.15
   5  -3   7   27.81    5.01
   3   7  -5   53.33   12.05
  -7   5   3   28.87    6.42
   3  -7   5   22.25    4.68
   5  -3   7   36.96    7.60
  -5  -3  -7   41.72    8.01
  -7  -5  -3   27.56    6.78
  -7  -5  -3   35.13    7.18
  -3  -7  -5   30.96    6.74
  -7   5  -3   35.43    6.97
  -7  -5   3   25.51    6.05
   7   5   3   38.64    8.31
  -5  -3   7   38.84    6.96
  -5   3  -7   37.80    8.19
   5  -3  -7   25.58    5.97
   5   3   7   18.15    5.88
  -3   7  -5   21.75    5.43
   3  -7  -5   29.93    6.26
   5  -3  -7   48.89    7.33
   7  -5  -3   28.23    7.24
   3  -7  -5   17.59    4.73
  -3  -7   5   26.35    6.09
  -3   7   6   10.21    4.18
  -3  -7  -6   10.06    5.18
  -6  -3  -7   12.41    5.95
   6  -3   7   13.32    5.15
   3  -7   6   -0.51    4.26
   3  -7   6   19.87    4.60
   3   7  -6    7.28    7.38
   6   3  -7   18.61    9.64
   7  -6   3   18.14    6.80
  -7  -6  -3   20.88    6.06
  -7  -6  -3   13.32    5.96
  -6   3   7   17.15    4.57
  -7   6   3   18.59    6.26
   7   6  -3   28.20   10.40
   7   6   3   27.53    7.93
  -3   7  -6   13.40    5.22
  -7  -6   3   13.05    5.23
  -6  -3   7   13.10    4.92
   7  -6  -3   21.74    6.34
  -7   6  -3   17.18    5.36
   3  -7  -6   15.03    5.36
  -6   3  -7   22.34    6.67
   6  -3  -7   17.54    5.61
   6   3   7   15.34    5.36
   3   7   6   18.27    5.92
   6  -3  -7   21.03    5.68
  -3  -7   6   23.71    5.87
   0  -4   7    4.70    2.91
   0  -4  -7    3.16    3.32
   0   4  -7   -1.73    2.58
  -7   0   4    7.39    2.85
  -7   0   4    0.60    2.21
  -4  -7   0    2.27    3.21
  -4   7   0    1.35    2.77
   0   4   7    0.54    2.40
   0   4  -7    2.82    3.85
   7   0  -4    5.10    5.36
  -7   0  -4    2.95    3.25
   7   0   4    0.92    2.90
   7   0   4   -0.82    2.31
   4   7   0    4.78    4.33
   4  -7   0   -0.34    2.98
   1   4  -7   26.44    7.00
  -7   1   4   27.71    4.40
   4  -7   1   21.23    5.95
   4   7  -1   29.11    8.03
  -1   4   7   17.81    4.91
  -4  -7  -1   15.87    3.62
   7  -1   4   28.01    6.71
   7   1  -4   13.56    7.49
   1  -4   7   19.48    4.24
  -1  -4  -7   30.76    6.85
   1  -4   7   27.63    6.46
  -7   1   4   15.38    3.94
  -4  -7  -1   10.37    4.28
  -4   7   1   26.61    5.78
   1   4  -7   17.18    4.60
  -7  -1  -4   17.35    5.11
  -7   1  -4   19.58    5.02
  -7  -1   4   18.73    4.05
   4  -7  -1   22.09    5.77
  -4   7  -1   23.61    5.27
   1  -4  -7   15.46    5.16
  -1  -4   7   18.30    4.52
   7   1   4   33.93    7.17
   7   1   4   16.70    4.61
   7  -1  -4   13.57    6.05
  -1   4  -7   30.70    7.22
   4   7   1   27.76    7.47
  -7  -1   4   31.29    5.35
  -4  -7   1   11.90    4.63
   1   4   7   21.56    5.22
  -4  -7  -2    6.81    3.30
  -7  -2  -4   11.80    5.14
   2   4  -7    7.55    5.35
   4   7  -2   22.44    7.54
  -4  -7  -2   12.09    4.93
  -7  -2  -4    8.79    4.10
  -2  -4  -7    6.31    4.35
   4  -7   2    7.64    4.68
  -7   2   4    9.19    2.86
  -7   2   4   10.32    3.68
   7  -2   4    6.47    4.24
   7   2  -4    8.88    7.42
   2  -4   7   11.26    3.63
   2   4  -7    7.86    2.99
  -2   4   7    6.63    3.80
   2  -4   7    6.01    4.74
  -2  -4   7    5.96    3.70
   4  -7  -2    1.57    2.74
  -2   4  -7    3.10    4.31
  -7  -2   4    4.76    2.83
   7  -2  -4    5.59    4.29
  -7  -2   4    8.65    2.79
  -7   2  -4    6.92    3.90
   7   2   4    8.67    4.03
   4  -7  -2    2.43    3.04
   2  -4  -7    9.60    4.31
   2   4   7    3.24    3.18
   4   7   2    9.59    5.06
  -4  -7   2    9.13    4.09
  -4   7  -2    4.99    3.16
  -7  -3  -4   33.48    7.07
  -4  -7  -3   30.59    5.91
   3  -4   7   37.17    7.51
  -7  -3  -4   53.00    9.48
   3  -4   7   38.31    5.68
  -3  -4  -7   39.57    7.34
   7   3  -4   34.02   10.71
  -3   4   7   36.90    6.44
   3   4  -7   50.00   11.65
  -4  -7  -3   50.40    9.09
   7  -3   4   34.56    7.24
   4  -7   3   21.84    6.62
  -7   3   4   36.39    6.40
   4   7  -3   42.68   10.78
  -4   7   3   44.33    6.15
  -3  -4   7   37.30    6.49
   4  -7  -3   30.77    6.09
  -4  -7   3   32.70    6.29
  -7  -3   4   28.79    6.00
   7  -3  -4   33.92    7.25
   4  -7  -3   25.65    6.15
   3  -4  -7   37.82    6.80
  -4   7  -3   42.14    6.65
   3   4   7   27.13    6.83
  -3   4  -7   30.95    7.30
   7   3   4   41.02    7.62
  -7   3  -4   28.81    6.11
   4   7   3   39.26    8.04
   4   4  -7   -0.34    6.76
  -7  -4  -4    6.06    3.84
  -4  -7  -4    6.44    4.09
   4   7  -4   16.79    8.24
  -4   7   4    0.20    2.21
  -4  -7  -4    0.68    3.36
  -4   4   7    8.21    3.61
   4  -7   4    2.27    3.92
   7  -4   4   -0.10    3.00
  -7  -4  -4    6.94    4.94
  -4  -4  -7    4.43    4.56
   4  -4   7    1.48    2.51
   7   4  -4    1.02    6.79
   4  -4   7    2.22    3.53
  -4  -7   4   -1.56    2.46
  -7   4  -4   -0.27    2.51
   4   4   7   10.15    4.78
   4  -4  -7    1.94    3.36
  -7  -4   4    0.80    2.72
   4  -7  -4   -1.35    2.67
   4   7   4   -0.80    4.97
   7  -4  -4    2.57    3.91
  -4  -4   7    4.08    2.98
  -4   4  -7   -0.94    3.42
   4  -7  -4    2.08    3.24
  -4   7  -4   -2.25    2.40
   7   4   4    1.07    3.76
  -7  -5  -4   27.53    6.60
   4   7  -5   41.22   11.21
  -4  -7  -5   16.83    5.94
  -4  -7  -5   28.69    6.77
  -5  -4  -7   21.58    6.92
  -5   4   7   21.02    4.99
  -7  -5  -4   21.61    6.42
   5  -4   7   16.80    6.06
   5  -4   7   25.85    4.73
   5   4  -7   16.56   10.98
   4  -7   5   17.93    6.34
   7   5  -4   22.44   10.06
   7  -5   4   12.82    5.72
  -4   7   5   18.43    4.99
  -5   4  -7   29.37    7.51
   4  -7  -5   25.84    5.69
  -4   7  -5   24.09    5.94
  -7   5  -4   24.85    6.26
   7   5   4   25.80    6.69
   7  -5  -4   17.23    5.46
   5   4   7   25.15    6.74
   4  -7  -5   25.68    6.24
  -5  -4   7   12.76    4.82
  -4  -7   5   22.44    6.24
  -7  -5   4   22.71    6.17
   5  -4  -7   15.90    4.81
   5  -4  -7   22.43    5.14
   7   6  -4   16.24    9.24
  -6  -4  -7   73.27   11.31
   4  -7   6   47.76    9.74
   6  -4   7   66.17   10.57
   6   4  -7   62.51   15.47
   4   7  -6   56.47   13.97
  -4   7   6   53.50    8.24
  -4  -7  -6   77.52   11.38
  -6   4   7   68.63    7.27
  -7  -6  -4   60.82    9.59
  -7   6   4   61.06    9.87
  -7  -6  -4   58.44   10.50
   7  -6   4   64.40   11.44
   6  -4  -7   47.72    8.37
   7  -6  -4   57.65    9.64
   6  -4  -7   61.52    7.94
  -4   7  -6   45.12    8.41
  -7   6  -4   42.44    8.74
  -7  -6   4   58.86    9.54
   7   6   4   74.02   10.84
   4   7   6   46.62    9.63
  -4  -7   6   51.69    9.06
  -6  -4   7   67.03    9.92
   6   4   7   62.34   10.01
  -6   4  -7   88.61   10.45
   4  -7  -6   61.80   10.15
   0  -5   7    2.63    2.90
   0   5  -7    4.38    4.14
   7   0   5    0.17    3.25
   0   5   7    5.04    3.07
   5  -7   0   -0.17    2.85
   5   7   0    3.83    5.74
   7   0  -5    6.76    5.98
   0  -5  -7    8.10    4.11
   7   0   5    7.06    3.57
  -5   7   0    3.76    3.16
   0   5  -7    7.98    4.54
  -7   0   5    6.39    2.92
  -7   0   5    4.04    2.79
  -7   0  -5    5.54    3.95
  -5  -7   0   -0.45    2.79
  -1  -5  -7    2.91    3.06
   1   5  -7   -0.43    4.09
  -1   5   7    7.71    3.75
   1  -5   7    4.39    4.68
  -5   7   1    0.58    2.80
   5  -7   1    0.46    2.98
  -5  -7  -1    5.19    3.85
   5   7  -1   -8.75    4.02
   7   1  -5    7.53    6.74
  -7  -1  -5    3.89    3.76
   7  -1   5   -0.24    2.03
   1  -5   7    2.06    2.69
   7  -1   5   -0.08    2.96
  -7   1   5   -1.00    1.93
  -7  -1   5    1.37    2.74
  -7  -1   5    0.43    2.22
   7   1   5   -3.57    2.21
   5  -7  -1    1.66    3.29
  -1   5  -7    0.32    4.24
  -5   7  -1    0.60    2.78
   7  -1  -5    6.42    3.19
   5   7   1   -2.60    4.58
  -7   1  -5    1.61    2.90
   7   1   5    7.48    3.86
   1  -5  -7   -0.46    2.76
  -1  -5   7    1.07    2.57
   1   5   7    2.58    3.25
   7  -1  -5    8.16    4.66
  -5  -7   1   -4.26    2.08
   5  -7   2   20.88    6.39
  -5  -7  -2   19.05    5.71
  -7   2   5   21.76    4.55
   2  -5   7    7.45    5.29
   5   7  -2   17.45    7.41
  -2  -5  -7   17.57    5.41
  -7  -2  -5    7.71    4.84
   2  -5   7   20.93    4.68
  -2   5   7    6.95    3.60
  -5   7   2   17.74    5.52
   7   2  -5    4.62    7.25
   2   5  -7   24.37    7.79
  -5  -7  -2   20.36    4.91
   7  -2   5   13.56    4.81
   5   7   2   12.68    6.78
   7   2   5   22.61    5.77
  -2  -5   7   16.07    4.89
  -7  -2   5   17.07    4.42
   7  -2  -5    8.67    3.70
  -5   7  -2   16.51    5.13
   2   5   7   13.54    5.04
  -2   5  -7    9.01    5.29
   7   2   5    9.02    4.34
   2  -5  -7   12.67    5.07
  -5  -7   2   12.95    4.77
   7  -2  -5    9.78    4.81
  -7   2  -5    7.54    4.31
   5  -7  -2   14.00    5.15
  -3  -5  -7   53.21    8.97
  -7   3   5   55.54    5.69
   7  -3   5   42.35    7.94
   7   3  -5   62.21   13.57
  -5  -7  -3   56.64    9.87
   5   7  -3   67.07   13.78
  -3   5   7   64.90    9.14
  -5  -7  -3   34.87    7.24
   3   5  -7   61.59   12.86
   3  -5   7   51.68    9.79
   3  -5   7   48.44    6.19
  -7  -3  -5   53.28    9.42
   5  -7   3   54.76   10.39
   3  -5  -7   33.11    6.62
   5  -7  -3   34.76    6.76
   3   5   7   32.52    7.30
  -7   3  -5   31.98    6.98
   5   7   3   60.01   10.30
   7  -3  -5   57.54    9.34
  -5  -7   3   44.70    7.89
  -7  -3   5   56.64    8.84
  -3   5  -7   71.99    8.84
   7   3   5   60.29    9.22
   7  -3  -5   64.12    9.26
   5  -7  -3   63.65    8.18
  -5   7  -3   67.34    8.08
  -3  -5   7   59.41    8.55
   7   3   5   59.84    8.87
   4  -5   7   14.30    3.97
   7  -4   5   13.45    5.46
   7   4  -5   23.47   10.88
  -5  -7  -4   27.42    7.50
   5   7  -4    7.64    7.02
   5  -7   4   14.16    6.39
   4  -5   7   25.39    7.10
  -7  -4  -5   19.03    6.63
  -4  -5  -7   15.09    5.77
  -7  -4  -5   17.93    5.83
  -5  -7  -4   17.86    5.92
   4   5  -7   25.19    9.89
  -4   5   7   14.47    4.70
  -4   5  -7   20.86    6.62
  -7   4  -5   12.96    4.65
   5  -7  -4   25.31    6.22
  -4  -5   7   20.06    5.84
   4   5   7   20.42    5.94
   7  -4  -5   28.33    7.03
   7  -4  -5   19.94    5.19
  -5  -7   4   28.37    6.95
  -5   7  -4   29.35    6.25
   4  -5  -7   17.13    5.67
   5  -7  -4   20.37    5.78
  -7  -4   5   20.77    5.22
  -5  -7  -5    5.97    4.79
   7  -5   5    4.30    4.18
  -7  -5  -5    5.81    4.72
  -5  -7  -5    3.14    4.20
  -5   5   7    2.00    3.22
   5  -7   5    2.66    3.90
  -7  -5  -5   14.83    5.83
   5   5  -7   11.25   10.43
   7   5  -5   11.32   10.03
  -5  -5  -7    3.84    4.64
   5  -5   7    4.89    4.60
   5   7  -5   -5.29    5.96
  -5  -5   7    5.02    4.04
  -7   5  -5    9.81    4.98
   5   5   7    6.79    4.58
  -7  -5   5    1.60    3.53
  -5  -7   5   14.26    5.75
   5  -7  -5    8.37    4.27
   5  -5  -7    1.56    3.03
  -5   7  -5    4.63    4.00
   7  -5  -5    1.36    3.53
   7  -5  -5    0.68    2.81
   5  -7  -5   10.27    4.90
  -5   5  -7    8.48    4.55
  -6   5   7    8.27    4.16
   7  -6   5    0.19    4.22
  -7  -6  -5    0.95    3.57
   7   6  -5   -3.10    7.20
   5   7  -6   -2.95    7.09
   6   5  -7    3.37    9.74
  -5  -7  -6    1.14    4.29
   6  -5   7   -2.35    4.26
  -7  -6  -5   -0.82    4.05
  -6  -5  -7    2.29    4.23
   5  -7   6    1.07    4.01
   7  -6  -5    4.65    3.80
   6   5   7    5.76    4.70
  -5  -7   6    3.93    3.82
   6  -5  -7    2.98    3.83
  -6   5  -7    9.38    4.81
   5  -7  -6    5.60    3.71
  -7  -6   5    0.04    3.27
  -5   7  -6    4.97    3.94
   7  -6  -5    8.92    4.97
  -7   6  -5    5.86    3.95
  -6  -5   7    7.16    4.40
  -7   0   6   60.16    7.21
   7   0  -6   77.00    7.28
  -7   0  -6   50.54    9.36
   0  -6   7   64.62    7.67
   0   6  -7   39.98    8.91
   0   6   7   66.10   10.23
   7   0  -6   81.04   12.80
   7   0   6   71.84    8.50
   7   0   6   63.08    7.47
   6  -7   0   54.42    9.54
  -6   7   0   69.86    8.51
  -6  -7   0   70.71   10.58
   0  -6  -7   74.16    9.43
   6   7   0   54.21   11.89
   1  -6   7   39.07    6.07
   1  -6   7   18.08    6.37
   7   1  -6   33.11    9.66
   7   1  -6   36.56    5.80
  -6  -7  -1   37.44    7.69
   7  -1   6   33.45    6.70
  -7  -1  -6   34.13    7.41
   6   7  -1   18.23    8.39
  -7   1   6   29.25    5.88
   1   6  -7   23.12    8.33
   6  -7   1   49.09    9.28
   7  -1   6   35.20    6.05
  -1  -6  -7   20.70    5.91
  -6   7   1   33.36    7.25
  -1   6   7   18.58    5.22
  -6   7  -1   37.12    7.00
  -1   6  -7   28.57    7.55
  -1  -6   7   33.38    6.24
   6  -7  -1   34.28    7.93
   7   1   6   37.91    6.84
   7  -1  -6   44.09   10.08
   6   7   1   27.69    8.86
  -7   1  -6   29.54    6.97
   7   1   6   32.79    6.72
   1  -6  -7   49.80    9.10
  -6  -7   1   39.39    7.51
  -7  -1   6   36.88    6.41
   1   6   7   34.54    7.54
   7  -1  -6   33.11    6.13
  -7  -2  -6   94.28   13.16
   6   7  -2   72.19   13.45
  -6   7   2   77.33    9.33
  -2  -6  -7   58.69    9.86
   7  -2   6   66.32    9.94
  -7   2   6   59.46    6.86
  -2   6   7   66.60    8.18
   6  -7   2   53.27   10.12
   2  -6   7   83.46   12.55
   2  -6   7   57.88    7.31
   2   6  -7   90.37   14.87
   7   2  -6   72.85   13.64
  -6  -7  -2   59.37   10.46
   2  -6  -7   45.00    8.71
   6  -7  -2   64.46    8.82
  -6  -7   2   44.65    8.41
  -6   7  -2   69.11    9.89
  -7  -2   6   58.76    7.78
  -2  -6   7   84.24    8.86
   2   6   7   54.63   10.08
   7   2   6   64.60    9.43
   7  -2  -6   70.84    9.32
   7  -2  -6   63.25    7.64
  -7   2  -6   77.22    9.20
  -2   6  -7   53.55    9.45
   6   7   2   47.91   10.18
  -6  -7  -3    3.89    3.93
   3  -6   7    6.75    3.34
   3   6  -7    8.39    7.14
  -6   7   3    0.69    4.02
  -3  -6  -7    3.11    4.57
  -6  -7  -3    1.88    4.12
  -7  -3  -6   -5.91    3.41
   7   3  -6  -11.71    6.91
   6   7  -3    2.95    7.10
  -3   6   7    4.66    3.85
   7  -3   6   -0.12    3.37
   6  -7   3    4.72    5.43
  -7   3   6    5.47    3.18
   3  -6   7    2.53    4.69
  -6   7  -3    1.70    3.14
  -7  -3   6    2.19    3.25
  -3   6  -7    6.79    4.01
   6   7   3    4.63    5.78
   3  -6  -7    3.17    3.51
   7  -3  -6   -1.89    2.48
  -6  -7   3    6.38    4.15
   7   3   6    2.85    3.64
  -7   3  -6    0.71    3.25
   7  -3  -6    9.13    4.86
   6  -7  -3    6.59    4.32
  -3  -6   7    1.28    2.83
   3   6   7    1.87    4.00
  -6  -7  -4   15.58    6.38
  -7  -4  -6    9.92    5.02
   6   7  -4   15.95    9.40
   4  -6   7    3.91    4.94
  -4   6   7   17.80    5.13
   7  -4   6   16.31    5.95
   7   4  -6   20.94   10.54
  -4  -6  -7   16.01    6.00
   4   6  -7    3.15    8.25
   6  -7   4   17.17    6.46
  -6  -7  -4   13.60    5.78
   6  -7  -4    3.66    3.64
   7  -4  -6   18.49    5.45
   4  -6  -7   21.01    5.24
   7  -4  -6   18.84    5.84
   6  -7  -4   23.44    6.45
  -7  -4   6    9.38    4.61
  -7   4  -6   18.32    6.33
  -6  -7   4   16.64    5.64
  -6   7  -4   22.38    6.60
   7   4   6   14.21    5.38
  -4  -6   7   14.97    5.10
  -4   6  -7   14.25    5.32
   4   6   7   11.63    5.63
   6  -7   5   17.69    7.60
   6   7  -5   38.41   12.78
  -7  -5  -6    7.22    5.40
   5  -6   7   11.77    5.63
   7  -5   6   15.55    5.65
   7   5  -6   11.69    9.36
  -6  -7  -5   11.28    5.60
  -5   6   7   12.67    4.82
  -6  -7  -5    5.59    5.16
  -5  -6  -7   15.24    6.03
   5   6  -7   18.05   10.45
   5   6   7    5.27    4.48
   6  -7  -5   21.34    6.53
   7  -5  -6   12.58    5.16
  -6   7  -5   14.67    5.60
   7  -5  -6   22.83    6.41
  -5  -6   7    7.94    4.85
  -5   6  -7   23.22    6.82
   6  -7  -5   13.56    5.27
   5  -6  -7   16.11    5.85
   7   5   6   11.32    5.12
  -6  -7   5   12.51    5.38
  -7  -5   6   10.59    4.79
  -7   5  -6   13.23    5.97
  -7  -6  -6    1.79    4.26
   6   7  -6   -7.63    8.29
   6   6  -7  -16.76    7.60
  -6  -7  -6   -5.27    3.95
   7  -6   6   -3.20    4.69
  -6  -6  -7   -2.12    3.48
   6  -6   7   -1.10    4.39
   6  -7   6   -3.20    4.05
   7   6  -6    0.22    8.17
   6  -7  -6    2.90    3.49
  -6   6  -7    4.10    4.10
   6  -6  -7    1.68    2.94
  -6  -6   7    0.05    3.32
  -7   6  -6    4.09    5.20
   6   6   7   -3.47    3.26
  -7  -6   6   -1.88    3.05
   7  -6  -6    2.52    3.92
   7  -6  -6    2.15    3.44
  -6  -7   6   -2.37    3.14
  -6   7  -6   -0.72    4.09
   7   6   6   -4.35    4.01
  -7  -7   0    8.51    4.74
  -7   0  -7    9.89    5.86
  -7   0   7   19.37    5.19
  -7   7   0   21.54    5.69
   0  -7  -7   21.41    6.98
   0  -7   7   25.92    5.89
   0   7  -7   23.23    7.52
   0   7   7   17.94    6.03
   7  -7   0    9.53    5.57
   7   0  -7   37.01    9.71
   7   0  -7   27.31    5.85
   7   0   7   30.09    6.23
   7   7   0   20.17    8.92
  -7  -7  -1    2.39    3.85
   7  -1   7   10.68    4.29
  -7  -1  -7    5.39    4.97
   7   1  -7   15.86    7.23
   1  -7   7   14.00    6.76
  -7   1   7    3.85    3.52
   7  -7   1   10.48    5.02
  -7   7   1    5.81    4.41
  -1  -7  -7    7.94    4.53
   1  -7   7    6.42    3.49
  -1   7   7    0.51    4.08
   7  -1   7    0.12    2.61
   7   7  -1    7.45    7.30
   1   7  -7   -3.30    4.95
  -1  -7   7   12.01    4.76
   1  -7  -7    7.31    4.63
  -7   1  -7   11.25    5.83
  -7   7  -1   13.02    5.29
   7  -1  -7    6.26    5.23
   7  -1  -7    3.06    3.25
  -7  -7   1    6.55    4.41
   1   7   7    3.20    4.16
  -7  -1   7    7.97    3.91
   7   1   7   10.76    4.20
   7  -7  -1    3.00    4.99
   7   7   1   -1.45    6.69
  -7  -7  -2    5.09    5.22
   2   7  -7   15.10    7.81
  -7  -2  -7   16.13    5.93
   7   2  -7    6.54    8.30
   7  -7   2    7.30    5.01
  -7   2   7   16.71    4.52
   2  -7   7   18.36    4.60
  -7   7   2   16.06    5.98
  -2  -7  -7   18.34    6.25
   2  -7   7   12.01    5.91
   7   7  -2   25.72    9.95
  -2   7   7    6.52    3.58
   7  -2   7   17.36    5.73
  -2  -7   7   13.86    4.85
  -7   7  -2   12.26    4.63
   2  -7  -7    2.20    3.50
   2   7   7   14.80    5.71
   7  -7  -2   27.61    7.50
  -7   2  -7   17.75    5.94
   7  -2  -7   14.03    5.40
   7  -2  -7   10.58    3.95
  -7  -7   2    9.00    4.74
  -7  -2   7    8.53    4.58
   7   2   7   14.42    5.64
  -2   7  -7    5.41    4.43
   7   7   2    0.11    6.55
  -7  -7  -3    8.14    5.20
   3   7  -7   17.40    9.43
  -7  -3  -7    9.80    6.30
   7   3  -7   10.49    9.38
   7  -7   3   15.35    6.89
  -7   3   7    6.64    3.15
   3  -7   7    7.63    3.59
  -7   7   3   13.31    5.74
  -3  -7  -7   14.54    5.62
   3  -7   7   14.70    7.14
   7   7  -3   16.22   10.51
  -3   7   7    9.29    3.97
   7  -3   7    9.89    5.16
  -3  -7   7    2.10    3.59
  -7   7  -3    4.54    3.93
   3  -7  -7    7.24    4.34
   3   7   7    7.22    4.71
   7  -7  -3   -2.10    2.51
  -7   3  -7   -0.11    3.89
   7  -3  -7    2.85    4.64
   7  -3  -7   10.86    4.70
  -7  -7   3    1.59    3.20
  -7  -3   7    4.76    3.55
   7   3   7    6.15    4.44
  -3   7  -7    3.44    4.20
   7   7   3    5.95    6.73
  -7  -7  -4    9.79    5.34
  -7  -7  -4    5.70    4.61
   7   4  -7    5.34    8.96
  -7  -4  -7    7.04    4.74
   7   7  -4   22.15   10.55
   4  -7   7    5.24    5.39
   7  -4   7    7.28    4.78
  -7   7   4   -2.31    3.91
  -4  -7  -7    7.20    5.02
   7  -7   4    1.97    4.08
   4   7  -7   -5.42    6.58
  -4   7   7    6.65    4.12
   4  -7  -7   10.36    5.10
  -7   4  -7    1.49    4.42
  -4   7  -7    8.55    4.34
   4   7   7    3.24    4.02
   7  -7  -4    7.68    4.37
  -4  -7   7    2.82    4.11
   7  -4  -7    1.93    4.12
   7  -4  -7    2.05    3.67
  -7   7  -4    2.66    3.45
  -7  -7   4    7.35    4.66
   7   4   7    0.46    3.85
  -7  -4   7    8.12    4.38
  -7  -7  -5    0.26    4.30
  -7  -7  -5    2.33    4.18
   7  -7   5   -0.98    4.31
  -7  -5  -7    7.74    5.22
   5   7  -7    1.14    8.51
   7  -5   7   -1.14    4.41
   7   5  -7    9.31   11.27
  -5  -7  -7    6.62    5.56
   7   7  -5  -11.58    8.13
   5  -7   7    2.17    4.91
   5  -7  -7   -2.22    3.15
  -5   7  -7    6.91    4.76
  -7  -5   7    1.07    4.04
   5   7   7   -0.52    3.54
   7  -7  -5   -0.57    3.43
   7  -7  -5    3.02    3.99
  -7  -7   5   -0.28    3.32
   7  -5  -7    6.57    4.67
   7  -5  -7   -0.26    3.06
  -7   5  -7    6.55    4.89
  -7   7  -5    6.92    4.93
   7   5   7   -3.25    3.35
  -5  -7   7    0.47    3.37
  -7  -7  -6    7.69    5.15
   7   7  -6  -17.58    7.14
  -7  -6  -7   -1.26    4.49
   7  -6   7    2.23    5.59
   7   6  -7  -15.70    7.77
   6   7  -7   -4.92    8.98
  -6  -7  -7    6.60    5.36
   7  -7   6    0.80    5.03
   6  -7   7   -0.90    4.19
   6  -7  -7    2.23    3.92
  -6   7  -7   -2.52    3.97
  -7   7  -6    1.03    4.91
   6   7   7   -2.12    3.81
   7  -7  -6   -3.42    3.42
   7  -7  -6    3.95    4.07
  -6  -7   7    3.11    4.00
   7  -6  -7    1.70    3.54
  -7  -6   7   -0.36    3.55
  -7   6  -7   -0.47    4.30
   7   6   7   -0.51    4.28
  -7  -7   6    5.18    4.46
  -7  -7  -7    8.55    6.17
   7   7  -7   21.49   11.82
   7  -7   7   22.72    8.06
   7  -7  -7   16.72    6.18
  -7   7  -7   19.12    6.98
  -7  -7   7   18.69    7.16
   7   7   7   18.66    6.76
  -8   0   0   18.49    4.19
   0  -8   0   21.49    5.71
   0  -8   0    9.89    4.07
   0  -8   0   22.51    4.34
   0   0  -8   29.82    7.06
   0   0   8   21.45    5.16
   8   0   0   31.14    7.75
   1   0  -8   62.30    7.83
   1   0   8   53.17    7.84
   8  -1   0   61.65   10.71
   8   1   0   54.18   10.21
   0   8  -1   49.63    5.67
   0  -8   1   64.32   10.23
   0  -8   1   57.34    7.06
   0  -8  -1   48.10    6.21
  -8  -1   0   61.14    6.67
  -8  -1   0   47.95    6.20
  -8   1   0   57.17    7.01
  -1   0  -8   42.97    8.77
  -1   0   8   53.28    7.80
   0  -8  -1   43.11    7.77
   0  -8  -1   58.06    8.82
   2   0  -8   68.03    8.90
   0  -8   2   63.52    7.29
   0   8  -2   69.39    6.35
   0  -8   2   50.47    8.97
  -2   0   8   66.19    7.45
   0  -8  -2   76.03    8.09
   0  -8  -2   71.09   10.56
   0  -8  -2   64.30    7.26
  -2   0  -8   66.49   11.00
  -8   2   0   73.08    8.00
  -8  -2   0   63.78    7.57
   2   0  -8   70.44    7.70
   2   0   8   77.11    8.19
   8  -2   0   68.41   11.45
   8   2   0   86.61   14.05
  -8  -2   0   77.47    7.55
   3   0  -8   43.11    7.37
   8  -3   0   29.65    7.99
   3   0   8   39.74    6.87
   0  -8  -3   31.82    6.06
   0  -8   3   33.58    7.62
   0  -8   3   46.39    6.94
  -3   0   8   36.00    6.17
   0  -8  -3   34.33    6.66
   8   3   0   28.39    8.41
   3   0  -8   37.07    6.47
  -8  -3   0   41.85    6.45
  -8  -3   0   44.28    6.96
  -8   3   0   33.52    6.12
  -3   0  -8   45.58    8.39
   0  -8  -3   42.29    7.72
  -8  -4   0   88.72   10.10
   0  -8   4  101.29    9.61
  -4   0   8  101.98    9.67
   0  -8  -4  116.20    9.65
   8   4   0   81.10   13.96
   0  -8  -4  102.35   11.27
   0  -8  -4  101.29   10.14
   0  -8   4  110.83   12.46
   8  -4   0   96.37   11.52
  -4   0  -8  113.80   12.34
  -8   4   0  110.26   10.40
   4   0  -8  115.58   11.43
   4   0  -8  114.99    9.69
   4   0   8  102.28   10.28
  -8  -5   0  157.84   13.97
   0   8   5  129.63   14.14
   8  -5   0  166.45   15.69
   5   0  -8  163.42   12.45
   5   0  -8  179.45   15.08
  -5   0   8  155.19   12.98
   0  -8  -5  157.65   13.99
   0  -8   5  168.78   16.30
   0  -8   5  138.08   12.87
   5   0   8  205.05   14.13
  -8   5   0  189.41   14.05
   8   5   0  174.57   17.38
  -5   0  -8  182.02   16.25
   6   0  -8    8.56    5.58
   8  -6   0    6.08    5.01
   8   6   0   13.91    7.90
   6   0   8    4.46    3.59
   6   0  -8    8.43    4.15
  -8  -6   0    2.17    3.86
  -8   6   0    3.49    3.71
  -6   0  -8    1.87    5.07
  -6   0   8    2.96    3.64
   0  -8  -6    6.09    4.73
   0  -8   6   -1.90    2.85
   0   8   6   11.21    5.45
  -8  -7   0    7.87    4.54
  -8   7   0    0.78    3.07
   8   7   0   15.29    7.49
   7   0   8   -1.94    2.87
   8  -7   0    6.94    5.41
   0   8   7   -0.17    3.92
   7   0  -8    6.61    4.64
  -7   0   8   -4.20    2.68
   0  -8  -7   -0.03    4.01
   0  -8   7   -0.33    3.17
   0   8  -7   -2.02    4.92
  -7   0  -8    3.09    4.84
   7   0  -8   -0.28    3.29
  -8   0   1    8.18    3.17
  -1  -8   0   12.07    3.18
   0  -1   8    9.93    3.81
   0  -1  -8   15.68    5.34
  -1  -8   0    6.03    3.30
   0   1   8    6.74    3.17
  -8   0  -1   15.46    4.25
   1  -8   0   14.77    4.62
  -1   8   0    6.95    3.02
   8   0   1   14.38    5.90
  -1  -8   0    6.18    4.01
   8   0  -1    5.28    4.47
   0   1  -8    2.36    3.79
   0   1  -8   10.57    4.70
   1  -8   0    4.39    4.00
  -8   0   1   15.67    4.24
   8  -1   1    4.94    4.06
   1  -8   1   10.98    4.50
   1   8  -1    8.38    2.75
  -8  -1  -1    6.72    3.31
  -1  -8  -1    7.00    3.81
  -8   1   1    4.08    2.85
   8   1  -1    2.10    4.65
  -1   1   8    5.24    2.93
   1  -1   8   11.34    4.09
   1   1  -8    3.43    4.68
   1   1  -8    7.78    4.05
   1  -8   1    7.42    3.41
  -8  -1  -1    6.18    3.41
  -1  -8  -1   10.25    4.60
  -1  -8  -1    4.01    3.06
  -1  -1  -8    4.65    3.91
   8  -1  -1   11.76    4.90
  -8  -1   1    5.12    2.92
   1  -8  -1    2.00    3.09
   1  -8  -1    4.88    3.66
  -1   1  -8    8.07    5.20
  -1  -1   8    9.00    3.48
   1  -8  -1    7.00    3.22
  -8  -1   1    8.50    3.33
  -1  -8   1    9.40    5.00
   8   1   1    8.36    5.58
  -1  -8   1    0.75    2.78
  -8   1  -1   10.50    3.87
   1  -1  -8    1.80    3.07
  -1   8  -1    4.52    2.80
   1   1   8    3.69    3.23
   1  -8   2    4.90    4.17
   2  -1   8   -0.95    2.25
   1  -8   2    0.90    2.33
   8   2  -1    6.56    4.77
  -1  -8  -2    0.83    2.87
   2   1  -8    4.69    2.83
  -8   2   1    2.99    2.79
   2   1  -8    6.95    5.65
  -2  -1  -8    6.39    4.18
  -2   1   8    0.67    2.48
  -1  -8  -2    2.80    3.68
  -8  -2  -1    7.66    3.46
  -8  -2  -1    7.02    3.53
   8  -2   1    2.88    4.45
   8   2   1    9.64    6.68
   1  -8  -2   -0.85    3.40
   2  -1  -8    3.58    3.05
  -8  -2   1    0.42    2.45
  -2  -1   8   -0.49    2.55
  -8   2  -1    4.03    3.18
   2   1   8   11.36    4.05
   8  -2  -1    0.36    3.97
  -1   8  -2    3.38    2.28
  -8  -2   1    4.31    2.75
  -1  -8   2    8.77    4.80
  -1  -8   2    0.25    2.76
   1  -8  -2    3.86    2.94
  -2   1  -8    2.76    4.13
   1  -8  -2    3.59    3.27
   8  -3   1   74.31    9.84
  -1  -8  -3   52.43    9.11
  -3   1   8   74.32    8.09
   8   3  -1  102.97   15.46
   1  -8   3   72.38    7.46
   1  -8   3   76.69    9.91
   3   1  -8   70.47    7.74
  -1  -8  -3   69.42    7.97
   3  -1   8   82.43    8.51
   3   1  -8   69.33   11.25
  -8  -3  -1   69.86    8.58
  -8  -3  -1   72.76    8.20
  -3  -1  -8   69.83   10.93
  -8   3   1   71.44    8.15
   8  -3  -1   76.86    9.98
  -8  -3   1   84.14    7.65
  -8  -3   1   65.31    7.94
   1  -8  -3   79.53    9.20
   1   8   3   74.27    8.29
   8   3   1   73.81   12.28
  -8   3  -1   75.42    8.42
  -3  -1   8   90.30    8.52
  -1  -8   3   68.81    7.84
  -1   8  -3   66.39    7.07
   1  -8  -3   78.80    8.12
   1  -8  -3   78.65    8.33
   3  -1  -8   46.76    7.79
  -3   1  -8   82.62   10.66
   3   1   8   69.80    8.60
  -1  -8  -4   15.64    4.86
   1  -8   4   26.96    7.40
   4   1  -8   33.18    5.56
   1   8  -4   17.54    7.11
   8   4  -1   29.02    9.73
  -8   4   1   20.82    5.17
  -8  -4  -1   32.22    6.53
  -8  -4  -1   32.69    7.06
   4  -1   8   25.24    5.46
  -1  -8  -4   27.19    7.00
  -4  -1  -8   25.59    6.93
  -1   8   4   20.25    6.06
  -4   1   8   13.47    4.33
   4   1  -8   25.94    8.17
   8  -4   1   25.00    7.32
   1  -8   4   31.43    5.99
   1  -8  -4   28.46    5.73
   1  -8  -4   18.53    5.22
  -1  -8   4   17.33    5.16
  -8   4  -1   17.99    5.40
  -4  -1   8   16.79    4.72
  -4   1  -8   35.85    8.32
   4  -1  -8   36.79    6.55
   1   8   4   25.16    5.26
  -8  -4   1   33.20    6.63
   4   1   8   26.39    5.92
  -1   8  -4   21.80    4.81
   8  -4  -1   19.12    6.53
   4  -1  -8   20.03    4.76
   8   4   1   17.35    7.58
  -8  -5  -1   44.30    8.75
   8   5  -1   57.46   12.35
  -1   8   5   56.47    9.71
   8  -5   1   38.16    9.19
   1  -8   5   44.15   10.58
   1  -8   5   59.11    8.81
  -5  -1  -8   61.95   11.01
   5  -1   8   57.70    8.27
  -1  -8  -5   68.85   10.68
  -8   5   1   61.38    9.70
  -5   1   8   42.58    7.39
   5   1  -8   47.01   10.43
   5   1  -8   48.78    6.39
   1   8  -5   57.56   11.64
  -5   1  -8   64.03   11.61
  -5  -1   8   65.42    7.56
   8   5   1   50.83   11.95
   1  -8  -5   52.74    8.94
  -8   5  -1   54.28    8.37
   5   1   8   65.16    8.28
  -1  -8   5   63.77    7.99
  -8  -5   1   70.09   10.29
   5  -1  -8   63.74    7.33
   5  -1  -8   51.72    8.57
   8  -5  -1   58.33   11.03
   1  -8   6    2.52    4.86
   1   8  -6    1.86    4.74
  -1  -8  -6    9.76    5.90
   1  -8   6    3.83    3.26
  -8  -6  -1   16.26    5.81
  -6  -1  -8    3.25    4.47
  -1   8   6    1.12    4.90
  -6   1   8    8.05    3.59
   8  -6   1    7.96    4.74
   8   6  -1    1.38    7.25
   6  -1   8    8.80    4.34
  -8   6   1    5.95    4.24
   6   1  -8   16.42    6.85
  -8   6  -1    5.28    4.03
   6   1   8    6.03    3.79
  -8  -6   1    3.72    4.02
   6  -1  -8    6.29    4.63
   8   6   1    2.69    6.33
   1   8   6    4.12    4.82
  -6  -1   8    3.47    3.48
  -1  -8   6   10.68    4.68
   1  -8  -6   14.52    4.87
   8  -6  -1    2.79    4.94
   6  -1  -8    8.71    3.66
  -6   1  -8    7.88    5.21
   1  -8   7   92.32    9.86
   1   8  -7   74.77   14.77
  -8   7   1   82.77   10.67
  -1   8   7   87.38   11.05
  -8  -7  -1   88.60   13.41
   8  -7   1   99.73   12.56
  -1  -8  -7  105.82   12.63
   7  -1   8   95.69   10.19
  -7   1   8  100.05    9.68
   1  -8   7   71.84   13.81
  -7  -1  -8   83.47   13.38
   7   1  -8   80.30   13.42
   8   7  -1   66.31   14.59
  -8   7  -1   79.60   10.51
  -8  -7   1   85.88   10.67
  -7  -1   8   84.57    9.55
  -7   1  -8  104.08   12.92
   7   1   8   95.19   10.52
   8  -7  -1   97.08   11.74
   7  -1  -8   76.75    9.26
   7  -1  -8  101.74   11.80
   8   7   1  118.19   17.17
   1   8   7   61.54   11.35
  -1  -8   7   91.96   10.44
   1  -8  -7   93.57   11.49
   8   0  -2   34.35    8.96
  -8   0  -2   37.03    6.72
  -8   0   2   46.02    5.99
  -8   0   2   38.61    6.28
  -2  -8   0   44.63    7.97
   0  -2   8   48.02    6.83
   2   8   0   22.41    6.22
   0   2  -8   32.87    6.72
  -8   0  -2   31.33    5.82
  -2   8   0   34.03    5.93
  -2  -8   0   33.18    4.83
   0  -2  -8   33.13    7.29
   0   2  -8   35.53    7.06
   0   2   8   39.59    7.28
   2  -8   0   39.47    7.77
   8   0   2   30.88    8.06
   2  -8   0   40.07    7.13
   2  -8   1   85.44    9.82
   1   2  -8   84.32   11.16
  -1   2   8   85.77    9.09
   8  -1   2   93.55   10.94
   2   8  -1   74.48   10.13
   2  -8   1   93.65    8.60
   1   2  -8   87.64    9.38
  -8   1   2   90.06    8.62
  -2  -8  -1   83.29    9.78
  -8  -1  -2   87.39    9.16
  -8  -1  -2   93.39    9.38
  -1  -2  -8   93.02   10.79
   8   1  -2   73.45   12.87
   1  -2   8   98.11    8.71
  -2  -8  -1   85.36    7.62
   8  -1  -2  109.95   11.74
  -2   8  -1   93.89    8.15
  -8   1  -2   97.43    9.41
  -1  -2   8   92.65    8.95
  -8  -1   2   95.15    8.24
   2  -8  -1   88.60    9.16
  -1   2  -8   93.91    9.38
   1  -2  -8   94.58    9.90
   2   8   1   87.03    9.98
   8   1   2   84.56   10.40
  -2  -8   1   90.20    9.43
  -8  -1   2  106.05    8.34
   2  -8  -1   90.41    9.58
  -1   2  -8  113.71   11.63
   2  -8  -1   87.92    8.60
   1   2   8  103.77    9.92
  -2  -2  -8   31.58    7.32
  -2  -8  -2   22.18    6.03
  -2  -8  -2   24.46    5.07
  -8  -2  -2   28.51    6.00
  -2   2   8   35.14    6.80
   2  -2   8   26.57    5.44
  -8   2   2   25.29    5.05
   2  -8   2   21.41    4.99
   8   2  -2   33.33    9.50
   2   2  -8   24.32    7.54
   2   2  -8   30.29    5.73
  -8  -2  -2   28.47    6.41
   2   8  -2   16.17    6.08
   2  -2   8   20.09    5.29
   2  -8   2   14.00    5.08
   8  -2   2   33.51    8.42
   8  -2  -2   31.37    8.23
   2   8   2   27.45    6.67
   2  -8  -2   37.37    7.05
   2  -8  -2   35.81    6.27
  -2  -8   2   32.99    6.47
  -2  -2   8   27.15    5.55
  -2   2  -8   47.11    9.76
  -2   8  -2   37.96    5.99
   2  -2  -8   31.55    6.58
   8   2   2   44.95    9.08
   2  -8  -2   28.96    5.96
  -8  -2   2   40.04    5.62
  -8   2  -2   22.50    5.51
  -8  -2   2   31.69    5.69
   2   2   8   37.22    7.21
   2   8  -3   15.92    6.52
  -3  -2  -8   22.15    6.38
   3   2  -8   21.30    8.14
   3  -2   8   28.18    6.18
   3  -2   8   28.36    5.67
  -8  -3  -2   23.88    6.13
   3   2  -8   28.21    5.48
  -3   2   8   20.23    5.06
  -8   3   2   22.54    5.50
   8  -3   2   24.04    7.00
  -2  -8  -3   22.17    5.59
  -8  -3  -2   27.69    6.32
   2  -8   3   19.19    6.09
   2  -8   3   27.17    5.04
  -2  -8  -3   23.84    7.07
   8   3  -2   16.78    8.80
   8   3   2   40.63    9.02
  -2   8  -3   16.44    4.33
  -8  -3   2   22.72    5.85
  -2  -8   3   24.04    5.60
   8  -3  -2   30.67    7.67
   3   2   8   26.77    5.61
   2  -8  -3   34.78    6.66
  -3   2  -8   46.87    9.13
  -8   3  -2   16.31    5.04
   2  -8  -3   19.46    4.95
   2   8   3   32.44    6.77
  -3  -2   8   25.33    5.42
   3  -2  -8   18.27    4.69
  -4   2   8   24.61    5.60
   4  -2   8   34.88    6.57
   4  -2   8   22.48    4.81
  -2  -8  -4   29.25    6.54
   4   2  -8   28.68    9.57
   8  -4   2   18.03    6.65
  -2  -8  -4   30.82    7.74
  -8  -4  -2   34.89    7.09
  -8  -4  -2   19.11    6.42
  -2   8   4   17.55    5.47
   8   4  -2   28.95    9.24
  -8   4   2   24.79    5.91
   4   2  -8   20.08    4.68
   2  -8   4   30.56    5.56
   2   8  -4   37.02    9.52
   2  -8   4   24.16    6.65
  -4  -2  -8   22.06    6.63
  -4  -2   8   26.53    5.74
  -2  -8   4   18.50    5.26
  -8  -4   2   20.21    4.94
  -8   4  -2   19.18    5.08
   2  -8  -4   27.97    6.53
  -2   8  -4   22.58    4.87
   4  -2  -8   16.02    4.90
  -4   2  -8   36.86    8.51
   4   2   8   35.34    6.97
   8   4   2   37.00    8.04
   2   8   4   26.30    6.70
   2  -8  -4   26.44    5.46
   8  -4  -2   28.95    7.62
  -8  -5  -2   32.12    7.39
  -5   2   8   40.19    6.46
  -2  -8  -5   49.14   10.19
   2  -8   5   21.37    7.24
   8   5  -2   22.02    8.39
  -8   5   2   29.28    6.25
  -8  -5  -2   34.51    7.20
   2   8  -5   29.45    9.51
   5   2  -8   37.67   10.66
  -5  -2  -8   43.31    8.67
   5  -2   8   35.42    6.10
  -2  -8  -5   29.14    7.53
  -2   8   5   46.88    7.98
   8  -5   2   11.54    5.52
   2  -8   5   35.22    6.43
  -8   5  -2   35.35    6.84
   8  -5  -2   19.79    6.67
  -2   8  -5   35.74    6.43
  -8  -5   2   27.39    6.18
  -5   2  -8   22.33    7.19
   5  -2  -8   29.09    6.28
   2  -8  -5   19.69    6.12
   5   2   8   21.11    5.49
   5  -2  -8   25.45    5.92
  -5  -2   8   23.62    5.64
   8   5   2   30.66    8.68
  -2  -8   5   22.05    6.08
   6  -2   8    1.86    3.41
   8  -6   2    7.10    5.17
   6   2  -8    2.11    6.91
  -6  -2  -8   -1.38    3.71
   2   8  -6    0.35    4.13
  -2   8   6    3.19    4.10
  -6   2   8    0.18    2.65
  -8   6   2   -5.40    2.56
   2  -8   6   -3.86    3.77
   2  -8   6   -0.10    2.71
   8   6  -2   -4.38    6.39
  -2  -8  -6    2.35    3.60
  -8  -6  -2    3.56    4.36
  -8  -6   2   -2.31    2.64
  -6   2  -8   -0.43    4.05
  -6  -2   8    1.82    3.28
   6  -2  -8    3.27    4.20
   6  -2  -8    1.10    3.02
   8   6   2   -0.94    5.88
   8  -6  -2    1.58    4.17
   2  -8  -6    1.70    3.66
   2   8   6   -2.66    3.44
  -8   6  -2   -2.21    3.16
   6   2   8   -1.86    2.71
  -2  -8   6    1.28    3.78
  -8   7   2   43.96    8.76
   8   7  -2   25.22   10.41
  -2   8   7   42.99    8.35
   8  -7   2   40.67    9.69
   2  -8   7   46.85   11.52
   2   8  -7   35.01   10.42
  -7   2   8   40.39    6.91
  -2  -8  -7   50.45   10.52
   7   2  -8   49.75   12.86
  -7  -2  -8   54.85   10.31
  -8  -7  -2   39.92    9.34
   2  -8   7   45.48    7.92
   8   7   2   38.45    9.70
   7  -2  -8   44.43    8.62
  -2  -8   7   44.62    8.61
   7   2   8   40.45    7.62
   7  -2  -8   45.47    8.53
  -8  -7   2   46.13    9.19
  -8   7  -2   31.76    7.36
   2   8   7   46.97    9.78
   8  -7  -2   36.92    8.11
  -7  -2   8   55.49    9.26
  -7   2  -8   50.61   10.40
   2  -8  -7   35.69    7.89
  -8   0   3  482.64   27.88
   3  -8   0  478.79   28.28
   3  -8   0  487.43   30.56
  -8   0  -3  502.73   29.65
  -3  -8   0  456.00   29.51
   0   3  -8  479.02   31.08
   0  -3  -8  464.43   30.21
   3   8   0  459.82   31.73
   8   0  -3  469.22   33.25
   8   0   3  446.92   31.07
  -8   0   3  470.41   27.41
  -3   8   0  475.81   28.66
   0   3   8  501.94   29.81
   0  -3   8  492.80   28.84
   0   3  -8  491.71   30.41
   8   0   3  490.49   27.86
  -8  -1  -3   23.65    5.66
   8  -1   3   22.75    6.73
  -8   1   3   16.68    4.29
  -8  -1  -3   25.62    6.09
  -1   3   8   27.09    6.29
  -3  -8  -1   21.60    6.24
  -8   1   3   20.89    3.93
  -3  -8  -1   28.64    5.20
   3  -8   1   14.90    5.62
   3  -8   1   19.82    4.88
   1   3  -8   11.22    5.52
  -3   8   1   15.85    4.61
  -1  -3  -8   10.27    5.05
   8   1  -3   20.26    7.82
   3   8  -1   27.58    7.72
   1   3  -8   24.63    5.43
   1  -3   8   15.91    4.31
  -1   3  -8   11.87    4.59
   8   1   3   21.23    6.45
  -1  -3   8   22.37    5.72
  -1   3  -8   17.92    5.97
  -8  -1   3   31.69    5.30
   1  -3  -8   23.73    6.12
   1   3   8   21.87    5.42
  -3   8  -1   22.21    5.00
   3   8   1   22.35    6.43
   8  -1  -3   17.13    7.03
  -8   1  -3   19.21    5.35
   3  -8  -1   36.03    7.27
  -8  -1   3   22.95    4.72
   3  -8  -1   24.95    5.62
  -3  -8   1   24.18    6.42
  -8   2   3   48.69    6.97
   8  -2   3   39.24    8.41
   2   3  -8   49.09   10.55
   2  -3   8   49.48    7.09
   2   3  -8   47.11    6.66
   3   8  -2   65.53   11.35
   3  -8   2   48.45    6.22
  -2  -3  -8   42.34    8.63
   3  -8   2   37.90    7.96
  -8  -2  -3   44.44    7.86
   8   2  -3   50.47   11.43
  -3  -8  -2   40.74    6.48
   2  -3   8   60.84    9.27
  -8  -2  -3   52.54    7.78
  -3  -8  -2   59.78    9.76
  -2   3   8   47.83    7.75
   2  -3  -8   31.58    6.53
   3   8   2   46.79    8.75
   3  -8  -2   41.92    7.77
   3  -8  -2   42.60    7.58
  -2   3  -8   51.91    9.64
  -3   8  -2   41.15    6.55
  -8  -2   3   53.97    5.87
  -8   2  -3   52.69    8.24
   2   3   8   45.28    7.69
  -2  -3   8   54.52    7.94
   8   2   3   55.01    9.63
  -3  -8   2   40.99    7.56
  -8  -2   3   44.98    6.89
   8  -2  -3   50.39    9.51
  -3  -3  -8   -1.78    3.35
  -3  -8  -3   -0.71    2.86
   3   3  -8   -1.45    5.75
  -8  -3  -3    4.43    3.91
  -8  -3  -3    8.55    5.43
  -3  -8  -3    1.21    2.88
   8  -3   3   -0.15    3.52
   3  -8   3    4.35    3.20
   3  -3   8    1.25    2.58
  -3   8   3   -0.96    3.62
  -8   3   3    1.32    2.93
  -3   3   8    2.36    3.29
   3  -3   8    8.27    4.48
   3  -8   3    2.39    3.51
   8   3  -3    0.24    6.56
   3   8  -3    6.21    5.36
  -8  -3   3    7.19    3.54
  -3  -3   8    1.02    2.62
  -3  -8   3    3.54    3.38
  -3   3  -8    6.32    4.94
   3   8   3    2.54    4.32
  -8   3  -3    5.85    3.58
   3  -8  -3    1.94    3.30
   8   3   3    6.90    4.75
   3  -8  -3    1.07    2.68
   3   3   8    3.08    3.23
   8  -3  -3    1.81    4.07
  -3   8  -3    6.74    3.40
   3  -3  -8    2.60    2.85
   8  -4   3   36.54    8.56
   4  -3   8   72.50    7.59
   4   3  -8   48.86   11.60
  -4   3   8   82.61    8.40
  -4  -3  -8   83.35   12.18
   3  -8   4   83.33   12.80
   4  -3   8   84.34    9.43
  -8  -4  -3   63.04   10.08
  -3   8   4   67.99    8.67
  -3  -8  -4   76.66   11.84
  -8  -4  -3   62.88    9.86
  -8   4   3   60.07    9.26
  -3  -8  -4   65.46    8.57
   8   4  -3   37.82   11.85
   3   8  -4   63.57   13.90
  -8   4  -3   63.60    9.88
   3  -8  -4   68.85    8.85
   3  -8  -4   70.40    8.46
   4  -3  -8   76.34    8.49
  -4  -3   8   67.38    8.39
  -3   8  -4   80.63    8.48
  -8  -4   3   63.37    8.19
  -4   3  -8   80.09   11.87
   8   4   3   84.80   10.57
   8  -4  -3   57.05   10.62
  -3  -8   4   81.16    8.90
   4   3   8   85.16    9.12
   8  -5   3   16.39    5.94
   3   8  -5   18.45    7.63
  -5  -3  -8   20.82    7.28
  -8   5   3   35.21    7.84
   5   3  -8   25.95   10.63
  -5   3   8   13.92    4.50
  -3   8   5   27.10    6.50
   3  -8   5   29.47    8.65
   5  -3   8   26.15    6.41
   5  -3   8   14.53    4.10
  -8  -5  -3   18.09    6.09
  -3  -8  -5   21.97    6.44
  -3  -8  -5   16.77    6.03
  -8  -5  -3   11.50    5.95
   8   5  -3   22.04    9.09
   8   5   3   18.71    6.28
  -3  -8   5   26.12    6.38
   3  -8  -5   26.09    6.92
  -8  -5   3   25.12    6.40
  -3   8  -5   27.64    6.13
   5  -3  -8   11.72    4.38
  -5   3  -8    7.80    5.29
  -5  -3   8   15.49    5.08
   8  -5  -3   22.49    6.86
  -8   5  -3   22.83    5.96
   5   3   8   21.24    6.33
   3  -8   6   56.07   11.16
  -3   8   6   44.53    8.20
   6   3  -8   51.08   12.76
  -6  -3  -8   56.60   10.03
   6  -3   8   60.27   10.09
  -8   6   3   62.42    9.86
   8  -6   3   60.31   11.19
  -8  -6  -3   69.01   11.02
   3   8  -6   85.08   16.05
  -3  -8  -6   78.25   11.54
   8   6  -3   99.02   17.37
  -6   3   8   67.42    7.96
  -8  -6   3   56.02    9.64
  -6  -3   8   47.96    8.49
   8  -6  -3   88.44   10.58
   6  -3  -8   74.24    8.80
  -6   3  -8   51.51    9.95
   6   3   8   78.94   10.95
  -3  -8   6   77.14   11.73
  -3   8  -6   74.48   10.57
   3   8   6   70.15   11.81
   8   6   3  106.27   14.54
  -8   6  -3   57.04    9.74
   3  -8  -6   75.72   11.36
  -3   8   7    9.39    4.85
  -7  -3  -8   20.78    7.38
   8  -7   3   22.06    8.08
  -8  -7  -3   17.78    6.92
  -7   3   8   23.38    5.45
   3   8  -7   38.05   12.27
   7   3  -8   25.39   11.11
   3  -8   7   25.73    8.96
   8   7  -3   25.62   11.28
   7  -3   8   41.80    8.92
  -3  -8  -7   23.75    7.43
  -8   7   3   30.74    8.09
  -7   3  -8   33.76    8.78
   7  -3  -8   20.63    6.01
   3  -8  -7   17.67    6.29
  -8   7  -3   32.94    7.13
  -8  -7   3   15.10    5.60
   8  -7  -3   22.44    7.31
  -3  -8   7   37.46    8.48
   7   3   8   22.65    6.51
   3   8   7   26.50    7.73
  -7  -3   8   33.23    7.66
   8   7   3   49.33   10.38
   4   8   0   71.10   12.20
   0  -4  -8   83.41    9.96
  -4   8   0   84.81    9.09
   0   4  -8   87.11   11.08
  -8   0  -4   76.46    9.48
   8   0   4   86.54    8.42
  -8   0   4   90.21    8.06
  -4  -8   0   80.48    9.73
   8   0  -4   96.40   15.31
   8   0   4   74.87    9.80
   0  -4   8   85.47    8.42
   0   4  -8   70.57   10.49
   4  -8   0  101.59   10.40
   0   4   8   73.12    8.90
  -8   0   4   65.26    7.37
  -4  -8  -1   12.97    4.99
   4   8  -1   36.57    9.23
   1   4  -8   26.68    7.87
  -4   8   1   31.33    6.43
  -1  -4  -8   27.39    6.80
   1  -4   8   24.49    5.05
   1   4  -8   23.67    5.47
  -1   4   8   20.59    5.40
  -8   1   4   28.20    5.94
   4  -8   1   23.08    7.44
   8  -1   4   22.48    6.84
   8   1  -4   41.98   10.50
  -8   1   4   27.08    4.59
  -8  -1  -4   27.13    7.30
   1   4   8   23.47    5.44
   4  -8  -1   21.75    6.17
   4   8   1   21.72    7.46
   8  -1  -4   30.16    8.06
   8   1   4   31.06    7.18
  -1  -4   8   35.46    6.57
   8   1   4   18.68    5.04
  -8   1  -4   25.66    6.21
  -8  -1   4   26.01    4.71
  -4  -8   1   29.30    6.65
  -4   8  -1   20.72    5.27
  -1   4  -8   30.81    7.33
   1  -4  -8   28.09    6.71
  -8  -1   4   28.31    5.55
  -8  -2  -4   41.20    7.70
   8  -2   4   26.01    7.18
  -2  -4  -8   24.90    6.66
  -8   2   4   40.54    6.54
   2  -4   8   53.86    9.51
  -4  -8  -2   32.23    7.57
   4   8  -2   39.09    9.77
   4  -8   2   53.46   10.20
   8   2  -4   45.02   11.86
   2  -4   8   38.04    6.38
   2   4  -8   53.47   11.15
  -2   4   8   48.69    7.99
  -8  -2  -4   57.12    8.88
  -8   2  -4   30.18    6.90
   4  -8  -2   43.82    7.97
  -8  -2   4   39.09    6.80
   4  -8  -2   48.49    8.40
   2  -4  -8   21.78    5.93
   2   4   8   34.21    6.79
   8   2   4   32.85    7.40
   4   8   2   26.35    7.67
  -2  -4   8   43.07    7.02
  -4  -8   2   33.55    6.82
   8  -2  -4   57.63   10.87
  -2   4  -8   38.15    8.58
  -4   8  -2   35.42    6.75
  -4  -8  -3   21.59    6.36
  -3  -4  -8   16.59    5.94
  -4  -8  -3   15.62    5.03
  -8  -3  -4   13.66    5.82
   3  -4   8   18.53    5.97
  -8   3   4   16.48    4.81
   8   3  -4   -2.53    7.31
  -3   4   8   19.18    5.15
   4   8  -3   24.74    8.88
  -8  -3  -4   10.56    5.24
   3  -4   8   15.30    4.36
   3   4  -8   14.57    8.21
   4  -8   3   18.59    6.73
   8  -3   4   22.30    6.92
  -3  -4   8   17.54    5.06
   8   3   4   20.36    6.32
  -8  -3   4   11.17    4.08
   4   8   3   21.11    6.66
   4  -8  -3   19.52    5.82
   4  -8  -3   24.86    6.05
   3   4   8   18.07    5.62
   8  -3  -4   27.73    7.92
  -8   3  -4   28.79    7.07
  -3   4  -8   12.33    6.12
   3  -4  -8   19.25    5.17
  -4   8  -3   11.75    4.43
  -4  -8   3   16.96    5.57
   4  -4   8   47.26    8.60
  -8  -4  -4   47.35    8.38
   8   4  -4   49.80   12.88
   8  -4   4   37.29    8.12
  -4  -8  -4   31.23    7.79
  -4  -4  -8   41.30    8.81
   4   4  -8   45.15   12.13
   4  -8   4   43.61    9.30
   4  -4   8   30.83    5.82
  -8  -4  -4   29.34    8.01
  -4  -8  -4   38.43    7.74
  -4   4   8   26.95    6.14
  -8   4   4   31.46    7.02
   4   8  -4   46.52   11.28
   4  -8  -4   43.20    7.89
   4  -8  -4   45.58    8.19
  -4  -8   4   46.78    8.74
   4  -4  -8   26.89    6.05
  -4   8  -4   37.06    7.09
   4   4   8   59.63    9.52
  -4  -4   8   37.00    7.41
  -4   4  -8   45.53   10.26
   8   4   4   56.44    9.53
  -8  -4   4   29.19    6.74
   8  -4  -4   46.76    8.94
  -8   4  -4   31.97    7.02
  -5  -4  -8   10.59    5.47
  -5   4   8    2.98    3.54
  -4  -8  -5   14.67    5.68
  -8   5   4   14.13    5.31
   5   4  -8   -4.00    7.17
   4  -8   5    3.79    4.56
   4   8  -5   14.81    7.81
   5  -4   8   10.35    3.63
  -4  -8  -5    2.83    4.50
   5  -4   8   12.98    5.65
  -8  -5  -4   -1.61    4.20
   8   5  -4   16.69    9.73
  -8  -5  -4    0.57    4.08
   8  -5   4    9.36    5.12
  -8  -5   4    5.91    4.31
  -5  -4   8    5.92    3.94
   5   4   8   -0.85    3.39
  -5   4  -8    4.36    4.74
   4  -8  -5    8.23    4.75
   4  -8  -5    3.96    3.39
   5  -4  -8    4.18    3.62
   8  -5  -4    4.35    4.47
  -4   8  -5    6.05    3.97
   8   5   4    6.38    4.66
  -4  -8   5    6.63    4.05
  -8   5  -4   -2.04    2.89
  -6   4   8   -0.98    3.41
   6   4  -8    9.08    9.07
  -8   6   4    6.67    4.45
  -8  -6  -4   11.72    5.98
  -4   8   6    5.76    4.14
   6  -4   8    5.44    4.70
  -6  -4  -8    4.95    4.74
   8  -6   4    9.23    5.76
   4  -8   6    4.31    5.09
   4   8  -6    4.24    6.79
   8   6  -4    3.24    8.59
  -4  -8  -6   15.04    5.96
  -8  -6  -4   10.38    5.66
   6  -4  -8    8.03    4.57
  -4   8  -6    6.27    4.89
  -6  -4   8    9.83    5.27
  -8   6  -4   17.95    5.56
  -4  -8   6    8.80    4.82
   6   4   8    3.75    4.71
  -6   4  -8    9.11    5.42
   4  -8  -6    4.69    4.64
  -8  -6   4    0.86    3.37
   8  -6  -4    7.22    5.38
  -8   7   4   22.17    7.02
  -8  -7  -4    1.58    4.65
   8  -7   4    7.42    5.66
   4  -8   7   13.83    7.07
  -4   8   7    6.93    5.04
   7  -4   8   14.36    6.99
   7   4  -8   -5.88    8.58
   4   8  -7   16.45   11.18
   8   7  -4    5.40    9.18
  -7  -4  -8   11.51    5.33
  -4  -8  -7    3.22    4.66
  -4  -8   7   17.90    6.87
  -8  -7   4    6.48    5.06
  -8   7  -4   17.33    6.60
  -4   8  -7   12.95    5.83
   7   4   8    8.10    5.44
  -7  -4   8    8.84    5.34
   4   8   7    4.99    4.58
   8  -7  -4   13.24    6.42
   4  -8  -7   14.60    5.94
   7  -4  -8    8.42    4.73
  -7   4  -8    9.54    5.90
   8   0   5    0.91    3.13
   0   5  -8   -3.62    3.54
  -8   0  -5   -0.57    3.24
  -8   0   5    0.53    2.59
  -8   0   5    2.59    3.18
  -5  -8   0    5.18    4.05
  -5   8   0   -2.69    2.84
   5  -8   0   -1.07    3.13
   5   8   0   -2.33    4.71
   0   5  -8   -6.15    3.24
   8   0   5    1.08    2.89
   0   5   8    0.84    2.34
   8   0  -5   -0.51    5.21
   0  -5   8   -1.24    2.45
   0  -5  -8    4.80    4.31
   8  -1   5   40.45    8.41
  -5   8   1   52.35    8.86
   1   5  -8   52.48   10.39
  -1  -5  -8   47.60    8.44
  -1   5   8   18.54    5.37
  -8   1   5   41.03    6.54
   1  -5   8   35.56    6.48
  -8  -1  -5   50.31    8.58
   5   8  -1   23.16    8.46
   5  -8   1   25.03    6.97
  -5  -8  -1   35.99    7.75
   8   1  -5   35.77   10.16
  -8   1   5   44.88    6.99
  -8   1  -5   40.11    7.97
   5  -8  -1   34.43    8.05
   5   8   1   33.55    9.23
  -8  -1   5   36.41    6.19
  -1  -5   8   29.42    6.14
   8  -1  -5   36.79    9.07
  -1   5  -8   28.80    7.48
   8   1   5   44.57    7.34
  -5  -8   1   36.41    7.59
  -5   8  -1   34.10    7.18
  -8  -1   5   55.11    6.86
   1   5   8   13.61    5.39
   1  -5  -8   27.24    6.47
   8   1   5   39.13    7.24
  -2  -5  -8   19.26    5.84
  -2   5   8   15.05    4.87
   8  -2   5   29.26    7.48
   8   2  -5   26.98   10.54
  -5  -8  -2   23.42    6.54
   5  -8   2   26.00    7.66
   2   5  -8   11.33    6.91
  -8  -2  -5   28.44    6.96
   5   8  -2   28.15    9.93
  -8   2   5   32.76    6.25
  -5   8   2   31.71    7.04
   2  -5   8   37.60    8.70
   2  -5   8   22.37    5.06
   5   8   2   25.57    8.33
  -2   5  -8   21.19    7.12
   2   5   8   27.07    6.65
  -2  -5   8   32.77    6.79
   8  -2  -5   30.25    7.66
   2  -5  -8   20.90    5.85
  -5  -8   2   10.42    4.48
  -8   2  -5   23.09    6.81
  -5   8  -2   18.86    5.14
   8   2   5   24.54    6.34
   8   2   5   25.69    6.26
   5  -8  -2   30.07    7.05
  -8  -2   5   17.58    5.15
   3   5  -8  234.49   22.34
   3  -5   8  227.51   18.84
   8  -3   5  236.81   18.82
  -3   5   8  228.42   16.74
  -3  -5  -8  214.79   18.09
  -5  -8  -3  213.79   18.27
   8   3  -5  188.91   21.87
  -8  -3  -5  225.65   18.82
   5   8  -3  232.47   21.70
   5  -8   3  232.51   19.15
   3  -5   8  240.32   15.57
  -8   3   5  206.30   16.22
   3  -5  -8  237.40   17.79
   8  -3  -5  226.15   18.30
  -5  -8   3  196.95   16.71
  -5   8  -3  194.75   16.06
   5   8   3  175.96   18.03
   5  -8  -3  216.48   17.21
  -3   5  -8  238.33   19.07
  -8  -3   5  204.64   16.12
   5  -8  -3  237.11   17.58
   8   3   5  240.26   17.69
   3   5   8  218.20   17.73
   8   3   5  219.29   17.09
  -3  -5   8  224.32   16.64
  -8   3  -5  253.51   18.09
  -8  -4  -5    8.78    5.30
  -8  -4  -5   11.55    5.45
  -5  -8  -4    8.98    5.05
   4  -5   8   11.90    3.67
   8  -4   5   14.30    5.93
   8   4  -5    2.66    7.11
   5   8  -4    9.02    7.91
   4   5  -8   10.52    9.10
  -4  -5  -8    2.95    3.94
  -5  -8  -4   10.17    5.14
   5  -8   4    9.25    5.33
  -4   5   8    4.05    3.30
  -8   4   5    3.29    3.85
   4  -5   8   11.85    5.54
   8  -4  -5    5.56    4.36
   4  -5  -8    1.26    2.85
  -4   5  -8    2.82    4.86
  -8  -4   5    6.77    4.35
  -8   4  -5    5.32    4.59
  -4  -5   8   13.90    4.96
  -5   8  -4    8.53    4.90
   4   5   8    8.13    4.49
   5  -8  -4    8.34    4.44
   5  -8  -4    2.32    3.75
  -5  -8   4    4.09    4.57
  -8  -5  -5   -1.41    4.39
   5  -8   5   -0.09    3.82
   8   5  -5   -0.91    7.96
  -5  -5  -8    7.99    4.45
   5   5  -8    3.71    9.21
  -5  -8  -5   13.84    5.24
   8  -5   5   -0.07    4.08
  -5  -8  -5   -1.13    3.94
   5   8  -5   -5.78    6.48
  -8  -5  -5    3.41    4.64
  -5   5   8    3.86    3.77
   5  -5   8    1.16    3.86
  -8   5   5    4.52    4.21
  -5   5  -8    0.90    3.81
   8  -5  -5    5.98    4.86
  -8  -5   5   -1.23    3.45
   5  -8  -5    4.47    3.54
  -8   5  -5    4.55    3.82
  -5  -8   5    8.05    4.85
  -5  -5   8    0.26    3.69
   5  -5  -8    2.91    3.56
   5  -8  -5    3.17    4.01
  -5   8  -5    3.73    4.24
   5   5   8   -1.39    3.58
  -6  -5  -8   24.51    7.34
  -6   5   8   15.21    4.95
   5   8  -6   38.90   11.80
  -8  -6  -5   18.67    5.89
  -5  -8  -6   13.10    5.88
   5  -8   6   23.42    7.72
   8   6  -5    8.81   10.16
   6  -5   8   17.63    6.43
  -8  -6  -5   21.61    7.71
   8  -6   5   13.79    6.93
   6   5  -8   35.85   12.63
  -8   6   5   36.57    8.69
   5  -8  -6   16.70    6.42
  -5  -8   6   17.82    6.29
   6   5   8   22.72    6.69
   8  -6  -5   20.09    6.93
  -6   5  -8   15.97    7.13
  -5   8  -6   21.64    6.55
  -8   6  -5   18.63    6.50
   6  -5  -8   31.43    7.20
  -8  -6   5   25.03    6.96
  -6  -5   8   24.25    6.66
   5  -8   7   36.69    9.66
  -8   7   5   57.37   10.57
  -5  -8  -7   56.33   10.34
   7   5  -8   57.71   16.51
   7  -5   8   72.11   12.44
   8  -7   5   34.64    9.92
   5   8  -7   39.94   12.94
   8   7  -5   43.39   14.49
  -7  -5  -8   55.03   10.20
  -8  -7  -5   47.56   10.52
  -5   8  -7   57.91   10.59
  -8  -7   5   46.72    9.85
  -7   5  -8   63.32   11.73
   8  -7  -5   58.02   10.66
   7  -5  -8   56.55    9.96
   7   5   8   68.88   12.01
  -5  -8   7   37.08    9.20
  -7  -5   8   58.54   10.43
   5   8   7   38.41    9.90
   5  -8  -7   49.44    9.36
  -8   7  -5   66.11   11.31
   0  -6  -8   -2.68    3.40
   8   0  -6   -0.27    3.78
   8   0   6   -0.11    3.38
   6   8   0   -6.35    5.89
   6  -8   0    5.08    4.26
   0   6  -8   -0.14    4.34
   0  -6   8    0.80    3.03
   0   6   8   -0.47    2.33
  -8   0  -6   -2.14    3.67
  -8   0   6   -3.28    2.58
  -8   0   6    8.47    3.89
  -6  -8   0   -0.08    3.20
  -6   8   0    4.37    4.23
  -1   6   8    8.95    4.34
  -8   1   6   19.89    4.91
   8   1  -6   23.76    9.96
   1   6  -8   24.38    8.32
  -6   8   1   28.66    7.31
  -8   1   6   14.54    4.73
  -8  -1  -6   22.00    7.43
   1  -6   8   26.29    5.75
  -6  -8  -1   23.01    6.61
   8  -1   6   38.98    8.45
  -1  -6  -8   26.58    6.61
   6   8  -1   32.96   10.49
   6  -8   1   17.57    5.71
   8  -1  -6   18.67    7.51
   6  -8  -1   26.08    7.75
   8   1   6   27.11    6.31
   1  -6  -8   31.04    7.83
  -6  -8   1   39.05    7.90
   6   8   1   30.58    9.35
   8   1   6   31.93    7.21
  -6   8  -1   25.26    6.41
  -8  -1   6   32.09    6.65
   1   6   8   32.31    6.99
  -1  -6   8   32.53    6.42
  -8   1  -6   30.83    8.55
  -8  -2  -6   88.36   12.98
   2   6  -8   55.46   12.63
  -2   6   8   47.32    8.60
  -6   8   2   53.33    9.46
   2  -6   8   65.96   11.40
   6  -8   2   58.50   10.95
   8  -2   6   59.33    9.54
   8   2  -6   37.93   11.72
   6   8  -2   55.04   12.66
  -2  -6  -8   49.41    9.35
   2  -6   8   54.89    8.00
  -6  -8  -2   64.06   10.93
  -8  -2   6   65.21    9.28
  -2   6  -8   50.90   10.04
  -6   8  -2   67.25    9.84
  -8   2  -6   57.71    9.63
   2   6   8   58.45    9.92
  -2  -6   8   70.68   10.34
   8  -2  -6  101.07    9.45
   8   2   6   62.12    9.64
   2  -6  -8   48.78    9.14
   6  -8  -2   61.79   10.30
   6   8   2   56.04   11.67
   8  -2  -6   72.37   11.71
  -6  -8   2   49.49    9.54
   3  -6   8   80.87   13.12
   6   8  -3   78.58   15.61
   8  -3   6   63.51   11.13
   8   3  -6   81.43   15.78
  -6  -8  -3   56.96   11.18
  -3  -6  -8   55.89   10.73
  -6   8   3   77.28   12.36
   6  -8   3   80.25   13.30
   3  -6   8   79.98    8.56
  -3   6   8   72.78    9.44
  -8  -3  -6   95.89   13.66
   3   6  -8   58.07   14.52
   8   3   6   65.79   10.34
  -8  -3   6   80.43    9.52
  -3  -6   8   76.86    9.76
   8  -3  -6   75.35    9.29
   3  -6  -8   87.59   10.32
  -6  -8   3   44.36    9.01
  -6   8  -3   83.17    9.90
   8  -3  -6   96.32   13.76
   3   6   8   92.56   11.20
   6  -8  -3   97.51   11.02
  -3   6  -8   78.61   11.93
   6   8   3   91.61   14.11
  -8   3  -6   85.63   10.48
   4   6  -8   -3.28    7.05
   8   4  -6   17.35   10.42
  -6  -8  -4   15.00    6.37
  -4   6   8   19.40    5.86
   6  -8   4    9.04    6.06
   6   8  -4   28.70   10.83
   8  -4   6   16.33    6.75
   4  -6   8   21.28    7.69
  -4  -6  -8   31.52    8.35
  -8  -4  -6   22.55    7.31
   6  -8  -4   10.76    5.36
  -6  -8   4   17.64    5.86
   8  -4  -6    5.73    4.78
  -4  -6   8    8.82    4.82
   4  -6  -8   13.10    5.21
   8   4   6    1.37    3.92
   8  -4  -6    6.17    4.14
  -4   6  -8   23.44    6.99
   4   6   8   14.81    6.25
   6  -8  -4    3.49    4.00
  -8   4  -6    9.38    5.24
  -6   8  -4   13.32    5.22
  -8  -4   6    9.98    4.55
   5   6  -8   17.18   12.05
   6  -8   5   31.07    9.84
  -8  -5  -6   21.44    7.66
  -6  -8  -5   12.92    6.61
  -5   6   8   26.27    6.05
   6   8  -5   19.52    9.97
   5  -6   8   22.26    7.72
  -6  -8  -5   32.99    8.03
   8   5  -6   16.72   12.25
   8  -5   6   18.75    7.06
  -5  -6  -8   26.15    7.34
  -8   5  -6    9.99    5.28
  -5   6  -8   12.98    6.48
   5   6   8   23.08    7.47
   8  -5  -6   10.07    5.08
   6  -8  -5   11.63    5.87
   5  -6  -8   16.73    6.15
   6  -8  -5    9.05    5.09
  -8  -5   6   24.72    7.60
  -6   8  -5   15.76    5.78
   8  -5  -6   20.74    6.56
  -5  -6   8   23.37    6.57
  -6  -8   5   28.15    7.45
   8   5   6   14.58    5.48
   6  -8   6    3.89    4.42
  -6  -8  -6   -0.52    4.35
   8  -6   6   -1.70    3.88
  -8  -6  -6   -3.47    3.33
  -6  -8  -6    1.00    4.82
   6  -6   8    2.91    4.85
   6   8  -6  -13.65    7.69
   8   6  -6   13.09   11.28
  -6  -6  -8   -2.18    3.81
   6   6  -8   -9.90   10.12
   6  -6  -8    3.67    4.33
  -6   6  -8   -0.63    4.64
   6   6   8    2.81    4.75
   6  -8  -6   -3.70    2.90
  -6  -6   8   -0.90    3.75
  -6  -8   6    0.85    4.18
   8  -6  -6    2.28    4.16
   8  -6  -6   -0.33    4.04
  -8  -6   6    1.25    3.89
  -8   6  -6    5.06    5.00
   8   6   6   -3.78    4.15
  -6   8  -6   -2.40    4.01
   8   7  -6    2.58    9.31
   7   6  -8   -4.84   10.12
  -8  -7  -6    1.03    4.34
   7  -6   8    6.91    5.53
   6   8  -7   11.02   11.61
   6  -8   7    3.61    5.59
  -7  -6  -8    5.71    4.99
   8  -7   6   -2.62    4.82
  -6  -8  -7    9.76    6.18
  -6  -8   7    6.74    4.49
  -7   6  -8    5.90    6.02
   6   8   7    5.40    6.06
  -8  -7   6    9.28    5.59
   8  -7  -6   -2.04    4.23
   6  -8  -7    5.73    4.65
  -8   7  -6   16.98    6.45
   7  -6  -8    5.03    4.48
  -7  -6   8    4.46    4.22
   7   6   8    6.65    5.37
  -6   8  -7    5.42    5.26
   8   0  -7    4.30    3.54
   8   0  -7   13.33    6.76
  -8   0  -7    5.01    4.95
  -7   8   0    3.73    4.32
  -8   0   7    7.32    4.42
  -7  -8   0    5.53    4.17
   0   7   8    5.76    5.10
   0  -7  -8   -4.70    4.11
   0  -7   8    8.39    4.43
   0   7  -8    5.38    5.37
   7  -8   0   10.57    5.81
   7   8   0   -3.53    6.29
  -7   8   1   31.25    7.18
   1   7  -8   34.64    9.61
   1  -7   8   29.43    6.81
  -8  -1  -7   38.84    9.25
  -1  -7  -8   20.03    6.94
   8  -1   7   27.73    7.15
   7  -8   1   36.33    9.33
   7   8  -1   13.01    9.13
  -1   7   8   27.77    6.65
  -7  -8  -1   37.36    9.12
  -8   1   7   22.70    5.72
   8   1  -7   41.45   10.43
   1   7   8   31.77    8.03
   8  -1  -7   37.46    6.93
   1  -7  -8   32.03    8.13
   8  -1  -7   28.66    8.61
  -8   1  -7   40.25    8.80
  -1  -7   8   28.48    6.34
  -7  -8   1   24.89    7.27
   8   1   7   34.84    6.65
  -7   8  -1   32.31    8.15
   7   8   1   21.06    9.86
   7  -8  -1   17.67    6.30
  -8  -1   7   34.69    7.05
  -2  -7  -8    2.28    4.68
   8  -2   7    0.84    4.11
  -7  -8  -2    4.72    4.79
   2   7  -8   -2.22    5.65
  -2   7   8   -0.53    3.38
  -8  -2  -7    2.78    5.40
   7   8  -2   -4.55    7.04
   8   2  -7   -0.93    5.83
  -7   8   2    5.87    5.32
   2  -7   8   -0.36    3.25
   7  -8   2   -1.14    3.53
   2  -7   8   -3.41    5.21
  -8   2   7    4.07    3.55
   8  -2  -7   -0.54    4.58
   7  -8  -2   -1.00    3.71
   8   2   7    1.92    4.00
   2  -7  -8    8.07    4.56
  -8  -2   7    1.50    3.55
  -8   2  -7    4.79    5.38
  -7   8  -2    8.03    4.29
   7   8   2    3.75    7.06
   2   7   8   -1.20    3.71
  -2  -7   8    3.48    4.02
   8  -2  -7   -0.92    2.92
  -7  -8   2    1.19    3.54
  -7   8   3   22.28    6.93
   7   8  -3   12.81    9.26
  -7  -8  -3   10.78    5.73
  -3   7   8   13.34    5.35
   7  -8   3   11.13    5.68
   3  -7   8   12.38    6.57
   3  -7   8   17.15    4.99
   3   7  -8   29.54   10.45
   8   3  -7   34.83   11.78
  -8  -3  -7   16.98    7.30
  -3  -7  -8   21.69    7.04
   8  -3   7   15.79    6.17
  -7   8  -3   18.89    6.46
   3   7   8    8.56    5.57
   7  -8  -3   22.71    6.94
   8   3   7   18.79    6.02
  -8  -3   7   10.43    4.55
  -3  -7   8   15.50    5.10
  -3   7  -8   14.83    6.80
  -8   3  -7   17.27    6.76
   8  -3  -7   17.09    5.49
   8  -3  -7   25.78    7.40
  -7  -8   3   17.80    6.25
   3  -7  -8   10.10    5.66
   7   8   3   27.93    9.33
  -8  -4  -7   33.19    8.42
  -7  -8  -4   46.00    9.55
  -4   7   8   32.27    7.61
  -7   8   4   37.96    8.82
  -4  -7  -8   32.38    8.34
   4  -7   8   32.28    8.91
   4   7  -8   35.15   12.71
   8   4  -7   33.52   13.40
   7   8  -4   43.31   14.21
   7  -8   4   39.09   11.16
   8  -4   7   33.12    7.92
   4  -7  -8   23.02    7.54
  -7  -8   4   37.04    9.14
  -7   8  -4   40.81    9.09
  -8   4  -7   49.44    9.56
   4   7   8   28.30    8.03
   8   4   7   30.43    7.84
   8  -4  -7   42.91    8.60
  -8  -4   7   36.75    8.14
  -4  -7   8   36.97    8.14
  -4   7  -8   36.85    8.83
   8  -4  -7   44.69    8.06
   7  -8  -4   31.91    8.46
   5  -7   8   31.32    8.82
   5   7  -8   26.65   12.61
   8  -5   7   27.61    8.75
   7  -8   5   30.81   10.14
   7   8  -5   28.73   13.34
  -7  -8  -5   17.75    7.21
  -8  -5  -7   23.85    7.35
  -5  -7  -8   29.22    8.25
   8   5  -7   48.94   16.17
   8   5   7   22.34    7.55
   8  -5  -7   13.15    5.93
   7  -8  -5   19.59    6.58
   5   7   8   14.00    6.45
  -5  -7   8   27.97    7.78
  -5   7  -8   35.46    9.33
   5  -7  -8   26.62    7.15
  -7  -8   5   23.83    7.06
  -7   8  -5   31.69    7.85
   7  -8  -5   22.41    6.83
  -8  -5   7   36.05    8.76
   8  -5  -7   22.51    6.40
  -8   5  -7   37.34    9.07
   8   6  -7   45.34   16.47
  -7  -8  -6   44.58   10.01
   6  -7   8   44.91   10.67
   8  -6   7   65.92   13.21
  -8  -6  -7   56.95   10.14
  -7  -8  -6   75.60   13.55
   7  -8   6   61.82   12.78
   7   8  -6   73.93   19.15
   6   7  -8   43.02   16.19
  -6  -7  -8   72.75   11.59
   7  -8  -6   36.52    8.86
   8   6   7   26.45    8.20
   6  -7  -8   55.38   11.10
   8  -6  -7   42.99    9.25
  -7   8  -6   52.38   10.92
   6   7   8   48.05   11.00
  -8  -6   7   52.86   10.25
  -8   6  -7   63.28   11.52
  -6  -7   8   62.44   10.93
  -6   7  -8   54.88   10.87
  -7  -8   6   51.26   10.66
  -8  -7  -7   18.08    6.69
   7   8  -7   33.42   13.91
   7   7  -8   23.46   13.25
  -7  -8  -7    3.11    5.19
   8  -7   7    9.32    7.15
  -7  -7  -8   11.61    6.45
   7  -7   8    5.04    6.45
   7  -8   7    8.17    6.40
   8   7  -7    1.52   11.47
   7  -8  -7    1.40    4.12
  -7   7  -8   11.90    6.98
   7  -7  -8    4.87    4.41
  -7  -7   8    7.39    5.64
  -8   7  -7    2.45    5.11
   7   7   8    8.48    5.78
  -8  -7   7   14.86    7.01
   7   8   7    6.09    5.79
   8  -7  -7    7.78    5.15
  -7  -8   7    7.83    5.81
  -7   8  -7    7.50    5.68
   8   7   7    9.60    6.40
  -8  -8   0   11.73    5.83
  -8   0  -8   20.57    7.78
  -8   0   8    9.21    4.77
  -8   8   0   30.93    8.34
   0  -8  -8    7.49    5.96
   0  -8   8   12.65    5.11
   0   8  -8   18.71    7.97
   0   8   8   17.97    6.58
   8  -8   0    8.07    5.49
   8   0  -8   18.52    7.32
   8   8   0   22.26   10.48
  -8  -8  -1   34.58    8.87
   1  -8   8   37.20    7.13
  -8  -1  -8   38.77    9.36
  -8   8   1   19.30    6.90
  -1   8   8   16.51    5.45
  -8   1   8   30.13    6.22
   8  -8   1   35.74    9.48
   8   1  -8   20.77    8.87
  -1  -8  -8   35.64    9.39
   1   8  -8   19.50    9.06
   8   8  -1   18.05    9.97
  -8   8  -1   19.53    6.77
  -8  -8   1   35.36    8.11
  -1  -8   8   20.73    6.36
   1   8   8   22.20    7.47
  -8  -1   8   27.15    7.03
  -8   1  -8   24.13    7.77
   8  -1  -8   49.51   10.90
   8  -1  -8   44.41    8.19
   1  -8  -8   27.14    7.42
   8   1   8   22.03    6.06
   8  -8  -1   21.47    7.13
   8   8   1   16.95    9.87
  -8  -8  -2   30.98    8.31
   8   2  -8   51.51   13.01
  -8  -2  -8   40.11    9.21
   8   8  -2   45.22   13.19
   2  -8   8   49.87   11.79
  -8   2   8   25.88    6.18
   8  -8   2   22.32    8.12
  -8   8   2   43.90    9.57
  -2  -8  -8   41.62    9.77
   2  -8   8   53.58    8.43
  -2   8   8   25.68    6.81
   2   8  -8   27.52   10.68
  -8   2  -8   62.30   11.52
  -2  -8   8   21.25    7.07
   2  -8  -8   40.57    9.73
   2   8   8   34.20    8.87
   8  -8  -2   41.28    9.09
  -8   8  -2   26.52    7.51
   8  -2  -8   50.36    9.52
   8  -2  -8   42.69    8.66
  -8  -8   2   44.49    9.92
   8   2   8   41.04    7.98
  -8  -2   8   42.85    8.94
   8   8   2   23.27    9.11
  -8  -8  -3    1.59    4.26
   8   8  -3   -4.74    6.52
  -8  -3  -8   -0.91    4.25
   3  -8   8    1.80    5.30
   8   3  -8   27.20   10.82
  -3   8   8    6.81    4.91
  -8   8   3   -3.01    3.58
  -3  -8  -8    4.16    4.83
   3   8  -8    7.14    7.73
   8  -8   3    0.96    5.20
   3  -8  -8    5.70    4.56
  -8   8  -3   17.05    6.61
  -3  -8   8    3.06    4.30
   3   8   8    1.41    5.08
   8  -8  -3    6.41    5.10
  -8  -3   8    5.17    4.46
   8  -3  -8    7.19    5.71
   8  -3  -8    1.71    3.89
  -8   3  -8   13.90    6.70
   8   3   8    6.35    4.87
  -8  -8   3   10.11    5.82
  -8  -8  -4    1.38    4.32
   8   8  -4   -5.27    7.49
  -8  -4  -8   -0.28    4.43
   8  -4   8    3.25    5.88
   8   4  -8    6.21    9.18
   4  -8   8   -2.17    5.32
  -8   8   4   -4.94    4.06
  -4  -8  -8    5.58    5.20
   4   8  -8   -3.10    8.89
  -4   8   8   13.53    5.93
   8  -8   4    6.54    5.75
   4  -8  -8    6.23    4.67
  -4  -8   8   -3.27    3.57
   4   8   8   -4.33    4.29
   8  -8  -4    1.21    3.56
  -8   8  -4    1.92    4.58
   8  -4  -8    1.77    4.50
  -8  -4   8    3.19    3.87
  -8   4  -8   -0.08    4.58
   8   4   8    1.25    4.78
  -8  -8   4    1.81    3.83
  -8  -8  -5    9.83    5.70
   8   8  -5   11.06   12.74
  -8  -5  -8   34.75    8.78
   8  -5   8   17.84    7.45
   8   5  -8   19.56   12.43
   5  -8   8    5.11    6.07
  -8   8   5   17.62    6.68
  -5  -8  -8   14.80    6.57
   5   8  -8   13.76   10.89
   8  -8   5   12.55    7.81
   5  -8  -8   14.48    6.72
  -8   8  -5   12.58    6.26
  -5  -8   8   11.88    5.52
   5   8   8   11.54    6.54
   8  -8  -5   31.61    7.70
  -5   8  -8   28.08    9.15
   8  -5  -8   20.24    6.87
  -8  -5   8   32.31    8.60
  -8   5  -8   44.93   12.04
   8   5   8   16.27    7.10
  -8  -8   5   20.58    7.17
  -8  -8  -6   19.22    7.68
   6   8  -8   10.03   13.63
  -8  -6  -8   19.60    7.46
   8   6  -8    5.46   10.92
   8  -6   8   17.47    7.31
   8   8  -6   11.50   12.62
  -8   8   6    9.96    5.96
  -6  -8  -8   14.19    6.64
   6  -8   8    8.51    6.77
   8  -8   6    7.65    7.59
  -6   8  -8    2.94    5.75
  -8   6  -8   18.37    7.33
  -8  -8   6   16.75    6.83
   6   8   8    1.62    5.19
   6  -8  -8   20.65    7.60
   8  -6  -8   17.41    6.78
  -6  -8   8   17.23    7.68
  -8  -6   8   14.34    6.36
   8   6   8   13.77    6.50
  -8   8  -6   14.15    7.24
   8   8  -7   -0.59   11.22
  -8  -7  -8   12.47    6.50
   8   7  -8    3.94   12.07
   7  -8   8    3.60    6.41
   8  -7   8    2.44    6.39
  -7  -8  -8    5.19    5.33
   7   8  -8   13.49   14.09
   8  -8   7    7.34    6.77
   7  -8  -8   10.25    5.69
  -8  -8   7   10.07    6.42
  -7  -8   8    0.27    4.83
   7   8   8   10.46    6.34
   8  -8  -7    8.31    5.84
  -8   7  -8    8.05    6.64
   8  -7  -8    5.49    4.59
  -7   8  -8   11.86    7.18
  -8  -7   8    9.74    6.16
   8   7   8    1.23    4.92
  -8   8  -7    3.26    5.38
   8   8   7    6.69    5.84
  -9   0   0   -3.76    2.09
   0  -9   0    2.04    3.31
   0  -9   0    0.07    3.32
   0   0  -9   -2.13    3.64
   0   0   9   -0.58    2.85
   0   9   0   -4.84    2.13
   9   0   0    3.59    4.14
   1   0  -9   29.23    6.76
   1   0   9   28.92    6.33
   9  -1   0   22.48    8.35
  -9  -1   0   19.97    4.99
  -9  -1   0   21.78    5.37
  -9   1   0   43.09    7.43
  -1   0  -9   35.58    8.12
  -1   0   9   33.09    6.80
   0  -9  -1   27.65    6.87
   0  -9  -1   16.66    5.58
   0  -9  -1   38.42    6.27
   0  -9   1   40.53    8.76
   0  -9   1   34.18    6.70
   0   9  -1   21.15    4.87
   9   1   0   33.52    8.80
   0  -9   2  138.11   12.48
   2   0  -9  161.67   12.90
   0  -9   2  151.82   14.49
  -9   2   0  151.33   12.64
  -2   0  -9  147.76   14.59
  -2   0   9  146.38   12.37
   2   0   9  133.42   12.65
   9  -2   0  158.14   15.63
   9   2   0  164.01   16.78
  -9  -2   0  154.05   12.32
  -9  -2   0  171.98   12.52
   0  -9  -2  151.95   13.17
   0  -9  -2  160.36   14.03
   0  -9  -2  157.50   12.25
   3   0  -9    8.04    3.83
   9  -3   0   -0.13    4.11
   9   3   0    4.19    5.63
  -9   3   0   12.46    4.97
  -3   0  -9    1.88    4.53
  -3   0   9   15.89    4.76
   0  -9  -3    3.72    3.47
   0  -9  -3    1.15    3.61
   3   0   9    6.10    4.17
  -9  -3   0    6.82    3.82
  -9  -3   0   10.53    4.46
   0  -9  -3    1.75    3.39
   0  -9   3    4.97    4.78
   0  -9   3    4.06    3.57
   4   0  -9   36.66    6.71
   9  -4   0   45.36    9.99
   9   4   0   26.22    8.45
   0  -9   4   46.08    7.76
  -9  -4   0   29.59    6.49
  -9   4   0   41.35    8.19
   0  -9  -4   51.45    8.23
   0  -9   4   32.93    8.85
   4   0   9   31.03    6.80
  -4   0  -9   26.11    7.29
  -4   0   9   51.41    8.30
   0  -9  -4   36.34    8.58
   5   0  -9   65.16    7.92
  -5   0  -9   75.29   11.94
  -9   5   0   74.68   10.80
   9  -5   0   49.12   10.69
   9   5   0   65.93   12.91
   0  -9  -5   70.50   10.33
   5   0   9   63.82    9.56
  -5   0   9   65.03    8.32
   0   9   5   50.53   10.21
  -9  -5   0   68.14   10.60
   0  -9   5   62.59    9.58
   0  -9   5   71.48   12.29
   0   9  -6    1.16    4.44
   0  -9  -6   12.91    5.27
  -6   0  -9   13.83    6.36
  -6   0   9    8.43    4.56
   9   6   0   28.46    9.71
  -9   6   0   16.36    6.58
   6   0  -9    5.20    4.47
   0   9   6    4.14    4.44
   6   0  -9   10.92    4.82
  -9  -6   0    9.02    5.02
   6   0   9   -0.14    3.93
   0  -9   6   13.19    4.77
   9  -6   0   10.95    6.18
   7   0  -9    8.92    6.34
  -7   0  -9    2.10    5.31
   0   9   7    1.77    4.65
   9  -7   0    3.01    4.09
   9   7   0   12.14    8.19
  -9   7   0   -3.18    3.25
  -9  -7   0   -1.06    3.67
   7   0   9   -1.01    4.09
  -7   0   9    2.89    3.78
   0  -9  -7    3.72    4.31
   0   9  -7    1.63    5.24
   0  -9   7   -0.96    3.40
  -8   0   9   -1.75    3.60
  -8   0  -9   -1.16    4.45
   0  -9   8    0.33    3.50
   9   8   0   -3.74    7.48
  -9  -8   0   -0.07    4.52
   0  -9  -8   -0.26    4.51
   8   0  -9    5.87    5.32
   0   9  -8   -1.18    5.22
   0   9   8   -2.21    4.42
  -9   8   0   -1.23    4.25
   9  -8   0   -4.09    3.74
   0   1   9    2.80    3.48
  -9   0   1    8.11    3.74
   0  -1   9    2.03    3.13
  -1  -9   0    6.51    3.71
   9   0  -1    3.30    4.94
   1  -9   0    7.09    4.42
  -9   0  -1    5.22    3.75
   0  -1  -9    3.80    3.90
   1  -9   0   12.58    5.06
   9   0   1    7.37    5.79
   0   1  -9    8.44    4.37
  -1   9   0    6.68    3.25
   9   1  -1    2.97    5.27
  -1  -9  -1   13.48    4.13
  -9   1   1    9.72    3.96
  -1  -1  -9   14.34    5.28
  -9  -1  -1   17.17    4.89
   9  -1   1    6.16    4.94
   1  -9   1   25.28    5.67
  -9  -1  -1   27.31    5.84
   1  -9   1    7.47    4.80
   1  -1   9   13.32    4.74
  -1  -9  -1   21.47    6.34
  -1   1   9    9.49    4.13
   1   1  -9   23.58    6.21
  -1  -9   1   15.23    5.05
  -9  -1   1   12.35    4.28
  -1   1  -9   11.92    5.52
   1   1   9   26.72    6.04
  -1  -1   9   12.12    4.44
  -9  -1   1   12.64    4.37
   1  -9  -1   17.05    5.18
   1  -9  -1   24.00    5.22
  -9   1  -1   14.80    5.06
   1  -9  -1   15.40    5.56
  -1   9  -1   10.62    3.60
   9   1   1   13.17    6.15
   9  -1  -1   16.97    7.97
   1  -1  -9   15.89    5.08
  -2  -1  -9   21.84    6.22
  -2   1   9   27.57    6.08
  -1  -9  -2   33.00    7.46
   2   1  -9   26.70    6.00
  -9  -2  -1   32.02    6.44
  -9  -2  -1   25.03    5.79
  -1  -9  -2   29.20    5.88
   1  -9   2   32.19    6.05
  -9   2   1   24.29    5.83
   9  -2   1   26.03    8.11
   9   2  -1   29.25    9.05
   1  -9   2   30.68    7.71
   1   9  -2   27.90    8.34
   2  -1   9   33.84    6.47
   1  -9  -2   31.03    6.12
  -1   9  -2   18.64    4.48
  -9  -2   1   28.53    5.85
  -9   2  -1   16.40    5.00
   1  -9  -2   35.31    7.54
   1   9   2   23.66    6.39
   2  -1  -9   26.36    6.11
  -1  -9   2   33.72    7.27
   1  -9  -2   25.69    6.30
   2   1   9   31.01    6.43
  -2   1  -9   32.20    8.12
   9   2   1   28.19    8.26
  -2  -1   9   27.28    6.14
   9  -2  -1   27.31    8.61
  -9  -2   1   19.92    5.43
  -9  -3  -1    7.90    4.31
   3   1  -9   15.06    4.68
  -9  -3  -1   12.33    4.76
   1  -9   3    8.88    4.07
   1   9  -3    6.05    5.59
   9  -3   1    5.95    4.83
  -1  -9  -3    4.85    4.40
  -1  -9  -3    4.59    3.40
  -9   3   1   11.40    4.46
   9   3  -1   11.94    7.66
   1  -9   3   12.82    6.21
   3  -1   9   11.62    4.58
  -3  -1  -9   20.54    6.59
  -3   1   9   10.41    4.18
   9   3   1   12.31    6.56
   1  -9  -3   19.30    5.62
   3   1   9    5.92    4.32
   1   9   3    9.70    4.50
   9  -3  -1    9.05    6.08
  -9  -3   1   12.30    4.56
  -3  -1   9   15.86    5.12
  -1  -9   3    7.44    3.97
  -3   1  -9   20.01    6.38
  -9   3  -1   12.81    5.16
   1  -9  -3    3.14    3.83
   1  -9  -3    6.10    3.91
   3  -1  -9    5.66    4.08
   1  -9   4   25.83    5.76
  -1  -9  -4   33.81    8.13
  -4  -1  -9   22.25    7.64
  -9   4   1   17.66    6.00
   9   4  -1   29.08   10.15
   4  -1   9   26.56    6.23
  -1  -9  -4   17.67    5.47
   1  -9   4   23.36    7.28
  -9  -4  -1   21.55    6.47
   4   1  -9   24.20    7.40
   4   1  -9   20.80    4.97
   1   9  -4   19.09    7.63
   9  -4   1   23.31    7.67
  -1   9   4   17.68    6.50
  -4   1   9   24.53    5.86
  -4  -1   9   16.61    4.90
  -9   4  -1   16.38    5.29
   1  -9  -4   18.34    5.52
  -9  -4   1   11.07    4.92
   1  -9  -4   19.19    5.57
   4  -1  -9   19.05    5.14
  -4   1  -9    6.70    5.95
   9   4   1    9.33    6.41
   4   1   9   25.32    6.51
  -1  -9   4   15.95    5.10
   9  -4  -1   16.51    6.37
  -9   5   1    6.77    4.47
   1  -9   5    8.41    5.54
   9   5  -1    3.81    6.58
  -5   1   9    2.01    3.52
  -1  -9  -5   -0.13    3.58
   5   1  -9    7.57    5.59
   5   1  -9    5.00    3.58
   9  -5   1    7.36    5.83
  -1   9   5    5.07    5.26
   1   9  -5    6.10    5.51
  -9  -5  -1    1.37    3.99
   5  -1   9   -2.58    2.97
  -5  -1  -9    1.04    4.67
   1  -9   5   -0.69    2.97
   9  -5  -1    1.48    3.97
  -9   5  -1    4.37    4.01
  -9  -5   1    3.05    3.79
   5   1   9    4.65    4.13
   9   5   1    7.53    6.37
  -5   1  -9    7.71    6.14
   5  -1  -9    3.48    3.34
  -5  -1   9    5.46    3.71
  -1  -9   5    1.68    3.72
   1  -9  -5    0.71    3.49
   9  -6   1   25.02    7.61
  -6   1   9   39.75    7.54
  -9  -6  -1   39.84    9.08
   1  -9   6   41.07    7.41
   1   9  -6   21.08    8.83
   1  -9   6   32.90    9.20
  -9   6   1   41.41    8.56
   9   6  -1   18.42    8.96
  -1  -9  -6   32.48    7.81
  -6  -1  -9   32.17    8.44
  -1   9   6   24.27    8.17
   6  -1   9   46.43    8.02
   6   1  -9   30.63    8.94
   6  -1  -9   33.57    6.85
   1   9   6   30.49    8.45
   6   1   9   46.06    8.37
   9  -6  -1   32.86    9.16
  -1  -9   6   35.70    7.05
   9   6   1   40.40   12.35
  -9   6  -1   37.15    7.62
  -6  -1   9   34.76    7.01
   1  -9  -6   12.38    5.70
  -9  -6   1   39.11    8.01
  -6   1  -9   47.38   10.32
  -7   1   9    5.73    4.04
   1  -9   7    3.40    3.96
  -1   9   7    1.28    4.94
  -1  -9  -7   -5.52    3.98
   1  -9   7    4.81    5.66
   9   7  -1   -1.33    6.73
  -9   7   1    3.83    4.86
  -7  -1  -9   -3.60    3.96
  -9  -7  -1    1.82    4.56
   1   9  -7   13.14    7.94
   9  -7   1   -1.64    4.17
   7   1  -9   -2.36    5.02
  -7   1  -9    6.20    5.20
  -1  -9   7    4.92    4.58
   1  -9  -7    0.79    3.83
  -9  -7   1   -3.51    2.98
  -9   7  -1    3.43    3.90
   9   7   1   -0.21    5.93
   7  -1  -9    5.04    4.18
   1   9   7    2.96    4.56
   7   1   9    5.22    4.18
   9  -7  -1    2.39    4.20
  -7  -1   9    2.20    4.13
   1   9  -8    3.83    6.94
   8   1  -9   18.66    8.05
   9  -8   1    5.39    5.61
  -1   9   8    2.72    4.01
  -9  -8  -1    5.41    5.63
  -8  -1  -9    4.62    6.27
   1  -9   8    6.50    4.69
  -8   1   9    5.75    4.07
  -1  -9  -8    0.88    4.24
  -9   8   1    4.58    4.86
   9   8  -1    9.35    7.57
  -1   9  -8   12.81    7.74
  -1  -9   8   -0.47    3.87
  -9  -8   1   -1.31    3.68
   1  -9  -8    3.94    4.52
   1   9   8   11.24    5.51
   9   8   1   20.10    7.69
   8   1   9   -1.89    4.33
   9  -8  -1    3.04    5.81
  -9   8  -1    2.63    4.46
  -8  -1   9    8.45    4.97
  -8   1  -9    9.23    7.51
  -2  -9   0   11.49    4.64
   0   2  -9    1.26    3.86
   9   0   2    4.53    5.00
  -2   9   0    3.63    2.96
   0   2   9    2.68    3.40
   0  -2   9   -2.06    2.57
  -9   0  -2    1.78    3.17
   0  -2  -9    0.88    3.65
   2   9   0    0.07    3.65
   2  -9   0    1.43    3.42
   9   0  -2   11.33    7.43
   2  -9   0    1.70    3.29
  -9   0   2    4.15    3.22
   2  -9   1   24.69    5.82
  -9   1   2   26.27    5.69
  -2  -9  -1   22.56    6.86
  -9  -1  -2   17.71    5.29
   9   1  -2   37.83   10.02
   2  -9   1   12.48    5.58
   1   2  -9   21.36    5.70
   1  -2   9   21.91    5.34
   1   2  -9   18.03    6.85
  -1   2   9   21.49    5.59
  -1  -2  -9   29.26    7.26
   2   9  -1   20.70    6.45
   9  -1   2   13.00    5.92
   1   2   9   35.01    7.12
   1  -2  -9   22.97    5.93
  -1   2  -9   25.42    7.49
  -2   9  -1   19.95    4.91
   2   9   1   27.52    7.22
   2  -9  -1   33.32    7.25
   2  -9  -1   27.27    6.29
  -2  -9   1   12.34    4.76
  -9  -1   2   18.86    4.62
   2  -9  -1   26.19    6.75
  -9  -1   2   36.77    6.24
  -9   1  -2   22.23    5.93
   9   1   2   23.12    6.85
  -1  -2   9   17.91    5.32
   9  -1  -2   21.28    7.46
   2   9  -2   -3.01    3.58
  -2  -9  -2   -2.75    2.48
   2  -9   2    0.67    3.03
   9   2  -2    2.53    5.01
  -9  -2  -2    1.34    3.32
  -2  -2  -9    4.14    3.97
   2   2  -9   -0.14    6.83
   2   2  -9    1.10    3.18
  -2  -9  -2    5.97    4.48
  -9  -2  -2    2.02    3.81
   2  -2   9    0.21    2.76
   9  -2   2    2.88    4.85
   2  -9   2    1.02    4.46
  -9   2   2    3.56    3.12
  -2   2   9    4.46    3.29
   2   2   9    4.92    3.30
  -9  -2   2   -0.97    2.68
   2  -9  -2    1.59    3.09
  -2   2  -9    3.42    4.59
   2   9   2    0.66    3.84
   2  -2  -9    9.02    4.35
   9  -2  -2    0.40    4.29
   2  -9  -2    0.23    3.35
   9   2   2   -4.11    3.94
   2  -9  -2   -0.44    2.88
  -9  -2   2    2.80    2.90
  -2  -2   9   -2.04    2.34
  -2  -9   2   -3.36    2.38
  -9   2  -2   -0.33    2.70
  -2   9  -2    5.53    3.10
   2   9  -3    9.37    5.67
   3   2  -9   24.61    5.40
  -2  -9  -3   23.68    6.84
  -2  -9  -3   26.20    6.15
  -9   3   2   12.14    4.82
  -3  -2  -9   17.82    5.68
  -9  -3  -2   25.07    6.52
   3   2  -9   18.67    7.68
  -3   2   9    8.38    3.86
  -9  -3  -2   19.57    5.61
   2  -9   3   24.10    7.68
   3  -2   9   17.02    5.19
   9  -3   2   14.30    6.22
   9   3  -2   10.56    7.01
   2  -9   3   22.96    5.21
   9  -3  -2   14.77    6.70
   3   2   9   19.47    5.70
  -9  -3   2   19.44    4.90
   2  -9  -3   16.20    5.10
   2  -9  -3   14.07    4.96
   9   3   2   13.56    5.83
  -2  -9   3   10.57    4.78
  -2   9  -3   11.66    3.99
   2   9   3    5.83    4.68
   3  -2  -9    7.37    4.56
  -9   3  -2   29.26    6.46
  -3   2  -9    9.11    6.36
  -3  -2   9   18.79    5.49
  -9  -4  -2    6.25    4.46
  -2   9   4   -1.33    3.90
  -9   4   2   16.83    5.54
  -4  -2  -9    8.02    5.57
  -4   2   9    4.07    3.77
  -2  -9  -4    5.51    4.59
   4  -2   9    5.66    3.59
  -2  -9  -4    3.49    4.45
   9  -4   2    5.48    4.80
   9   4  -2   -0.51    6.41
   2  -9   4    9.08    6.26
   2  -9   4    7.54    4.03
   2   9  -4   10.63    6.73
  -9  -4  -2    8.89    5.32
   4   2  -9    0.08    7.48
   9   4   2    3.03    5.06
   4  -2  -9    7.02    3.57
  -9  -4   2    9.22    4.95
   4   2   9    4.86    3.60
  -2  -9   4    5.39    4.40
  -9   4  -2    1.56    3.63
   2  -9  -4    4.69    3.84
  -4  -2   9    1.72    2.98
  -4   2  -9    6.77    5.16
   2  -9  -4    6.24    4.48
   9  -4  -2    2.31    5.19
   5  -2   9   83.90    8.70
   2   9  -5   46.61   11.89
   9  -5   2   52.07   10.60
   9   5  -2   40.78   11.70
   5   2  -9   58.28   12.32
  -2  -9  -5   58.55   10.05
   2  -9   5   59.75    8.28
  -5   2   9   61.83    8.92
  -2  -9  -5   45.29    9.67
  -2   9   5   53.01    9.50
  -9  -5  -2   53.52    9.77
  -5  -2  -9   63.53   11.06
   2  -9   5   33.06    8.69
  -9   5   2   48.00    8.67
  -9  -5   2   35.84    7.71
   5   2   9   34.66    7.58
   5  -2  -9   44.41    7.59
   2  -9  -5   63.83   10.09
   9  -5  -2   41.96    9.22
  -2  -9   5   55.18    9.11
  -9   5  -2   61.72    9.45
  -5  -2   9   45.66    8.12
  -5   2  -9   50.45   10.53
   9   5   2   74.22   12.53
   2   9  -6    8.83    7.14
   2  -9   6   12.91    4.77
  -2  -9  -6   12.93    6.21
  -6   2   9    5.66    3.74
  -9  -6  -2   13.81    5.24
   6   2  -9   27.42    9.85
   6  -2   9   17.74    5.27
   9  -6   2   18.58    6.61
  -9   6   2   21.30    6.52
  -6  -2  -9   15.73    6.38
   9   6  -2   13.11    9.45
  -2   9   6    5.84    4.56
   2  -9   6   11.64    6.67
  -9  -6   2   13.83    5.72
  -6   2  -9   12.92    6.36
   2   9   6    9.75    6.31
  -2  -9   6   19.24    6.16
  -9   6  -2   11.93    5.37
   9  -6  -2    7.91    5.90
   9   6   2   15.63    7.21
   6   2   9   11.63    4.46
   2  -9  -6   15.19    5.73
   6  -2  -9   19.87    6.05
  -6  -2   9   15.01    5.17
   9  -7   2   15.54    8.01
  -2  -9  -7    5.74    5.60
   7   2  -9    8.35    8.03
  -7   2   9   19.50    5.56
   2   9  -7   14.00    8.16
   9   7  -2   19.08   10.15
  -9   7   2   21.75    7.46
  -7  -2  -9   14.62    6.00
  -9  -7  -2   17.65    7.16
   2  -9   7   22.46    8.45
  -2   9   7   21.74    6.87
  -7  -2   9   19.46    6.40
   7  -2  -9   26.13    6.83
  -9   7  -2   11.00    5.24
   2  -9  -7   22.33    7.43
  -9  -7   2   19.96    6.52
   9   7   2   12.28    7.92
  -2  -9   7   15.38    6.14
   7   2   9   17.97    5.92
   2   9   7   16.41    6.85
  -7   2  -9   20.99    7.35
   9  -7  -2   20.56    7.59
   2  -9   8    5.18    6.35
  -2   9   8   -0.08    3.58
   8   2  -9   35.81   10.98
   2   9  -8    5.72    8.92
  -2  -9  -8    4.75    5.73
  -9   8   2   20.36    7.12
  -8  -2  -9   16.66    6.70
   9   8  -2    4.79    9.09
  -8   2   9   14.41    5.67
  -9  -8  -2    1.73    4.88
   9  -8   2    8.52    6.45
  -2  -9   8    4.52    4.34
   2   9   8    8.35    6.10
  -8   2  -9    9.50    6.83
   2  -9  -8   15.90    6.70
  -8  -2   9   19.83    6.76
  -9  -8   2   10.63    5.71
   9  -8  -2    6.34    5.71
   8   2   9    9.51    5.27
  -9   8  -2    5.19    4.80
   9   8   2   43.69   10.89
   8  -2  -9   15.04    5.91
  -9   0   3   61.87    7.34
   3   9   0   57.45   11.10
   0   3  -9   66.12    9.82
  -3   9   0   64.10    8.25
   0  -3  -9   54.32    9.80
   0  -3   9   64.40    7.95
   9   0   3   75.71   12.04
   0   3  -9   64.28   10.66
  -9   0  -3   60.06    9.13
  -3  -9   0   50.25    9.06
   3  -9   0   34.95    8.02
   9   0  -3   54.53   12.23
   0   3   9   57.29    9.01
  -1   3   9   32.17    7.21
  -3  -9  -1   32.04    7.90
   1  -3   9   31.50    6.34
   3  -9   1   16.28    5.30
   9   1  -3   27.39    9.76
   3   9  -1   17.91    6.69
   1   3  -9   64.36   11.16
  -9   1   3   26.26    5.83
  -9  -1  -3   23.93    5.77
  -1  -3  -9   33.72    8.82
   9  -1   3   39.79    8.91
  -3   9   1   34.64    6.90
   1   3  -9   43.20    7.55
  -9  -1   3   34.21    6.24
  -1   3  -9   32.89    7.27
   9   1   3   25.89    7.59
  -3  -9   1   41.75    8.40
  -3   9  -1   28.36    5.98
   1  -3  -9   30.21    7.25
   1   3   9   30.34    6.82
  -9  -1   3   34.29    6.04
  -1  -3   9   23.81    5.40
  -9   1  -3   33.59    7.11
   3  -9  -1   20.76    6.02
   3   9   1   23.40    7.04
  -1   3  -9   38.50    8.54
   9  -1  -3   22.50    7.91
   9  -2   3    9.85    5.57
   2  -3   9   20.09    5.39
  -9  -2  -3   15.60    5.61
  -9   2   3   21.23    5.79
  -2   3   9   12.11    4.57
  -2  -3  -9    8.33    5.27
   3  -9   2   21.11    6.71
  -3  -9  -2    9.57    5.38
   3   9  -2   23.31    9.16
  -9  -2  -3   16.58    5.61
   2   3  -9   13.97    7.67
   9   2  -3   31.42   10.83
   2   3  -9   19.89    5.04
   3  -9  -2   17.62    5.56
   3   9   2   16.51    6.46
  -9  -2   3   15.74    4.89
   2  -3  -9   19.63    6.15
  -3   9  -2   20.65    5.34
  -2   3  -9   15.58    6.38
   9   2   3   26.01    7.15
   9  -2  -3   27.59    8.59
  -9   2  -3    8.61    4.06
  -3  -9   2   17.19    5.59
   2   3   9    7.15    3.96
  -2  -3   9   21.93    5.13
   3  -9  -2   14.05    5.10
  -3  -3  -9   10.81    5.53
  -3   3   9   19.86    5.58
  -3   9   3   24.06    6.80
  -3  -9  -3   32.65    7.59
  -9  -3  -3   22.49    6.41
  -9  -3  -3   29.00    7.61
   9   3  -3   38.01   11.64
  -3  -9  -3   28.44    6.69
   3   3  -9   31.49   10.34
   9  -3   3   18.28    6.88
  -9   3   3   39.24    6.98
   3   9  -3   30.61    9.57
   3  -3   9   28.21    6.08
   3  -9   3   28.37    7.88
  -3   9  -3   32.98    6.73
   3   9   3   35.97    8.43
   3  -9  -3   31.03    6.32
   3  -9  -3   40.55    7.63
  -9  -3   3   40.59    7.21
   3  -3  -9   22.29    6.39
  -3  -3   9   28.76    6.13
   3   3   9   23.92    6.29
   9  -3  -3   20.90    6.75
  -3   3  -9   49.16   10.56
   9   3   3   34.21    8.49
  -3  -9   3   29.28    7.06
  -9   3  -3   28.91    6.89
  -9   4   3    0.77    3.53
   9  -4   3   -0.07    4.56
  -9  -4  -3    6.88    4.85
   3   9  -4   25.12    9.13
  -3  -9  -4   12.99    5.40
   4  -3   9    8.03    4.23
  -9  -4  -3   10.89    5.67
  -3  -9  -4    1.95    3.44
  -3   9   4   11.17    4.94
  -4   3   9    8.19    4.04
  -4  -3  -9   15.70    5.86
   9   4  -3    9.52    9.06
   4   3  -9    9.28    8.71
   3  -9   4    1.21    4.68
  -9  -4   3    3.96    4.12
  -4   3  -9   13.06    6.60
   9   4   3    8.23    5.15
   4  -3  -9    5.57    4.23
  -4  -3   9    8.59    4.15
   3  -9  -4    7.21    4.27
  -9   4  -3    4.83    4.32
   4   3   9    6.77    3.78
  -3  -9   4   10.26    4.84
  -3   9  -4   10.58    4.57
   3  -9  -4    7.50    4.60
   9  -4  -3    6.23    5.46
  -9   5   3    2.47    3.62
   5   3  -9    1.54    8.61
  -9  -5  -3   -2.60    4.01
   9   5  -3    2.54    6.56
  -3  -9  -5   10.62    5.53
  -9  -5  -3    9.63    4.98
   9  -5   3   10.49    6.46
   5  -3   9    4.70    3.58
  -3   9   5    4.55    4.21
   3   9  -5   16.02    8.35
   3  -9   5   -2.33    4.12
  -5  -3  -9    8.61    5.56
  -3  -9  -5    6.33    5.14
  -5   3   9    3.38    3.65
  -9   5  -3   -0.18    3.75
  -5   3  -9    0.92    4.91
   5  -3  -9    5.28    4.14
  -5  -3   9   10.75    4.82
   5   3   9    3.85    3.53
  -3  -9   5    3.98    4.24
   9  -5  -3   12.29    6.38
  -9  -5   3    0.96    3.12
  -3   9  -5    7.44    4.51
   3  -9  -5    8.53    4.76
   9   5   3    2.39    5.04
  -9  -6  -3   18.02    6.76
  -3   9   6    2.63    3.27
   6   3  -9   20.92   10.20
  -6  -3  -9    8.60    5.09
   9  -6   3    0.64    3.64
  -6   3   9    2.84    3.86
  -3  -9  -6   22.09    7.89
  -9   6   3    5.80    4.45
   3  -9   6    6.59    5.89
   9   6  -3   -3.75    6.57
   3   9  -6    8.96    7.92
   6  -3  -9   18.51    6.07
  -9  -6   3    4.29    4.18
   6   3   9    7.19    5.26
  -9   6  -3    3.88    4.03
   9   6   3   14.15    6.01
   3  -9  -6   11.48    5.36
   3   9   6   10.79    5.65
  -3  -9   6    9.92    5.61
  -6  -3   9   15.97    5.72
  -6   3  -9    4.23    5.85
   9  -6  -3    7.72    6.30
  -9  -7  -3    0.16    4.15
   3  -9   7    2.03    6.01
   9   7  -3    7.77    9.64
  -9   7   3    1.47    3.99
  -7   3   9    8.96    4.20
  -3   9   7   10.03    5.06
   7   3  -9   12.13    8.45
  -3  -9  -7   17.34    7.10
   9  -7   3   25.16    8.84
  -7  -3  -9   21.77    7.19
   3   9  -7    6.42    7.90
   9   7   3   13.53    6.82
  -7  -3   9   22.27    6.41
   3   9   7   23.47    8.12
  -3  -9   7   17.05    6.58
   7   3   9   13.28    5.38
  -9   7  -3   17.74    6.81
   7  -3  -9    5.30    4.60
  -9  -7   3    4.96    4.66
   9  -7  -3   12.60    5.94
   3  -9  -7    8.11    5.55
  -7   3  -9   -0.62    4.93
   3   9  -8    6.18    9.88
   8   3  -9   -1.22    8.56
   9  -8   3   -1.23    4.84
  -9   8   3    3.99    4.92
   3  -9   8    3.88    6.79
  -3  -9  -8    6.71    5.53
  -9  -8  -3   -0.09    4.97
  -8  -3  -9   11.70    5.68
   9   8  -3    3.11    8.04
  -3   9   8    0.98    4.42
  -9  -8   3    8.51    5.47
   9  -8  -3    5.40    5.50
   3  -9  -8    5.37    6.05
  -9   8  -3    5.49    4.97
   3   9   8    2.58    5.11
   8   3   9    7.94    4.65
   8  -3  -9   18.18    6.52
  -3  -9   8   12.67    6.27
  -8  -3   9   -0.57    4.17
  -8   3  -9   15.23    7.17
  -4   9   0   10.23    4.45
   9   0  -4   29.21    9.30
   0  -4   9   27.66    5.91
   0   4  -9   42.77    8.80
   0   4  -9   14.31    5.53
   0   4   9   14.10    4.87
   4  -9   0   31.05    7.57
   4   9   0   18.94    7.67
   0  -4  -9   25.88    6.87
   9   0   4   23.13    7.12
  -9   0   4   10.33    4.13
  -9   0   4   21.33    4.89
  -4  -9   0   19.90    6.13
  -9   0  -4   22.63    6.32
   9   1  -4    0.91    5.52
   4  -9   1    1.40    3.59
  -4   9   1    8.22    4.35
  -1  -4  -9   -1.41    3.25
  -9   1   4    1.20    2.94
  -1   4   9   11.47    4.95
  -9  -1  -4   12.57    5.81
   9  -1   4    1.01    3.55
   4   9  -1   -3.44    4.46
  -4  -9  -1    4.23    4.41
   1  -4   9    2.99    3.62
   1   4  -9    0.41    4.80
  -1   4  -9    0.55    4.17
   9   1   4    9.48    5.41
   4  -9  -1    0.67    3.80
  -9  -1   4    3.33    3.11
  -9  -1   4   -1.09    2.72
  -9   1  -4    0.38    3.61
  -1  -4   9    1.63    2.84
  -1   4  -9    3.52    4.13
   4   9   1   12.93    6.50
  -4   9  -1    6.92    4.31
   1   4   9   -1.47    2.75
   9  -1  -4    5.22    5.42
   1  -4  -9    0.24    3.11
  -4  -9   1    5.89    4.27
   2   4  -9   13.26    8.03
  -9   2   4   13.59    4.80
  -4  -9  -2   19.55    6.01
   2  -4   9   12.66    6.30
  -2   4   9   14.86    5.01
   2  -4   9   18.98    5.15
   4   9  -2   17.56    7.99
   9   2  -4   16.76    8.40
  -9  -2  -4   13.44    5.90
   9  -2   4   16.48    6.48
   4  -9   2   13.66    5.09
  -4   9   2   16.18    5.53
  -2  -4  -9   25.08    6.92
  -2  -4   9    5.85    3.73
  -2   4  -9   19.21    6.93
  -9   2  -4   16.53    5.96
   9  -2  -4   24.55    8.12
  -9  -2   4   18.52    5.42
   2  -4  -9   13.43    5.84
   4   9   2    0.53    5.17
   2   4   9    9.79    4.56
  -4   9  -2   26.47    5.97
   9   2   4   17.44    6.86
   4  -9  -2    9.82    5.00
  -4  -9   2    8.97    4.68
  -3   4   9   39.14    7.82
   3  -4   9   55.75    9.93
   4   9  -3   24.18    9.64
   3   4  -9   39.04   11.72
  -9   3   4   39.66    7.98
  -9  -3  -4   37.46    8.11
  -4  -9  -3   45.07   10.11
  -9  -3  -4   37.44    7.90
  -3  -4  -9   44.82    9.78
   4  -9   3   29.45    8.27
   3  -4   9   32.09    6.31
   9   3  -4   13.67    9.24
   9  -3   4   33.99    8.89
   9  -3  -4   34.07    8.67
   4   9   3   41.82    8.98
  -9   3  -4   36.34    8.82
   4  -9  -3   33.91    7.85
   4  -9  -3   35.94    7.81
   3   4   9   20.85    6.48
  -4   9  -3   35.84    7.23
   9   3   4   34.17    8.09
   3  -4  -9   49.44   10.01
  -3  -4   9   37.93    7.84
  -9  -3   4   27.16    6.50
  -4  -9   3   30.89    7.63
  -3   4  -9   31.37    9.35
   4   9  -4   -3.95    4.71
   9  -4   4    1.19    4.42
  -4  -9  -4   -6.09    3.59
   9   4  -4    0.68    7.54
  -9   4   4    1.34    3.77
   4  -9   4   -3.05    3.12
  -9  -4  -4   -5.12    3.86
   4  -4   9   -2.20    4.43
  -4   4   9   -0.27    3.20
  -4  -4  -9   -0.01    3.37
   4  -4   9    2.04    3.05
  -4  -9  -4   -1.22    4.19
   4   4  -9  -13.31    7.17
  -9  -4  -4    1.69    3.78
   9  -4  -4    1.08    4.09
   4  -4  -9   -2.97    2.80
   4   4   9    4.88    3.80
  -9   4  -4   -5.36    2.79
   4  -9  -4    4.46    4.21
   4  -9  -4    1.06    3.33
   9   4   4    1.57    3.92
  -4   9  -4   -1.44    3.18
  -9  -4   4   -1.16    3.56
  -4  -4   9    3.76    3.23
  -4   4  -9   -1.84    4.47
  -4  -9   4    1.02    3.36
  -9  -5  -4   10.60    5.88
  -5   4   9   11.23    5.05
   4   9  -5   12.00    7.97
  -9   5   4   11.09    5.50
  -4  -9  -5   15.96    6.08
  -4  -9  -5    6.13    4.93
  -9  -5  -4    8.10    5.17
   9  -5   4   14.18    6.68
   4  -9   5    8.27    6.64
  -5  -4  -9    6.14    4.56
   5  -4   9    5.08    3.55
   5   4  -9   12.12    9.78
   9   5  -4   -0.36    8.56
  -9  -5   4   10.27    4.65
  -5   4  -9   -4.39    4.00
  -5  -4   9    2.83    3.94
   5   4   9   11.41    5.00
   9  -5  -4   13.00    6.60
   4  -9  -5    0.99    4.09
  -9   5  -4   19.36    5.75
   5  -4  -9    6.37    4.60
  -4   9  -5   10.08    4.77
   9   5   4   15.86    6.30
  -4  -9   5   22.52    6.46
   6   4  -9   19.54   11.32
  -9   6   4   33.16    8.76
  -6   4   9   29.11    6.49
  -4  -9  -6   30.47    8.04
   9  -6   4   17.22    7.76
  -9  -6  -4   32.72    7.95
   4  -9   6   19.97    7.68
   9   6  -4   19.49   10.54
  -6  -4  -9   27.44    7.27
   4   9  -6   14.82    8.31
  -9  -6   4   28.37    7.72
  -6  -4   9   26.75    7.04
  -6   4  -9   26.55    8.15
   9  -6  -4   31.39    8.98
   6  -4  -9   32.57    7.96
   6   4   9   14.28    5.14
  -4   9  -6   31.69    7.68
  -9   6  -4   15.77    6.05
  -4  -9   6   38.20    9.10
   4  -9  -6   12.27    5.46
   9   7  -4   -8.57    7.59
   4  -9   7    1.57    4.50
   9  -7   4   -1.01    4.96
  -7  -4  -9    6.47    5.75
  -4  -9  -7   -2.57    5.26
  -9   7   4   -3.49    4.22
   7   4  -9    1.76    9.22
   4   9  -7   -1.45    7.55
  -9  -7  -4   -1.95    3.88
   4   9   7   -2.89    4.02
  -7  -4   9    0.15    3.70
   7   4   9    0.05    4.34
   9  -7  -4    1.17    4.25
   4  -9  -7    1.51    4.13
  -7   4  -9    1.78    5.45
  -9   7  -4    4.05    3.76
  -9  -7   4    7.41    5.19
  -4  -9   7   -1.25    3.42
   7  -4  -9   -1.41    3.23
   8   4  -9   18.84   10.35
  -4  -9  -8    0.79    6.00
   9  -8   4    9.33    7.23
   9   8  -4    3.83   10.53
   4  -9   8   -0.29    5.91
  -9   8   4   24.93    9.43
  -8  -4  -9    2.33    5.56
   4   9  -8    0.60    9.43
  -9  -8  -4    4.93    5.48
   9  -8  -4    6.08    5.40
  -8  -4   9    1.94    4.44
  -9  -8   4   17.59    6.63
   4   9   8    3.97    5.42
   8  -4  -9    5.76    4.09
   8   4   9    6.62    5.52
  -8   4  -9   17.08    7.10
  -9   8  -4    8.13    5.31
   4  -9  -8   11.59    6.13
  -4  -9   8    7.36    5.68
  -5  -9   0   -2.18    2.81
   5   9   0   -2.46    5.41
   0  -5  -9    4.28    4.03
  -9   0   5    1.77    3.15
  -9   0   5   -0.20    3.21
  -9   0  -5    6.69    4.84
   5  -9   0    0.02    3.85
   9   0   5   -1.95    2.39
   9   0  -5    0.87    5.82
  -5   9   0   -1.07    3.36
   0   5   9    1.85    4.01
   0   5  -9    4.98    5.58
   0  -5   9   -1.70    2.65
   9  -1   5   24.75    8.04
   1  -5   9   21.10    5.46
   1   5  -9    7.05    7.25
  -5  -9  -1   19.22    7.52
  -5   9   1   28.26    7.74
   5  -9   1    2.76    4.06
   5   9  -1    5.27    7.38
  -9   1   5   15.44    5.25
   9   1  -5   12.37    7.35
  -1  -5  -9   16.71    6.33
  -1   5   9   15.52    5.81
  -9  -1  -5   21.14    6.92
   9  -1  -5   20.56    7.99
   5   9   1    2.66    6.52
   9   1   5   15.05    5.92
   1   5   9    3.21    3.68
  -9  -1   5   12.51    4.32
  -9   1  -5    2.97    3.80
  -1   5  -9   10.86    5.46
  -1   5  -9   15.01    5.70
  -1  -5   9   13.58    4.62
   1  -5  -9    7.65    4.81
  -5  -9   1   10.65    4.77
  -5   9  -1    4.11    3.91
   5  -9  -1   17.72    6.33
  -2   5   9    7.07    5.14
  -2  -5  -9    7.87    5.28
   2   5  -9   10.77    7.80
   5  -9   2   20.32    7.16
   2  -5   9   19.14    7.29
  -9   2   5   12.20    4.81
  -5   9   2    1.80    4.36
  -5  -9  -2    1.16    4.18
   5   9  -2   10.25    7.44
   9  -2   5   11.19    5.78
  -9  -2  -5   13.77    6.02
   2  -5   9    5.17    3.47
   9   2  -5    1.65    5.52
   5   9   2   27.12    8.71
   9  -2  -5    9.63    5.60
  -5   9  -2    9.88    4.55
   2   5   9   20.71    6.03
  -2  -5   9    6.35    4.20
  -2   5  -9   11.95    6.11
   2  -5  -9    8.59    4.70
  -9  -2   5    7.10    4.03
  -9   2  -5   19.85    6.88
   5  -9  -2   36.53    8.59
   9   2   5    8.15    5.22
  -5  -9   2   18.37    6.36
   9   2   5    4.82    4.24
   3  -5   9   -0.05    5.26
   9  -3   5    6.26    4.83
   5   9  -3   -0.53    6.19
  -5  -9  -3    2.77    4.63
   9   3  -5   -4.41    7.03
   5  -9   3   -1.23    4.69
   3  -5   9   -0.41    2.78
   3   5  -9    4.11    8.27
  -3  -5  -9    7.07    5.37
  -9   3   5    4.38    3.74
  -9  -3  -5    1.96    5.02
  -3   5   9    2.13    4.04
   3  -5  -9    1.16    4.05
  -9  -3   5    5.62    3.93
  -9   3  -5    1.04    4.49
   5  -9  -3    0.89    4.37
   9   3   5   10.24    6.13
  -5  -9   3    3.06    4.48
  -5   9  -3   -2.96    3.06
   5   9   3  -10.84    6.14
  -3  -5   9    1.51    3.80
  -3   5  -9   -0.59    5.19
   3   5   9    1.30    3.47
   9  -3  -5    0.21    4.32
   9   3   5   10.30    5.04
   4  -5   9   22.60    5.47
  -9   4   5   29.11    7.18
   4   5  -9    1.85    8.11
   9  -4   5   11.43    5.71
  -4  -5  -9   31.86    8.52
  -4   5   9   26.33    6.65
   5  -9   4   28.45    7.93
   4  -5   9   26.10    8.25
  -9  -4  -5   39.86    8.98
  -5  -9  -4   25.36    7.68
   9   4  -5   19.97   10.51
   5   9  -4   26.91   10.47
  -5  -9   4   23.05    6.92
   4  -5  -9   14.87    6.01
  -5   9  -4   24.07    6.51
   4   5   9   15.27    6.38
   5  -9  -4   25.68    7.31
   5  -9  -4   25.32    6.72
  -4  -5   9   23.78    6.45
  -4   5  -9   28.68    8.39
   9  -4  -5   29.56    8.28
  -9   4  -5   18.39    6.51
  -9  -4   5   15.70    5.94
  -5  -5  -9    6.51    4.98
   9   5  -5   19.54   11.22
  -9  -5  -5    1.35    4.70
   5   9  -5    5.02    8.05
  -5  -9  -5    6.79    5.36
  -9   5   5    4.62    5.08
   5  -5   9    9.87    6.39
   5   5  -9   10.84   11.04
   9  -5   5   13.48    6.67
  -9  -5  -5    4.54    5.26
  -5   5   9    9.86    5.29
   5  -9   5    1.31    4.44
   5  -5  -9    5.77    4.52
   5  -9  -5    6.21    5.28
  -9  -5   5    5.62    4.79
  -5   5  -9    6.41    6.30
  -5  -5   9    3.90    4.51
  -5   9  -5    2.12    3.90
   9  -5  -5   10.94    6.63
   5   5   9    1.04    3.68
  -9   5  -5    8.09    5.26
  -5  -9   5    6.05    4.82
  -9  -6  -5    6.80    5.87
  -6  -5  -9    0.57    3.93
   6  -5   9   -6.22    4.50
   5   9  -6   -0.37    8.60
   9   6  -5   -6.29    8.94
   6   5  -9   14.17   11.60
  -9   6   5    5.62    4.52
  -5  -9  -6   19.11    8.11
  -9  -6  -5    6.29    5.61
   9  -6   5    5.03    5.36
  -6   5   9    7.87    4.01
   5  -9   6   -3.07    5.07
  -5  -9  -6   10.29    5.99
  -5  -9   6    7.69    5.30
  -5   9  -6   -0.59    4.45
  -9   6  -5    3.03    4.75
   9  -6  -5    8.64    4.96
  -9  -6   5    5.19    5.12
   6   5   9   11.14    5.97
  -6  -5   9    2.79    4.38
  -6   5  -9   -2.31    5.13
   5  -9  -6    0.76    3.68
   6  -5  -9    3.04    4.29
  -5  -9  -7   23.72    7.72
   7   5  -9   13.27   11.88
  -9   7   5   19.43    7.65
   5  -9   7   19.60    9.09
   9  -7   5    8.68    6.69
   5   9  -7   -0.68    8.83
  -7  -5  -9   21.14    7.04
   9   7  -5   10.36   10.51
  -9  -7  -5   27.39    8.62
  -9  -7   5   19.22    7.04
  -7   5  -9   23.22    8.55
  -5   9  -7   18.01    6.66
  -9   7  -5    6.86    5.37
   5  -9  -7   30.06    8.99
  -7  -5   9   27.00    7.71
   9  -7  -5   24.30    7.74
  -5  -9   7   20.23    7.39
   7  -5  -9   16.98    5.98
   7   5   9   21.05    7.15
   5   9   7   18.42    7.37
  -8  -5  -9   12.55    6.67
  -9   8   5   10.63    6.30
   8   5  -9   19.87   10.90
   5   9  -8   18.36   11.93
   9   8  -5   -4.89    9.70
   5  -9   8   -3.39    5.69
   9  -8   5    8.60    7.69
  -9  -8  -5    5.92    6.22
  -5  -9  -8    2.52    4.89
  -8   5  -9    9.82    7.03
  -9  -8   5    4.45    5.85
   8   5   9   10.99    6.25
  -8  -5   9   17.27    7.37
   5  -9  -8   16.18    7.67
   9  -8  -5    0.07    4.04
  -5  -9   8    8.14    5.83
  -9   8  -5   10.00    5.63
   5   9   8   12.35    6.52
   8  -5  -9   18.75    7.29
  -6  -9   0   -1.01    3.43
   0   6   9   -5.55    2.28
  -9   0   6   -1.22    2.80
  -6   9   0   -0.67    3.44
   0   6  -9   -2.49    4.72
  -9   0  -6    1.62    4.29
   9   0  -6    1.13    5.46
   9   0   6    3.76    3.68
   0  -6   9   -3.48    2.56
   6  -9   0    1.48    3.85
   0  -6  -9    0.69    3.90
   6   9   0   -0.19    6.66
   9   1  -6    8.84    6.49
  -6  -9  -1   -2.70    3.52
  -9  -1  -6    3.64    4.66
  -1  -6  -9    3.03    5.17
   6  -9   1   16.24    6.92
  -6   9   1    8.09    4.94
  -1   6   9    0.10    3.45
   1   6  -9    2.10    6.05
  -9   1   6    5.68    4.35
   1  -6   9    7.34    4.10
   6   9  -1   -2.33    7.31
   9  -1   6   -5.21    3.77
   1  -6  -9    3.21    5.03
  -1   6  -9   12.48    6.13
  -6  -9   1    1.26    3.87
   6   9   1    3.24    7.10
   6  -9  -1    1.82    4.57
  -9  -1   6    7.05    3.93
  -1  -6   9    5.90    4.03
   1   6   9    2.96    3.47
  -9   1  -6    3.83    4.66
  -6   9  -1   12.04    5.27
   9  -1  -6    5.42    6.14
   6  -9   2   12.68    6.09
   2  -6   9    2.32    5.94
  -9  -2  -6    5.64    5.43
   9   2  -6   18.13    8.52
  -2   6   9   -3.01    3.23
   6   9  -2   -0.56    6.89
   2   6  -9   -3.75    6.21
  -6  -9  -2    3.50    4.43
   9  -2   6    7.80    5.18
  -6   9   2   -0.23    4.93
  -2  -6  -9    3.01    4.50
  -9   2   6    5.05    4.28
   2  -6   9    3.86    3.84
  -2  -6   9    2.03    3.89
   6  -9  -2    9.58    6.15
  -6  -9   2    4.58    4.35
  -2   6  -9    1.87    6.00
   6   9   2   -3.53    6.43
   2   6   9   -0.83    2.45
   9  -2  -6    5.68    5.75
   2  -6  -9   10.41    5.27
   9   2   6    3.50    4.28
  -6   9  -2    3.98    4.67
  -9  -2   6    1.95    3.87
  -9   2  -6    4.67    4.34
   6  -9   3    8.22    6.26
   6   9  -3   13.49    9.62
   3  -6   9    8.64    4.27
  -9   3   6    2.53    3.90
   3  -6   9    3.69    5.60
  -6  -9  -3   17.54    6.75
   3   6  -9   23.72   11.33
   9   3  -6   12.29    9.53
  -9  -3  -6    5.74    5.71
  -3   6   9    8.38    4.91
  -3  -6  -9    7.38    5.20
  -6   9   3    3.65    4.93
   9  -3   6   10.48    5.66
   9  -3  -6    6.32    5.73
  -9  -3   6   12.39    5.21
  -3  -6   9    4.02    3.93
  -9   3  -6    7.24    4.95
   3  -6  -9    7.50    4.43
   3   6   9    6.68    4.79
   6  -9  -3    6.61    4.93
  -3   6  -9   10.25    6.62
  -6  -9   3   10.17    5.25
   9   3   6    4.29    4.70
  -6   9  -3   18.43    6.31
  -4   6   9   23.32    6.63
  -9   4   6   30.12    7.42
  -6  -9  -4   32.18    8.66
  -4  -6  -9   29.79    8.62
   4  -6   9   27.20    8.44
   6   9  -4   13.39    9.48
   4   6  -9    8.39    9.72
   9   4  -6   32.86   11.63
   6  -9   4   33.23    9.50
  -9  -4  -6   16.25    6.87
   9  -4   6   27.52    8.30
  -9   4  -6   14.92    7.11
  -4   6  -9   34.66    9.81
   9   4   6   30.10    7.72
   9  -4  -6   24.94    8.29
  -9  -4   6   23.16    7.23
   4  -6  -9   28.17    7.88
   4   6   9   40.48    8.89
   6  -9  -4   30.12    7.94
  -6  -9   4   16.37    5.87
  -6   9  -4   38.17    8.43
  -4  -6   9   31.29    7.14
  -5   6   9    1.28    3.74
  -6  -9  -5   -5.77    3.86
   6   9  -5   -6.42    7.38
   5  -6   9    6.09    5.77
   9   5  -6   -5.29    8.02
   6  -9   5    2.13    5.10
  -9   5   6    6.15    5.11
  -9  -5  -6    2.59    4.46
   5   6  -9   -1.78    9.17
   9  -5   6   -5.63    3.70
  -5  -6  -9   -0.03    3.96
  -9  -5   6   -0.89    4.01
   6  -9  -5   -0.32    4.67
   9  -5  -6    4.05    4.28
  -9   5  -6   -0.05    4.51
  -5   6  -9   -3.84    5.04
  -5  -6   9    5.68    4.44
   6  -9  -5   -4.54    2.99
   5   6   9    4.88    5.17
  -6  -9   5    4.09    4.67
   9   5   6   -0.31    3.91
  -6   9  -5    4.75    4.35
   5  -6  -9    7.87    5.06
   6   6  -9    5.57   12.56
   9   6  -6   -4.77    8.63
   6   9  -6   10.04   12.03
  -6  -9  -6    0.77    5.05
   6  -6   9   -3.34    4.86
  -9  -6  -6    9.56    5.86
   9  -6   6    0.43    4.35
  -9   6   6   -2.78    4.08
  -6  -6  -9    3.44    4.74
   6  -9   6    3.91    6.24
  -9  -6   6    6.23    4.96
  -6  -6   9   -2.21    3.69
   6  -9  -6   -2.80    3.58
  -6   9  -6    2.18    4.87
   9   6   6   -0.54    4.31
   6  -6  -9   -0.20    3.77
  -6  -9   6   -1.39    3.97
   6   6   9    3.21    4.98
   9  -6  -6   -0.37    4.08
  -9   6  -6   -1.12    4.69
  -6   6  -9    3.00    5.70
  -9   7   6    0.41    4.35
   9  -7   6    0.47    5.56
   7  -6   9    1.56    6.48
   7   6  -9   -1.12   10.72
   9   7  -6   -2.75   10.33
  -6  -9  -7   -2.40    4.85
   6  -9   7   -1.82    5.54
   6   9  -7   11.88   11.32
  -7  -6  -9    5.22    5.63
   6   9   7    3.25    5.36
  -7   6  -9    4.66    5.82
   9  -7  -6    6.70    5.22
   7  -6  -9   13.33    6.39
  -9   7  -6   -1.74    5.40
   7   6   9    7.59    6.02
  -6   9  -7   -0.74    4.80
   6  -9  -7   -1.47    3.31
  -9  -7   6    3.07    5.53
  -7  -6   9   -1.05    4.40
  -6  -9   7    3.10    4.88
  -8  -6  -9   30.59    8.45
  -9   8   6   45.08   10.94
  -6  -9  -8   62.61   11.26
   6   9  -8   72.56   21.12
   6  -9   8   43.15   12.99
   9  -8   6   36.14   11.63
   8   6  -9   47.20   16.92
   9   8  -6   25.98   14.70
  -8  -6   9   43.82   10.41
   6  -9  -8   39.92    9.44
   8  -6  -9   67.90   12.44
  -6  -9   8   45.24   10.58
  -8   6  -9   26.29    8.88
  -6   9  -8   55.12   11.35
  -9   8  -6   38.51    9.65
   8   6   9   20.94    8.57
   6   9   8   39.55   10.06
  -9  -8   6   46.97   11.01
  -9   0  -7   -2.50    4.34
  -7  -9   0   -4.46    3.01
   0   7  -9   -3.37    4.86
   9   0  -7    6.98    6.29
   7   9   0   -9.59    6.02
  -9   0   7    1.18    3.79
   0  -7  -9   -4.71    4.69
   0  -7   9   -2.35    3.59
  -7   9   0   -0.23    3.94
   7  -9   0    0.20    4.06
   0   7   9    2.92    3.49
   7   9  -1    1.16    7.75
   1   7  -9   -1.07    5.79
  -9   1   7    7.11    4.36
  -1   7   9    7.04    5.00
  -7   9   1    6.30    4.87
  -1  -7  -9    9.13    5.93
  -7  -9  -1    2.59    4.49
   1  -7   9   12.66    5.39
   7  -9   1    4.30    4.57
  -9  -1  -7    9.26    6.61
   9   1  -7   17.09    8.47
   9  -1  -7   12.33    6.65
   1   7   9    9.41    5.17
  -1   7  -9    0.37    5.31
   7   9   1  -10.28    5.10
  -9   1  -7   -2.74    4.15
  -7  -9   1    6.49    5.21
  -1  -7   9   -2.75    2.90
   1  -7  -9    2.05    4.28
   7  -9  -1    0.56    4.60
  -7   9  -1    5.33    4.59
  -9  -1   7    0.54    3.34
  -2  -7  -9   -0.04    3.90
  -7   9   2    5.18    5.54
   2  -7   9   -3.50    5.36
   7  -9   2    4.86    6.13
   9  -2   7    4.75    4.84
   9   2  -7    9.71    8.39
   7   9  -2    3.42    8.60
  -7  -9  -2    1.79    4.42
   2   7  -9    2.41    6.77
   2  -7   9    5.86    4.49
  -2   7   9    3.91    4.45
  -9   2   7    3.96    4.19
  -9  -2  -7    7.03    6.25
  -7  -9   2   12.94    6.25
   9  -2  -7   14.21    7.07
  -7   9  -2    4.89    5.01
   7  -9  -2    1.85    4.18
  -2  -7   9    1.94    3.73
   2   7   9    0.99    4.20
   9   2   7    2.39    4.51
  -9  -2   7    9.47    4.88
  -9   2  -7    7.86    6.29
   7   9   2   -3.58    7.10
   2  -7  -9    9.50    5.20
  -7   9   3    0.30    4.36
   9   3  -7   10.18    8.42
  -7  -9  -3   -3.33    4.05
  -9   3   7    3.62    3.75
  -9  -3  -7    6.86    5.64
   3   7  -9   -0.04    8.90
   7   9  -3  -11.28    6.80
  -3  -7  -9    2.30    4.81
   3  -7   9    9.87    7.03
   7  -9   3    8.73    6.25
   3  -7   9   -2.76    3.27
  -3   7   9   -4.23    3.52
   9  -3   7   -3.69    4.13
  -9  -3   7    8.61    5.24
  -7   9  -3    5.95    4.64
   9  -3  -7    4.93    5.50
   7  -9  -3    2.82    4.55
  -7  -9   3   -4.07    3.08
   9   3   7    5.01    5.18
   3  -7  -9   -2.40    2.96
  -9   3  -7   -3.70    4.28
  -3  -7   9   -0.44    3.67
   3   7   9   -2.46    3.83
   9   4  -7   16.68   10.63
   4   7  -9    4.47    9.38
   7   9  -4    3.95    9.88
  -4  -7  -9   14.14    6.57
  -7  -9  -4   10.32    6.35
  -9  -4  -7    9.40    6.44
  -4   7   9    9.04    5.96
  -9   4   7    8.38    5.02
   4  -7   9    6.25    6.79
   7  -9   4   18.08    8.78
   9  -4   7    3.59    5.25
  -7   9   4   22.85    8.06
  -7   9  -4   15.35    6.40
   7  -9  -4   17.55    7.16
  -9   4  -7   14.98    6.25
   4   7   9   13.16    6.23
   9   4   7   18.09    6.83
  -4  -7   9   15.72    6.00
   4  -7  -9   18.82    7.09
  -9  -4   7    3.03    4.04
  -7  -9   4   10.81    5.73
   9  -4  -7   13.84    6.62
  -4   7  -9   18.84    7.84
   9  -5   7   13.18    7.17
  -7   9   5   17.08    7.22
   7  -9   5    1.07    4.53
   9   5  -7    8.68   10.99
   7   9  -5   -6.39    8.75
   5  -7   9    6.53    6.80
  -9   5   7    6.08    4.94
  -7  -9  -5   17.92    7.51
  -5  -7  -9   11.88    5.93
  -9  -5  -7    6.71    5.80
   5   7  -9   16.84   14.14
   5  -7  -9    9.89    5.96
  -9  -5   7   10.06    6.01
  -9   5  -7   17.74    7.28
   9   5   7    5.84    5.42
  -7  -9   5   11.46    6.22
   9  -5  -7   15.80    6.81
   5   7   9    3.03    5.15
  -7   9  -5    1.68    4.16
  -5  -7   9   11.36    5.61
  -5   7  -9   10.39    6.27
   7  -9  -5    1.49    4.54
  -9   6   7   19.14    7.46
  -9  -6  -7    7.85    5.79
  -7  -9  -6   15.08    6.86
  -6  -7  -9   20.07    7.38
   9   6  -7   -5.12    9.29
   9  -6   7   -0.72    6.00
   6   7  -9   20.39   12.81
   6  -7   9    4.45    7.11
   7   9  -6   14.35   11.67
   7  -9   6    7.71    6.25
  -6   7  -9    9.85    6.76
  -9   6  -7   22.66    8.14
  -9  -6   7   16.38    6.54
   6  -7  -9   13.21    6.45
  -7   9  -6   15.62    6.47
   6   7   9    8.50    5.76
   9   6   7   21.27    7.84
   7  -9  -6   22.32    7.55
  -6  -7   9    6.76    5.38
  -7  -9   6   14.32    7.14
  -9   7   7    2.24    4.69
   9  -7   7   -6.48    5.25
   9   7  -7   -3.55   11.78
  -7  -7  -9    4.00    5.57
   7   9  -7  -28.73    8.31
   7  -9   7    2.76    5.93
   7  -7   9    1.16    6.36
   7   7  -9   -6.04   11.13
   7  -9  -7    0.42    4.05
  -7  -7   9   -2.15    3.96
  -9  -7   7    5.83    5.40
  -7   9  -7   -0.26    5.49
  -7   7  -9   -1.03    5.90
  -9   7  -7    6.74    5.48
   7  -7  -9   -3.01    3.61
  -7  -9   7    6.65    5.14
   7   9   7   -3.19    4.44
   7   7   9    1.53    5.97
   9   7   7    3.19    6.01
   9   0  -8    7.89    6.33
  -8   9   0    1.46    4.84
   8  -9   0   -3.79    3.37
   8   9   0   -3.96    7.58
  -9   0  -8    1.65    5.40
  -9   0   8   -1.18    3.76
  -8  -9   0   -0.49    4.05
   0  -8   9    3.03    4.16
   0   8  -9   15.20    8.89
   0   8   9    1.25    3.94
   0  -8  -9   -3.49    4.00
  -1  -8  -9   55.63   11.44
   8   9  -1   32.67   11.94
  -1   8   9   48.85    9.15
   8  -9   1   81.67   14.81
   1  -8   9   49.88    8.54
  -8  -9  -1   45.10   10.50
   9   1  -8   70.83   14.58
  -9  -1  -8   62.52   11.77
   1   8  -9   63.26   13.86
  -8   9   1   45.37    9.90
   8   9   1   37.40   11.41
   9  -1  -8   63.91   12.11
  -8   9  -1   74.99   13.02
  -9   1  -8   76.34   13.28
   1  -8  -9   62.11   12.05
  -1   8  -9   46.31   11.15
  -8  -9   1   49.58   10.02
   1   8   9   54.34   10.71
   8  -9  -1   48.30   11.47
  -1  -8   9   52.03    9.23
  -9  -1   8   40.11    8.02
   2   8  -9   12.34   10.07
   8   9  -2    6.25    9.43
   8  -9   2   -0.52    4.47
   2  -8   9    5.39    4.65
  -2   8   9   -5.00    3.30
   9   2  -8   12.93    8.61
  -9  -2  -8   11.08    6.51
  -8  -9  -2    1.00    4.22
   2  -8   9   -0.04    6.06
  -2  -8  -9   -0.10    5.16
  -8   9   2   -3.82    4.19
  -8   9  -2    5.00    4.70
  -8  -9   2   -0.90    3.60
   2  -8  -9    1.02    5.07
   2   8   9   -0.62    3.98
   9  -2  -8    2.21    5.34
  -9   2  -8    3.18    6.47
  -9  -2   8    0.09    3.73
  -2  -8   9    2.15    4.07
   8   9   2    9.18    8.34
   8  -9  -2    0.06    4.37
  -8   9   3    9.49    6.62
   8   9  -3    5.32    8.73
   3   8  -9   14.37   11.46
   8  -9   3   18.58    8.50
   3  -8   9   21.93    9.09
  -9  -3  -8   15.55    7.10
  -8  -9  -3   14.98    7.26
  -3  -8  -9    3.90    4.96
   9   3  -8   19.59    9.74
  -3   8   9   12.77    6.46
  -9  -3   8   24.57    7.22
   9  -3  -8   20.29    6.27
  -3  -8   9   10.11    5.46
   9   3   8   12.87    5.79
   3   8   9   11.89    7.11
  -8  -9   3   25.02    8.61
  -9   3  -8   18.46    7.08
  -8   9  -3   16.03    6.70
   8  -9  -3   17.71    7.39
   9  -3  -8   26.21    8.28
   3  -8  -9    2.76    5.38
   9  -4   8   -2.75    4.88
   9   4  -8    8.82    8.83
  -9  -4  -8    2.76    4.76
  -8   9   4    0.54    5.02
   4  -8   9    3.64    6.54
   8  -9   4    5.91    6.17
   8   9  -4    2.15   10.56
  -4   8   9    0.66    4.13
   4   8  -9   -5.18    9.22
  -4  -8  -9    3.13    4.51
  -8  -9  -4   -1.98    4.71
  -8  -9   4    0.33    4.24
   8  -9  -4    4.39    5.05
   9  -4  -8   -3.79    4.31
   4   8   9    2.29    4.46
  -4  -8   9    0.61    4.33
  -9  -4   8    3.28    5.11
   4  -8  -9   -3.89    3.93
  -9   4  -8    0.12    5.24
   9   4   8   -4.70    4.35
  -8   9  -4   -2.12    4.20
   5   8  -9    4.66   10.49
  -5  -8  -9    6.85    6.04
   8   9  -5   12.94   13.24
   9  -5   8    6.73    7.63
   5  -8   9    4.37    7.06
  -8  -9  -5   10.61    6.97
   9   5  -8    7.81   11.14
  -9  -5  -8   11.16    6.60
  -8   9   5   -0.05    4.97
   8  -9   5   -2.86    5.72
   9   5   8    1.62    4.92
  -5  -8   9    9.62    5.75
   8  -9  -5    9.37    6.05
  -8   9  -5   15.47    6.75
  -9  -5   8    9.53    5.66
  -9   5  -8   -2.57    5.07
   5   8   9    3.11    5.56
  -8  -9   5    4.51    5.42
   9  -5  -8    8.36    5.63
   5  -8  -9    5.50    5.54
  -6  -8  -9    3.62    5.41
   6  -8   9    1.81    6.22
   6   8  -9  -20.68    9.73
   9  -6   8    3.22    6.47
   8  -9   6    2.74    6.69
   8   9  -6   -8.99    8.82
  -8   9   6    4.54    6.18
  -9  -6  -8    6.02    5.83
   9   6  -8   10.80   11.65
  -8  -9  -6   -1.49    5.35
   6   8   9   -5.01    5.16
   6  -8  -9    3.73    4.86
  -6  -8   9    3.65    5.12
   9  -6  -8    3.73    4.77
  -8   9  -6   -2.98    4.35
   9   6   8    8.66    6.08
  -9  -6   8    3.95    5.51
  -9   6  -8    1.70    4.87
  -6   8  -9    1.49    6.35
  -8  -9   6    1.70    5.35
  -9  -9   0    6.67    5.60
  -9   0  -9    5.87    6.17
  -9   0   9    8.54    5.72
  -9   9   0   -1.46    4.22
   0  -9  -9    1.48    5.35
   0  -9   9   -0.21    4.17
   0   9  -9   -0.54    6.18
   0   9   9   -1.52    3.25
   9  -9   0   -4.70    4.09
   9   0  -9   -2.55    5.44
   9   9   0   -3.81    7.91
  -9  -9  -1   17.13    6.89
   1  -9   9    3.40    5.01
  -9  -1  -9   13.98    7.25
   9   1  -9   12.98    7.38
   9   9  -1   -0.79    7.81
   9  -9   1   17.66    7.93
  -9   9   1    3.31    4.95
  -1  -9  -9    1.85    6.13
  -1   9   9    3.28    4.65
   1   9  -9   -0.85    6.48
  -1  -9   9    4.20    5.43
   1  -9  -9    4.66    5.88
  -9  -9   1   14.70    6.11
  -1   9  -9    9.20    6.88
   1   9   9    0.28    4.30
   9  -9  -1    1.11    5.20
  -9   9  -1    9.73    5.76
  -9  -1   9    3.97    4.50
  -9   1  -9    9.49    6.48
   9   9   1    6.33    8.77
  -9  -9  -2   24.90    8.69
  -2   9   9   15.52    6.67
  -9  -2  -9   37.03    9.80
   9   9  -2    2.76    9.73
   9  -9   2   18.94    8.87
   9   2  -9   25.38    9.66
  -9   9   2   11.15    6.48
  -2  -9  -9   24.55    9.01
   2   9  -9   32.98   11.63
  -9  -9   2   38.85    8.95
   2  -9  -9   38.93    9.76
  -9   2  -9   20.97    8.91
   2   9   9   39.04   10.09
   9  -9  -2   44.16   10.51
  -2  -9   9   21.90    7.60
   9  -2  -9   38.31    8.37
  -9   9  -2   37.68    9.87
  -9  -2   9   20.61    7.22
   9   9   2   31.94    9.98
  -9  -9  -3    6.68    5.68
   9  -9   3    1.76    5.47
  -9  -3  -9    2.66    5.61
   9   3  -9    1.27    7.77
   3   9  -9   -2.14    8.37
   9   9  -3    5.00   10.55
  -9   9   3   10.31    6.56
  -3  -9  -9    6.66    6.35
   3  -9   9    2.32    6.05
  -3   9   9    3.09    5.20
   3  -9  -9   11.77    6.62
  -3  -9   9   14.90    6.73
  -9   3  -9   13.51    7.71
   3   9   9    3.16    5.36
   9  -9  -3    9.66    6.19
  -9  -9   3   12.97    6.08
   9  -3  -9    9.13    6.05
  -9  -3   9   11.39    6.15
   9   3   9   16.68    6.23
  -9   9  -3    6.72    5.79
  -9  -9  -4   -5.02    4.58
  -4  -9  -9    2.80    6.37
  -9  -4  -9    7.46    6.33
   9  -9   4    9.19    7.77
   9   9  -4   -0.49   11.06
   9   4  -9    2.59    9.66
  -9   9   4    4.27    5.99
   4   9  -9    7.60   10.50
   4  -9   9    1.45    6.08
   4  -9  -9   -2.48    4.47
  -4  -9   9   11.62    6.50
  -9  -9   4    7.04    5.44
   4   9   9    4.36    5.05
   9  -9  -4    4.67    5.04
  -9  -4   9    7.22    5.72
   9  -4  -9    0.81    5.03
  -9   9  -4   10.88    6.26
   9   4   9    4.57    5.61
  -9   4  -9    3.56    6.53
  -9  -5  -9   -0.28    5.09
   9   9  -5   14.18   12.25
   5  -9   9   18.54    9.29
  -9   9   5   -2.28    5.24
  -5  -9  -9    5.66    5.68
   9   5  -9    7.57   12.61
   9  -9   5    2.22    6.43
   5   9  -9   -5.30   10.85
   9  -9  -5    8.09    6.54
  -9   9  -5   -1.86    4.59
   9  -5  -9    8.31    5.42
   5  -9  -9   12.62    6.54
  -9   5  -9   22.22    8.87
 -10   0   0   76.80    9.09
   0 -10   0   86.49   10.81
   0 -10   0   60.67   10.17
   0   0 -10   64.67   10.54
   0   0  10   88.43   10.00
  10   0   0   78.14   13.59
   0 -10   1   76.44   10.64
   1   0 -10   76.11   10.85
   1   0  10   73.26   10.51
  10  -1   0   85.54   15.43
  10   1   0   62.76   12.56
   0 -10   1   61.83   11.05
 -10  -1   0   69.25    8.69
 -10   1   0   76.91    8.98
  -1   0 -10   48.75    9.29
  -1   0  10   68.05    8.83
   0 -10  -1   50.40    9.36
   0 -10  -1   70.99   10.46
   0 -10  -1   48.74    7.80
   2   0  10    3.29    3.58
   0 -10  -2    8.14    5.03
   0 -10  -2    6.21    3.93
   0 -10   2   -0.99    4.30
   0 -10   2   -1.25    3.32
   2   0 -10    2.46    3.88
 -10  -2   0    1.14    3.42
 -10   2   0   14.86    5.15
  -2   0 -10    9.21    6.00
  -2   0  10    5.60    3.74
   0 -10  -2   -3.19    3.17
  10  -2   0    5.81    6.34
  10   2   0    0.43    5.10
   0 -10   3    1.42    4.11
   0 -10   3    3.75    3.42
   3   0 -10    2.74    3.96
   3   0  10   -1.89    3.93
   0 -10  -3   -2.01    3.17
   0 -10  -3   -0.39    3.71
  10  -3   0    2.07    4.86
  10   3   0   -3.07    4.48
   0 -10  -3   -0.41    3.95
  -3   0  10    1.46    3.35
  -3   0 -10    1.85    4.45
 -10   3   0   -3.08    3.08
 -10  -3   0   -0.60    3.64
   0 -10   4    5.74    5.92
   0 -10  -4    3.40    4.58
   0 -10  -4   -2.20    3.54
  -4   0  10    1.47    3.40
 -10   4   0    8.93    4.50
  -4   0 -10   -0.43    4.79
  10  -4   0    0.54    4.12
  10   4   0   13.46    7.45
 -10  -4   0    4.85    4.98
   0 -10   4   -0.67    2.96
   4   0 -10    4.21    3.86
   4   0  10    9.31    4.80
  10   5   0   10.09    7.52
   0  10   5    5.88    4.87
   0 -10   5    1.80    3.70
 -10   5   0    3.48    4.06
  -5   0 -10   16.00    6.12
  -5   0  10    7.15    4.72
   0 -10  -5    7.93    5.55
   5   0 -10    6.61    4.15
   5   0  10   17.88    6.38
  10  -5   0   -0.19    5.22
 -10  -5   0    5.86    4.63
   6   0  10   95.33   11.14
  10   6   0   84.81   15.22
 -10  -6   0   71.29   11.44
  10  -6   0   61.74   12.83
 -10   6   0   60.10   11.09
  -6   0 -10   84.70   13.33
  -6   0  10   79.25    9.65
   0 -10  -6   80.32   12.35
   0 -10   6   77.32   11.13
   0  10  -6   64.54   13.22
   0  10   6   84.11   13.00
   0  10   7    1.06    5.09
  -7   0 -10   -0.45    4.58
   0  10  -7   -4.09    5.56
  10  -7   0   -0.65    4.53
   7   0  10    2.55    4.55
  -7   0  10   -1.37    3.71
  10   7   0    1.87    7.44
 -10   7   0   -2.93    3.85
   0 -10  -7    1.83    5.36
   0 -10   7    5.17    5.06
 -10  -7   0   -0.94    4.44
  -8   0 -10    5.12    5.09
   0  10   8   17.91    7.62
  10  -8   0   -0.11    4.71
   0 -10  -8    7.50    6.08
 -10  -8   0   10.27    6.98
 -10   8   0    4.28    4.68
  10   8   0   46.56   11.29
   0  10  -8    7.55    8.29
  -8   0  10    7.52    5.40
   0 -10   8   19.15    6.99
   0  10  -9   16.69    9.84
 -10  -9   0   32.84    9.75
   0  10   9   14.50    5.97
 -10   9   0   53.93   12.11
  -9   0 -10   35.00   10.23
  -9   0  10   33.11    8.53
   0 -10  -9   31.42    9.62
  10  -9   0   17.01    8.32
   0 -10   9   27.92    8.30
  10   9   0   26.04   10.74
 -10   0   1   73.19    8.79
   0  -1  10   95.92    9.52
   1  10   0   74.95   12.51
  -1  10   0   51.97    8.48
   0   1 -10   77.76   11.11
  -1 -10   0   65.09   10.90
   0  -1 -10   83.38   12.63
  10   0  -1   81.32   14.09
  10   0   1   80.00   14.05
   0   1  10   78.30    9.52
 -10   0  -1   80.87    9.45
   1 -10   0   76.45    9.93
   1 -10   0   55.56   10.36
   1  -1  10   19.74    5.78
  -1  -1 -10   18.83    6.62
   1  10  -1   25.83    7.78
  10  -1   1   25.60    8.18
   1   1 -10   41.77    8.02
 -10  -1  -1   22.52    6.42
  10   1  -1   32.68    9.85
   1 -10   1   24.74    7.33
   1 -10   1   23.68    6.19
 -10   1   1   31.56    6.48
  -1   1  10   17.99    5.38
  -1 -10  -1   32.34    8.32
   1 -10  -1   11.59    5.51
  10   1   1    9.56    5.96
  -1 -10   1   22.45    6.21
  -1   1 -10   23.85    6.95
 -10  -1   1    9.88    4.61
   1 -10  -1   25.42    6.20
   1  10   1   19.21    6.67
  -1  -1  10   24.96    6.11
   1  -1 -10   19.33    5.96
  10  -1  -1   24.45    8.53
 -10   1  -1   25.65    6.41
   1 -10  -1   28.19    7.21
   1   1  10   16.77    5.75
   1  10  -2    7.02    5.95
  -2  -1 -10   16.01    6.20
  -1 -10  -2    3.22    4.23
   2  -1  10    5.67    4.37
  -1 -10  -2   12.12    4.86
 -10  -2  -1    6.76    4.69
   1 -10   2   14.31    5.16
  10   2  -1    0.40    5.91
   1 -10   2   17.34    6.95
  10  -2   1   20.03    8.30
 -10   2   1    6.43    3.94
   2   1 -10    4.30    4.05
  -2   1  10    7.81    4.03
 -10   2  -1   11.99    4.99
  10   2   1    9.82    6.18
  -1 -10   2    8.03    4.70
   1 -10  -2   19.95    6.29
 -10  -2   1   12.20    5.04
  -2   1 -10   14.67    6.31
   1  10   2   12.77    5.67
   2  -1 -10    8.61    4.66
   1 -10  -2    8.98    5.05
  10  -2  -1    7.52    5.53
 -10  -2   1    8.05    4.68
  -2  -1  10   11.11    4.96
   1 -10  -2    7.59    4.25
   2   1  10    9.09    4.26
 -10  -3  -1    3.45    4.53
 -10  -3  -1    2.79    4.00
   3   1 -10    6.59    3.98
  10   3  -1    4.78    5.37
  -1 -10  -3   -0.17    3.63
  10  -3   1    0.62    4.49
   1  10  -3   -1.19    4.17
   3  -1  10    5.53    3.92
 -10   3   1   -1.28    3.49
   1 -10   3    7.13    5.51
  -3   1  10    1.41    3.26
  -3  -1 -10    2.98    4.26
   1 -10   3    6.91    4.28
  -1 -10  -3   -1.97    3.61
   1 -10  -3    1.73    4.07
   1 -10  -3    6.33    4.54
  10   3   1    4.59    4.88
  -1 -10   3    2.40    3.73
   1  10   3    5.79    4.66
 -10  -3   1    1.76    3.68
   3  -1 -10    1.14    4.44
 -10   3  -1   -0.38    3.06
  -3  -1  10    3.27    3.73
  -3   1 -10   -3.06    4.57
   1 -10  -3    2.88    3.90
  10  -3  -1    0.05    4.39
   3   1  10    0.90    3.63
  -4   1  10    1.08    3.45
   4   1 -10    2.03    3.55
   1 -10   4   -0.77    3.27
   4  -1  10    0.92    3.89
   1 -10   4   -1.55    4.42
  -1  10   4   -0.15    4.48
 -10  -4  -1   -2.96    3.46
 -10   4   1   -3.36    3.15
  -4  -1 -10    9.08    4.64
  10   4  -1    2.31    5.64
  -1 -10  -4   -0.64    3.67
   1  10  -4    3.50    5.39
  -1 -10  -4   -3.49    3.27
  10  -4   1   -0.75    4.03
  10  -4  -1    4.35    4.44
   4   1  10    1.11    3.45
 -10   4  -1    1.95    3.69
  -4  -1  10   -0.37    3.25
   4  -1 -10    9.29    4.78
   1 -10  -4    2.00    4.20
 -10  -4   1    1.24    3.93
  -4   1 -10    5.55    5.54
  -1 -10   4    0.05    3.89
  10   4   1   -1.91    5.02
   5  -1  10   22.18    5.85
 -10  -5  -1   17.71    6.88
 -10   5   1    0.18    3.92
   1 -10   5   15.24    6.80
  -5   1  10    8.90    4.69
  10  -5   1   13.68    7.32
  10   5  -1   10.29    7.40
  -1  10   5   14.02    6.51
  -1 -10  -5   10.34    5.24
   1  10  -5   26.80    8.87
   1 -10   5    8.49    4.63
  -5  -1 -10    5.70    4.85
  -1 -10   5   24.41    6.56
   1 -10  -5   14.60    6.37
  -5   1 -10   27.15    8.39
  10  -5  -1   14.68    7.09
 -10  -5   1   18.04    6.06
   5   1  10   25.59    6.97
  -5  -1  10    8.96    4.71
  10   5   1   19.00    7.53
 -10   5  -1   13.26    6.63
   5  -1 -10   28.95    7.10
   1 -10   6   20.23    8.65
   1 -10   6    8.91    4.75
 -10  -6  -1    8.19    6.13
   6  -1  10   10.49    5.25
  -1 -10  -6   -1.79    4.21
  10  -6   1   -4.97    3.96
  10   6  -1   10.28    8.32
  -6  -1 -10    5.40    5.01
 -10   6   1    1.26    4.33
   1  10  -6    2.81    5.88
  -6   1  10    0.85    3.75
  -1  10   6    3.17    5.40
 -10   6  -1    5.65    4.94
  -1 -10   6   12.83    5.29
   6   1  10    5.91    4.99
  10   6   1   10.91    7.11
   6  -1 -10    7.23    4.86
   1  10   6    4.14    5.91
  10  -6  -1   14.94    8.14
  -6  -1  10    2.94    4.67
  -6   1 -10   12.53    6.10
   1 -10  -6   -1.82    3.89
 -10  -6   1    1.52    4.09
   1  10  -7   -1.61    4.93
  10   7  -1   11.21    8.04
  -1 -10  -7   -2.01    4.35
   1 -10   7    3.88    4.57
 -10  -7  -1   -5.72    3.89
  -7  -1 -10    0.97    4.13
  10  -7   1    3.49    4.48
 -10   7   1   -1.35    3.85
  -1  10   7    3.15    5.27
  -7   1  10    1.97    4.20
  10  -7  -1    6.83    5.98
  -7  -1  10    2.04    3.60
   1  10   7    0.49    4.38
 -10  -7   1    2.51    4.13
  -7   1 -10   -2.96    4.79
   1 -10  -7    1.74    5.15
  10   7   1    2.06    6.61
 -10   7  -1   -0.33    4.03
   7   1  10   -1.55    3.88
  -1 -10   7    0.25    4.18
   7  -1 -10    1.12    4.89
  10   8  -1    6.52    7.73
  -1 -10  -8    3.31    6.17
 -10   8   1    1.39    4.99
 -10  -8  -1   -3.11    5.43
   1 -10   8    4.83    5.36
   1  10  -8   -2.24    5.70
  -8   1  10   -0.95    4.11
  -1  10   8    2.02    5.15
  -8  -1 -10    2.80    5.78
  10  -8   1   -4.35    4.44
  10  -8  -1   -2.80    4.12
   1  10   8    0.93    4.47
  -8  -1  10   -3.30    3.95
  10   8   1    7.10    7.05
   1 -10  -8   -1.96    4.27
  -8   1 -10   -1.22    5.12
 -10   8  -1   10.45    6.62
  -1  10  -8    8.27    7.34
  -1 -10   8    6.06    5.49
 -10  -8   1   -4.67    3.87
  10  -9   1   15.65    8.53
 -10   9   1   11.12    6.21
  -9  -1 -10   29.04    9.96
  10   9  -1    5.18    8.99
  -1  10   9   14.35    6.88
  -1 -10  -9   17.32    8.09
 -10  -9  -1    6.22    6.69
   1  10  -9   13.51    9.88
  10  -9  -1   10.05    7.40
   1  10   9    6.81    6.54
  10   9   1   12.00    8.68
  -9  -1  10    5.57    6.06
  -9   1 -10   15.46    8.31
 -10   9  -1   12.28    7.85
   1 -10  -9    9.19    6.92
  -1  10  -9    1.75    7.80
 -10  -9   1    6.80    5.83
  -1 -10   9    9.34    6.53
   0   2 -10    1.42    3.99
   2 -10   0    2.04    4.34
   0  -2  10   -2.33    3.06
  10   0  -2   -3.60    5.21
   0  -2 -10   -1.91    3.50
  10   0   2    1.92    4.06
 -10   0   2   -1.06    3.49
   0   2  10    2.96    3.45
   2 -10   0    2.18    3.73
 -10   0  -2   -0.92    3.49
   2  10   0    2.74    4.85
  -2 -10   0   -0.29    3.59
  -2  10   0   -2.29    3.19
  10  -1   2   28.76    8.59
 -10   1   2   34.27    7.49
  10   1  -2   31.81   11.08
   2 -10   1   14.72    6.31
   2 -10   1   18.10    5.96
   2  10  -1   41.85    9.70
 -10  -1  -2   23.54    6.26
   1   2 -10   25.16    6.64
  -2  10   1   33.73    6.96
  -2 -10  -1   28.69    7.34
   1  -2  10   37.89    7.68
  -1  -2 -10   38.58    8.55
  -1   2  10   15.85    5.38
   2 -10  -1   28.24    7.20
   2  10   1   39.06    8.96
  -1  -2  10   15.23    5.12
   1  -2 -10   28.89    7.17
 -10  -1   2   27.69    6.03
  10  -1  -2   27.73    9.56
   1   2  10   20.06    6.16
 -10   1  -2   16.49    6.05
  -2 -10   1   31.19    7.66
   2 -10  -1   31.47    7.77
  10   1   2   29.26    9.45
  -1   2 -10   27.98    7.67
  -2  10  -1   24.68    6.08
  10  -2   2    5.26    5.68
   2  10  -2   12.54    6.82
 -10   2   2    3.86    3.39
   2   2 -10    4.66    4.11
 -10  -2  -2    2.42    3.66
  10   2  -2    0.21    4.38
  -2   2  10    2.48    3.65
  -2 -10  -2    1.21    3.64
   2  -2  10    3.75    3.35
   2 -10   2    6.38    4.85
  -2  -2 -10   11.68    5.83
   2 -10  -2    0.62    4.02
   2 -10  -2    3.46    3.98
  10   2   2    0.44    4.63
   2   2  10    4.27    4.03
  -2   2 -10    6.21    5.52
   2 -10  -2    7.84    5.15
  -2 -10   2    0.54    3.48
   2  -2 -10   -2.16    4.12
 -10  -2   2   -0.29    4.07
 -10   2  -2    7.07    4.34
   2  10   2    4.40    4.94
  10  -2  -2   -0.38    4.47
  -2  -2  10    5.07    3.42
  -2 -10  -3   68.19   11.81
  -3  -2 -10   66.46   11.13
 -10   3   2   71.93    9.39
   3  -2  10   79.49    9.47
  10  -3   2   67.51   13.61
   2  10  -3   90.91   15.92
  -3   2  10   85.52    9.96
 -10  -3  -2   75.28   11.24
   2 -10   3   66.82   11.90
  10   3  -2   68.69   14.21
 -10  -3  -2   67.67   10.39
   3   2  10   92.99   10.40
  -3  -2  10   62.51    9.89
   2  10   3   57.84   10.49
   3  -2 -10   65.12   10.45
 -10   3  -2   89.60   12.90
  -2 -10   3   71.49   10.81
   2 -10  -3   64.53   10.02
  10  -3  -2   77.37   13.71
 -10  -3   2   75.53    9.37
  -3   2 -10   78.27   12.31
  10   3   2   65.01   12.63
   2 -10  -3   70.05    9.44
 -10  -4  -2   19.48    6.86
  -4   2  10   16.23    5.54
  10  -4   2   13.01    6.85
  10   4  -2   18.50   10.44
   4  -2  10   16.04    5.17
  -2 -10  -4    8.35    5.24
  -2 -10  -4   14.49    5.66
 -10   4   2   17.56    5.76
  -2  10   4   15.38    5.95
   2  10  -4    5.90    6.30
  -4  -2 -10   19.77    7.10
   2 -10   4   17.33    8.33
  10   4   2   16.26    7.02
   4   2  10   16.67    6.28
   2 -10  -4   20.97    6.27
 -10  -4   2   25.48    6.78
 -10   4  -2   14.31    5.33
   4  -2 -10   21.22    6.33
  10  -4  -2   28.82    9.11
  -2 -10   4   18.36    6.60
  -4  -2  10   15.03    5.74
  -4   2 -10   20.42    7.25
  -2 -10  -5   21.40    6.80
  -5  -2 -10   21.94    7.43
   2 -10   5   19.23    7.94
  10   5  -2   20.78    9.31
  -5   2  10   14.52    5.34
   2  10  -5   22.93   10.35
  -2 -10  -5   14.54    7.33
   5  -2  10   14.60    5.44
  -2  10   5   30.25    8.01
  10  -5   2   36.67   11.48
 -10   5   2    7.36    4.93
 -10  -5  -2   13.13    6.27
  10   5   2   21.65    8.57
  10  -5  -2   11.38    6.19
  -5  -2  10   10.81    5.11
   2 -10  -5   25.90    7.56
   5   2  10   14.79    6.07
  -5   2 -10   20.12    7.12
 -10   5  -2   26.09    7.19
  -2 -10   5   25.73    7.49
 -10  -5   2   25.40    7.40
   5  -2 -10   11.48    5.19
  -2 -10  -6   15.70    6.90
   2 -10   6   12.94    7.68
 -10  -6  -2   11.17    6.26
  10  -6   2   14.10    6.46
  -2  10   6   24.42    7.61
   2  10  -6   38.90   11.86
 -10   6   2   23.44    7.28
  -6  -2 -10   27.85    8.08
   6  -2  10   29.71    7.15
  10   6  -2   45.99   13.35
  -6   2  10   10.61    4.87
  10   6   2   28.97    8.14
  10  -6  -2   30.14    9.59
 -10   6  -2   14.26    5.90
  -6  -2  10   23.41    6.57
  -6   2 -10   32.91    9.57
   6  -2 -10   28.16    7.52
   2  10   6   21.52    7.60
 -10  -6   2   21.46    6.70
   2 -10  -6   19.14    7.61
   6   2  10   24.86    7.52
  -2 -10   6   25.46    7.15
   2 -10   7    4.39    6.70
   7   2 -10    9.69    6.88
  -7   2  10   13.14    5.78
   2  10  -7   18.01    9.78
 -10  -7  -2    4.29    5.69
 -10   7   2    3.81    5.37
  -2 -10  -7   -1.38    5.14
  -2  10   7    6.83    5.69
  10   7  -2   -0.51    8.15
  10  -7   2    9.30    7.13
  -7  -2 -10    3.59    5.63
   2 -10  -7    9.66    5.93
  10  -7  -2   20.57    8.24
   7   2  10   10.66    5.92
  -7  -2  10   16.76    6.02
  -7   2 -10    1.85    5.15
  10   7   2   17.76    8.43
 -10  -7   2    7.47    5.11
 -10   7  -2    9.11    5.77
  -2 -10   7   11.61    6.14
   2  10   7   11.43    7.63
   7  -2 -10    2.00    4.67
 -10  -8  -2    7.97    6.05
  -2 -10  -8   15.37    7.93
   2  10  -8    4.71    8.09
  10  -8   2   15.88    8.85
 -10   8   2   20.92    8.07
  -8  -2 -10   13.21    7.02
   8   2 -10   29.51    9.09
   2 -10   8   11.96    7.58
  10   8  -2   41.53   13.58
  -2  10   8    8.52    5.81
  -8   2  10   11.95    6.07
  -8  -2  10   18.23    6.43
 -10  -8   2   12.10    6.67
   8   2  10    6.84    5.67
   2 -10  -8   17.96    8.23
  10   8   2   36.34   10.00
   2  10   8   17.12    8.57
  10  -8  -2   11.83    6.49
  -8   2 -10    2.54    6.12
 -10   8  -2   20.80    7.48
   8  -2 -10   12.76    6.32
  -2 -10   8   18.30    6.86
 -10   9   2    2.42    4.88
  -2  10   9    4.17    5.43
  -9  -2 -10   17.02    7.68
 -10  -9  -2    8.19    6.98
   2  10  -9   11.44   10.67
  10  -9   2    3.94    6.82
  10   9  -2   18.44   10.95
  -2 -10  -9    2.71    6.92
   9   2 -10   11.21    7.73
  -2  10  -9    1.54    6.60
   2  10   9    3.72    6.94
  10  -9  -2   -0.17    5.02
 -10  -9   2    2.08    5.62
  -9  -2  10   -1.07    4.56
  -9   2 -10   13.47    8.18
 -10   9  -2   -1.22    4.99
  -2 -10   9    6.40    6.12
   2 -10  -9    4.61    6.24
  10   0   3   -2.10    3.98
  10   0  -3   -1.98    4.43
   0   3 -10   -4.79    3.83
   0   3  10   -2.47    3.14
  -3 -10   0    1.98    3.71
 -10   0   3    1.09    3.68
   0  -3 -10    2.58    4.15
  -3  10   0   -1.01    3.39
   0  -3  10    0.16    3.01
   3 -10   0   -3.14    3.43
   3  10   0   -0.69    5.01
 -10   0  -3    1.51    3.78
  -3  10   1    3.66    3.95
   3 -10   1   -3.60    3.27
   3  10  -1    3.40    5.58
   1   3 -10    2.81    3.88
  -1  -3 -10    3.95    5.01
  -1   3  10    5.52    3.72
  10  -1   3    7.39    5.27
 -10   1   3    0.23    3.50
  -3 -10  -1    1.88    4.56
 -10  -1  -3    3.79    4.78
  10   1  -3   -1.67    4.77
   1  -3  10    0.56    3.71
  10  -1  -3    7.91    6.84
  -1   3 -10   15.80    6.11
 -10   1  -3    3.81    3.95
   1   3  10   -0.29    3.46
   3  10   1    3.86    5.26
  -3 -10   1    4.27    3.80
  -3  10  -1    3.42    3.74
   1  -3 -10    6.76    4.63
   3 -10  -1    1.30    3.37
  -1  -3  10   -3.48    2.53
  10   1   3    7.12    5.88
  10   2  -3   17.77    8.21
  -2   3  10    2.51    3.46
  -3 -10  -2   15.68    6.54
   3 -10   2   10.51    6.27
   3  10  -2   16.89    8.09
 -10   2   3   15.08    5.17
 -10  -2  -3   12.74    5.63
  10  -2   3   13.89    6.67
   2  -3  10    5.52    3.93
  -2  -3 -10   14.83    6.07
  -2   3 -10    2.75    5.10
   3  10   2   17.42    7.33
  -3 -10   2   10.35    5.46
  10   2   3    3.61    4.82
   2   3  10   12.70    5.36
 -10  -2   3    7.29    4.38
 -10   2  -3   13.17    5.59
  -2  -3  10    8.00    4.06
   2  -3 -10    6.39    4.53
   3 -10  -2    6.28    4.17
  10  -2  -3    7.92    5.99
  -3  10  -2   11.97    4.90
  -3  -3 -10   67.59   11.46
  -3   3  10   71.39   10.33
   3  -3  10   57.97    9.47
 -10  -3  -3   59.51   10.62
  10  -3   3   61.57   12.64
   3  10  -3   73.13   14.58
  -3 -10  -3   54.28   10.72
 -10  -3  -3   48.95    9.48
  10   3  -3   47.22   12.41
   3 -10   3   47.41   10.81
 -10   3   3   64.00    9.66
  10   3   3   50.58   10.92
   3 -10  -3   75.28   11.22
  -3  -3  10   62.47    9.47
   3  -3 -10   57.40   10.74
   3   3  10   59.01   10.31
   3  10   3   75.67   13.08
  10  -3  -3   65.07   12.22
  -3 -10   3   43.72    9.22
  -3  10  -3   60.84    9.67
  -3   3 -10   61.99   11.48
   3 -10  -3   66.40   10.26
 -10  -3   3   66.53    9.61
 -10   3  -3   38.72    8.56
  10   4  -3   33.70   10.91
 -10  -4  -3   39.58    8.80
   3  10  -4   16.36    9.01
 -10  -4  -3   55.95   10.21
  -4   3  10   38.95    8.08
  -4  -3 -10   36.09    8.06
   4  -3  10   36.07    6.90
  10  -4   3   36.80    9.52
 -10   4   3   39.20    8.04
   4   3 -10   33.73   12.04
  -3 -10  -4   47.34    9.50
   3 -10   4   34.20    8.78
   4   3  10   37.39    8.01
   4  -3 -10   33.52    8.22
   3 -10  -4   25.76    7.46
 -10   4  -3   41.80    9.24
 -10  -4   3   30.92    7.39
  10   4   3   44.65   10.35
  -4   3 -10    9.55    6.50
  10  -4  -3   27.56    8.88
  -3 -10   4   37.75    8.39
   3 -10  -4   31.35    7.37
  -4  -3  10   37.90    7.96
   3  10  -5   12.85    8.14
  -3 -10  -5   15.06    6.32
  10  -5   3   12.16    6.68
  10   5  -3   26.98   10.68
   5  -3  10   10.61    5.25
   3 -10   5    8.51    6.38
  -3 -10  -5   11.41    5.99
   5   3 -10    7.46    9.32
 -10  -5  -3    7.69    5.69
  -5   3  10   10.96    5.12
  -5  -3 -10   11.38    5.65
 -10   5   3    3.79    4.12
  -5  -3  10   12.90    5.05
 -10  -5   3    6.70    4.35
  -3 -10   5   10.22    5.28
  10  -5  -3   20.05    7.71
   5   3  10   15.14    5.59
  -5   3 -10   -1.01    5.45
   3 -10  -5   13.69    6.06
 -10   5  -3   -1.90    2.99
   5  -3 -10    8.63    4.65
  10   5   3    8.95    5.93
 -10   6   3   10.36    6.14
   6   3 -10    0.07    7.74
  10  -6   3    1.82    4.48
  -6  -3 -10   -3.38    3.73
   3  10  -6    7.96    8.79
 -10  -6  -3   -2.02    4.39
  10   6  -3    7.90    8.40
  -3 -10  -6    4.95    5.69
  -6   3  10   10.76    4.69
   3 -10   6   -4.37    5.07
  -3 -10   6    1.58    4.82
   6  -3 -10    1.35    4.13
   6   3  10    4.11    4.83
   3  10   6   -2.26    4.83
  -6  -3  10    9.60    5.20
   3 -10  -6    4.30    4.86
  -6   3 -10   10.70    7.17
  10  -6  -3    7.08    6.49
 -10   6  -3    2.21    4.13
 -10  -6   3    5.32    4.68
  10   6   3    8.24    6.24
  -7   3  10   10.06    5.15
  -7  -3 -10    2.26    4.95
 -10   7   3    3.20    4.71
  10  -7   3    4.76    6.40
  10   7  -3   19.83   10.10
   3 -10   7    7.65    7.29
   7   3 -10   10.11    8.67
   3  10  -7    0.43    6.32
  -3 -10  -7   -1.71    4.34
 -10  -7  -3    4.51    5.23
   7   3  10   -0.60    4.07
  10  -7  -3    2.85    5.40
  -7   3 -10   -1.00    5.97
 -10   7  -3    5.07    5.02
   3  10   7   -2.27    4.65
 -10  -7   3    6.18    5.33
   3 -10  -7    8.21    6.16
  -3 -10   7    7.99    6.53
  -7  -3  10   -0.45    4.32
   7  -3 -10    1.54    4.66
   3 -10   8    8.49    7.61
  -8  -3 -10   -0.76    5.19
   3  10  -8    6.89    8.54
  -3 -10  -8    9.07    7.32
 -10  -8  -3    2.64    6.19
 -10   8   3   10.58    7.04
  10  -8   3   -3.76    4.46
  10   8  -3    8.38    9.97
   8   3 -10    5.29    8.73
   8   3  10    7.26    5.99
   3 -10  -8    6.18    5.85
   3  10   8    1.80    5.62
   8  -3 -10   -2.60    4.25
 -10   8  -3    3.24    5.13
 -10  -8   3    1.68    6.19
  -8  -3  10   14.68    6.76
  -8   3 -10    8.30    6.61
  10  -8  -3    0.62    5.14
  -3 -10   8    8.62    6.25
   0   4 -10    6.26    4.82
   0   4  10    2.77    3.79
   4  10   0   -1.42    5.09
   0  -4  10   -0.92    2.71
   0  -4 -10   -1.73    3.09
  -4 -10   0    2.25    3.69
  10   0   4   -0.98    4.33
 -10   0   4    8.84    4.24
 -10   0  -4   -0.22    3.67
  -4  10   0    4.34    3.96
   4 -10   0    3.51    4.05
  10   0  -4    9.04    6.48
  -4  10   1    8.79    5.18
  10   1  -4   28.29    9.30
 -10  -1  -4    5.74    4.63
   1  -4  10   17.43    5.04
  10  -1   4    6.06    4.91
  -1   4  10    9.24    4.72
 -10   1   4    5.73    4.72
   4 -10   1    4.13    4.43
   4  10  -1    2.56    6.19
  -1  -4 -10    3.28    4.51
  -4 -10  -1   11.59    5.22
 -10   1  -4    2.36    4.56
   4 -10  -1    7.38    5.07
  -4 -10   1    6.74    5.32
   1  -4 -10   10.72    6.11
   4  10   1   14.49    7.11
  10  -1  -4    1.24    4.89
  -1  -4  10    9.19    4.23
  10   1   4   16.69    6.77
   1   4  10    4.00    3.90
  -4  10  -1    4.68    4.53
  -1   4 -10    5.03    5.20
  -2   4  10    1.84    4.08
 -10  -2  -4    8.28    5.56
  10  -2   4   12.12    5.84
  -4  10   2    6.98    5.36
  -2  -4 -10   12.55    5.67
   2   4 -10    3.72    7.59
  10   2  -4    7.39    6.68
   4  10  -2    7.14    7.36
   2  -4  10    7.85    3.78
 -10   2   4    5.76    4.32
   4 -10   2   -0.38    3.33
  -4 -10  -2    9.41    5.73
 -10  -2   4   -0.60    3.66
  10   2   4   12.96    7.18
   2   4  10    2.75    3.96
  -2  -4  10    8.79    5.11
  -4  10  -2    0.76    3.20
  -2   4 -10    5.71    5.67
  10  -2  -4    6.40    5.39
  -4 -10   2    5.96    5.12
   4  10   2   14.97    8.35
   2  -4 -10    2.76    4.76
 -10   2  -4    5.57    5.16
   4 -10  -2    8.17    5.67
  -4 -10  -3   17.67    7.13
   3  -4  10   37.88    7.06
   4  10  -3   30.65   10.52
   4 -10   3   28.61    9.13
  -3   4  10   26.85    7.00
 -10  -3  -4   22.74    7.58
  10  -3   4   42.48   10.77
  10   3  -4   35.58   12.04
 -10  -3  -4   27.14    7.46
  -3  -4 -10   39.15    8.92
 -10   3   4   27.95    6.77
   3   4 -10   28.57   11.59
  -4  10  -3   52.91    9.15
 -10   3  -4   33.42    8.28
  10   3   4   34.99    9.45
   4 -10  -3   23.84    7.20
 -10  -3   4   29.08    6.72
  -3   4 -10   40.50   10.17
  -3  -4  10   46.53    8.71
   3  -4 -10   36.60    8.28
   4 -10  -3   34.88    7.64
  10  -3  -4   36.87   10.15
  -4 -10   3   21.03    6.82
   3   4  10   30.14    7.20
  10   4  -4    7.50    7.27
  -4 -10  -4    1.61    4.52
   4  10  -4    2.21    6.94
   4   4 -10   -3.73    9.16
  -4  -4 -10   -2.82    3.91
 -10  -4  -4    6.62    5.87
 -10   4   4    1.94    3.94
  10  -4   4    1.78    4.32
 -10  -4  -4    1.11    5.63
  -4   4  10    1.08    3.96
   4  -4  10   -2.38    3.17
   4 -10   4    6.22    5.91
  -4  -4  10    6.59    4.67
 -10  -4   4    7.74    4.89
   4  -4 -10    2.69    3.94
   4 -10  -4   -4.62    3.23
 -10   4  -4   -2.49    3.57
  10  -4  -4   -1.40    4.99
  -4  10  -4    0.77    4.07
   4 -10  -4    5.48    4.68
  10   4   4    0.41    4.75
  -4 -10   4   -0.16    3.45
  -4   4 -10    4.52    5.78
   4   4  10    1.11    3.67
   5   4 -10   -4.87    8.63
   4  10  -5   -4.64    5.76
   4 -10   5    0.84    4.84
 -10   5   4    7.98    4.76
 -10  -5  -4    6.66    5.54
  10  -5   4    8.63    5.61
  -5  -4 -10   17.19    5.89
  -4 -10  -5    4.59    5.01
  10   5  -4   17.40   10.52
  -5   4  10    9.02    4.71
   5   4  10    8.73    4.90
  10  -5  -4    3.82    5.18
  -4 -10   5   10.52    5.51
 -10   5  -4    4.36    5.38
   5  -4 -10    4.20    3.68
   4 -10  -5    8.60    5.18
  -5   4 -10   16.82    8.27
 -10  -5   4    1.51    4.25
  -5  -4  10    8.88    5.30
   4 -10   6   27.28    9.41
 -10  -6  -4   40.85    9.05
  10   6  -4   25.68   12.13
  -6   4  10   20.71    6.29
  10  -6   4   49.96   11.94
  -6  -4 -10   35.03    8.52
   6   4 -10   13.50   11.12
  -4 -10  -6   37.68    8.98
   4  10  -6   45.83   14.02
 -10   6   4   56.06   10.19
   6  -4 -10   34.54    8.20
  -4 -10   6   30.92    8.41
   6   4  10   23.84    6.88
  10  -6  -4   53.87   11.74
  -6  -4  10   33.94    8.15
  -6   4 -10   38.02    9.87
 -10   6  -4   33.17    8.51
   4 -10  -6   40.65    9.52
 -10  -6   4   30.21    7.91
   4  10  -7    0.92    9.05
 -10  -7  -4   13.01    7.21
  10   7  -4   35.16   12.33
  -4 -10  -7   17.29    7.90
   4 -10   7   18.95    8.96
   7   4 -10    2.84   10.10
  -7  -4 -10   30.56    8.12
  10  -7   4   26.51    9.20
 -10   7   4   18.89    7.29
  -4 -10   7   18.99    7.28
   7  -4 -10   17.49    6.74
   7   4  10   14.83    5.96
   4  10   7   17.86    7.78
  -7  -4  10   16.00    6.57
  -7   4 -10   27.53    9.62
 -10   7  -4   28.38    9.22
   4 -10  -7   20.37    7.39
  10  -7  -4   12.37    6.66
 -10  -7   4   25.46    7.40
 -10  -8  -4    6.86    6.94
  10   8  -4   14.81   11.52
   8   4 -10   13.60   10.59
 -10   8   4    9.72    7.17
  -8  -4 -10   13.82    6.45
  10  -8   4    7.39    7.02
   4 -10   8   22.48    9.92
   4  10  -8   12.56   11.51
  -4 -10  -8    2.05    6.67
   4  10   8   13.13    6.52
 -10   8  -4   12.80    6.76
  -4 -10   8    4.40    5.65
 -10  -8   4    5.91    6.46
  10  -8  -4   12.25    5.78
  -8   4 -10   13.24    8.41
   4 -10  -8    6.87    5.93
   8  -4 -10   18.51    7.47
  -8  -4  10   13.71    6.55
   8   4  10   13.85    6.40
 -10   0  -5    5.92    5.13
   5  10   0    2.88    6.43
  -5  10   0    1.43    3.98
   0  -5  10   -1.88    3.62
   0   5 -10    5.98    5.60
   0   5  10   -1.26    3.44
   5 -10   0    4.27    4.97
   0  -5 -10    1.71    4.30
  -5 -10   0    1.49    3.84
  10   0   5   -1.42    4.14
  10   0  -5    7.25    6.64
  -5  10   1   22.54    7.30
   1   5 -10   15.85    8.63
  -5 -10  -1    7.35    5.34
   1  -5  10   10.41    4.97
 -10   1   5   21.45    6.13
  -1  -5 -10   12.48    5.93
 -10  -1  -5   28.33    7.73
   5  10  -1    9.75    7.88
  10  -1   5   20.03    7.69
  10   1  -5   17.80    9.56
  -1   5  10   11.88    5.65
   5 -10   1   28.22    8.01
  -5  10  -1   19.03    6.58
  -1   5 -10   20.57    8.50
 -10   1  -5   14.15    6.03
  10   1   5   16.13    7.19
   5  10   1   19.14    8.36
  -5 -10   1   14.71    6.21
   1   5  10   22.10    7.04
  -1  -5  10   16.29    5.61
  10  -1  -5   11.61    7.81
   1  -5 -10   19.85    7.53
   5 -10  -1   28.21    8.01
 -10  -2  -5    4.89    5.67
  -2   5  10    5.96    4.72
   5  10  -2    2.36    8.57
  -2  -5 -10    8.05    5.20
   2  -5  10    7.66    3.89
  -5 -10  -2    7.11    5.58
   5 -10   2   10.82    5.85
  10   2  -5   34.15   10.09
  10  -2   5   11.62    6.75
 -10   2   5    9.61    4.91
   2   5 -10   -4.81    7.14
  -5  10   2    5.01    5.09
   5  10   2   -3.09    6.03
   2   5  10   -1.85    3.09
 -10   2  -5    5.67    4.92
  10   2   5   10.24    6.12
 -10  -2   5    5.80    3.94
   5 -10  -2    5.64    5.13
   2  -5 -10    0.98    3.94
  -5 -10   2    0.19    4.12
  -5  10  -2    4.31    4.04
  10  -2  -5    5.81    5.84
  -2   5 -10   14.77    6.85
  -2  -5  10    8.18    4.74
  10  -3   5   29.48    8.80
   5 -10   3   18.56    7.59
  -3  -5 -10   19.94    7.19
  10   3  -5   17.64    9.73
 -10  -3  -5   15.81    6.68
  -3   5  10   17.49    6.07
   3  -5  10    7.99    4.77
   5  10  -3   22.87   10.31
  -5 -10  -3   24.87    8.22
 -10   3   5   24.08    6.57
   3   5 -10    9.67    9.00
  -5  10   3   24.16    7.39
   3   5  10    7.48    4.71
 -10  -3   5   31.28    7.68
  -3   5 -10   21.38    7.91
  -5 -10   3   18.91    6.32
 -10   3  -5   13.94    6.18
  -5  10  -3   26.54    6.97
  -3  -5  10   13.07    5.80
  10  -3  -5   12.49    7.71
   3  -5 -10   24.42    7.87
   5 -10  -3   20.00    7.25
  10   4  -5   12.96    9.18
 -10  -4  -5   -1.92    5.49
  -4  -5 -10   16.13    6.30
  10  -4   5    8.73    6.03
   5 -10   4    3.60    5.67
   5  10  -4   -5.67    7.15
   4   5 -10   -6.41   10.10
  -5 -10  -4    4.64    4.97
   4  -5  10   13.31    4.62
 -10   4   5   19.54    6.97
  -4   5  10   12.14    6.03
 -10   4  -5   13.45    6.64
  -4   5 -10    4.37    6.01
   4   5  10    8.16    4.67
   5 -10  -4    6.80    5.50
   4  -5 -10    6.12    4.82
  -5 -10   4   13.38    5.94
   5 -10  -4    0.58    4.27
  10  -4  -5    0.80    4.90
  -5  10  -4    6.22    5.00
 -10  -4   5    8.86    5.46
  -4  -5  10   12.52    5.42
   5 -10   5    4.32    6.10
  -5  -5 -10   -3.25    3.56
   5  10  -5   17.77   10.93
  -5 -10  -5    6.61    5.29
 -10  -5  -5    2.57    4.97
  10   5  -5   15.81   10.76
  -5   5  10    8.39    5.22
  10  -5   5    7.94    5.80
   5   5 -10   -3.11   10.48
 -10   5   5    0.65    4.50
 -10  -5  -5    1.13    5.80
 -10  -5   5   16.36    6.58
  -5   5 -10   11.73    7.49
   5   5  10    0.13    3.35
   5  -5 -10    8.59    5.28
  -5  10  -5   11.01    5.95
  -5  -5  10    2.03    3.92
  10  -5  -5    8.45    6.59
   5 -10  -5    3.58    4.51
  -5 -10   5   15.33    6.70
 -10   5  -5    8.84    5.81
   5  10  -6   -4.82    7.84
   6   5 -10  -12.96    9.74
  10   6  -5    6.68    9.73
  -6  -5 -10   20.81    6.49
  -5 -10  -6   16.07    7.02
 -10   6   5    8.96    6.26
   5 -10   6    9.19    7.12
  10  -6   5   25.95   10.15
  -6   5  10   23.25    6.68
 -10  -6  -5   19.82    7.82
  -6  -5  10   20.98    6.82
   6   5  10   17.44    6.49
  -6   5 -10   29.57    9.10
   5 -10  -6   27.36    7.72
   6  -5 -10    9.56    5.45
 -10   6  -5    3.40    5.03
 -10  -6   5   14.09    6.55
  10  -6  -5    4.47    5.41
  -5 -10   6   18.53    7.15
  -7  -5 -10   18.79    7.04
   5 -10   7   23.32    9.64
 -10   7   5   34.86    9.42
 -10  -7  -5   26.44    8.27
   7   5 -10   39.31   14.52
   5  10  -7   10.92   11.94
  10  -7   5   18.22    8.68
  10   7  -5   39.28   13.59
  10  -7  -5   29.21    9.68
  -7   5 -10   35.87   10.55
   5  10   7   26.64   10.07
  -5 -10   7   30.66    9.15
   5 -10  -7   42.85   10.38
 -10   7  -5   41.53   10.12
   7  -5 -10   30.07    8.01
   7   5  10   14.64    5.86
  -7  -5  10   41.43    9.31
 -10  -7   5   28.57    8.64
   6  10   0  118.39   19.10
  10   0  -6  110.85   18.56
  -6 -10   0  125.17   13.71
  -6  10   0  114.49   12.96
   0  -6  10  132.92   12.72
  10   0   6  112.28   13.49
   0   6  10  133.72   13.81
 -10   0  -6  100.52   13.40
   0   6 -10  124.10   15.90
   0  -6 -10  110.47   13.92
   6 -10   0  125.11   14.91
 -10  -1  -6   13.21    7.01
  -6 -10  -1    2.35    4.84
  -1   6  10   12.69    5.89
  -1  -6 -10    9.59    5.80
  -6  10   1    7.86    5.65
   6 -10   1    4.95    5.63
   6  10  -1    5.49    9.23
 -10   1   6    1.97    3.85
  10   1  -6   14.34    8.77
   1   6 -10    8.77    7.98
  10  -1   6   -1.03    4.85
   1  -6  10    8.88    4.75
   6  10   1   -2.90    6.96
  -1  -6  10   14.76    5.89
  10  -1  -6   23.10    9.20
  -6  10  -1   20.36    7.38
   1   6  10   -0.78    3.35
   6 -10  -1    7.76    5.99
 -10   1  -6   20.24    7.53
  -1   6 -10    4.30    6.20
   1  -6 -10   14.56    7.53
  -6 -10   1   10.62    5.39
  -6  10   2   15.65    7.15
 -10  -2  -6   24.99    8.24
  -6 -10  -2   41.46    9.54
   6  10  -2   29.06   11.87
   6 -10   2   22.58    8.13
   2  -6  10   18.58    5.59
  -2  -6 -10   29.85    8.45
  -2   6  10   14.13    6.14
 -10   2   6   28.58    7.85
  10  -2   6   15.86    7.23
  10   2  -6   19.32    8.93
   2   6 -10   18.58    9.99
  -2  -6  10   14.71    5.76
   2   6  10   19.04    6.30
   6 -10  -2   21.30    8.07
  -6 -10   2   27.97    7.95
   2  -6 -10   32.63    8.75
  -6  10  -2   36.01    8.18
 -10   2  -6   12.69    6.45
   6  10   2   12.79    8.86
  -2   6 -10    7.77    6.40
 -10  -2   6   16.43    6.05
  10  -2  -6   49.43   12.21
  -6  10   3    2.42    5.13
  10  -3   6   13.56    6.27
   6 -10   3   12.55    6.98
  -3   6  10   10.63    5.62
  -3  -6 -10    8.16    5.49
   6  10  -3  -10.25    6.61
   3   6 -10   10.22   11.33
 -10   3   6    3.60    4.45
 -10  -3  -6    5.90    6.38
  -6 -10  -3    0.04    4.14
  10   3  -6    0.40    7.89
   3  -6  10    2.16    5.72
   3  -6  10    4.25    4.08
  10  -3  -6    1.40    6.04
   3  -6 -10    2.74    4.10
 -10  -3   6   16.66    5.98
   6 -10  -3    7.13    5.36
  -3   6 -10   -3.36    5.60
  -6  10  -3    8.57    5.13
   3   6  10    7.01    4.74
 -10   3  -6    3.30    4.92
  -3  -6  10    3.20    4.90
  -6 -10   3   -1.14    4.28
 -10  -4  -6   21.67    7.81
  -6  10   4   19.38    7.49
   6 -10   4   41.44   10.84
  10  -4   6   27.19    8.82
  10   4  -6   44.95   14.25
   6  10  -4   21.61   11.27
  -4   6  10   33.05    8.01
  -4  -6 -10   16.50    6.57
 -10   4   6   38.54    8.72
   4   6 -10    8.21   11.88
  -6 -10  -4   38.03    9.50
  10   4   6   36.15    8.59
  -6 -10   4   40.75    9.06
  10  -4  -6   26.18    8.50
  -6  10  -4   20.40    6.96
   6 -10  -4   31.90    8.08
 -10  -4   6   26.03    7.64
   4  -6 -10   24.22    7.51
  -4  -6  10   27.77    7.98
   4   6  10   32.87    8.30
  -4   6 -10   25.14    9.48
 -10   4  -6   29.39    8.73
   5   6 -10  -10.95   10.58
 -10   5   6   29.30    8.46
  -6 -10  -5    7.47    5.88
  10   5  -6   13.49   11.19
   6  10  -5   -8.49    7.55
  -5   6  10   12.38    6.13
  10  -5   6   19.91    8.24
 -10  -5  -6   14.89    7.01
   6 -10   5    6.69    6.59
  -5  -6 -10   16.07    6.49
  -5  -6  10   14.83    6.25
  10  -5  -6   10.74    6.60
  -5   6 -10    3.23    5.89
 -10   5  -6    7.51    6.04
   6 -10  -5   17.46    7.56
  10   5   6    7.25    5.82
   5  -6 -10    6.33    5.35
 -10  -5   6   16.63    6.43
  -6 -10   5    9.08    5.53
  -6  10  -5   14.85    6.27
   5   6  10    1.63    3.98
  10  -6   6   10.63    7.76
   6  10  -6   -4.64    9.78
  10   6  -6   15.71   12.21
 -10   6   6   11.34    6.58
   6   6 -10   -6.82    9.52
  -6  -6 -10    6.18    5.18
   6 -10   6   -1.82    5.47
  -6 -10  -6    6.46    6.27
  -6  -6  10    2.77    5.20
   6  -6 -10    6.99    5.42
  -6 -10   6   -0.20    5.15
   6 -10  -6   11.52    6.33
 -10   6  -6    6.17    6.62
  10   6   6   19.58    7.43
  -6   6 -10   11.72    8.83
   6   6  10    4.54    5.71
 -10  -6   6   13.04    6.60
  -6  10  -6   11.16    6.27
  10  -6  -6    8.48    5.94
 -10   7   6   15.19    6.96
   7   6 -10  -15.25   10.08
   6 -10   7    4.49    6.80
  10  -7   6    3.51    6.38
  -7  -6 -10    2.39    5.32
  10   7  -6    6.30   11.33
   6  10  -7    9.45   12.38
   7   6  10   -0.09    4.75
   6  10   7    3.41    5.80
  10   7   6    7.78    5.86
  -7  -6  10    2.44    4.97
 -10   7  -6   20.00    7.99
  10  -7  -6   22.61    9.44
   7  -6 -10    1.30    5.13
   6 -10  -7    3.41    5.17
  -7   6 -10    7.98    7.93
 -10  -7   6   14.75    7.32
  -6 -10   7    6.86    6.46
  -7  10   0   -1.51    4.04
   0  -7  10    0.12    3.62
  10   0  -7    7.62    6.83
   0  -7 -10   -0.19    4.90
 -10   0  -7    2.21    6.02
   7  10   0    0.51    7.70
  -7 -10   0    5.08    5.22
   7 -10   0    2.03    5.32
   0   7 -10    5.07    7.21
   0   7  10   -2.94    3.45
 -10  -1  -7    0.71    4.92
   1   7 -10   -8.70    5.99
  -7 -10  -1    0.11    4.36
  10   1  -7    2.03    6.33
   7 -10   1    5.59    6.08
   7  10  -1    4.15    9.47
  -1  -7 -10   -1.22    4.37
  -1   7  10    4.20    5.13
  -7  10   1    5.71    5.25
   1  -7  10   -0.13    3.95
  10  -1  -7   -1.25    5.43
  -7 -10   1    2.85    4.47
  -7  10  -1    0.59    4.43
 -10   1  -7    6.74    5.83
  -1   7 -10    4.89    6.35
   1   7  10    1.97    3.63
   1  -7 -10    2.50    4.71
  -1  -7  10    3.91    4.36
   7  10   1   -0.14    8.33
   7 -10  -1   -3.00    5.05
   2   7 -10   41.04   13.75
   2  -7  10   35.37    7.86
   7  10  -2   43.79   14.43
  -2   7  10   29.41    7.53
  10   2  -7   45.74   12.37
 -10   2   7   72.64   10.55
  -7 -10  -2   34.17    8.91
   7 -10   2   39.52   11.10
 -10  -2  -7   38.82   10.18
  -2  -7 -10   49.11   10.46
  -7  10   2   47.16   10.15
 -10   2  -7   18.18    7.80
 -10  -2   7   40.88    8.70
  -2  -7  10   37.91    9.00
   2   7  10   19.97    6.74
   7 -10  -2   32.48   10.03
  -7 -10   2   20.13    7.12
  -7  10  -2   38.35    8.45
   7  10   2   41.69   11.72
  10  -2  -7   34.16    9.80
  -2   7 -10   15.48    8.18
   2  -7 -10   41.17    9.92
   7  10  -3   -5.00    9.63
   3  -7  10    3.06    6.54
  -7  10   3    6.09    6.40
  -3   7  10    5.19    5.41
  -3  -7 -10   -1.19    4.31
 -10  -3  -7   13.33    6.20
   7 -10   3    0.12    4.45
  -7 -10  -3    3.40    5.33
   3   7 -10  -12.55    7.89
 -10   3   7    3.76    4.42
  10   3  -7   12.90    9.70
  10  -3   7   -0.53    4.86
  -7 -10   3    2.79    4.26
 -10  -3   7    1.49    4.45
 -10   3  -7    9.30    6.47
   3   7  10    1.29    4.13
  10  -3  -7    1.59    5.83
  -7  10  -3    6.04    5.19
   7 -10  -3    3.34    5.07
   3  -7 -10   -1.72    3.86
  -3  -7  10    5.33    4.94
  -7  10   4   13.49    7.17
  10   4  -7   -1.61    7.03
 -10   4   7    0.99    4.63
   7  10  -4    5.10   10.44
 -10  -4  -7    5.41    5.76
   4  -7  10   11.61    8.22
  10  -4   7    3.85    5.70
   4   7 -10  -11.04    9.15
  -4   7  10   14.98    6.30
  -7 -10  -4   -1.81    4.38
  -4  -7 -10    9.59    5.96
   7 -10   4   -1.39    5.00
  -7  10  -4    5.26    5.47
  -4  -7  10    2.78    5.10
 -10   4  -7    6.58    5.38
   4  -7 -10    1.21    4.56
  -7 -10   4    1.25    4.67
   4   7  10   -0.28    3.38
 -10  -4   7    8.15    4.83
   7 -10  -4   11.14    6.87
  10  -4  -7   12.51    7.10
  10   4   7    4.27    5.53
  -7 -10  -5    4.75    6.27
  10  -5   7    3.69    5.66
  -7  10   5    5.66    5.60
  -5  -7 -10   -5.32    4.06
   7 -10   5   -0.14    5.27
   5   7 -10    6.33   14.43
   7  10  -5   -1.49   10.49
  10   5  -7   27.51   13.74
 -10   5   7   -0.16    5.08
 -10  -5  -7   -3.89    5.37
  -5  -7  10   -3.23    3.77
  -7  10  -5    6.88    5.55
 -10  -5   7   -0.27    4.63
   5   7  10    1.83    4.94
  -5   7 -10   10.79    8.31
  -7 -10   5    1.93    4.92
  10   5   7   -1.14    4.87
   5  -7 -10    4.68    5.70
  10  -5  -7    5.72    5.62
 -10   5  -7    1.47    4.68
   7  10  -6    1.74   11.38
 -10  -6  -7   11.75    6.86
  10  -6   7    5.14    6.43
  -7 -10  -6    6.49    6.80
 -10   6   7    6.02    5.76
   6   7 -10   -0.10   13.58
  10   6  -7    2.08    9.82
   7 -10   6    8.26    7.40
  -6  -7 -10   13.12    6.26
  10   6   7   14.88    7.00
  -6  -7  10   14.22    7.44
   6  -7 -10   -1.01    4.91
  -6   7 -10   11.52    7.56
 -10  -6   7   11.76    6.83
   6   7  10   14.27    6.44
 -10   6  -7   -1.44    5.48
  -7 -10   6    1.18    5.22
  -7  10  -6    9.46    6.31
  10   0  -8   12.55    7.71
   8  10   0   13.49   10.45
 -10   0  -8    1.47    5.57
   0  -8  10    6.13    4.96
   0   8 -10   11.80    7.65
  -8 -10   0    6.85    6.08
  -8  10   0    2.44    5.18
   0  -8 -10    3.36    5.63
   8 -10   0    9.58    6.46
   0   8  10   20.98    6.79
  -8 -10  -1   -0.71    4.95
   8 -10   1    4.89    7.42
  10   1  -8    3.79    7.36
  -8  10   1    8.70    6.03
 -10  -1  -8    1.91    6.00
   1   8 -10    4.34    8.11
  -1   8  10    7.34    5.87
   8  10  -1   -5.07    7.73
   1  -8  10    8.13    5.60
  -1  -8 -10    1.63    5.69
  -1   8 -10    4.34    6.83
  -8  10  -1   18.90    8.55
   8  10   1    0.81    9.78
 -10   1  -8    6.13    6.82
  -8 -10   1    7.05    5.49
  -1  -8  10    7.28    5.29
   1   8  10    3.20    4.35
  10  -1  -8    6.19    6.69
   1  -8 -10   14.45    6.44
   8 -10  -1   15.08    7.27
  -8  10   2   -3.40    4.83
  -2   8  10    2.34    4.36
   2  -8  10    3.54    4.47
   8 -10   2    6.69    7.25
  10   2  -8   16.61    8.30
  -2  -8 -10   -0.88    4.47
   8  10  -2   -7.77    8.46
  -8 -10  -2   -4.40    4.81
 -10  -2  -8   -4.43    4.59
   2   8 -10   -3.69    8.23
  -2  -8  10    7.76    5.47
  -8 -10   2    2.38    5.14
   2   8  10    3.82    4.73
   8 -10  -2    2.53    5.25
 -10  -2   8    5.57    4.78
   2  -8 -10    8.49    6.86
 -10   2  -8   13.70    6.93
  -8  10  -2   -1.74    4.50
  10  -2  -8    3.82    6.13
  -2   8 -10   -6.26    5.10
 -10   3   8   42.24    9.23
   3  -8  10   54.92   13.55
   8 -10   3   37.51   11.11
  -8  10   3   46.77   10.85
   3   8 -10   56.43   17.36
  -3  -8 -10   74.93   13.70
 -10  -3  -8   53.58   11.71
  10   3  -8   59.10   13.89
  -8 -10  -3   41.70   10.56
  -3   8  10   44.68   10.50
   8  10  -3   42.30   16.10
   8 -10  -3   49.53   11.19
  10  -3  -8   69.86   13.47
  -8 -10   3   43.21   10.41
  -8  10  -3   55.80   10.40
   3   8  10   22.05    7.06
  -3  -8  10   54.75   10.63
 -10   3  -8   49.47   12.30
   3  -8 -10   60.30   11.55
 -10  -3   8   53.21   10.32
 -10  -4  -8    2.94    5.52
  -8  10   4    3.95    5.84
  -4   8  10    2.15    5.41
 -10   4   8   -3.39    4.39
  -8 -10  -4   -0.13    5.11
  -4  -8 -10    0.93    5.46
  10   4  -8   13.98    9.35
   8 -10   4    1.69    6.51
   8  10  -4    0.24    9.92
   4   8 -10  -12.23    8.67
   4  -8  10   10.55    7.75
  -8 -10   4    3.21    4.91
  10   4   8   -1.47    5.30
 -10   4  -8   -1.37    6.31
  -8  10  -4    0.60    4.88
 -10  -4   8    5.93    6.16
   4   8  10    0.51    5.63
   8 -10  -4    2.22    5.88
  -4  -8  10    6.10    5.48
   4  -8 -10    3.36    5.26
  -9  10   0    4.50    6.66
   9  10   0   -5.36    7.84
   9 -10   0    2.28    5.22
  -9 -10   0    3.64    5.82
   0  -9 -10    1.75    5.77
   0  -9  10    2.76    5.04
  10   0  -9    3.75    7.22
 -10   0  -9   -3.21    5.56
   0   9 -10    7.39    7.91
   0   9  10    2.81    4.90
 -10  -1  -9   37.25   10.51
   9 -10   1    8.66    7.75
   9  10  -1    2.99   10.42
   1  -9  10    2.54    5.12
  10   1  -9   13.84    8.52
  -9  10   1    5.21    6.84
  -1  -9 -10   16.30    8.23
  -9 -10  -1    4.14    6.27
   1   9 -10    6.54    9.18
  -1   9  10   -4.91    3.78
  -1  -9  10   11.68    6.32
  10  -1  -9   -2.97    6.25
  -1   9 -10    3.00    6.33
   1   9  10    5.31    5.09
   9 -10  -1    3.91    6.30
 -10   1  -9    9.29    7.61
   9  10   1   -1.51    7.76
  -9 -10   1    5.17    5.66
  -9  10  -1    1.55    5.15
   1  -9 -10    3.03    5.49
  -9 -10  -2   15.13    8.40
   9  10  -2    1.71    9.40
 -10  -2  -9    7.89    6.43
  -9  10   2   22.36    8.28
  -2  -9 -10    7.60    7.54
   2   9 -10   -2.27    9.27
  10   2  -9   17.39    9.66
  -2   9  10    0.85    5.40
   9 -10   2    4.14    6.39
  -2  -9  10   23.30    8.01
   2   9  10    4.34    4.73
   9 -10  -2    2.29    4.83
   2  -9 -10    2.77    5.26
 -10   2  -9    4.89    6.71
  -2   9 -10    4.61    6.83
  -9 -10   2    8.21    6.75
  -9  10  -2    8.64    6.16
 -10  -2   9    9.09    5.88
 -11   0   0    0.94    3.44
   0 -11   0   -2.06    4.14
   0 -11   0    3.94    4.29
   0   0 -11    5.99    5.56
   0   0  11    1.66    4.09
  11   0   0    0.60    5.10
   1   0 -11   53.57    9.99
   1   0  11   44.52    8.75
  11  -1   0   27.21    8.73
  11   1   0   18.49    7.79
   0 -11   1   29.97    7.50
   0 -11  -1   34.87    8.59
   0 -11   1   18.99    6.63
   0 -11  -1   26.45    7.63
  -1   0  11   33.14    7.36
  -1   0 -11   36.65    8.50
 -11   1   0   21.69    6.27
 -11  -1   0   26.07    7.32
   2   0  11   52.01    9.51
   2   0 -11   52.70    9.28
   0 -11   2   46.99    8.91
   0 -11   2   33.51    9.46
   0 -11  -2   31.05    8.57
   0 -11  -2   57.25   10.94
  -2   0  11   42.10    8.28
  11   2   0   43.37   11.51
  11  -2   0   46.86   12.01
 -11   2   0   49.99    8.81
  -2   0 -11   46.84    9.25
   0 -11  -3   28.74    8.00
   3   0  11   19.06    6.52
  11  -3   0   19.08    8.63
 -11   3   0   26.20    7.56
  -3   0 -11   37.11    8.52
   0 -11   3   10.30    5.56
   3   0 -11   23.12    6.85
  -3   0  11   17.28    5.79
  11   3   0   13.41    7.58
   0 -11   3   16.58    7.29
   0 -11  -3   27.17    6.81
   0 -11   4    4.08    4.10
 -11   4   0   -3.54    3.55
  -4   0 -11    1.07    4.56
  -4   0  11    6.21    4.97
   0 -11  -4    8.04    5.56
   4   0 -11    0.36    4.07
  11  -4   0    0.68    4.10
  11   4   0    4.66    6.05
   0 -11  -4    6.04    4.68
   4   0  11   -0.83    3.88
 -11  -4   0   -0.89    4.78
 -11   5   0   11.01    5.31
  -5   0 -11   12.12    6.49
  -5   0  11    1.89    4.46
   0 -11  -5    7.60    5.95
   0 -11   5    9.39    4.77
   0  11  -5    0.46    5.97
   5   0  11   12.36    6.07
   0  11   5    3.64    5.48
  11   5   0   22.87    9.07
 -11  -5   0   10.87    7.10
  11  -5   0   25.52    9.03
   6   0  11   17.80    7.08
   0  11   6    6.13    5.85
 -11  -6   0   21.12    8.31
   0  11  -6   18.34    9.01
 -11   6   0   19.72    7.52
   0 -11  -6   29.08    8.73
  11   6   0   33.19   10.33
  11  -6   0   13.43    7.84
  -6   0 -11   15.72    6.60
  -6   0  11   18.47    6.33
   0 -11   6   15.09    6.56
   0 -11   7   36.84    8.67
   0  11  -7   36.64   11.08
   0 -11  -7   35.92    9.87
 -11  -7   0   42.82   10.84
   0  11   7   34.40    9.80
   7   0  11   21.34    7.32
  11   7   0   44.00   12.37
  -7   0 -11   49.77   10.20
  -7   0  11   22.94    7.46
  11  -7   0   43.20   11.48
 -11   7   0   30.96    9.27
   0  11   8   -0.54    5.85
  11  -8   0    2.17    5.36
   0 -11  -8    5.63    5.93
   0  11  -8   -2.41    6.63
   0 -11   8   -1.21    4.98
  11   8   0    9.19    8.46
  -8   0 -11   -6.49    4.56
  -8   0  11    5.94    4.88
 -11   8   0   -3.46    4.31
 -11  -8   0   -3.71    5.19
   0   1  11   86.33   10.53
  11   0  -1   48.97   12.88
  11   0   1   84.35   15.24
   1  11   0   76.86   13.11
 -11   0  -1   79.67   10.18
   0  -1 -11   74.10   12.28
  -1 -11   0   57.30   10.64
   1 -11   0   87.37   14.18
 -11   0   1   82.04   11.36
   0  -1  11   68.77   10.68
   1 -11   0   75.20   11.28
   0   1 -11   85.28   12.84
 -11  -1  -1   43.38    8.67
   1   1 -11   66.27   10.82
 -11   1   1   67.67   10.12
   1  -1  11   94.07   10.56
  11   1  -1   92.91   16.61
   1  11  -1   46.68   11.17
  -1   1  11   78.15   11.80
   1 -11   1   94.68   12.05
  11  -1   1   63.74   13.76
   1 -11   1   71.51   11.46
  -1 -11  -1   74.89   11.99
  -1 -11   1   51.57   10.09
 -11   1  -1   62.21   10.68
   1 -11  -1   63.63   10.85
  11   1   1   85.79   14.59
   1 -11  -1   74.71   12.45
  -1  -1  11   78.49   10.10
   1  11   1   77.99   13.20
 -11  -1   1   75.39    9.61
  11  -1  -1   75.80   15.85
   1   1  11  100.92   11.37
   1  -1 -11   79.90   11.63
  -1   1 -11   98.20   13.55
   2  -1  11   -0.26    3.61
 -11  -2  -1   -1.55    4.13
   2   1 -11   -0.94    3.73
  11   2  -1   15.77    7.73
 -11   2   1    2.45    4.74
   1 -11   2   -0.78    3.22
   1 -11   2    9.55    6.35
  11  -2   1   -0.45    4.94
   1  11  -2   -4.45    4.00
  -2  -1 -11    6.13    4.90
  -2   1  11    3.79    4.29
  -1 -11  -2   -2.45    3.98
   1 -11  -2    4.78    4.06
   1 -11  -2    4.74    5.13
 -11   2  -1   -0.93    3.13
  11   2   1    5.46    5.93
   1  11   2    9.91    5.62
   2  -1 -11   -1.60    4.14
   1 -11  -2    1.69    4.70
  -2   1 -11    7.97    5.35
  -1 -11   2    1.22    4.17
  -2  -1  11    5.67    4.35
  11  -2  -1   -0.16    5.45
   2   1  11    2.68    4.07
   3  -1  11   46.76    9.13
 -11   3   1   37.83    8.15
   1 -11   3   41.71   10.64
  11   3  -1   25.36    9.73
  -3  -1 -11   42.14    9.13
  11  -3   1   24.82    8.27
   1 -11   3   26.71    6.72
  -3   1  11   36.54    7.49
  -1 -11  -3   39.40    9.33
   3   1 -11   32.41    7.25
   1  11  -3   25.98    8.99
   3  -1 -11   19.60    6.83
  11  -3  -1   35.42   11.27
  -3  -1  11   23.50    6.64
   1 -11  -3   32.54    8.01
  -1 -11   3   26.24    7.74
  11   3   1   30.41    9.31
  -3   1 -11   40.33    9.51
   1 -11  -3   31.24    8.64
 -11   3  -1   35.22    8.53
   3   1  11   26.35    6.82
   1 -11  -3   31.10    7.28
 -11  -4  -1    6.15    5.52
  -1 -11  -4   10.73    6.68
  11  -4   1   10.19    7.07
  11   4  -1   11.68    7.12
  -1 -11  -4   20.59    7.03
   1 -11   4   11.51    6.67
   1  11  -4   13.68    8.27
 -11   4   1    8.89    4.77
  -4  -1 -11   11.02    5.63
   4  -1  11   19.86    6.45
  -4   1  11    8.42    4.87
  -1  11   4   13.30    7.44
   1 -11  -4   12.40    5.96
  -4   1 -11   12.53    6.94
  -1 -11   4   15.50    5.66
  -4  -1  11   23.48    6.55
  11   4   1   18.22    7.96
   4  -1 -11   12.20    5.90
 -11  -4   1   15.10    6.11
   4   1  11   18.91    6.24
 -11   4  -1   25.70    7.14
  11  -4  -1   20.05    8.51
   1 -11   5    5.99    6.89
  -5  -1 -11   25.97    8.03
  11  -5   1   11.70    8.39
  11   5  -1   23.64   10.29
  -1 -11  -5    8.03    6.35
 -11   5   1   19.91    6.87
 -11  -5  -1   12.65    6.75
  -5   1  11   20.90    6.43
   5  -1  11   15.10    5.70
   1  11  -5   20.97    8.97
  -1  11   5   10.47    6.44
   5  -1 -11   20.35    6.59
  -1 -11   5   20.47    6.72
  -5  -1  11   25.43    6.89
  11   5   1   25.37    8.94
 -11  -5   1   33.62    8.34
  -5   1 -11   16.86    7.00
  11  -5  -1   12.54    6.91
   1 -11  -5   21.45    7.28
 -11   5  -1    6.05    4.74
   5   1  11   25.72    7.30
  -6   1  11    1.67    4.27
  11   6  -1    4.77    7.25
 -11  -6  -1   -4.22    5.33
  -1 -11  -6    7.10    5.30
  -6  -1 -11    6.11    5.26
  -1  11   6    4.72    5.27
   1 -11   6   -0.21    6.01
   1  11  -6    5.55    7.61
 -11   6   1    5.45    4.47
   6  -1  11   -1.67    4.14
  11  -6   1   -2.37    3.80
  -1 -11   6    0.53    4.29
   6   1  11    2.69    4.84
   1  11   6    6.36    6.77
 -11  -6   1    2.07    5.04
  -6  -1  11   14.15    6.43
  11   6   1   16.21    8.11
   6  -1 -11   14.26    6.41
  -6   1 -11    7.50    5.41
 -11   6  -1    5.06    4.50
   1 -11  -6    0.89    5.01
  11  -6  -1    4.67    5.73
  11   7  -1    3.56    7.64
  11  -7   1    4.53    5.19
  -7  -1 -11   11.56    6.87
  -1  11   7   12.10    8.05
  -1 -11  -7   11.07    5.90
  -7   1  11    6.04    4.80
 -11  -7  -1    4.79    6.31
 -11   7   1    8.07    6.77
   1  11  -7    3.20    7.23
   1  11   7    7.32    5.97
   7   1  11    0.46    4.99
  -7  -1  11    5.80    5.30
  -1 -11   7    2.63    5.05
 -11  -7   1    6.85    5.78
 -11   7  -1    2.79    5.09
  11  -7  -1    5.83    5.78
  -1  11  -7   10.46    8.06
  11   7   1   12.32    6.65
   1 -11  -7    5.66    6.17
  -7   1 -11    7.07    5.98
  11  -8   1   11.09    7.73
  11   8  -1   25.36   10.76
  -8  -1 -11   13.63    6.86
   1  11  -8    4.76    7.14
  -1 -11  -8    2.45    6.84
 -11   8   1    0.81    5.58
   1 -11  -8    4.11    6.65
  -8   1 -11    3.90    6.65
  11   8   1    5.64    7.60
  -1  11  -8    3.60    7.07
 -11   8  -1    4.43    5.70
  11  -8  -1    3.93    5.50
   0   2  11    9.47    5.41
   2 -11   0   16.16    6.90
   2  11   0   15.94    7.75
   0   2 -11   12.90    6.00
   0  -2 -11   15.76    6.50
 -11   0  -2   19.73    6.38
 -11   0   2    8.15    4.57
  11   0  -2   21.46    9.29
  -2 -11   0    7.21    5.71
   0  -2  11   18.75    5.66
  11   0   2   20.04    8.25
  -2  11   0   20.66    6.49
  -1  -2 -11   19.54    6.70
   1   2 -11    0.77    4.56
  -2  11   1   17.73    5.65
  -2 -11  -1    5.69    5.53
   1  -2  11   -1.38    4.07
 -11   1   2    3.26    4.23
 -11  -1  -2   10.57    5.63
   2  11  -1    0.87    5.85
  11  -1   2    0.16    4.97
  11   1  -2   23.80   10.02
   2 -11   1    4.70    5.80
  -1   2  11    4.53    4.11
  -2 -11   1   10.12    5.54
  -1   2 -11    9.30    5.57
   1  -2 -11    9.97    5.42
   1   2  11    0.52    3.88
  11  -1  -2   11.69    8.07
 -11   1  -2    3.01    5.08
   2  11   1   11.21    6.24
  -1  -2  11   12.98    5.26
  11   1   2   13.63    7.99
   2 -11  -1    7.46    5.28
   2 -11   2   32.06    9.82
  -2  -2 -11   30.57    8.59
  -2   2  11   31.06    7.80
  -2 -11  -2   43.16   10.04
   2   2 -11   35.20    7.78
  11  -2   2   38.51   11.19
   2  11  -2   45.35   12.75
 -11  -2  -2   31.92    7.87
   2  -2  11   42.07    8.54
 -11   2   2   29.68    7.12
  11   2  -2   16.90    7.93
  -2  -2  11   25.03    6.50
  11   2   2   40.24    9.70
   2  -2 -11   20.00    7.02
  11  -2  -2   35.79   10.19
  -2   2 -11   39.91    9.55
   2   2  11   23.07    6.86
 -11   2  -2   39.17    9.29
   2  11   2   27.48    8.95
   2 -11  -2   30.78    7.81
   2 -11  -2   51.91   10.47
  -2 -11   2   25.07    7.14
  -3   2  11    2.34    4.22
 -11  -3  -2    7.85    5.85
   3  -2  11    6.66    4.18
  11   3  -2    2.03    5.64
   2  11  -3    3.46    6.17
  -3  -2 -11    5.83    5.14
 -11   3   2    0.10    3.81
  11  -3   2   -0.95    4.10
  -2 -11  -3    4.97    5.04
   2 -11   3    6.44    5.12
   3   2  11    1.37    4.47
  -2 -11   3    0.41    3.91
  11   3   2    3.56    6.03
  11  -3  -2    6.98    7.44
   2 -11  -3   -0.78    4.26
   3  -2 -11    3.83    4.66
 -11   3  -2   -1.17    3.69
  -3  -2  11   -4.95    2.67
   2 -11  -3    0.98    4.18
  -3   2 -11    4.54    5.41
  11   4  -2   45.10   12.08
   2 -11   4   42.53   11.74
  11  -4   2   60.79   14.30
   2  11  -4   70.79   15.95
 -11   4   2   36.02    8.20
  -2 -11  -4   27.81    8.63
   4  -2  11   68.26   10.46
  -4   2  11   49.64    8.76
  -4  -2 -11   25.04    7.49
  -4   2 -11   71.06   12.13
 -11  -4   2   44.29    9.02
  -2 -11   4   58.42    9.87
  11  -4  -2   72.72   15.59
   4  -2 -11   48.61    9.25
   4   2  11   35.12    8.21
 -11   4  -2   64.24   11.63
  -4  -2  11   45.24    8.50
   2 -11  -4   55.54   10.43
  11   4   2   57.11   12.45
 -11   5   2    0.65    4.25
  -5  -2 -11    2.52    4.54
  -5   2  11   -0.61    3.96
 -11  -5  -2    0.18    5.03
  11  -5   2    0.41    5.87
   2  11  -5   -7.89    5.36
   5  -2  11    1.93    4.50
   2 -11   5    2.01    5.51
  -2 -11  -5   -0.94    4.49
  11   5  -2   -4.01    6.80
 -11   5  -2    0.74    4.14
  11   5   2   -3.39    4.46
  11  -5  -2   -1.28    4.70
   5   2  11   -0.81    4.41
  -5   2 -11   -1.57    4.78
  -5  -2  11    0.80    4.12
   5  -2 -11    1.45    4.00
   2 -11  -5    1.38    3.94
 -11  -5   2    2.56    4.41
  -2 -11   5    3.56    4.42
 -11   6   2   27.83    8.33
  -2 -11  -6   25.17    8.52
   2  11  -6   16.10    8.92
  11  -6   2   33.79   10.26
  -6   2  11   29.11    7.50
   2 -11   6   21.02    9.18
 -11  -6  -2   12.62    6.68
  11   6  -2   29.77   10.71
  -6  -2 -11   13.65    6.70
   2  11   6    6.25    6.48
 -11   6  -2   33.56    8.69
 -11  -6   2   11.74    6.27
  11   6   2   23.34    9.19
  11  -6  -2    1.59    5.72
  -6   2 -11   20.03    8.16
  -2 -11   6   17.62    6.65
   2 -11  -6   17.40    8.02
   6   2  11   17.82    7.04
   6  -2 -11   16.03    6.22
  -6  -2  11    7.35    4.32
  -7   2  11   37.71    8.11
   2 -11   7   22.99   10.15
 -11   7   2   28.28    8.54
 -11  -7  -2   35.62   10.05
  -7  -2 -11   27.04    8.43
  11   7  -2   20.50   11.33
  -2 -11  -7   13.58    7.20
   2  11  -7   34.60   12.48
  11  -7   2   18.04    7.97
  11   7   2   45.01   11.29
   7  -2 -11   27.79    8.90
   2  11   7   28.55    9.27
  -7  -2  11   21.08    7.24
 -11  -7   2   39.62    9.80
 -11   7  -2   21.31    7.80
  11  -7  -2   17.46    7.92
  -7   2 -11   29.74    9.32
   7   2  11   24.45    7.43
   2 -11  -7   31.68    9.55
  -2 -11   7   27.94    8.23
 -11   0   3   24.80    6.63
  -3  11   0    8.80    4.81
  11   0   3   11.23    7.97
  11   0  -3   24.43    9.76
   3  11   0    7.58    6.50
  -3 -11   0    4.41    4.85
 -11   0  -3    8.71    5.78
   0   3  11   19.12    6.43
   0  -3  11   17.90    6.23
   3 -11   0   10.14    5.99
   0  -3 -11    4.61    5.30
   0   3 -11   22.40    6.67
  -3 -11  -1    4.00    5.91
 -11  -1  -3   11.17    5.82
   3  11  -1   18.57    8.07
   1  -3  11    1.87    3.38
   3 -11   1   -4.97    3.72
  -1   3  11   18.19    6.24
  -1  -3 -11   14.21    6.71
  11  -1   3   15.70    7.75
  11   1  -3   12.30    7.36
 -11   1   3   12.40    5.17
  -3  11   1    9.58    5.60
  -1  -3  11   10.40    5.08
   1   3  11    7.69    5.46
  11   1   3   11.00    6.87
  -1   3 -11   11.46    6.14
  11  -1  -3   10.64    8.30
   1  -3 -11    5.30    4.90
   3  11   1    8.84    6.86
  -3  11  -1   12.76    5.43
 -11   1  -3    2.96    4.66
  -3 -11   1    7.92    5.35
   3 -11  -1    7.05    5.46
  -3 -11  -2  101.78   14.99
 -11  -2  -3   91.82   13.25
   3 -11   2  100.83   12.61
  -2   3  11   93.05   11.84
  -3  11   2   97.01   11.66
  11  -2   3  106.80   17.80
 -11   2   3   96.00   11.13
  -2  -3 -11   69.59   12.19
  11   2  -3   82.58   16.91
   3  11  -2   84.04   15.70
   2  -3  11  116.40   11.99
  -2   3 -11  115.41   14.18
   3 -11  -2   58.51   11.15
  -2  -3  11   98.35   10.91
 -11   2  -3   89.33   11.69
   2   3  11   99.24   12.09
  11   2   3  107.34   16.82
  -3 -11   2   96.99   11.90
  11  -2  -3  101.03   17.45
   2  -3 -11  110.03   12.60
   3  11   2   81.97   14.44
  -3  -3 -11    3.51    4.24
   3  11  -3    3.16    6.42
  11  -3   3    3.57    5.28
  -3 -11  -3   15.83    6.84
   3 -11   3   -0.14    4.86
 -11   3   3    3.46    4.21
   3  -3  11    3.25    4.71
 -11  -3  -3    5.38    5.81
  -3   3  11    0.36    3.95
  11   3  -3   13.27    7.58
   3 -11  -3   -3.19    4.47
   3 -11  -3    1.09    4.16
  -3  -3  11    4.11    3.96
   3  -3 -11    1.63    4.30
  11  -3  -3    5.70    6.98
   3   3  11    1.87    3.35
  -3   3 -11   -2.25    4.77
 -11   3  -3    4.56    4.29
  11   3   3    1.97    5.26
  -3 -11   3    2.12    4.76
  11   4  -3   43.02   11.64
   3  11  -4   45.91   13.67
  -3 -11  -4   57.27   11.41
  11  -4   3   44.86   12.30
   4  -3  11   65.26    9.92
  -4  -3 -11   33.12    8.32
  -4   3  11   39.26    8.44
   3 -11   4   35.59   10.73
 -11   4   3   53.38    9.98
  11   4   3   32.40    9.21
   3 -11  -4   29.27    7.84
  -4   3 -11   63.02   11.93
  11  -4  -3   35.01   11.57
  -3 -11   4   37.16    8.38
 -11   4  -3   48.99   10.68
   4   3  11   63.86   11.05
   4  -3 -11   49.76    9.91
 -11  -4   3   51.61    9.94
  -4  -3  11   46.97    8.88
  -5   3  11   27.78    7.10
 -11  -5  -3   15.14    7.20
  11   5  -3   15.80    8.88
   3  11  -5   20.12   10.53
   3 -11   5   15.15    7.92
  11  -5   3   23.60    9.83
  -3 -11  -5   25.68    9.00
   5  -3  11   13.86    6.40
 -11   5   3   31.35    8.32
  -5  -3 -11   24.36    7.29
 -11  -5   3   27.37    7.71
  11   5   3   10.83    7.19
   3 -11  -5   27.01    7.99
  -3 -11   5   27.35    7.56
  -5  -3  11   17.39    6.11
   5   3  11   27.27    7.57
   5  -3 -11   33.76    8.07
 -11   5  -3   26.42    7.79
  -5   3 -11   36.12    9.62
  11  -5  -3   27.57    9.47
   3  11  -6   19.43   11.23
 -11   6   3   22.26    7.64
  -6  -3 -11   21.70    7.33
   3 -11   6   45.04   12.01
 -11  -6  -3   33.17    9.59
  11  -6   3   12.60    7.06
  -6   3  11   29.74    7.35
  11   6  -3   16.48    9.99
 -11  -6   3   20.16    7.75
   6   3  11   17.77    7.25
   3  11   6   18.10    7.50
   6  -3 -11   15.95    6.28
  -6   3 -11   15.44    8.27
  -6  -3  11   19.46    6.41
 -11   6  -3   22.08    7.83
  -3 -11   6   18.56    7.51
   3 -11  -6   21.61    7.95
  11  -6  -3   23.09    8.84
  11   6   3   38.97   10.17
 -11  -7  -3   -0.28    5.58
   3 -11   7    3.07    7.36
  -7   3  11    3.89    4.33
  -3 -11  -7    1.57    6.57
   3  11  -7   -4.52    7.09
  11   7  -3   28.53   10.98
  11  -7   3   -4.40    5.01
 -11   7   3    7.49    5.62
  -7  -3 -11    4.88    5.10
  11  -7  -3    4.52    5.75
 -11  -7   3    4.55    5.46
 -11   7  -3    2.88    4.95
   7  -3 -11    3.16    5.25
  -3 -11   7    3.96    5.25
   3  11   7    3.92    6.18
  -7   3 -11    5.12    6.82
   3 -11  -7    3.44    5.01
  -7  -3  11    1.31    4.80
   7   3  11    1.02    4.95
  -4  11   0   12.85    5.02
   0  -4 -11   -4.29    3.65
  11   0  -4    0.81    5.87
   0   4  11    3.86    4.26
   4 -11   0   -0.86    4.53
 -11   0  -4    7.94    5.79
  -4 -11   0   -4.37    4.24
  11   0   4    2.91    5.58
   4  11   0   10.98    7.59
   0  -4  11    3.52    4.03
  11  -1   4    7.00    5.97
  11   1  -4   15.92    8.43
  -4  11   1    7.62    5.50
 -11  -1  -4   10.89    6.22
   4  11  -1    4.70    7.39
  -1  -4 -11    7.17    5.12
 -11   1   4   13.74    5.72
   1  -4  11    2.21    3.60
   4 -11   1   -0.98    4.55
  -4 -11  -1    5.93    5.40
  -1   4  11    4.27    4.56
  -1  -4  11    1.56    3.48
   4 -11  -1   10.95    6.24
  11   1   4    5.41    6.41
  11  -1  -4   13.80    7.73
   1  -4 -11    1.62    4.78
   1   4  11    6.95    4.81
  -4 -11   1    1.67    4.07
  -1   4 -11    7.12    6.02
   4  11   1    3.55    6.83
  -4  11  -1   10.91    5.50
 -11   1  -4    2.98    4.54
  11  -2   4   -0.14    4.45
  11   2  -4    7.77    7.20
   4  11  -2   -5.33    5.84
 -11   2   4    5.49    4.71
  -4  11   2   -0.23    4.00
  -2   4  11    5.52    4.70
   4 -11   2    1.99    5.14
   2  -4  11    1.51    3.94
  -4 -11  -2    2.13    4.83
 -11  -2  -4   -1.79    4.53
  -2  -4 -11   -1.14    4.50
   2   4  11   -0.09    3.65
  -4  11  -2    8.09    4.77
  -4 -11   2    0.54    3.95
   4  11   2   -2.01    6.65
 -11   2  -4    1.85    4.61
  11   2   4    6.51    5.66
   2  -4 -11   -6.09    3.83
  -2  -4  11    7.49    5.08
  -2   4 -11   -1.89    5.47
  11  -2  -4    0.44    6.18
   4 -11  -2    8.59    5.23
  -4  11   3   18.68    7.10
 -11   3   4    4.68    4.90
   4  11  -3   11.71    7.80
  11   3  -4   19.37    9.38
   4 -11   3    5.43    6.50
  11  -3   4   17.96    8.78
   3  -4  11    9.51    5.08
  -3  -4 -11   14.93    6.69
 -11  -3  -4   11.88    7.27
  -3   4  11    5.23    4.73
  -4 -11  -3   16.90    6.92
  -4 -11   3   11.70    6.25
  -3   4 -11    4.83    5.89
  -3  -4  11    6.01    5.14
   3   4  11   14.27    6.63
   4 -11  -3   21.17    7.57
   3  -4 -11    9.89    5.85
  11  -3  -4    7.78    7.14
 -11   3  -4   13.27    6.63
  11   3   4    0.33    5.24
  -4 -11  -4   23.13    8.44
   4  11  -4   15.95    9.51
 -11  -4  -4   18.89    7.99
  -4   4  11   17.88    6.38
   4 -11   4   13.94    8.27
 -11   4   4   11.32    5.48
   4  -4  11   18.83    6.13
  -4  -4 -11   17.67    6.72
  11   4  -4   21.41   10.34
  11  -4   4   10.43    6.49
   4   4  11   -3.48    3.19
 -11  -4   4    9.56    5.47
   4 -11  -4    4.80    5.16
  11   4   4   14.27    6.80
   4  -4 -11   13.60    5.65
 -11   4  -4   11.24    5.91
  -4   4 -11   11.55    6.97
  -4 -11   4   10.47    6.30
  11  -4  -4   11.80    7.96
  -4  -4  11    2.64    4.15
  -4 -11  -5   15.43    7.62
  11  -5   4   -2.12    4.22
 -11  -5  -4    3.52    5.54
 -11   5   4    5.25    4.64
  -5  -4 -11    6.33    5.43
   4  11  -5    0.01    7.75
  11   5  -4   11.20    9.30
  -5   4  11   10.54    5.00
   4 -11   5    4.50    6.05
   4 -11  -5   30.82    9.20
   5  -4 -11    1.74    4.60
  -5   4 -11    3.69    6.04
 -11   5  -4    2.13    4.45
 -11  -5   4    6.55    5.10
  11  -5  -4    3.06    6.10
  -5  -4  11    1.79    3.72
  -4 -11   5    5.08    5.41
   5   4  11    6.80    5.72
   4 -11   6   34.27   11.53
   4  11  -6    4.42    8.14
  -6   4  11   16.60    6.49
 -11   6   4   29.39    8.59
  11   6  -4    6.29    8.66
 -11  -6  -4   18.60    8.17
  11  -6   4   15.33    8.58
  -6  -4 -11   18.24    6.45
  -6  -4  11   23.77    8.04
   4 -11  -6   12.34    6.74
  11  -6  -4   39.16   11.43
 -11  -6   4   33.89    8.77
 -11   6  -4   17.67    7.31
  -4 -11   6   19.25    7.75
   6  -4 -11   24.08    7.98
   6   4  11   27.52    8.07
  -6   4 -11   42.88   10.59
   4  11  -7    1.30    9.27
  11   7  -4    1.58    8.87
  11  -7   4   18.59    8.36
 -11   7   4    0.58    5.39
  -7  -4 -11   11.49    6.77
   4 -11   7    2.90    7.32
 -11   7  -4    6.51    5.99
  11  -7  -4    0.15    5.74
   4 -11  -7   13.34    6.40
  -7   4 -11    1.26    7.03
   7  -4 -11   -0.35    5.65
  -5 -11   0    2.92    5.53
   0  -5 -11   -1.01    4.22
   0  -5  11   -3.74    3.61
   5 -11   0   -0.80    4.05
   5  11   0   -2.10    6.54
   0   5  11   -6.03    3.88
  -5  11   0    6.37    5.35
 -11   0  -5    1.57    5.05
  11   0   5   -0.98    5.03
  11   0  -5    6.54    7.57
   5  11  -1   39.68   12.47
  -1   5  11   66.46   11.85
 -11  -1  -5   43.59   10.01
   1  -5  11   44.42    8.53
  11   1  -5   36.30   11.51
  -1  -5 -11   44.68    9.71
 -11   1   5   56.56    9.80
  -5 -11  -1   50.16   10.23
   5 -11   1   46.76   11.21
  11  -1   5   41.16   10.85
  -5  11   1   56.22   10.39
  -5 -11   1   43.66   10.31
 -11   1  -5   41.19   10.30
   1  -5 -11   83.69   14.19
  11  -1  -5   48.95   12.07
   1   5  11   48.13    9.97
  11   1   5   72.05   13.28
  -5  11  -1   70.86   11.90
  -1  -5  11   89.81   12.11
   5  11   1   65.93   15.01
   5 -11  -1   58.40   11.59
   5  11  -2   28.26   11.37
  -5 -11  -2   30.09    9.61
  -2  -5 -11   35.27    9.43
   5 -11   2   22.31    8.65
   2  -5  11   39.10    7.91
 -11  -2  -5   18.70    7.73
  -5  11   2   52.74   11.37
 -11   2   5   28.76    7.28
  11   2  -5   43.69   11.83
  11  -2   5   33.27    9.82
  -2   5  11   21.72    6.85
  -5  11  -2   28.40    7.53
 -11   2  -5   17.09    7.33
   5  11   2   22.38    9.52
   5 -11  -2   32.87    8.94
   2  -5 -11   28.80    8.00
  -5 -11   2   30.09    8.33
  11   2   5   50.31   11.58
  -2  -5  11   44.17    9.04
   2   5  11   32.22    8.46
  11  -2  -5   30.79   10.52
  -3   5  11    4.26    5.25
   5  11  -3    3.57    8.46
  11   3  -5   30.43   11.53
  -3  -5 -11   14.15    6.35
 -11   3   5   16.14    6.35
   3  -5  11    4.88    4.34
   5 -11   3   11.01    6.97
  -5 -11  -3   15.45    6.48
  -5  11   3   23.53    8.71
  11  -3   5   17.71    7.38
 -11  -3  -5    8.01    6.90
   3  -5 -11    3.22    5.04
  -3  -5  11   15.92    6.88
  -5  11  -3   10.81    5.76
   3   5  11   12.39    5.43
 -11   3  -5   15.46    7.47
  -5 -11   3   14.37    6.62
   5 -11  -3   19.62    7.80
  11  -3  -5    6.71    6.82
  -3   5 -11   13.05    7.32
   5 -11   4   -1.06    4.54
  11  -4   5   -0.75    4.87
 -11  -4  -5    7.51    6.84
  -5  11   4    2.76    4.97
 -11   4   5    5.28    4.93
  -5 -11  -4    2.94    4.51
  11   4  -5   19.27    9.82
   5  11  -4    8.78   10.20
  -4  -5 -11    9.37    6.00
  -4   5  11    2.93    5.20
 -11   4  -5   -0.35    4.43
  -5 -11   4   -3.02    4.22
  11  -4  -5    2.99    5.81
   4   5  11   13.32    5.75
   4  -5 -11    6.40    5.46
 -11  -4   5    6.40    5.76
  -4   5 -11    5.07    6.97
  -4  -5  11    3.54    4.88
   5  11  -5   66.36   18.63
  -5  -5 -11   43.78   10.15
  -5   5  11   40.10    9.07
   5 -11   5   50.40   13.46
  11  -5   5   42.83   11.84
  -5 -11  -5   42.99   10.70
 -11   5   5   66.40   11.21
  11   5  -5   53.73   14.72
   5  -5 -11   58.78   10.75
  -5 -11   5   47.33   10.39
 -11   5  -5   47.64   10.95
  -5   5 -11   67.71   13.68
   5 -11  -5   47.45   10.32
  11  -5  -5   65.29   13.69
 -11  -5   5   58.84   10.76
  -5  -5  11   46.97   10.51
   5 -11   6    7.94    7.18
   6   5 -11    6.60   12.65
  -6  -5 -11    4.42    5.71
  11  -6   5   17.65    8.95
 -11  -6  -5    8.59    6.45
   5  11  -6   16.60   12.26
 -11   6   5    4.59    6.10
  -6   5  11   14.56    6.53
  11   6  -5   20.26   11.05
  -6   5 -11    6.87    8.04
 -11  -6   5   12.07    6.37
  -5 -11   6   11.82    6.61
   6  -5 -11   17.76    7.56
  11  -6  -5    3.80    6.33
   6   5  11   12.57    6.12
  -6  -5  11   11.68    6.29
 -11   6  -5   19.74    7.37
   5 -11  -6   15.04    6.98
 -11   0  -6   14.33    7.57
   0  -6 -11   25.44    8.33
   0   6  11    6.06    5.59
   6 -11   0   21.92    7.60
  -6 -11   0   18.17    7.40
   0  -6  11   11.40    5.78
  -6  11   0    6.41    5.43
  11   0  -6   14.19    8.54
   6  11   0    6.39    8.85
  11   1  -6   25.61   10.57
   6  11  -1   -1.85    8.25
   1  -6  11   12.19    5.63
  11  -1   6   14.27    7.81
  -6 -11  -1    9.01    6.90
   6 -11   1    0.45    4.79
  -1   6  11   17.23    6.40
  -6  11   1   20.24    7.54
  -1  -6 -11   18.89    7.97
 -11  -1  -6    0.23    5.17
  11  -1  -6   11.70    7.59
   1   6  11   18.98    7.27
   6 -11  -1   16.31    6.98
   6  11   1   19.53   10.36
   1  -6 -11    6.42    6.25
 -11   1  -6   12.68    6.63
  -6 -11   1   12.97    6.55
  -6  11  -1    9.85    6.02
  -1  -6  11    7.28    5.23
   6 -11   2    4.65    6.15
  -6  11   2   11.13    7.12
  11  -2   6   -4.28    3.50
  11   2  -6   13.84    8.97
   6  11  -2    2.20    8.47
  -2  -6 -11    3.19    4.39
  -6 -11  -2   -3.70    4.39
 -11   2   6    9.78    5.70
  -2   6  11    5.19    5.58
 -11  -2  -6    3.81    6.64
   2  -6  11    8.24    4.69
   2   6  11    0.94    4.37
   2  -6 -11   -4.64    4.56
  -6 -11   2    0.92    5.22
  -2  -6  11    1.20    4.32
  11  -2  -6    2.00    7.59
  -6  11  -2   11.02    5.77
 -11   2  -6    6.32    6.72
   6 -11  -2    5.67    5.51
  -6  11   3    8.76    6.07
  -3   6  11    7.84    5.60
  11  -3   6    1.71    5.11
  11   3  -6   20.66   10.07
 -11  -3  -6    7.06    7.20
   3  -6  11    6.08    5.68
   3   6 -11    6.61   11.55
   6 -11   3   11.95    7.22
 -11   3   6    5.82    5.54
  -6 -11  -3    5.30    6.14
   6  11  -3   29.41   12.80
  -3  -6 -11   10.51    5.50
 -11  -3   6   22.81    7.13
   3   6  11    7.27    5.46
   6 -11  -3   13.71    7.23
  -3  -6  11   16.43    6.63
  -6 -11   3   18.50    7.11
  11  -3  -6   16.45    8.97
   3  -6 -11   12.51    7.50
  -6  11  -3    3.78    5.22
 -11   3  -6    1.67    5.47
  -4  -6 -11   10.50    6.41
  11   4  -6    9.73    9.62
   4   6 -11    9.76   12.61
  -6  11   4   15.60    7.70
   6 -11   4    5.00    6.95
 -11   4   6   -1.49    5.08
   6  11  -4   18.27   11.89
  11  -4   6   18.45    8.05
  -4   6  11    8.54    6.02
 -11  -4  -6    3.70    6.44
  -6 -11  -4    8.40    5.66
   4   6  11   10.12    5.61
 -11   4  -6    5.48    6.29
  -6  11  -4   16.86    6.70
  11  -4  -6    7.89    6.89
   4  -6 -11    9.38    6.24
 -11  -4   6    1.73    4.86
  -6 -11   4   16.55    6.87
  -4   6 -11    8.28    7.52
  -4  -6  11    1.54    5.39
  -6 -11  -5    2.42    5.45
   6 -11   5   -0.19    5.94
 -11   5   6    5.44    5.23
  -5  -6 -11    2.06    4.83
   5   6 -11   -4.93   12.51
  -6  11   5    3.89    6.08
  11  -5   6   -3.07    5.08
   6  11  -5   -8.06    8.55
  -5   6  11    8.47    6.14
  11   5  -6    1.64    8.81
  -5  -6  11   -1.44    3.88
   5  -6 -11    6.44    5.91
 -11   5  -6    2.38    6.06
  -6 -11   5    2.97    4.82
 -11  -5   6    2.24    4.84
  -5   6 -11    2.48    7.02
  11  -5  -6    8.13    6.61
   5   6  11    2.92    4.57
   0  -7  11   -2.20    4.45
 -11   0  -7   11.58    6.84
   0   7  11    7.48    5.44
  -7  11   0    5.95    5.73
   7 -11   0   -2.80    4.82
  11   0  -7    3.84    7.83
   0  -7 -11   -0.68    5.45
   7  11   0    0.73    8.92
  -7 -11   0   -2.73    4.78
  -1  -7 -11    4.42    5.50
   7  11  -1   13.34   11.19
 -11  -1  -7    7.21    6.94
   7 -11   1   21.78    8.71
  11   1  -7   24.23   10.11
  -7  11   1   13.30    7.44
   1  -7  11   17.80    6.42
   1   7 -11    9.75   10.46
  -7 -11  -1    6.13    6.38
  -1   7  11    3.82    5.27
   7  11   1    0.03    9.49
  11  -1  -7    8.37    7.94
  -7  11  -1   18.92    7.78
   1  -7 -11   13.20    7.34
   1   7  11    9.15    5.48
 -11   1  -7   17.37    8.22
  -7 -11   1   16.66    7.51
  -1  -7  11   10.49    5.79
   7 -11  -1   11.01    7.36
 -11  -2  -7   44.21   11.16
  -2  -7 -11   39.10    9.70
   2   7 -11   17.38   11.88
  -7  11   2    7.76    6.95
  11   2  -7   16.58    9.35
   7 -11   2   22.92    8.17
   2  -7  11   33.20    7.63
  -2   7  11   24.71    7.97
   7  11  -2   11.75   11.38
  -7 -11  -2   22.31    8.96
 -11   2  -7   20.72    8.51
  11  -2  -7   24.27    9.77
   2  -7 -11   21.19    8.04
  -7  11  -2   16.50    7.26
  -2  -7  11   23.35    7.43
   7 -11  -2   24.97    9.46
  -7 -11   2   19.99    7.86
   2   7  11   16.45    6.20
 -11   3   7   11.47    6.91
  -7  11   3   26.90    9.53
  -7 -11  -3   19.35    7.87
 -11  -3  -7   32.91    9.43
  -3   7  11   25.84    7.95
  11   3  -7   38.35   12.09
   3   7 -11    7.17   11.68
  -3  -7 -11   25.52    8.10
  11  -3   7   33.97   10.21
   7 -11   3   15.52    7.80
   7  11  -3   24.43   13.06
  11  -3  -7   23.15    9.66
   7 -11  -3   33.70   10.25
   3  -7 -11   31.51    9.76
  -3  -7  11   36.80    8.51
   3   7  11   20.72    7.29
  -7 -11   3   27.52    8.72
 -11  -3   7   33.38    8.79
 -11   3  -7   19.54    9.77
  -7  11  -3   24.05    8.37
  -7  11   4    5.89    6.55
  11   4  -7   21.71    9.78
 -11   4   7    1.70    5.78
   7  11  -4   26.08   15.17
   7 -11   4    7.25    7.44
  11  -4   7   13.72    8.78
  -4  -7 -11   21.73    8.03
 -11  -4  -7   19.57    8.56
   4   7 -11    7.04   14.30
   7 -11  -4   12.29    8.06
  -7  11  -4   -1.79    4.82
   4  -7 -11   16.06    7.13
 -11   4  -7   15.33    7.62
  11  -4  -7    6.33    7.30
   8  11   0  -15.63    6.87
  11   0  -8    0.68    6.95
   8 -11   0    2.52    7.03
   0   8  11    2.56    5.27
   0  -8  11    0.07    4.39
   0   8 -11   15.16   10.03
   0  -8 -11   -5.66    4.45
  -8  11   0    7.04    6.72
  -8 -11   0   -3.59    4.58
 -11   0  -8   -2.16    6.02
  11   1  -8    9.78    8.58
  -1  -8 -11   -0.03    6.15
   8 -11   1   12.44    8.63
   8  11  -1   18.49   11.19
 -11  -1  -8    6.00    6.92
   1   8 -11   -2.02    8.76
  -8  11   1    6.76    5.99
   8 -11  -1   12.69    7.96
   8  11   1   -7.75    9.14
 -11   1  -8   12.53    7.62
  -8  11  -1    9.57    6.89
  11  -1  -8   15.23    8.65
   1  -8 -11    0.76    5.18
  -1   8 -11    2.19    7.17
 -12   0   0    3.05    5.11
   0 -12   0    3.59    4.88
   0   0 -12    0.82    5.04
   0   0  12    3.14    4.45
  12   0   0    7.55    7.35
   1   0  12   -0.36    3.88
  12  -1   0    9.63    7.33
  12   1   0    2.93    5.61
   0 -12   1   -1.74    4.36
 -12  -1   0    1.84    4.63
 -12   1   0   -2.98    3.24
  -1   0 -12    0.89    4.83
  -1   0  12    0.51    4.59
   0 -12  -1    5.01    5.30
   1   0 -12    0.47    4.95
  12  -2   0   -2.64    5.28
   0  12   2    1.99    5.68
   2   0 -12    5.22    5.23
   2   0  12   -2.48    3.73
 -12   2   0   -3.40    3.41
  -2   0 -12    3.30    4.94
  -2   0  12   -4.27    3.40
   0 -12  -2    2.32    5.41
  12   2   0    1.14    5.23
   0 -12   2    1.08    4.53
   0 -12   3   19.54    6.40
   0 -12  -3   29.12    9.08
  -3   0 -12   13.25    6.59
  -3   0  12   17.29    6.17
   0  12  -3   18.45    9.22
   3   0 -12   12.91    6.82
 -12   3   0   19.60    7.04
  12   3   0   17.89    8.53
   3   0  12   17.39    6.53
  12  -3   0    3.03    5.96
  -4   0 -12   10.35    5.93
   4   0  12   14.97    6.90
 -12   4   0    2.58    4.42
  -4   0  12    3.83    4.40
   0 -12  -4   19.20    8.04
  12  -4   0    8.80    6.77
  12   4   0   14.32    7.74
   0  12  -4   12.74    8.49
   0 -12   4   17.04    6.75
  12  -5   0    7.37    7.15
  -5   0  12    2.97    4.77
   0 -12   5    0.35    5.12
   0 -12  -5   -1.27    5.79
  12   5   0   13.94    7.56
   0  12  -5    4.82    6.77
   0  12   5    0.39    5.62
   5   0  12    4.46    5.57
 -12   5   0    0.34    4.42
  -5   0 -12    7.31    6.00
   0  12   6    7.72    7.07
 -12  -6   0   -4.00    5.19
  -6   0 -12    5.04    6.31
  -6   0  12    1.94    5.00
   6   0  12    4.08    5.85
   0  12  -6   -1.35    5.38
  12   6   0    2.00    6.30
 -12   6   0    5.00    5.84
  12  -6   0   -2.28    5.77
   0 -12  -6   17.06    8.07
   0  -1  12    4.47    4.84
 -12   0   1   -0.48    3.90
   0   1 -12   -0.94    4.77
 -12   0  -1   -0.33    4.72
  12   0  -1    4.00    6.84
  12   0   1    7.10    6.33
  -1 -12   0    4.31    5.36
   0  -1 -12    3.80    4.52
   0   1  12   -0.32    4.59
   1 -12   0   12.09    6.22
   1  12   0    6.10    6.33
   1   1 -12    7.46    5.57
   1  -1  12   -0.90    3.95
 -12   1   1    0.20    4.31
  -1 -12  -1   -2.90    4.38
   1 -12   1    0.36    4.53
  -1   1  12    5.45    4.86
   1  12  -1    5.10    5.15
  12  -1   1    2.04    6.28
  12   1  -1    0.93    5.17
  -1  -1 -12    5.07    5.64
 -12  -1  -1   -6.23    4.23
   1  -1 -12   -2.44    3.92
  12   1   1    1.45    5.57
  -1 -12   1    4.95    5.58
 -12   1  -1    0.20    4.56
  -1  -1  12    2.24    4.83
  -1   1 -12   -0.27    5.14
  12  -1  -1   -2.25    5.90
   1  12   1   -0.72    5.03
   1   1  12    2.57    4.51
   1 -12  -1    2.37    5.31
  -2   1  12    1.37    3.93
 -12   2   1   -1.30    4.26
   2  -1  12    3.80    5.18
   2   1 -12    5.05    4.43
   1 -12   2    1.23    5.23
  -2  -1 -12   -2.31    4.56
  -1 -12  -2    0.72    5.14
   1  12  -2    7.12    5.83
  12  -2   1   -6.57    4.61
  12   2  -1   -4.94    4.95
 -12   2  -1   -4.31    3.59
  12  -2  -1    1.66    6.85
   2  -1 -12   -4.11    3.93
  -1 -12   2   -1.36    3.91
   1  12   2   -1.31    5.24
  -2   1 -12    2.92    5.34
   2   1  12    6.61    5.43
  -2  -1  12    0.58    4.17
  12   2   1    3.87    5.44
   1 -12  -2    0.12    4.70
  12  -3   1    9.56    7.63
  12   3  -1   12.75    8.03
 -12   3   1    2.62    4.47
  -3   1  12   10.25    5.01
   1 -12   3    4.00    5.64
   1  12  -3   11.48    7.61
   3  -1  12   11.06    6.05
  -3  -1 -12    5.30    5.32
  -1 -12  -3    5.82    5.14
  -3  -1  12    8.43    4.96
  -1 -12   3   17.92    6.30
 -12   3  -1    4.16    4.71
   3   1  12   18.29    6.99
  12  -3  -1   14.14    8.76
   3  -1 -12   15.49    6.88
  12   3   1    8.28    7.85
  -3   1 -12    7.14    5.00
  12  -4   1   31.05   11.40
   4  -1  12   14.65    6.69
   1 -12   4   19.09    8.87
 -12   4   1   23.69    6.83
  -1  12   4   15.89    7.14
  -4   1  12   13.91    5.60
  -1 -12  -4   14.03    6.84
  12   4  -1    9.24    6.85
  -4  -1 -12   14.12    6.59
   1  12  -4   31.06   10.79
   4   1  12   27.22    7.94
  12   4   1   22.49    8.83
   4  -1 -12   30.37    8.33
  -1 -12   4   15.65    6.99
  -4   1 -12   44.02   10.28
  -4  -1  12   19.60    6.89
 -12   4  -1   18.96    7.16
  12  -4  -1   11.44    7.75
   1 -12  -4   18.67    7.05
 -12   5   1    4.42    4.81
  12   5  -1    7.40    6.59
  -5  -1 -12   12.19    6.38
   5  -1  12   10.52    6.10
  -5   1  12    6.10    5.39
   1 -12   5    7.47    7.52
   1  12  -5   -0.07    6.67
  -1  12   5    8.98    6.56
  12  -5   1   -1.40    6.12
  12   5   1   21.58    9.17
   1  12   5    6.28    6.41
  -5  -1  12    6.65    5.38
   5   1  12   12.28    6.77
   5  -1 -12    2.82    4.94
   1 -12  -5    8.66    5.96
  -5   1 -12    4.72    5.87
 -12   5  -1    6.90    5.70
  -1 -12   5    8.26    5.94
  12  -5  -1   19.07    9.20
 -12  -6  -1    4.58    6.44
  -1  12   6   -0.13    6.09
  12  -6   1    3.29    6.37
 -12   6   1    0.91    5.11
  -6  -1 -12    0.14    4.76
  -6   1  12   -2.98    3.93
  12   6  -1    9.88    7.61
   6  -1  12    1.05    5.28
   1  12  -6    2.82    7.50
  12  -6  -1    0.72    6.31
   1 -12  -6    4.03    6.17
 -12  -6   1    1.50    5.26
   6   1  12    4.74    5.41
  -1  12  -6   11.31    7.80
 -12   6  -1    3.25    5.29
   1  12   6    0.85    4.72
  12   6   1    9.52    6.65
  -1 -12   6   -2.72    4.59
  -6   1 -12    3.52    6.11
  -6  -1  12    0.67    5.11
  -2 -12   0   -0.51    4.43
   0   2 -12   -2.72    4.08
   2  12   0    6.88    5.99
  12   0   2    0.25    6.68
   2 -12   0   -3.32    4.27
  12   0  -2   -1.71    5.69
   0  -2  12    0.75    3.60
 -12   0   2    1.39    4.94
   0   2  12    0.20    4.17
 -12   0  -2    1.05    4.72
   0  -2 -12   -2.76    3.85
   2  12  -1   -1.70    5.79
  12   1  -2    4.39    6.31
  12  -1   2    8.42    6.99
 -12  -1  -2    0.28    4.63
  -1  -2 -12    0.80    4.72
   1   2 -12   10.30    5.67
   1  -2  12    2.44    4.38
 -12   1   2   -6.59    3.28
  -2 -12  -1    1.59    4.34
  -1   2  12   -2.41    3.65
   2 -12   1    0.14    4.85
   1   2  12    3.65    4.28
   2  12   1   -1.51    5.00
   2 -12  -1    0.69    4.64
 -12   1  -2   -0.46    4.32
  -1   2 -12    4.57    5.17
   1  -2 -12    2.02    3.93
  -1  -2  12    2.99    4.26
  -2 -12   1    1.24    4.63
  12  -1  -2    4.33    6.52
  12   1   2    5.35    7.03
 -12   2   2   23.02    7.95
  12   2  -2   37.25   12.27
  -2  -2 -12   12.06    5.96
  12  -2   2   13.47    8.00
   2  12  -2   18.70    9.04
   2  -2  12   12.88    6.63
  -2 -12  -2   21.83    8.52
  -2   2  12   25.74    7.32
   2 -12   2    6.64    6.75
 -12  -2  -2   13.56    6.70
  -2  12   2   12.01    5.94
  -2 -12   2    7.72    5.26
  -2   2 -12   22.07    7.74
   2 -12  -2   19.38    7.56
   2   2  12   12.67    6.04
   2  -2 -12    8.24    5.61
  12  -2  -2   28.54   12.18
  -2  -2  12   23.07    6.81
   2  12   2   10.28    7.39
  12   2   2   18.16    8.64
 -12   2  -2   35.64    7.99
 -12   3   2   -1.24    3.90
   2  12  -3   -0.82    6.38
   2 -12   3    6.01    6.43
   3  -2  12    4.04    5.29
  -2 -12  -3   10.37    6.17
  -3  -2 -12    3.41    5.22
  12  -3   2    8.73    7.56
  -3   2  12    5.53    4.64
  12   3  -2   16.21    9.33
  -3  -2  12    3.78    4.27
 -12   3  -2   10.61    6.45
  -2 -12   3    1.44    5.09
  12   3   2   11.71    6.90
   3  -2 -12    5.14    5.59
  12  -3  -2    0.99    5.41
   3   2  12   -1.20    3.59
   2 -12  -3    3.44    5.27
  -3   2 -12    3.90    5.16
  -4   2  12   -0.21    4.44
   2 -12   4   -1.13    5.56
  -4  -2 -12   -3.92    4.03
   4  -2  12   11.09    5.54
  12   4  -2   -0.85    5.61
  -2 -12  -4   -1.69    5.29
 -12   4   2    0.11    4.61
   2  12  -4   -6.08    5.31
  12  -4   2   -3.36    4.77
 -12   4  -2    3.13    4.66
  -4   2 -12    2.35    6.23
   2 -12  -4   -6.22    4.16
   4   2  12    1.71    4.45
   4  -2 -12   -0.61    4.22
  -2 -12   4    6.35    5.68
  -4  -2  12   -1.38    3.97
  12   4   2    1.75    5.87
  12  -4  -2    1.65    6.63
  -2 -12  -5   -0.73    5.66
  12  -5   2    1.79    6.51
  12   5  -2   29.65   10.81
 -12   5   2   20.47    7.53
   5  -2  12   10.65    5.68
  -5   2  12   14.77    6.39
  -5  -2 -12   17.40    6.98
   2 -12   5   14.67    8.26
   2  12  -5   14.93   10.33
  -2 -12   5    3.96    5.58
  -5  -2  12    4.17    4.81
  -5   2 -12    6.64    6.52
  12   5   2   11.85    8.08
 -12   5  -2   13.66    6.77
   5  -2 -12    8.65    5.63
   5   2  12    9.57    6.28
   2 -12  -5    6.61    5.31
  12  -5  -2   19.90    9.38
  -6   2  12    3.23    4.96
  12   6  -2    8.15    7.39
   2 -12   6   17.24    9.62
  -6  -2 -12   10.49    5.99
 -12   6   2    7.26    6.15
   2  12  -6    0.26    7.04
  12  -6   2    8.72    7.03
 -12  -6   2   11.60    6.96
   2  12   6    0.97    5.73
  -6  -2  12    9.67    5.39
   6  -2 -12   17.83    7.01
   6   2  12    1.87    4.55
  12  -6  -2    3.16    6.12
 -12   6  -2    3.53    5.65
  12   6   2   16.13    7.73
   2 -12  -6    8.50    6.67
  -6   2 -12    3.97    5.79
  -2 -12   6    7.46    6.02
 -12   0  -3   31.10    9.24
  12   0   3   39.18   11.53
   3  12   0   11.63    8.00
  12   0  -3   14.89    8.64
   3 -12   0   16.48    7.33
   0  -3  12   25.07    7.41
   0   3  12   21.93    7.48
  -3 -12   0   38.79    9.74
   0  -3 -12   21.33    7.40
  -1  -3 -12   -1.67    4.19
  12  -1   3   -2.27    5.72
 -12  -1  -3    0.58    4.73
   3  12  -1   -2.69    6.31
 -12   1   3    1.85    4.99
  12   1  -3   12.19    7.16
  -1   3  12    2.05    4.80
   3 -12   1    4.39    4.77
  -3 -12  -1    4.67    5.79
   1  -3  12    2.28    4.53
  -3  12   1   -0.87    4.42
   1   3  12    1.99    4.15
 -12   1  -3   -6.42    4.21
  -1   3 -12   -1.56    4.97
  12   1   3    0.51    4.72
   1  -3 -12   -3.01    4.87
  -1  -3  12    2.05    4.09
   3  12   1   -9.45    6.24
   3 -12  -1    2.33    4.92
  -3 -12   1    0.30    3.99
  12  -1  -3    1.50    6.66
  -2   3  12   -1.68    3.61
  -3  12   2    2.74    5.19
  12  -2   3   -4.05    4.76
 -12  -2  -3   -1.53    5.02
   3  12  -2   -6.42    6.03
   2  -3  12   -0.25    4.18
  12   2  -3   -5.48    4.95
  -3 -12  -2   -3.21    4.38
 -12   2   3    4.63    5.12
  -2  -3 -12   -1.23    4.73
   3 -12   2   -3.95    4.06
  -3 -12   2    4.57    4.85
  12   2   3   -3.14    5.17
   2   3  12   -0.10    4.71
  -2   3 -12    7.82    5.94
  12  -2  -3   -1.34    5.50
   2  -3 -12    5.72    5.50
  -2  -3  12   -0.12    3.86
   3 -12  -2   -0.30    4.85
 -12   2  -3    3.74    4.86
  12   3  -3   -6.19    4.89
   3  -3  12    5.08    5.10
  -3   3  12    2.19    4.71
   3 -12   3    3.66    6.94
  -3  -3 -12   -0.95    4.10
  -3  12   3    9.20    5.63
  -3 -12  -3    0.90    4.91
  12  -3   3    0.97    6.19
   3  12  -3    1.42    7.00
 -12   3   3    1.78    4.76
  12  -3  -3    7.44    8.36
  -3 -12   3    1.19    4.04
   3  -3 -12    4.17    5.05
  -3   3 -12   -3.97    4.46
  12   3   3    4.64    7.46
  -3  -3  12    6.11    4.39
   3 -12  -3   -4.96    3.98
 -12   3  -3   -2.96    4.20
   3   3  12    0.31    4.92
  -4  -3 -12    3.89    4.90
  -4   3  12    5.69    4.46
   4  -3  12    2.42    4.92
 -12   4   3   -4.05    4.06
   3 -12   4    7.00    6.64
   3  12  -4    1.58    7.92
  -3 -12  -4    5.73    5.45
  12  -4   3    5.61    7.14
  12   4  -3   -3.41    5.14
   4  -3 -12    1.73    4.90
   4   3  12    6.51    5.72
 -12   4  -3    2.86    5.03
  -3 -12   4   -0.38    5.03
   3 -12  -4    4.30    5.57
  12   4   3    5.72    6.45
  -4   3 -12    7.81    6.78
  -4  -3  12    1.84    4.13
  12  -4  -3   -7.06    4.63
  12  -5   3   -2.10    5.57
   3  12  -5    0.45    7.87
  -5  -3 -12    1.98    4.35
 -12   5   3    4.81    5.59
  12   5  -3    3.43    6.78
  -3 -12  -5    0.71    5.59
   5  -3  12    2.19    5.45
  -5   3  12    1.48    5.42
   3 -12   5   -0.31    5.96
  -5   3 -12   -4.69    4.93
   5   3  12    2.41    5.04
 -12   5  -3   17.57    7.73
  12  -5  -3    4.31    6.91
  -3 -12   5    0.83    4.88
   3 -12  -5    3.77    6.06
   5  -3 -12    0.82    4.81
  12   5   3   -0.13    6.06
  -5  -3  12   10.65    5.56
  12   0  -4   22.44   10.69
   0  -4  12   14.19    6.17
  -4  12   0   21.56    7.50
   0   4  12   31.87    7.81
 -12   0  -4   29.67    8.88
   0  -4 -12   33.73    9.19
  -4 -12   0   17.30    7.29
   4  12   0    8.94    8.38
   4 -12   0   20.50    8.51
  12   0   4   12.49    7.65
  12  -1   4    2.56    5.30
  -4 -12  -1   -1.70    4.43
   4  12  -1   -3.61    7.81
  -4  12   1    5.73    4.71
  -1   4  12   -0.03    4.00
  12   1  -4    4.30    7.04
   1  -4  12   -2.44    4.08
 -12  -1  -4    4.73    6.33
   4 -12   1    5.26    5.95
  -1  -4 -12    4.42    5.64
  -4 -12   1    6.05    5.38
   4 -12  -1    3.55    5.64
  -1  -4  12    5.40    4.54
   1  -4 -12    5.27    5.43
 -12   1  -4    0.73    5.26
  12  -1  -4    2.24    6.45
   4  12   1   -9.89    5.91
   1   4  12    1.41    4.71
  12   1   4    1.44    6.22
 -12   2   4   -0.37    4.79
  -4  12   2    4.92    5.03
  -2   4  12    0.90    4.90
  -2  -4 -12   -1.27    4.61
  -4 -12  -2    1.69    5.12
   4 -12   2    6.89    5.69
 -12  -2  -4   -7.60    5.02
  12  -2   4   -2.58    4.94
   4  12  -2   -4.58    6.73
  12   2  -4   -2.69    6.22
   2  -4  12   -3.70    3.70
  -2   4 -12   -1.48    6.05
   4 -12  -2    1.01    4.96
  12  -2  -4    2.16    6.81
  -4 -12   2    0.93    4.63
  -2  -4  12    3.30    4.25
  12   2   4   -2.70    5.51
   2   4  12    3.52    5.79
   2  -4 -12    3.94    5.56
 -12   2  -4    0.42    5.59
  -3   4  12   21.28    7.09
   4 -12   3   23.96    9.85
 -12  -3  -4   19.32    8.39
 -12   3   4   13.32    6.52
  12   3  -4   37.28   12.62
  -4  12   3   25.03    8.54
  12  -3   4   25.87   10.45
   4  12  -3    2.33    8.47
  -4 -12  -3   22.05    8.83
  -3  -4 -12   36.53    9.44
   3  -4  12   39.70    8.24
   3   4  12   23.88    8.24
  -3  -4  12   32.19    8.33
   3  -4 -12   21.32    7.61
 -12   3  -4   36.94    9.42
  -4 -12   3   27.02    7.91
  12  -3  -4   16.66    9.77
  -3   4 -12   20.32    9.08
   4 -12  -3   11.75    7.19
  12   3   4   25.24    9.78
  -4  -4 -12    9.70    6.38
  -4   4  12    8.46    5.76
  12   4  -4   23.31    9.83
   4  -4  12   10.20    5.70
   4 -12   4   12.28    7.34
 -12   4   4    8.49    5.48
   4  12  -4    6.63    9.63
  12  -4   4    7.77    7.01
  -4 -12  -4    4.62    5.65
  -4  -4  12    9.73    5.51
   4   4  12    6.21    5.78
  -4   4 -12   10.47    7.32
   4  -4 -12    5.69    5.17
  -4 -12   4    2.56    5.26
  12  -4  -4    0.73    6.49
 -12   4  -4   -0.51    4.71
 -12   5   4    3.22    5.23
  -5  -4 -12    3.70    5.67
  -5   4  12    2.79    5.52
  12  -5   4    4.58    6.51
   4  12  -5    9.02    8.86
   4 -12   5    4.74    7.50
  -4 -12  -5   -0.14    5.87
  12   5  -4   18.61    9.03
  12  -5  -4    1.36    6.67
   5  -4 -12    1.05    4.92
   4 -12  -5   -3.69    4.90
  -5   4 -12   10.41    7.07
 -12   5  -4    4.39    5.66
  -5  -4  12    0.18    5.24
   5   4  12   -1.18    5.37
  -4 -12   5   -2.15    4.91
   0  -5  12   84.34   12.31
  12   0  -5   57.82   15.09
   5  12   0   57.26   15.01
 -12   0  -5   95.45   15.06
  -5 -12   0   73.13   13.32
  -5  12   0   82.39   13.01
   0  -5 -12   77.16   13.03
   5 -12   0   78.77   14.66
  12   0   5   79.01   14.69
   0   5  12   73.18   12.40
 -12  -1  -5   -1.47    5.02
  -5 -12  -1    1.24    5.71
  12  -1   5    1.71    5.71
   5  12  -1   -4.29    8.49
  -5  12   1   -0.73    4.69
  -1  -5 -12   -8.15    3.93
   1  -5  12    0.01    5.32
  -1   5  12    0.47    4.55
  12   1  -5    7.71    7.51
   5 -12   1   -3.22    4.89
  -1  -5  12   -1.40    4.37
   1  -5 -12    2.12    6.31
 -12   1  -5   -2.03    4.72
   5  12   1   -3.41    7.71
   1   5  12    0.01    4.53
   5 -12  -1    1.30    5.45
  -5 -12   1    3.02    4.24
  12  -1  -5    3.05    8.38
  -5  12  -1   -2.50    5.12
  12   1   5   -7.26    4.58
  -2   5  12   -5.47    3.68
  12   2  -5    0.10    6.21
   5 -12   2    0.06    5.90
  -2  -5 -12   -1.52    4.86
  12  -2   5    6.51    6.88
   2  -5  12    5.20    5.33
  -5 -12  -2    4.47    5.99
 -12   2   5   -0.86    4.50
  -5  12   2   -3.61    5.72
 -12  -2  -5    4.07    6.51
   5  12  -2    8.06    9.47
 -12   2  -5   -2.91    4.03
   2   5  12    0.54    3.74
  12  -2  -5   -0.50    6.96
  -5 -12   2    9.03    5.68
   2  -5 -12    2.63    4.72
  -2  -5  12    1.66    4.53
   5 -12  -2    1.59    4.89
  -5 -12  -3   12.18    8.01
  12  -3   5    2.46    5.79
  -5  12   3   13.22    7.01
  -3  -5 -12    5.06    4.93
   5 -12   3    5.57    6.76
  -3   5  12   19.85    7.07
 -12   3   5   18.89    7.58
 -12  -3  -5   26.25    9.54
  12   3  -5   13.51    9.06
   3  -5  12   22.56    6.77
   5  12  -3    3.51    9.58
 -12   3  -5   15.08    7.12
   3   5  12    6.20    5.61
  12  -3  -5    6.56    7.48
   5 -12  -3   19.09    7.02
  -3  -5  12   17.97    7.07
   3  -5 -12   12.52    7.56
  -5 -12   3    4.28    5.57
  12  -4   5   -1.76    5.10
  -5 -12  -4    1.11    4.98
 -12   4   5    2.96    5.03
  -5  12   4   -5.03    4.75
  -4  -5 -12    0.81    4.18
   5 -12   4   12.76    8.29
   5  12  -4   -2.26    8.78
  -4   5  12    3.93    6.14
  12   4  -5   13.42    8.34
  -5 -12   4    8.19    6.68
  12  -4  -5   -1.40    6.36
 -12   4  -5    1.09    5.55
  -4  -5  12    7.40    5.82
  -4   5 -12    4.89    6.45
   4  -5 -12    6.18    6.65
   4   5  12    4.73    5.03
   0   6  12    2.03    4.35
   6  12   0    8.45    9.94
 -12   0  -6   -3.23    4.93
  -6 -12   0   -0.09    5.43
  -6  12   0    5.76    6.07
   0  -6 -12   -1.11    4.52
   0  -6  12   -0.56    4.94
  12   0  -6   -2.02    5.70
   6 -12   0   -1.06    5.33
  -6 -12  -1    2.48    6.03
  -1   6  12    4.93    5.56
   6 -12   1   -5.19    5.21
   6  12  -1  -11.12    7.93
  -6  12   1    1.56    6.18
  -1  -6 -12   -0.45    5.49
  12  -1   6   -3.37    5.87
   1  -6  12    0.56    4.81
 -12  -1  -6    5.79    6.80
  12   1  -6   10.17    8.24
   1  -6 -12    3.63    6.16
  -6 -12   1    4.76    5.51
   1   6  12    2.96    5.34
  -6  12  -1    2.88    5.44
   6  12   1   -9.79    8.38
  12  -1  -6    1.90    7.46
  -1  -6  12    4.50    5.08
 -12   1  -6   -5.76    5.13
   6 -12  -1    5.88    6.21
  12  -2   6    5.52    5.92
  12   2  -6   15.66    9.49
  -6 -12  -2   -0.55    4.97
   6 -12   2    1.21    5.71
   6  12  -2   -7.09    9.04
  -2  -6 -12   -3.06    4.01
   2  -6  12    1.86    4.94
 -12  -2  -6    9.13    7.51
  -6  12   2   -1.43    5.07
  -2   6  12    0.46    5.31
  -6 -12   2   -2.50    4.55
  -6  12  -2    2.63    4.89
 -12   2  -6   -1.83    5.77
   2   6  12   -0.27    4.82
  -2  -6  12    1.87    5.04
  12  -2  -6   13.34    9.36
   2  -6 -12   -5.45    4.89
   6 -12  -2    6.58    6.87
 -13   0   0    3.27    5.90
   0   0 -13    3.30    5.44
   0   0  13   -2.63    3.96
   0  13   0   -1.34    5.61
  13   0   0    3.23    5.88
   0  13   1    8.48    7.58
   1   0 -13    0.28    5.04
   1   0  13   15.65    6.38
  13  -1   0    7.84    9.16
  13   1   0    9.36    7.58
 -13   1   0    1.38    5.30
  -1   0 -13   -3.02    4.96
  -1   0  13   -0.01    5.13
   0 -13  -1   11.32    6.93
   0  13  -1    2.94    6.17
  13  -2   0   48.30   13.67
  13   2   0   45.17   12.49
   0  13  -2   36.27   11.34
   2   0 -13   62.65   11.60
   2   0  13   59.51   10.83
  -2   0 -13   34.02    9.52
  -2   0  13   35.85    8.75
   0 -13  -2   28.86    8.73
 -13   2   0   61.52   11.16
  -3   0 -13   -4.08    4.50
  -3   0  13   -3.45    3.59
   0 -13  -3    1.91    6.25
 -13   3   0   -2.16    4.52
   0  13  -3    4.08    6.58
   3   0  13    0.89    4.87
  13   3   0    5.94    7.26
  13  -3   0    2.12    6.54
  13  -4   0   31.56   12.68
 -13   4   0   15.89    7.03
  -4   0 -13   11.43    6.52
   4   0  13   15.17    7.05
  -4   0  13   26.09    8.44
   0  13  -4    9.36    7.82
  13   4   0   24.40   10.27
  13   0   1    7.36    7.71
   1  13   0    0.89    5.79
   0   1  13    0.15    4.92
 -13   0  -1   -4.29    4.58
   0  -1  13   23.23    7.54
   0  -1 -13    6.24    6.28
  13   0  -1   -4.62    6.49
  -1 -13   0    9.21    6.47
   0   1 -13   -6.19    5.44
   1 -13   0   -5.03    4.67
 -13   1   1    5.93    5.33
   1  13  -1   -5.64    5.50
  13   1  -1   -1.66    7.07
   1 -13   1    6.15    6.50
   1  -1  13   -3.74    4.78
   1   1 -13   -1.29    5.17
  -1 -13  -1    3.00    5.75
  13  -1   1   -1.81    6.75
  -1  -1 -13   13.29    7.54
  -1   1  13    1.13    4.74
  -1   1 -13   11.73    6.81
  13   1   1   -2.73    6.18
  -1  -1  13   -5.01    3.55
   1 -13  -1    8.59    6.72
  13  -1  -1   12.32    8.51
   1  -1 -13    3.55    5.43
   1   1  13    3.60    5.59
   1  13   1    1.86    7.53
  -1 -13   1    0.17    5.43
 -13   1  -1    6.78    5.76
   1  13  -2   18.48    8.65
 -13   2   1   30.23    8.42
  -2  -1 -13   38.46    9.75
  13  -2   1   14.94    9.29
  -1 -13  -2   32.22    9.23
   1 -13   2   29.00   10.11
  13   2  -1   22.21   10.67
  -2   1  13   25.95    7.87
   2  -1  13   32.37    8.83
  13   2   1   10.58    9.35
  -1 -13   2   18.55    7.22
   2  -1 -13   33.93    9.65
  -2   1 -13   29.85    9.58
   2   1  13   23.08    7.88
 -13   2  -1   31.26    9.33
   1 -13  -2   35.05    9.74
  -2  -1  13   26.50    7.75
  13  -2  -1   21.47   11.52
   1 -13   3   18.75    8.58
  13   3  -1   16.65    9.01
  -3   1  13    6.89    5.24
   1  13  -3   13.59    9.00
  13  -3   1   17.36    9.02
   3  -1  13   24.34    7.44
 -13   3   1   13.10    7.21
  -3  -1 -13   13.74    7.88
  -1 -13  -3    9.43    7.21
   3   1  13   16.77    7.01
  -1 -13   3    4.71    5.84
 -13   3  -1   13.54    6.75
  -3  -1  13   15.15    5.85
  13  -3  -1   20.72    9.39
   3  -1 -13   19.16    7.61
  -3   1 -13   13.20    6.88
  13   3   1   13.64    8.51
   1  13  -4   -0.14    8.18
 -13   4   1   15.47    6.80
  -4  -1 -13    7.98    6.04
  13  -4   1   13.29    8.35
  13   4  -1   26.92   11.19
  -4   1 -13   10.49    6.14
  13  -4  -1    6.46    7.24
 -13   4  -1    9.36    6.21
   4  -1 -13   12.23    6.91
  13   4   1    8.05    7.68
   0   2  13    3.18    5.43
 -13   0  -2    4.69    6.11
   0  -2  13    6.63    5.27
   0   2 -13    6.77    6.11
   0  -2 -13    4.40    5.66
  13   0  -2    6.93    8.03
  13   0   2    0.65    7.25
  -2 -13   0   17.58    8.42
   2 -13   0    6.27    6.78
   2  13   0    7.75    7.65
   2  13  -1   52.90   13.72
 -13   1   2   29.13    8.56
  -1  -2 -13   24.73    8.29
  13  -1   2   32.44   11.72
  13   1  -2   28.84   10.48
  -1   2  13   46.50   10.51
 -13  -1  -2   35.19    9.95
   1  -2  13   31.76    8.31
   2 -13   1   34.37   10.40
  -2 -13  -1   29.79    8.32
 -13   1  -2   26.63    8.64
  -2 -13   1   41.92   10.60
   1  -2 -13   30.85    9.96
  -1   2 -13   34.19    9.68
   2  13   1   33.05   11.57
  13  -1  -2   34.57   12.94
  13   1   2   28.65   10.92
  -1  -2  13   36.58    8.92
   1   2  13   52.56   10.18
   2 -13  -1   23.80    8.84
  -2 -13  -2   14.95    7.12
   2  13  -2   11.53    8.50
  -2  -2 -13    9.18    5.89
  13  -2   2    7.50    7.19
   2  -2  13   20.15    7.75
   2 -13   2   13.48    7.31
  -2   2  13    2.81    4.64
 -13   2   2   12.79    6.05
  13   2  -2    6.30    7.45
 -13   2  -2   15.04    6.69
   2 -13  -2    6.02    6.70
  -2  -2  13    8.89    5.38
  -2   2 -13   11.96    6.85
   2  -2 -13    5.30    5.97
   2   2  13    7.84    6.09
  13   2   2    8.24    7.05
  13  -2  -2    4.39    8.06
  -2 -13   2    0.80    5.01
  -3  -2 -13   11.15    6.48
  -3   2  13   10.11    6.11
  -2 -13  -3   19.86    7.87
   2 -13   3    0.83    5.84
  13   3  -2    2.09    7.10
 -13   3   2    6.80    5.98
   3  -2  13   10.54    6.93
   2  13  -3   27.15   11.58
  13  -3   2    6.21    7.77
  13  -3  -2    3.95    8.03
   3   2  13   11.15    5.41
  13   3   2    0.55    6.73
   3  -2 -13   13.17    7.48
 -13   3  -2    8.39    6.31
  -2 -13   3   14.95    6.37
  -3  -2  13    2.41    4.13
  -3   2 -13   19.61    7.50
  13   0   3   -0.25    6.29
   3 -13   0   -3.03    6.11
   3  13   0    1.62    7.62
   0  -3 -13    6.86    6.12
  -3 -13   0   -2.33    5.47
   0   3  13   -2.30    4.18
 -13   0  -3   -0.99    4.52
   0  -3  13    0.44    4.94
  13   0  -3    0.91    7.23
  13  -1   3    3.43    6.29
 -13  -1  -3   13.06    7.65
  -1  -3 -13    5.87    6.43
   1  -3  13    9.82    5.82
   3  13  -1    0.79    7.10
  -3 -13  -1   15.27    7.97
   3 -13   1    2.39    5.64
  13   1  -3    8.43    7.88
  -1   3  13   11.62    6.66
 -13   1  -3    4.17    6.26
  13  -1  -3    3.16    7.93
   1   3  13    8.63    6.23
  -3 -13   1   10.91    6.96
   1  -3 -13    6.51    6.12
   3  13   1    4.87    7.71
  -1  -3  13    1.54    4.35
  13   1   3    1.98    7.33
   3 -13  -1    6.06    7.26
   3 -13   2   31.66   10.14
  13   2  -3   29.81   12.06
   3  13  -2   20.23   10.51
   2  -3  13   18.09    7.31
  -3 -13  -2    4.17    5.66
  -2   3  13   30.24    8.67
 -13   2   3    5.91    6.20
  -2  -3 -13   26.73    8.48
  13  -2   3   22.85    9.59
 -13   2  -3    9.23    6.65
  -2  -3  13   17.49    7.07
  -3 -13   2    8.49    6.11
   3 -13  -2   25.07    9.55
   2  -3 -13    8.77    7.37
  13   2   3   22.24    9.83
   2   3  13   17.12    7.20
  13  -2  -3   42.73   14.08
  -2   3 -13   15.92    7.30
   3  13  -3    0.76    7.77
 -13   3   3    5.46    5.97
  -3  13   3    2.50    5.89
  13  -3   3    7.69    7.77
  13   3  -3   11.32    8.17
   3 -13   3    3.39    7.40
  -3  -3 -13    1.72    5.46
 -13   3  -3    4.73    6.49
  13   3   3   10.64    7.97
  13  -3  -3   -5.12    5.74
   3  -3 -13    0.74    5.56
  -3   3 -13    4.97    6.19
  13   0   4   12.81    8.02
 -13   0  -4   19.07    9.22
   4 -13   0   12.82    7.98
   4  13   0   11.89    9.90
  13   0  -4    9.72    9.10
   0  -4 -13   15.22    7.75
   0  -4  13    4.52    5.53
   0   4  13   11.01    5.99
  -4 -13   0   20.67    8.70
  13  -1   4   11.85    8.39
  13   1  -4   26.37   11.30
   4  13  -1   23.57   11.76
 -13  -1  -4   33.83    9.58
   4 -13   1   14.02    7.75
  -1  -4 -13   22.34    8.20
   4  13   1   38.58   13.88
  13   1   4   24.06    9.89
   1  -4 -13   10.84    7.62
   4 -13  -1   20.31    8.58
  13  -1  -4   45.89   14.16
 -13   1  -4   13.22    7.83
   0   0   0    0.00    0.00
;
_shelx_hkl_checksum              69656
loop_
_space_group_symop_operation_xyz
'x, y, z'
'-x+1/2, -y, z+1/2'
'-x, y+1/2, -z+1/2'
'x+1/2, -y+1/2, -z'
'z, x, y'
'z+1/2, -x+1/2, -y'
'-z+1/2, -x, y+1/2'
'-z, x+1/2, -y+1/2'
'y, z, x'
'-y, z+1/2, -x+1/2'
'y+1/2, -z+1/2, -x'
'-y+1/2, -z, x+1/2'
loop_
_atom_site_label
_atom_site_type_symbol
_atom_site_fract_x
_atom_site_fract_y
_atom_site_fract_z
_atom_site_U_iso_or_equiv
_atom_site_adp_type
_atom_site_occupancy
_atom_site_site_symmetry_order
_atom_site_calc_flag
_atom_site_refinement_flags_posn
_atom_site_refinement_flags_adp
_atom_site_refinement_flags_occupancy
_atom_site_disorder_assembly
_atom_site_disorder_group
As1 As 0.98105(16) 0.63866(16) 0.55914(15) 0.0136(4) Uani 1 1 d . . . . .
As2 As 0.85608(18) 0.81660(16) 0.47594(17) 0.0146(4) Uani 1 1 d . . . . .
As3 As 0.22283(16) 0.22283(16) 0.22283(16) 0.0142(7) Uani 1 3 d S T P . .
I1 I 0.84622(11) 0.84622(11) 0.84622(11) 0.0169(4) Uani 1 3 d S T P . .
Sr1 Sr 0.40106(15) 0.40106(15) 0.40106(15) 0.0164(6) Uani 1 3 d S T P . .
Sr2 Sr 0.65144(14) 0.65144(14) 0.65144(14) 0.0145(6) Uani 1 3 d S T P . .
loop_
_atom_site_aniso_label
_atom_site_aniso_U_11
_atom_site_aniso_U_22
_atom_site_aniso_U_33
_atom_site_aniso_U_23
_atom_site_aniso_U_13
_atom_site_aniso_U_12
As1 0.0128(8) 0.0145(9) 0.0135(8) -0.0008(7) -0.0004(7) 0.0002(7)
As2 0.0147(9) 0.0150(9) 0.0142(8) -0.0019(7) -0.0006(8) -0.0002(7)
As3 0.0142(7) 0.0142(7) 0.0142(7) -0.0005(7) -0.0005(7) -0.0005(7)
I1 0.0169(4) 0.0169(4) 0.0169(4) -0.0014(4) -0.0014(4) -0.0014(4)
Sr1 0.0164(6) 0.0164(6) 0.0164(6) -0.0020(6) -0.0020(6) -0.0020(6)
Sr2 0.0145(6) 0.0145(6) 0.0145(6) -0.0007(7) -0.0007(7) -0.0007(7)
loop_
_atom_type_symbol
_atom_type_description
_atom_type_scat_dispersion_real
_atom_type_scat_dispersion_imag
_atom_type_scat_source
As As 0.0499 2.0058 'International Tables Vol C Tables 4.2.6.8 and 6.1.1.4'
I I -0.4742 1.8119 'International Tables Vol C Tables 4.2.6.8 and 6.1.1.4'
Sr Sr -1.5307 3.2498 'International Tables Vol C Tables 4.2.6.8 and 6.1.1.4'
loop_
_geom_angle_atom_site_label_1
_geom_angle_atom_site_label_2
_geom_angle_atom_site_label_3
_geom_angle
_geom_angle_site_symmetry_1
_geom_angle_site_symmetry_3
As2 As1 As1 103.99(6) . 12_664
As2 As1 As1 104.90(6) . 6_566
As1 As1 As1 60.0 12_664 6_566
As2 As1 Sr2 63.33(6) . .
As1 As1 Sr2 69.17(8) 12_664 .
As1 As1 Sr2 123.00(7) 6_566 .
As2 As1 Sr2 65.11(6) . 4_566
As1 As1 Sr2 122.94(7) 12_664 4_566
As1 As1 Sr2 69.10(8) 6_566 4_566
Sr2 As1 Sr2 128.40(6) . 4_566
As2 As1 Sr1 126.38(7) . 2_665
As1 As1 Sr1 111.79(6) 12_664 2_665
As1 As1 Sr1 127.19(3) 6_566 2_665
Sr2 As1 Sr1 93.59(5) . 2_665
Sr2 As1 Sr1 118.90(6) 4_566 2_665
As1 As2 As3 100.29(9) . 3_655
As1 As2 Sr1 118.33(7) . 4_566
As3 As2 Sr1 138.55(9) 3_655 4_566
As1 As2 Sr2 75.51(6) . .
As3 As2 Sr2 92.52(7) 3_655 .
Sr1 As2 Sr2 110.37(7) 4_566 .
As1 As2 Sr2 74.09(6) . 4_566
As3 As2 Sr2 90.75(6) 3_655 4_566
Sr1 As2 Sr2 86.22(6) 4_566 4_566
Sr2 As2 Sr2 149.52(6) . 4_566
As2 As3 As2 100.95(9) 7_564 11_456
As2 As3 As2 100.95(9) 7_564 3_645
As2 As3 As2 100.95(9) 11_456 3_645
As2 As3 Sr1 117.04(7) 7_564 .
As2 As3 Sr1 117.04(7) 11_456 .
As2 As3 Sr1 117.04(7) 3_645 .
Sr2 I1 Sr1 95.58(3) . 3_656
Sr2 I1 Sr1 95.58(3) . 2_665
Sr1 I1 Sr1 119.066(11) 3_656 2_665
Sr2 I1 Sr1 95.58(3) . 4_566
Sr1 I1 Sr1 119.066(11) 3_656 4_566
Sr1 I1 Sr1 119.066(11) 2_665 4_566
As3 Sr1 As2 131.95(5) . 12_664
As3 Sr1 As2 131.95(5) . 8_646
As2 Sr1 As2 80.20(7) 12_664 8_646
As3 Sr1 As2 131.95(5) . 4_466
As2 Sr1 As2 80.20(7) 12_664 4_466
As2 Sr1 As2 80.20(7) 8_646 4_466
As3 Sr1 I1 85.43(4) . 4_466
As2 Sr1 I1 76.11(4) 12_664 4_466
As2 Sr1 I1 142.15(8) 8_646 4_466
As2 Sr1 I1 67.06(4) 4_466 4_466
As3 Sr1 I1 85.43(4) . 3_646
As2 Sr1 I1 142.15(8) 12_664 3_646
As2 Sr1 I1 67.06(4) 8_646 3_646
As2 Sr1 I1 76.11(4) 4_466 3_646
I1 Sr1 I1 119.372(12) 4_466 3_646
As3 Sr1 I1 85.43(4) . 2_664
As2 Sr1 I1 67.06(4) 12_664 2_664
As2 Sr1 I1 76.11(4) 8_646 2_664
As2 Sr1 I1 142.15(8) 4_466 2_664
I1 Sr1 I1 119.372(12) 4_466 2_664
I1 Sr1 I1 119.372(12) 3_646 2_664
As3 Sr1 As1 65.26(5) . 10_646
As2 Sr1 As1 121.15(4) 12_664 10_646
As2 Sr1 As1 67.26(4) 8_646 10_646
As2 Sr1 As1 135.13(5) 4_466 10_646
I1 Sr1 As1 150.57(9) 4_466 10_646
I1 Sr1 As1 63.36(4) 3_646 10_646
I1 Sr1 As1 58.49(4) 2_664 10_646
As3 Sr1 As1 65.26(5) . 6_466
As2 Sr1 As1 135.13(5) 12_664 6_466
As2 Sr1 As1 121.15(4) 8_646 6_466
As2 Sr1 As1 67.26(4) 4_466 6_466
I1 Sr1 As1 63.36(4) 4_466 6_466
I1 Sr1 As1 58.49(4) 3_646 6_466
I1 Sr1 As1 150.57(9) 2_664 6_466
As1 Sr1 As1 103.73(5) 10_646 6_466
As3 Sr1 As1 65.26(5) . 2_664
As2 Sr1 As1 67.26(4) 12_664 2_664
As2 Sr1 As1 135.13(5) 8_646 2_664
As2 Sr1 As1 121.15(4) 4_466 2_664
I1 Sr1 As1 58.49(4) 4_466 2_664
I1 Sr1 As1 150.57(9) 3_646 2_664
I1 Sr1 As1 63.36(4) 2_664 2_664
As1 Sr1 As1 103.73(5) 10_646 2_664
As1 Sr1 As1 103.73(5) 6_466 2_664
As3 Sr1 Sr2 180.00(5) . .
As2 Sr1 Sr2 48.05(5) 12_664 .
As2 Sr1 Sr2 48.05(5) 8_646 .
As2 Sr1 Sr2 48.05(5) 4_466 .
I1 Sr1 Sr2 94.57(4) 4_466 .
I1 Sr1 Sr2 94.57(4) 3_646 .
I1 Sr1 Sr2 94.57(4) 2_664 .
As1 Sr1 Sr2 114.74(5) 10_646 .
As1 Sr1 Sr2 114.74(5) 6_466 .
As1 Sr1 Sr2 114.74(5) 2_664 .
As2 Sr2 As2 108.13(6) 9 5
As2 Sr2 As2 108.13(6) 9 .
As2 Sr2 As2 108.13(6) 5 .
As2 Sr2 As2 108.73(3) 9 12_664
As2 Sr2 As2 141.93(6) 5 12_664
As2 Sr2 As2 68.57(6) . 12_664
As2 Sr2 As2 141.93(6) 9 4_466
As2 Sr2 As2 68.57(6) 5 4_466
As2 Sr2 As2 108.73(3) . 4_466
As2 Sr2 As2 76.66(6) 12_664 4_466
As2 Sr2 As2 68.57(6) 9 8_646
As2 Sr2 As2 108.73(3) 5 8_646
As2 Sr2 As2 141.93(6) . 8_646
As2 Sr2 As2 76.66(6) 12_664 8_646
As2 Sr2 As2 76.66(6) 4_466 8_646
As2 Sr2 I1 69.22(5) 9 .
As2 Sr2 I1 69.22(5) 5 .
As2 Sr2 I1 69.22(5) . .
As2 Sr2 I1 134.27(4) 12_664 .
As2 Sr2 I1 134.27(4) 4_466 .
As2 Sr2 I1 134.27(4) 8_646 .
As2 Sr2 As1 69.58(5) 9 .
As2 Sr2 As1 134.36(9) 5 .
As2 Sr2 As1 41.15(5) . .
As2 Sr2 As1 69.14(4) 12_664 .
As2 Sr2 As1 140.97(5) 4_466 .
As2 Sr2 As1 111.82(5) 8_646 .
I1 Sr2 As1 67.76(5) . .
As2 Sr2 As1 41.15(5) 9 9
As2 Sr2 As1 69.58(5) 5 9
As2 Sr2 As1 134.36(9) . 9
As2 Sr2 As1 140.97(5) 12_664 9
As2 Sr2 As1 111.82(5) 4_466 9
As2 Sr2 As1 69.14(4) 8_646 9
I1 Sr2 As1 67.76(5) . 9
As1 Sr2 As1 106.57(5) . 9
As2 Sr2 As1 134.36(9) 9 5
As2 Sr2 As1 41.15(5) 5 5
As2 Sr2 As1 69.58(5) . 5
As2 Sr2 As1 111.82(5) 12_664 5
As2 Sr2 As1 69.14(4) 4_466 5
As2 Sr2 As1 140.97(5) 8_646 5
I1 Sr2 As1 67.76(5) . 5
As1 Sr2 As1 106.57(5) . 5
As1 Sr2 As1 106.57(5) 9 5
As2 Sr2 As1 70.17(4) 9 12_664
As2 Sr2 As1 175.95(9) 5 12_664
As2 Sr2 As1 69.42(4) . 12_664
As2 Sr2 As1 40.80(4) 12_664 12_664
As2 Sr2 As1 115.12(8) 4_466 12_664
As2 Sr2 As1 74.28(5) 8_646 12_664
I1 Sr2 As1 106.75(5) . 12_664
As1 Sr2 As1 41.73(5) . 12_664
As1 Sr2 As1 109.62(2) 9 12_664
As1 Sr2 As1 137.55(3) 5 12_664
As2 Sr2 As1 69.42(4) 9 8_646
As2 Sr2 As1 70.17(4) 5 8_646
As2 Sr2 As1 175.95(9) . 8_646
As2 Sr2 As1 115.12(8) 12_664 8_646
As2 Sr2 As1 74.28(5) 4_466 8_646
As2 Sr2 As1 40.80(4) 8_646 8_646
I1 Sr2 As1 106.75(5) . 8_646
As1 Sr2 As1 137.55(3) . 8_646
As1 Sr2 As1 41.73(5) 9 8_646
As1 Sr2 As1 109.62(2) 5 8_646
As1 Sr2 As1 112.05(4) 12_664 8_646
loop_
_geom_bond_atom_site_label_1
_geom_bond_atom_site_label_2
_geom_bond_distance
_geom_bond_site_symmetry_2
As1 As2 2.389(3) .
As1 As1 2.504(3) 12_664
As1 As1 2.504(3) 6_566
As1 Sr2 3.515(3) .
As1 Sr2 3.516(3) 4_566
As1 Sr1 3.733(3) 2_665
As2 As3 2.396(3) 3_655
As2 Sr1 3.194(3) 4_566
As2 Sr2 3.244(3) .
As2 Sr2 3.317(3) 4_566
As3 Sr1 3.168(4) .
I1 Sr2 3.462(4) .
I1 Sr1 3.671(2) 3_656
I1 Sr1 3.671(2) 2_665
I1 Sr1 3.671(2) 4_566
Sr1 Sr2 4.450(5) .
