#------------------------------------------------------------------------------
#$Date: 2021-03-24 10:11:17 +0200 (Wed, 24 Mar 2021) $
#$Revision: 263292 $
#$URL: file:///home/coder/svn-repositories/cod/cif/1/56/12/1561231.cif $
#------------------------------------------------------------------------------
#
# This file is available in the Crystallography Open Database (COD),
# http://www.crystallography.net/
#
# All data on this site have been placed in the public domain by the
# contributors.
#
data_1561231
loop_
_publ_author_name
'M\;aczka, Miros\/law'
'Kucharska, Edyta'
'G\;agor, Anna'
'Pikul, Adam'
'Hanuza, Jerzy'
_publ_section_title
;
 Synthesis, magnetic and vibrational properties of two novel mixed-valence
 iron(II)-iron(III) formate frameworks
;
_journal_name_full               'Journal of Solid State Chemistry'
_journal_page_first              163
_journal_page_last               169
_journal_paper_doi               10.1016/j.jssc.2017.10.016
_journal_volume                  258
_journal_year                    2018
_chemical_absolute_configuration .
_chemical_formula_sum            'C8 H14 Fe2 N O13'
_chemical_formula_weight         443.9
_space_group_IT_number           163
_space_group_name_Hall           '-P 3 2c'
_space_group_name_H-M_alt        'P -3 1 c'
_symmetry_cell_setting           trigonal
_symmetry_Int_Tables_number      163
_symmetry_space_group_name_Hall  '-P 3 2c'
_symmetry_space_group_name_H-M   'P -3 1 c'
_cell_angle_alpha                90
_cell_angle_beta                 90
_cell_angle_gamma                120
_cell_formula_units_Z            2
_cell_length_a                   8.2317(2)
_cell_length_b                   8.2317(2)
_cell_length_c                   14.1998(5)
_cell_measurement_temperature    295
_cell_volume                     833.28(4)
_diffrn_ambient_temperature      295
_diffrn_measurement_device       PANalitycal
_diffrn_measurement_device_type  'powder diffractometer'
_diffrn_radiation_probe          x-ray
_diffrn_radiation_type           CuK\a
_diffrn_radiation_wavelength     1.5418
_exptl_absorpt_coefficient_mu    14.606
_exptl_crystal_density_diffrn    1.7691
_exptl_crystal_F_000             434
_pd_instr_location               ' ?'
_pd_meas_2theta_range_inc        0.026
_pd_meas_2theta_range_max        79.996
_pd_meas_2theta_range_min        8.017
_pd_meas_number_of_points        2742
_pd_proc_2theta_range_inc        0.026
_pd_proc_2theta_range_max        79.996
_pd_proc_2theta_range_min        8.017
_pd_proc_ls_background_function  '10 Legendre polynoms'
_pd_proc_ls_pref_orient_corr     none
_pd_proc_ls_profile_function     Pseudo-Voigt
_pd_proc_ls_prof_R_factor        0.0101
_pd_proc_ls_prof_wR_expected     0.0092
_pd_proc_ls_prof_wR_factor       0.0139
_refine_diff_density_max         0.17
_refine_diff_density_min         -0.25
_refine_ls_goodness_of_fit_all   1.52
_refine_ls_hydrogen_treatment    constr
_refine_ls_number_constraints    1
_refine_ls_number_parameters     32
_refine_ls_number_restraints     3
_refine_ls_R_factor_all          0.0913
_refine_ls_R_factor_gt           0.0842
_refine_ls_shift/su_max          0.0208
_refine_ls_shift/su_mean         0.0170
_refine_ls_weighting_scheme      sigma
_refine_ls_wR_factor_all         0.0731
_refine_ls_wR_factor_gt          0.0726
_cod_data_source_file            HEAFeFe.cif
_cod_data_source_block           II
_cod_depositor_comments
;
The following automatic conversions were performed:

data item '_diffrn_radiation_probe' value 'X-ray' was changed to
'x-ray' in accordance with the built-in table derived from the CIF
Core dictionary named 'cif_core.dic' version 2.4.5 last updated on
2014-11-21.

Automatic conversion script
Id: cif_fix_values 8369 2020-08-20 11:38:08Z andrius 
;
_cod_original_cell_volume        833.29(4)
_cod_original_sg_symbol_Hall     '-P 3;-2c'
_cod_original_formula_sum        'C8 H14 Fe2 N1 O13'
_cod_database_code               1561231
loop_
_space_group_symop_id
_space_group_symop_operation_xyz
1 x,y,z
2 -y,x-y,z
3 -x+y,-x,z
4 -y,-x,-z+1/2
5 -x+y,y,-z+1/2
6 x,x-y,-z+1/2
7 -x,-y,-z
8 y,-x+y,-z
9 x-y,x,-z
10 y,x,z+1/2
11 x-y,-y,z+1/2
12 -x,-x+y,z+1/2
loop_
_atom_site_label
_atom_site_type_symbol
_atom_site_fract_x
_atom_site_fract_y
_atom_site_fract_z
_atom_site_adp_type
_atom_site_U_iso_or_equiv
_atom_site_site_symmetry_multiplicity
_atom_site_occupancy
_atom_site_calc_flag
_atom_site_refinement_flags
_atom_site_disorder_assembly
_atom_site_disorder_group
Fe1 Fe 0.333333 0.666667 0.25 Uiso 0.119(4) 2 1 d . . .
Fe2 Fe 0 0 0 Uiso 0.121(4) 2 1 d . . .
O1 O 0.0992(16) 0.4670(13) 0.1654(10) Uiso 0.1695 12 1 d . . .
O2 O -0.0010(16) 0.2041(11) 0.0846(8) Uiso 0.167 12 1 d . . .
C3 C 0.1239(6) 0.3530(13) 0.1200(14) Uiso 0.1808 12 1 d . . .
H1c3 H 0.251294 0.381962 0.111149 Uiso 0.217 12 1 d . . .
Oa O -0.351(7) 0.259(6) 0.0863(16) Uiso 0.082 12 0.1667 d . . .
Na N -0.351(7) 0.259(6) 0.0863(16) Uiso 0.082 12 0.1667 d . . .
C1a C -0.333333 0.333333 0.1808(14) Uiso 0.069 4 0.5 d . . .
C11a C -0.323(10) 0.252(8) 0.267(2) Uiso 0.069 12 0.1667 d . . .
loop_
_atom_type_symbol
_atom_type_scat_dispersion_real
_atom_type_scat_dispersion_imag
_atom_type_scat_source
C 0.0181 0.0091 'International Tables Vol C tables 4.2.6.8 and 6.1.1.1'
H 0.0000 0.0000 'International Tables Vol C tables 4.2.6.8 and 6.1.1.1'
Cr -0.1635 2.4439 'International Tables Vol C tables 4.2.6.8 and 6.1.1.1'
Mn -0.5299 2.8052 'International Tables Vol C tables 4.2.6.8 and 6.1.1.1'
N 0.0311 0.0180 'International Tables Vol C tables 4.2.6.8 and 6.1.1.1'
O 0.0492 0.0322 'International Tables Vol C tables 4.2.6.8 and 6.1.1.1'
loop_
_geom_angle_atom_site_label_1
_geom_angle_atom_site_label_2
_geom_angle_atom_site_label_3
_geom_angle_site_symmetry_1
_geom_angle_site_symmetry_2
_geom_angle_site_symmetry_3
_geom_angle
O1 Fe1 O1 . . 2_665 92.2(5)
O1 Fe1 O1 . . 3_565 92.2(5)
O1 Fe1 O1 . . 4_665 166.9(5)
O1 Fe1 O1 . . 5_555 97.9(5)
O1 Fe1 O1 . . 6_565 79.2(5)
O1 Fe1 O1 2_665 . 3_565 92.2(6)
O1 Fe1 O1 2_665 . 4_665 97.9(5)
O1 Fe1 O1 2_665 . 5_555 79.2(6)
O1 Fe1 O1 2_665 . 6_565 166.9(6)
O1 Fe1 O1 3_565 . 4_665 79.2(5)
O1 Fe1 O1 3_565 . 5_555 166.9(6)
O1 Fe1 O1 3_565 . 6_565 97.9(6)
O1 Fe1 O1 4_665 . 5_555 92.2(5)
O1 Fe1 O1 4_665 . 6_565 92.2(5)
O1 Fe1 O1 5_555 . 6_565 92.2(6)
O2 Fe2 O2 . . 2_555 89.7(5)
O2 Fe2 O2 . . 3_555 89.7(5)
O2 Fe2 O2 . . 7_555 180.0(5)
O2 Fe2 O2 . . 8_555 90.3(5)
O2 Fe2 O2 . . 9_555 90.3(5)
O2 Fe2 O2 2_555 . 3_555 89.7(4)
O2 Fe2 O2 2_555 . 7_555 90.3(5)
O2 Fe2 O2 2_555 . 8_555 180.0(5)
O2 Fe2 O2 2_555 . 9_555 90.3(4)
O2 Fe2 O2 3_555 . 7_555 90.3(5)
O2 Fe2 O2 3_555 . 8_555 90.3(4)
O2 Fe2 O2 3_555 . 9_555 180.0(5)
O2 Fe2 O2 7_555 . 8_555 89.7(5)
O2 Fe2 O2 7_555 . 9_555 89.7(5)
O2 Fe2 O2 8_555 . 9_555 89.7(4)
Fe1 O1 C3 . . . 116.3(9)
Fe2 O2 C3 . . . 134.2(10)
O1 C3 O2 . . . 126.1(10)
loop_
_geom_bond_atom_site_label_1
_geom_bond_atom_site_label_2
_geom_bond_site_symmetry_1
_geom_bond_site_symmetry_2
_geom_bond_distance
Fe1 O1 . . 2.166(11)
Fe1 O1 . 2_665 2.166(15)
Fe1 O1 . 3_565 2.166(14)
Fe1 O1 . 4_665 2.166(11)
Fe1 O1 . 5_555 2.166(15)
Fe1 O1 . 6_565 2.166(14)
Fe2 O2 . . 2.069(11)
Fe2 O2 . 2_555 2.069(10)
Fe2 O2 . 3_555 2.069(15)
Fe2 O2 . 7_555 2.069(11)
Fe2 O2 . 8_555 2.069(10)
Fe2 O2 . 9_555 2.069(15)
O1 C3 . . 1.24(2)
O2 C3 . . 1.246(13)
loop_
_pd_proc_point_id
_pd_proc_2theta_corrected
_pd_proc_intensity_net
_pd_calc_intensity_net
_pd_proc_ls_weight
1 7.9630 12376.00 12217.30 111.25
2 7.9893 12338.00 12216.10 111.08
3 8.0156 12113.00 12215.00 110.06
4 8.0418 12086.00 12213.80 109.94
5 8.0681 11991.00 12212.70 109.50
6 8.0944 12305.00 12211.60 110.93
7 8.1206 12205.00 12210.50 110.48
8 8.1469 12349.00 12209.40 111.13
9 8.1731 12253.00 12208.40 110.69
10 8.1994 12262.00 12207.30 110.73
11 8.2257 12191.00 12206.30 110.41
12 8.2519 12203.00 12205.30 110.47
13 8.2782 12261.00 12204.30 110.73
14 8.3044 12188.00 12203.40 110.40
15 8.3307 12118.00 12202.40 110.08
16 8.3570 12292.00 12201.50 110.87
17 8.3832 12197.00 12200.60 110.44
18 8.4095 12130.00 12199.70 110.14
19 8.4357 12123.00 12198.80 110.10
20 8.4620 12030.00 12198.00 109.68
21 8.4883 12100.00 12197.10 110.00
22 8.5145 12195.00 12196.30 110.43
23 8.5408 12287.00 12195.50 110.85
24 8.5670 12212.00 12194.70 110.51
25 8.5933 12156.00 12193.90 110.25
26 8.6196 12447.00 12193.20 111.57
27 8.6458 12353.00 12192.40 111.14
28 8.6721 12241.00 12191.70 110.64
29 8.6983 12187.00 12190.90 110.39
30 8.7246 12064.00 12190.20 109.84
31 8.7509 12259.00 12189.60 110.72
32 8.7771 12163.00 12188.90 110.29
33 8.8034 12134.00 12188.20 110.15
34 8.8296 12010.00 12187.60 109.59
35 8.8559 12044.00 12186.90 109.75
36 8.8822 12323.00 12186.30 111.01
37 8.9084 12149.00 12185.70 110.22
38 8.9347 12244.00 12185.10 110.65
39 8.9609 12448.00 12184.60 111.57
40 8.9872 12360.00 12184.00 111.18
41 9.0135 12416.00 12183.40 111.43
42 9.0397 12239.00 12182.90 110.63
43 9.0660 12073.00 12182.40 109.88
44 9.0922 12043.00 12181.90 109.74
45 9.1185 12188.00 12181.40 110.40
46 9.1448 12255.00 12180.90 110.70
47 9.1710 12598.00 12180.40 112.24
48 9.1973 12283.00 12179.90 110.83
49 9.2235 12364.00 12179.50 111.19
50 9.2498 12348.00 12179.00 111.12
51 9.2761 12329.00 12178.60 111.04
52 9.3023 12631.00 12178.20 112.39
53 9.3286 12411.00 12177.80 111.40
54 9.3548 12139.00 12177.40 110.18
55 9.3811 12090.00 12177.00 109.96
56 9.4074 12124.00 12176.60 110.11
57 9.4336 11954.00 12176.30 109.33
58 9.4599 12089.00 12175.90 109.95
59 9.4861 12131.00 12175.60 110.14
60 9.5124 12283.00 12175.20 110.83
61 9.5387 11911.00 12174.90 109.14
62 9.5649 12259.00 12174.60 110.72
63 9.5912 12119.00 12174.30 110.09
64 9.6174 12019.00 12174.00 109.63
65 9.6437 12196.00 12173.70 110.44
66 9.6699 12430.00 12173.40 111.49
67 9.6962 12199.00 12173.20 110.45
68 9.7225 12122.00 12172.90 110.10
69 9.7487 12293.00 12172.70 110.87
70 9.7750 12137.00 12172.40 110.17
71 9.8013 12239.00 12172.20 110.63
72 9.8275 12371.00 12172.00 111.22
73 9.8538 12157.00 12171.80 110.26
74 9.8800 12197.00 12171.60 110.44
75 9.9063 11928.00 12171.40 109.21
76 9.9325 12360.00 12171.20 111.18
77 9.9588 12403.00 12171.00 111.37
78 9.9851 12212.00 12170.80 110.51
79 10.0113 12478.00 12170.70 111.71
80 10.0376 12230.00 12170.50 110.59
81 10.0639 12213.00 12170.30 110.51
82 10.0901 12318.00 12170.20 110.99
83 10.1164 12052.00 12170.10 109.78
84 10.1426 12210.00 12169.90 110.50
85 10.1689 12180.00 12169.80 110.36
86 10.1952 12358.00 12169.70 111.17
87 10.2214 12230.00 12169.60 110.59
88 10.2477 12109.00 12169.50 110.04
89 10.2739 12157.00 12169.40 110.26
90 10.3002 12236.00 12169.30 110.62
91 10.3265 12408.00 12169.20 111.39
92 10.3527 12089.00 12169.20 109.95
93 10.3790 12108.00 12169.10 110.04
94 10.4052 12199.00 12169.00 110.45
95 10.4315 12285.00 12169.00 110.84
96 10.4578 12231.00 12168.90 110.59
97 10.4840 12199.00 12168.90 110.45
98 10.5103 12239.00 12168.80 110.63
99 10.5365 12123.00 12168.80 110.10
100 10.5628 11961.00 12168.80 109.37
101 10.5891 11902.00 12168.70 109.10
102 10.6153 12135.00 12168.70 110.16
103 10.6416 12062.00 12168.70 109.83
104 10.6678 12483.00 12168.70 111.73
105 10.6941 11973.00 12168.70 109.42
106 10.7204 11841.00 12168.70 108.82
107 10.7466 12254.00 12168.70 110.70
108 10.7729 12026.00 12168.70 109.66
109 10.7991 11919.00 12168.70 109.17
110 10.8254 12096.00 12168.70 109.98
111 10.8517 11994.00 12168.70 109.52
112 10.8779 11892.00 12168.70 109.05
113 10.9042 12147.00 12168.80 110.21
114 10.9304 12032.00 12168.80 109.69
115 10.9567 11977.00 12168.80 109.44
116 10.9830 12136.00 12168.90 110.16
117 11.0092 12162.00 12168.90 110.28
118 11.0355 11994.00 12169.00 109.52
119 11.0617 12039.00 12169.00 109.72
120 11.0880 12032.00 12169.10 109.69
121 11.1143 12080.00 12169.10 109.91
122 11.1405 11967.00 12169.20 109.39
123 11.1668 12057.00 12169.20 109.80
124 11.1930 12104.00 12169.30 110.02
125 11.2193 12221.00 12169.40 110.55
126 11.2456 12059.00 12169.40 109.81
127 11.2718 12070.00 12169.50 109.86
128 11.2981 12060.00 12169.60 109.82
129 11.3243 12159.00 12169.70 110.27
130 11.3506 12047.00 12169.80 109.76
131 11.3769 12057.00 12169.80 109.80
132 11.4031 12154.00 12169.90 110.25
133 11.4294 12052.00 12170.00 109.78
134 11.4556 12183.00 12170.10 110.38
135 11.4819 12083.00 12170.20 109.92
136 11.5082 12271.00 12170.30 110.78
137 11.5344 11900.00 12170.40 109.09
138 11.5607 12237.00 12170.50 110.62
139 11.5869 12260.00 12170.60 110.72
140 11.6132 11961.00 12170.70 109.37
141 11.6395 12181.00 12170.80 110.37
142 11.6657 12102.00 12170.90 110.01
143 11.6920 12087.00 12171.00 109.94
144 11.7182 12327.00 12171.10 111.03
145 11.7445 12570.00 12171.20 112.12
146 11.7708 12010.00 12171.30 109.59
147 11.7970 12157.00 12171.40 110.26
148 11.8233 12124.00 12171.50 110.11
149 11.8495 12233.00 12171.60 110.60
150 11.8758 11997.00 12171.70 109.53
151 11.9021 12025.00 12171.80 109.66
152 11.9283 12025.00 12171.90 109.66
153 11.9546 12163.00 12172.10 110.29
154 11.9808 12116.00 12172.20 110.07
155 12.0071 12268.00 12172.30 110.76
156 12.0334 12112.00 12238.60 110.06
157 12.0596 12255.00 12257.20 110.70
158 12.0859 12406.00 12318.30 111.38
159 12.1121 12168.00 12352.20 110.31
160 12.1384 12184.00 12390.90 110.38
161 12.1647 12187.00 12435.60 110.39
162 12.1909 12004.00 12488.10 109.56
163 12.2172 12465.00 12551.00 111.65
164 12.2434 12470.00 12628.20 111.67
165 12.2697 12515.00 12726.20 111.87
166 12.2960 12608.00 12856.60 112.29
167 12.3222 12521.00 13044.20 111.90
168 12.3485 12631.00 13360.80 112.39
169 12.3747 12890.00 13981.90 113.53
170 12.4010 13393.00 14403.50 115.73
171 12.4273 13032.00 13596.70 114.16
172 12.4535 12358.00 12666.90 111.17
173 12.4798 12333.00 12285.90 111.05
174 12.5060 12294.00 12221.80 110.88
175 12.5323 12335.00 12204.90 111.06
176 12.5586 12313.00 12196.20 110.96
177 12.5848 12130.00 12190.90 110.14
178 12.6111 12109.00 12187.40 110.04
179 12.6373 12163.00 12185.10 110.29
180 12.6636 12204.00 12183.40 110.47
181 12.6899 12374.00 12182.10 111.24
182 12.7161 12128.00 12181.20 110.13
183 12.7424 12234.00 12180.50 110.61
184 12.7686 12098.00 12179.90 109.99
185 12.7949 12143.00 12177.00 110.19
186 12.8212 11967.00 12175.70 109.39
187 12.8474 12400.00 12175.80 111.36
188 12.8737 12470.00 12175.80 111.67
189 12.8999 12207.00 12175.90 110.49
190 12.9262 12386.00 12176.00 111.29
191 12.9525 12178.00 12176.10 110.35
192 12.9787 12463.00 12176.20 111.64
193 13.0050 12376.00 12176.30 111.25
194 13.0312 12633.00 12176.40 112.40
195 13.0575 12255.00 12176.40 110.70
196 13.0838 12367.00 12176.50 111.21
197 13.1100 12211.00 12176.60 110.50
198 13.1363 12379.00 12176.70 111.26
199 13.1625 12174.00 12176.80 110.34
200 13.1888 12344.00 12176.80 111.10
201 13.2151 12108.00 12176.90 110.04
202 13.2413 12420.00 12177.00 111.44
203 13.2676 12335.00 12177.00 111.06
204 13.2938 12315.00 12177.10 110.97
205 13.3201 12294.00 12177.10 110.88
206 13.3464 12328.00 12177.20 111.03
207 13.3726 12465.00 12177.30 111.65
208 13.3989 12345.00 12177.30 111.11
209 13.4251 12576.00 12177.40 112.14
210 13.4514 12560.00 12177.40 112.07
211 13.4777 12668.00 12177.40 112.55
212 13.5039 12852.00 12177.50 113.37
213 13.5302 12906.00 12557.40 113.61
214 13.5564 13104.00 12870.60 114.47
215 13.5827 13319.00 13107.90 115.41
216 13.6090 13367.00 13378.30 115.62
217 13.6352 13562.00 13689.60 116.46
218 13.6615 14135.00 14052.80 118.89
219 13.6877 14430.00 14483.80 120.12
220 13.7140 14548.00 15006.50 120.61
221 13.7403 15292.00 15658.70 123.66
222 13.7665 16207.00 16505.80 127.31
223 13.7928 17089.00 17673.90 130.73
224 13.8190 18954.00 19474.20 137.67
225 13.8453 22577.00 22888.90 150.26
226 13.8716 26638.00 27808.60 163.21
227 13.8978 24563.00 25777.40 156.73
228 13.9241 18703.00 19189.80 136.76
229 13.9503 14030.00 14201.80 118.45
230 13.9766 12966.00 12741.60 113.87
231 14.0029 12618.00 12485.80 112.33
232 14.0291 12717.00 12386.30 112.77
233 14.0554 12559.00 12329.50 112.07
234 14.0816 12612.00 12293.50 112.30
235 14.1079 12375.00 12269.20 111.24
236 14.1342 12317.00 12252.00 110.98
237 14.1604 12289.00 12239.20 110.86
238 14.1867 12410.00 12229.50 111.40
239 14.2129 12326.00 12222.00 111.02
240 14.2392 12241.00 12215.90 110.64
241 14.2654 12153.00 12211.10 110.24
242 14.2917 12331.00 12188.30 111.04
243 14.3180 12477.00 12177.30 111.70
244 14.3442 12027.00 12177.20 109.67
245 14.3705 12328.00 12177.20 111.03
246 14.3968 12399.00 12177.10 111.35
247 14.4230 12213.00 12177.00 110.51
248 14.4493 12115.00 12177.00 110.07
249 14.4755 12096.00 12176.90 109.98
250 14.5018 12321.00 12176.80 111.00
251 14.5280 12403.00 12176.70 111.37
252 14.5543 12180.00 12176.60 110.36
253 14.5806 12289.00 12176.50 110.86
254 14.6068 12321.00 12176.40 111.00
255 14.6331 12336.00 12176.30 111.07
256 14.6594 12332.00 12176.20 111.05
257 14.6856 12255.00 12176.10 110.70
258 14.7119 12185.00 12176.00 110.39
259 14.7381 12195.00 12175.90 110.43
260 14.7644 12030.00 12175.80 109.68
261 14.7907 12216.00 12175.60 110.53
262 14.8169 12298.00 12175.50 110.90
263 14.8432 12216.00 12175.40 110.53
264 14.8694 12026.00 12175.20 109.66
265 14.8957 12275.00 12175.10 110.79
266 14.9220 11896.00 12175.00 109.07
267 14.9482 12120.00 12174.80 110.09
268 14.9745 12035.00 12174.70 109.70
269 15.0007 12058.00 12174.50 109.81
270 15.0270 12217.00 12174.30 110.53
271 15.0533 12247.00 12174.20 110.67
272 15.0795 12172.00 12174.00 110.33
273 15.1058 12241.00 12173.80 110.64
274 15.1320 12110.00 12173.60 110.04
275 15.1583 12270.00 12173.50 110.77
276 15.1846 12233.00 12173.30 110.60
277 15.2108 12192.00 12173.10 110.42
278 15.2371 12039.00 12172.90 109.72
279 15.2633 12201.00 12172.70 110.46
280 15.2896 12060.00 12172.50 109.82
281 15.3159 12109.00 12172.30 110.04
282 15.3421 12126.00 12172.00 110.12
283 15.3684 12050.00 12171.80 109.77
284 15.3946 11980.00 12171.60 109.45
285 15.4209 12306.00 12171.40 110.93
286 15.4472 12355.00 12171.20 111.15
287 15.4734 12162.00 12170.90 110.28
288 15.4997 12132.00 12170.70 110.14
289 15.5259 12209.00 12170.40 110.49
290 15.5522 12097.00 12170.20 109.99
291 15.5785 12277.00 12169.90 110.80
292 15.6047 12190.00 12169.70 110.41
293 15.6310 12106.00 12169.40 110.03
294 15.6572 12156.00 12169.10 110.25
295 15.6835 12146.00 12168.90 110.21
296 15.7098 12223.00 12168.60 110.56
297 15.7360 12134.00 12168.30 110.15
298 15.7623 12258.00 12168.00 110.72
299 15.7885 12327.00 12167.70 111.03
300 15.8148 12378.00 12167.40 111.26
301 15.8411 12206.00 12167.10 110.48
302 15.8673 12449.00 12166.80 111.57
303 15.8936 12423.00 12166.50 111.46
304 15.9198 12703.00 12166.20 112.71
305 15.9461 12317.00 12165.90 110.98
306 15.9724 12068.00 12165.60 109.85
307 15.9986 12426.00 12165.30 111.47
308 16.0249 12179.00 12164.90 110.36
309 16.0511 12331.00 12164.60 111.04
310 16.0774 12164.00 12164.20 110.29
311 16.1037 12165.00 12163.90 110.29
312 16.1299 12226.00 12163.60 110.57
313 16.1562 12334.00 12163.20 111.06
314 16.1824 12235.00 12162.80 110.61
315 16.2087 11965.00 12162.50 109.39
316 16.2350 12005.00 12162.10 109.57
317 16.2612 11926.00 12161.70 109.21
318 16.2875 12159.00 12161.40 110.27
319 16.3137 12170.00 12161.00 110.32
320 16.3400 12320.00 12160.60 111.00
321 16.3663 12129.00 12160.20 110.13
322 16.3925 12072.00 12159.80 109.87
323 16.4188 12142.00 12159.40 110.19
324 16.4450 11943.00 12159.00 109.28
325 16.4713 11956.00 12158.60 109.34
326 16.4976 12121.00 12158.20 110.10
327 16.5238 12230.00 12157.80 110.59
328 16.5501 12213.00 12157.30 110.51
329 16.5763 11974.00 12156.90 109.43
330 16.6026 12241.00 12156.50 110.64
331 16.6289 12218.00 12156.00 110.54
332 16.6551 12136.00 12155.60 110.16
333 16.6814 12200.00 12155.10 110.45
334 16.7076 12172.00 12154.70 110.33
335 16.7339 12023.00 12154.20 109.65
336 16.7602 12119.00 12153.80 110.09
337 16.7864 12314.00 12153.30 110.97
338 16.8127 12130.00 12152.80 110.14
339 16.8389 12104.00 12152.40 110.02
340 16.8652 12086.00 12151.90 109.94
341 16.8915 12242.00 12151.40 110.64
342 16.9177 12298.00 12150.90 110.90
343 16.9440 12161.00 12150.40 110.28
344 16.9702 12514.00 12149.90 111.87
345 16.9965 12472.00 12149.40 111.68
346 17.0228 12491.00 12148.90 111.76
347 17.0490 12276.00 12148.40 110.80
348 17.0753 12437.00 12147.90 111.52
349 17.1015 12576.00 12147.30 112.14
350 17.1278 12317.00 12146.80 110.98
351 17.1541 12262.00 12146.30 110.73
352 17.1803 12690.00 12145.70 112.65
353 17.2066 12726.00 12145.20 112.81
354 17.2328 12725.00 12277.30 112.81
355 17.2591 13165.00 12389.00 114.74
356 17.2854 13331.00 12569.00 115.46
357 17.3116 13275.00 12947.00 115.22
358 17.3379 13815.00 13516.60 117.54
359 17.3641 14105.00 14259.50 118.76
360 17.3904 15022.00 15156.80 122.56
361 17.4167 15633.00 16230.40 125.03
362 17.4429 16930.00 17536.90 130.12
363 17.4692 18202.00 19171.20 134.91
364 17.4954 20711.00 21297.40 143.91
365 17.5217 23736.00 24238.10 154.07
366 17.5480 28949.00 28811.20 170.14
367 17.5742 37442.00 37291.50 193.50
368 17.6005 48348.00 47498.90 219.88
369 17.6267 42398.00 41270.90 205.91
370 17.6530 30118.00 30060.20 173.54
371 17.6793 19127.00 19376.00 138.30
372 17.7055 14029.00 14181.80 118.44
373 17.7318 12958.00 13103.30 113.83
374 17.7580 12728.00 12770.30 112.82
375 17.7843 12510.00 12589.60 111.85
376 17.8106 12591.00 12477.30 112.21
377 17.8368 12476.00 12402.20 111.70
378 17.8631 12590.00 12349.20 112.21
379 17.8893 12282.00 12310.20 110.82
380 17.9156 12276.00 12280.60 110.80
381 17.9419 12329.00 12257.50 111.04
382 17.9681 12131.00 12239.20 110.14
383 17.9944 12144.00 12224.20 110.20
384 18.0206 11965.00 12158.80 109.39
385 18.0469 12056.00 12154.20 109.80
386 18.0732 12103.00 12124.80 110.01
387 18.0994 12209.00 12124.10 110.49
388 18.1257 12185.00 12123.40 110.39
389 18.1519 12211.00 12122.70 110.50
390 18.1782 12075.00 12122.00 109.89
391 18.2045 12318.00 12121.30 110.99
392 18.2307 12417.00 12120.60 111.43
393 18.2570 12061.00 12119.90 109.82
394 18.2832 12187.00 12119.10 110.39
395 18.3095 12178.00 12118.40 110.35
396 18.3358 12153.00 12117.70 110.24
397 18.3620 12030.00 12116.90 109.68
398 18.3883 11974.00 12116.20 109.43
399 18.4145 12057.00 12115.40 109.80
400 18.4408 12146.00 12114.70 110.21
401 18.4671 12165.00 12113.90 110.29
402 18.4933 11935.00 12113.20 109.25
403 18.5196 11899.00 12112.40 109.08
404 18.5458 11850.00 12111.70 108.86
405 18.5721 12074.00 12110.90 109.88
406 18.5984 12017.00 12110.10 109.62
407 18.6246 11925.00 12109.30 109.20
408 18.6509 12127.00 12108.50 110.12
409 18.6771 12238.00 12107.80 110.62
410 18.7034 12103.00 12107.00 110.01
411 18.7297 12092.00 12106.20 109.96
412 18.7559 11889.00 12105.40 109.04
413 18.7822 12096.00 12104.60 109.98
414 18.8084 11954.00 12103.80 109.33
415 18.8347 12262.00 12102.90 110.73
416 18.8610 12046.00 12102.10 109.75
417 18.8872 12090.00 12101.30 109.96
418 18.9135 12062.00 12100.50 109.83
419 18.9397 12201.00 12099.60 110.46
420 18.9660 12208.00 12098.80 110.49
421 18.9923 11955.00 12098.00 109.34
422 19.0185 12156.00 12097.10 110.25
423 19.0448 12067.00 12096.30 109.85
424 19.0710 11907.00 12095.40 109.12
425 19.0973 12045.00 12094.60 109.75
426 19.1236 11886.00 12093.70 109.02
427 19.1498 11856.00 12092.90 108.89
428 19.1761 12089.00 12092.00 109.95
429 19.2023 12026.00 12091.10 109.66
430 19.2286 12032.00 12090.30 109.69
431 19.2549 12002.00 12089.40 109.55
432 19.2811 11939.00 12088.50 109.27
433 19.3074 11963.00 12087.60 109.38
434 19.3336 11817.00 12086.70 108.71
435 19.3599 12089.00 12085.80 109.95
436 19.3862 11908.00 12084.90 109.12
437 19.4124 12046.00 12084.00 109.75
438 19.4387 12050.00 12083.10 109.77
439 19.4649 11978.00 12082.20 109.44
440 19.4912 11753.00 12081.30 108.41
441 19.5175 11789.00 12080.40 108.58
442 19.5437 12132.00 12079.50 110.14
443 19.5700 11996.00 12078.60 109.53
444 19.5962 11921.00 12077.70 109.18
445 19.6225 11751.00 12076.70 108.40
446 19.6488 11968.00 12075.80 109.40
447 19.6750 11986.00 12074.90 109.48
448 19.7013 12042.00 12073.90 109.74
449 19.7275 11975.00 12073.00 109.43
450 19.7538 11886.00 12072.00 109.02
451 19.7801 12098.00 12071.10 109.99
452 19.8063 11955.00 12070.10 109.34
453 19.8326 11991.00 12069.20 109.50
454 19.8588 11904.00 12068.20 109.11
455 19.8851 11909.00 12067.20 109.13
456 19.9114 12318.00 12066.30 110.99
457 19.9376 12134.00 12065.30 110.15
458 19.9639 11983.00 12064.30 109.47
459 19.9901 12196.00 12063.30 110.44
460 20.0164 12259.00 12062.40 110.72
461 20.0427 12033.00 12061.40 109.69
462 20.0689 12002.00 12060.40 109.55
463 20.0952 11981.00 12059.40 109.46
464 20.1214 12250.00 12058.40 110.68
465 20.1477 12078.00 12057.40 109.90
466 20.1740 12167.00 12056.40 110.30
467 20.2002 12032.00 12055.40 109.69
468 20.2265 12014.00 12054.40 109.61
469 20.2527 12013.00 12053.40 109.60
470 20.2790 11919.00 12052.40 109.17
471 20.3053 12170.00 12051.30 110.32
472 20.3315 12270.00 12050.30 110.77
473 20.3578 12039.00 12049.30 109.72
474 20.3840 12194.00 12048.30 110.43
475 20.4103 12170.00 12047.20 110.32
476 20.4366 11890.00 12046.20 109.04
477 20.4628 12128.00 12045.20 110.13
478 20.4891 11998.00 12044.10 109.54
479 20.5153 11869.00 12043.10 108.94
480 20.5416 12056.00 12042.00 109.80
481 20.5679 11870.00 12041.00 108.95
482 20.5941 11849.00 12039.90 108.85
483 20.6204 11936.00 12038.90 109.25
484 20.6466 12056.00 12037.80 109.80
485 20.6729 12155.00 12036.80 110.25
486 20.6992 12021.00 12035.70 109.64
487 20.7254 11979.00 12034.60 109.45
488 20.7517 11933.00 12033.60 109.24
489 20.7779 12253.00 12032.50 110.69
490 20.8042 12180.00 12031.40 110.36
491 20.8305 12075.00 12030.30 109.89
492 20.8567 11962.00 12029.30 109.37
493 20.8830 12112.00 12028.20 110.06
494 20.9092 12077.00 12027.10 109.89
495 20.9355 11836.00 12026.00 108.79
496 20.9618 12015.00 12024.90 109.61
497 20.9880 12226.00 12023.80 110.57
498 21.0143 12033.00 12022.70 109.69
499 21.0405 12031.00 12021.60 109.69
500 21.0668 12047.00 12020.50 109.76
501 21.0931 12024.00 12019.40 109.65
502 21.1193 12136.00 12018.30 110.16
503 21.1456 12126.00 12017.20 110.12
504 21.1718 12254.00 12041.50 110.70
505 21.1981 12119.00 12045.30 110.09
506 21.2243 12191.00 12063.40 110.41
507 21.2506 12274.00 12074.40 110.79
508 21.2769 12150.00 12094.90 110.23
509 21.3031 12289.00 12147.30 110.86
510 21.3294 12487.00 12263.60 111.75
511 21.3556 12641.00 12447.30 112.43
512 21.3819 12780.00 12703.20 113.05
513 21.4082 13361.00 13038.20 115.59
514 21.4344 13758.00 13467.90 117.29
515 21.4607 14182.00 14036.90 119.09
516 21.4869 15383.00 14844.30 124.03
517 21.5132 16857.00 16163.90 129.84
518 21.5395 19373.00 18470.00 139.19
519 21.5657 21681.00 19980.40 147.24
520 21.5920 18690.00 17654.90 136.71
521 21.6182 16764.00 15976.90 129.48
522 21.6445 14319.00 13923.20 119.66
523 21.6708 12691.00 12597.90 112.65
524 21.6970 12431.00 12267.50 111.49
525 21.7233 12169.00 12169.60 110.31
526 21.7495 12003.00 12117.90 109.56
527 21.7758 12196.00 12085.50 110.44
528 21.8021 12006.00 12063.60 109.57
529 21.8283 12035.00 12047.90 109.70
530 21.8546 12122.00 12036.10 110.10
531 21.8808 12269.00 12026.90 110.77
532 21.9071 11968.00 12019.50 109.40
533 21.9334 12103.00 12013.40 110.01
534 21.9596 11968.00 12008.30 109.40
535 21.9859 11907.00 12003.80 109.12
536 22.0121 11811.00 11987.20 108.68
537 22.0384 11789.00 11985.10 108.58
538 22.0647 11939.00 11976.70 109.27
539 22.0909 11881.00 11975.50 109.00
540 22.1172 11759.00 11981.60 108.44
541 22.1434 11931.00 11981.80 109.23
542 22.1697 11935.00 11985.80 109.25
543 22.1960 11788.00 11987.60 108.57
544 22.2222 11931.00 11990.80 109.23
545 22.2485 12001.00 11997.60 109.55
546 22.2747 12070.00 12016.30 109.86
547 22.3010 12040.00 12056.80 109.73
548 22.3273 11940.00 12119.90 109.27
549 22.3535 11971.00 12208.10 109.41
550 22.3798 12230.00 12325.40 110.59
551 22.4060 12497.00 12479.50 111.79
552 22.4323 12889.00 12691.50 113.53
553 22.4586 13419.00 13014.80 115.84
554 22.4848 14667.00 13589.30 121.11
555 22.5111 15579.00 14313.80 124.82
556 22.5373 15164.00 14020.50 123.14
557 22.5636 14124.00 13346.30 118.84
558 22.5899 13181.00 12892.90 114.81
559 22.6161 12266.00 12298.00 110.75
560 22.6424 11905.00 12071.80 109.11
561 22.6686 11931.00 12017.70 109.23
562 22.6949 11896.00 11994.90 109.07
563 22.7212 11885.00 11981.10 109.02
564 22.7474 11935.00 11971.80 109.25
565 22.7737 11913.00 11965.10 109.15
566 22.7999 11778.00 11959.90 108.53
567 22.8262 11810.00 11955.80 108.67
568 22.8525 11804.00 11952.30 108.65
569 22.8787 11953.00 11949.30 109.33
570 22.9050 11848.00 11946.60 108.85
571 22.9312 11824.00 11944.30 108.74
572 22.9575 11884.00 11937.80 109.01
573 22.9838 11975.00 11936.20 109.43
574 23.0100 11783.00 11934.70 108.55
575 23.0363 11591.00 11931.30 107.66
576 23.0625 11861.00 11930.00 108.91
577 23.0888 11823.00 11928.80 108.73
578 23.1151 11686.00 11927.50 108.10
579 23.1413 11848.00 11926.20 108.85
580 23.1676 11925.00 11925.00 109.20
581 23.1938 11541.00 11923.70 107.43
582 23.2201 11695.00 11922.40 108.14
583 23.2464 11821.00 11921.20 108.72
584 23.2726 11629.00 11919.90 107.84
585 23.2989 11737.00 11918.60 108.34
586 23.3251 11858.00 11917.40 108.89
587 23.3514 11718.00 11916.10 108.25
588 23.3777 11826.00 11914.80 108.75
589 23.4039 11918.00 11913.60 109.17
590 23.4302 11661.00 11912.30 107.99
591 23.4564 11661.00 11911.00 107.99
592 23.4827 11785.00 11909.70 108.56
593 23.5090 11710.00 11908.50 108.21
594 23.5352 11722.00 11907.20 108.27
595 23.5615 11756.00 11905.90 108.43
596 23.5878 11735.00 11904.60 108.33
597 23.6140 11766.00 11903.30 108.47
598 23.6403 12029.00 11902.10 109.68
599 23.6665 11873.00 11900.80 108.96
600 23.6928 11653.00 11899.50 107.95
601 23.7191 11639.00 11898.20 107.88
602 23.7453 11656.00 11896.90 107.96
603 23.7716 11618.00 11895.60 107.79
604 23.7978 11591.00 11894.30 107.66
605 23.8241 11833.00 11893.10 108.78
606 23.8504 11711.00 11891.80 108.22
607 23.8766 11633.00 11890.50 107.86
608 23.9029 11818.00 11889.20 108.71
609 23.9291 11869.00 11887.90 108.94
610 23.9554 12043.00 11886.60 109.74
611 23.9817 11652.00 11885.30 107.94
612 24.0079 11885.00 11884.00 109.02
613 24.0342 11777.00 11882.70 108.52
614 24.0604 11631.00 11881.40 107.85
615 24.0867 11946.00 11880.10 109.30
616 24.1130 11933.00 11878.80 109.24
617 24.1392 11902.00 11877.50 109.10
618 24.1655 11872.00 11876.20 108.96
619 24.1917 11967.00 11874.90 109.39
620 24.2180 11536.00 11873.60 107.41
621 24.2443 11743.00 11872.30 108.36
622 24.2705 11828.00 11871.00 108.76
623 24.2968 11719.00 11869.70 108.25
624 24.3230 11808.00 11868.40 108.67
625 24.3493 11839.00 11867.10 108.81
626 24.3756 11603.00 11865.80 107.72
627 24.4018 11608.00 11864.50 107.74
628 24.4281 11840.00 11863.20 108.81
629 24.4543 11919.00 11861.90 109.17
630 24.4806 11780.00 11860.60 108.54
631 24.5069 11773.00 11859.30 108.50
632 24.5331 11950.00 11858.20 109.32
633 24.5594 11938.00 11856.90 109.26
634 24.5856 11867.00 11871.90 108.94
635 24.6119 11578.00 11908.10 107.60
636 24.6382 11879.00 11919.60 108.99
637 24.6644 11806.00 11932.20 108.65
638 24.6907 11867.00 11951.60 108.94
639 24.7169 12125.00 11980.80 110.11
640 24.7432 12092.00 12042.60 109.96
641 24.7695 12370.00 12190.80 111.22
642 24.7957 12544.00 12460.70 112.00
643 24.8220 12837.00 12858.60 113.30
644 24.8482 13290.00 13426.00 115.28
645 24.8745 14370.00 14216.80 119.88
646 24.9008 15359.00 15353.10 123.93
647 24.9270 17592.00 17200.80 132.63
648 24.9533 20481.00 20236.60 143.11
649 24.9795 21680.00 22015.10 147.24
650 25.0058 19190.00 19196.40 138.53
651 25.0321 16915.00 17816.60 130.06
652 25.0583 15579.00 16091.80 124.82
653 25.0846 13050.00 13657.20 114.24
654 25.1108 12380.00 12784.70 111.26
655 25.1371 12222.00 12415.90 110.55
656 25.1634 11822.00 12133.90 108.73
657 25.1896 11943.00 12017.30 109.28
658 25.2159 11674.00 11965.80 108.05
659 25.2421 11824.00 11933.60 108.74
660 25.2684 11796.00 11910.90 108.61
661 25.2947 11769.00 11894.10 108.49
662 25.3209 11750.00 11883.10 108.40
663 25.3472 11708.00 11873.00 108.20
664 25.3734 11709.00 11865.80 108.21
665 25.3997 11866.00 11859.30 108.93
666 25.4260 12021.00 11835.50 109.64
667 25.4522 11821.00 11833.40 108.72
668 25.4785 11779.00 11832.20 108.53
669 25.5047 11704.00 11822.60 108.18
670 25.5310 11669.00 11829.60 108.02
671 25.5573 11764.00 11845.00 108.46
672 25.5835 11774.00 11868.40 108.51
673 25.6098 11910.00 11903.80 109.13
674 25.6360 11918.00 11954.20 109.17
675 25.6623 12102.00 12027.60 110.01
676 25.6886 12229.00 12148.10 110.58
677 25.7148 12579.00 12347.60 112.16
678 25.7411 12886.00 12460.50 113.52
679 25.7673 12618.00 12257.40 112.33
680 25.7936 12232.00 12147.50 110.60
681 25.8199 11985.00 12035.10 109.48
682 25.8461 11977.00 11882.90 109.44
683 25.8724 11704.00 11826.10 108.18
684 25.8986 11917.00 11810.40 109.17
685 25.9249 11792.00 11802.90 108.59
686 25.9512 11720.00 11797.90 108.26
687 25.9774 11868.00 11794.30 108.94
688 26.0037 11933.00 11791.30 109.24
689 26.0299 11769.00 11788.80 108.49
690 26.0562 11846.00 11786.70 108.84
691 26.0825 11651.00 11784.70 107.94
692 26.1087 11552.00 11782.90 107.48
693 26.1350 11630.00 11781.10 107.84
694 26.1612 11652.00 11779.50 107.94
695 26.1875 11704.00 11777.90 108.18
696 26.2138 11570.00 11775.20 107.56
697 26.2400 11861.00 11773.80 108.91
698 26.2663 11749.00 11771.80 108.39
699 26.2925 11895.00 11770.50 109.06
700 26.3188 11560.00 11769.20 107.52
701 26.3451 11873.00 11767.90 108.96
702 26.3713 11724.00 11766.70 108.28
703 26.3976 11718.00 11765.40 108.25
704 26.4238 11492.00 11764.10 107.20
705 26.4501 11752.00 11762.80 108.41
706 26.4764 11803.00 11761.50 108.64
707 26.5026 11797.00 11760.20 108.61
708 26.5289 11761.00 11758.90 108.45
709 26.5551 11689.00 11757.60 108.12
710 26.5814 11771.00 11756.30 108.49
711 26.6077 11685.00 11755.00 108.10
712 26.6339 11675.00 11753.70 108.05
713 26.6602 11719.00 11752.50 108.25
714 26.6864 11663.00 11751.20 108.00
715 26.7127 11914.00 11749.90 109.15
716 26.7390 11946.00 11748.60 109.30
717 26.7652 11628.00 11747.30 107.83
718 26.7915 11750.00 11746.00 108.40
719 26.8177 11558.00 11744.80 107.51
720 26.8440 11758.00 11743.50 108.43
721 26.8703 11972.00 11742.20 109.42
722 26.8965 11804.00 11740.90 108.65
723 26.9228 11731.00 11739.60 108.31
724 26.9490 11661.00 11738.40 107.99
725 26.9753 11802.00 11737.10 108.64
726 27.0016 11758.00 11735.80 108.43
727 27.0278 11576.00 11734.50 107.59
728 27.0541 11602.00 11733.30 107.71
729 27.0803 11578.00 11732.00 107.60
730 27.1066 11719.00 11730.70 108.25
731 27.1329 11722.00 11729.40 108.27
732 27.1591 11741.00 11728.20 108.36
733 27.1854 11692.00 11726.90 108.13
734 27.2116 11552.00 11725.60 107.48
735 27.2379 11676.00 11724.40 108.06
736 27.2642 11774.00 11723.10 108.51
737 27.2904 11774.00 11721.80 108.51
738 27.3167 11717.00 11720.60 108.25
739 27.3429 11641.00 11719.30 107.89
740 27.3692 11590.00 11718.00 107.66
741 27.3955 11791.00 11716.80 108.59
742 27.4217 11662.00 11715.50 107.99
743 27.4480 11586.00 11714.30 107.64
744 27.4742 11602.00 11713.00 107.71
745 27.5005 11671.00 11711.70 108.03
746 27.5268 11510.00 11710.50 107.29
747 27.5530 11742.00 11716.10 108.36
748 27.5793 11811.00 11715.90 108.68
749 27.6055 11670.00 11719.70 108.03
750 27.6318 11850.00 11720.60 108.86
751 27.6581 11784.00 11722.20 108.55
752 27.6843 11608.00 11725.10 107.74
753 27.7106 11425.00 11729.20 106.89
754 27.7368 11808.00 11736.10 108.67
755 27.7631 12107.00 11750.00 110.03
756 27.7894 11901.00 11784.30 109.09
757 27.8156 12013.00 11853.60 109.60
758 27.8419 12079.00 11961.50 109.90
759 27.8681 12041.00 12121.00 109.73
760 27.8944 12539.00 12360.30 111.98
761 27.9207 13151.00 12742.10 114.68
762 27.9469 13443.00 13384.50 115.94
763 27.9732 14353.00 13975.10 119.80
764 27.9994 13934.00 13505.50 118.04
765 28.0257 13083.00 13051.20 114.38
766 28.0520 13107.00 12912.10 114.49
767 28.0782 12473.00 12327.00 111.68
768 28.1045 11767.00 11966.20 108.48
769 28.1307 11776.00 11847.60 108.52
770 28.1570 11801.00 11771.70 108.63
771 28.1833 11515.00 11734.70 107.31
772 28.2095 11839.00 11717.90 108.81
773 28.2358 11744.00 11707.60 108.37
774 28.2620 11472.00 11700.30 107.11
775 28.2883 11974.00 11694.60 109.43
776 28.3146 11684.00 11690.10 108.09
777 28.3408 11683.00 11686.40 108.09
778 28.3671 11693.00 11683.20 108.13
779 28.3933 11792.00 11680.40 108.59
780 28.4196 11769.00 11677.90 108.49
781 28.4459 11752.00 11671.20 108.41
782 28.4721 11793.00 11669.50 108.60
783 28.4984 11688.00 11667.90 108.11
784 28.5246 11601.00 11663.90 107.71
785 28.5509 11682.00 11662.70 108.08
786 28.5772 11669.00 11661.50 108.02
787 28.6034 11706.00 11660.10 108.19
788 28.6297 11555.00 11658.90 107.49
789 28.6559 11586.00 11657.70 107.64
790 28.6822 11633.00 11656.50 107.86
791 28.7085 11746.00 11655.30 108.38
792 28.7347 11936.00 11654.10 109.25
793 28.7610 11563.00 11652.90 107.53
794 28.7872 11598.00 11651.70 107.69
795 28.8135 11652.00 11650.50 107.94
796 28.8398 11561.00 11649.30 107.52
797 28.8660 11646.00 11648.10 107.92
798 28.8923 11572.00 11646.90 107.57
799 28.9185 11593.00 11645.70 107.67
800 28.9448 11769.00 11644.60 108.49
801 28.9711 11730.00 11643.40 108.31
802 28.9973 11537.00 11642.20 107.41
803 29.0236 11534.00 11641.00 107.40
804 29.0498 11485.00 11639.80 107.17
805 29.0761 11605.00 11638.70 107.73
806 29.1024 11776.00 11637.50 108.52
807 29.1286 11728.00 11636.30 108.30
808 29.1549 11709.00 11635.10 108.21
809 29.1811 11684.00 11634.00 108.09
810 29.2074 11765.00 11632.80 108.47
811 29.2337 11645.00 11631.60 107.91
812 29.2599 11507.00 11630.50 107.27
813 29.2862 11630.00 11629.30 107.84
814 29.3124 11703.00 11628.20 108.18
815 29.3387 11613.00 11627.00 107.76
816 29.3650 11589.00 11625.80 107.65
817 29.3912 11475.00 11624.70 107.12
818 29.4175 11443.00 11623.50 106.97
819 29.4437 11264.00 11622.40 106.13
820 29.4700 11534.00 11621.20 107.40
821 29.4963 11615.00 11620.10 107.77
822 29.5225 11729.00 11618.90 108.30
823 29.5488 11526.00 11617.80 107.36
824 29.5750 11698.00 11616.60 108.16
825 29.6013 11657.00 11615.50 107.97
826 29.6276 11778.00 11614.30 108.53
827 29.6538 11648.00 11613.20 107.93
828 29.6801 11701.00 11612.10 108.17
829 29.7063 11849.00 11610.90 108.85
830 29.7326 11896.00 11609.80 109.07
831 29.7589 11598.00 11608.70 107.69
832 29.7851 11394.00 11607.50 106.74
833 29.8114 11590.00 11606.40 107.66
834 29.8376 11505.00 11605.30 107.26
835 29.8639 11539.00 11604.20 107.42
836 29.8902 11662.00 11603.00 107.99
837 29.9164 11728.00 11601.90 108.30
838 29.9427 11817.00 11600.80 108.71
839 29.9689 11625.00 11599.70 107.82
840 29.9952 11786.00 11598.50 108.56
841 30.0215 11652.00 11597.40 107.94
842 30.0477 11662.00 11596.30 107.99
843 30.0740 11646.00 11595.20 107.92
844 30.1002 11520.00 11594.10 107.33
845 30.1265 11453.00 11593.00 107.02
846 30.1528 11671.00 11591.90 108.03
847 30.1790 11719.00 11590.80 108.25
848 30.2053 11536.00 11589.70 107.41
849 30.2315 11607.00 11588.60 107.74
850 30.2578 11391.00 11587.50 106.73
851 30.2840 11680.00 11586.40 108.07
852 30.3103 11661.00 11585.30 107.99
853 30.3366 11597.00 11584.20 107.69
854 30.3628 11471.00 11583.10 107.10
855 30.3891 11602.00 11582.00 107.71
856 30.4153 11535.00 11580.90 107.40
857 30.4416 11528.00 11579.80 107.37
858 30.4679 11603.00 11578.70 107.72
859 30.4941 11566.00 11577.70 107.54
860 30.5204 11497.00 11576.60 107.22
861 30.5466 11453.00 11575.50 107.02
862 30.5729 11540.00 11574.40 107.42
863 30.5992 11767.00 11573.30 108.48
864 30.6254 11541.00 11572.30 107.43
865 30.6517 11542.00 11571.20 107.43
866 30.6779 11602.00 11570.10 107.71
867 30.7042 11651.00 11569.10 107.94
868 30.7305 11499.00 11568.00 107.23
869 30.7567 11720.00 11566.90 108.26
870 30.7830 11382.00 11565.90 106.69
871 30.8092 11481.00 11564.80 107.15
872 30.8355 11640.00 11563.70 107.89
873 30.8618 11645.00 11562.70 107.91
874 30.8880 11612.00 11561.60 107.76
875 30.9143 11562.00 11560.60 107.53
876 30.9405 11556.00 11575.00 107.50
877 30.9668 11515.00 11576.20 107.31
878 30.9931 11465.00 11577.80 107.07
879 31.0193 11567.00 11587.90 107.55
880 31.0456 11494.00 11592.20 107.21
881 31.0718 11528.00 11598.10 107.37
882 31.0981 11692.00 11606.30 108.13
883 31.1244 11670.00 11618.00 108.03
884 31.1506 11713.00 11635.50 108.23
885 31.1769 11637.00 11665.00 107.88
886 31.2031 11866.00 11728.30 108.93
887 31.2294 11814.00 11872.60 108.69
888 31.2557 12226.00 12131.50 110.57
889 31.2819 12443.00 12526.30 111.55
890 31.3082 13035.00 13145.70 114.17
891 31.3344 13983.00 14203.30 118.25
892 31.3607 15715.00 15781.00 125.36
893 31.3870 16755.00 16339.90 129.44
894 31.4132 14937.00 14723.80 122.22
895 31.4395 14037.00 14063.20 118.48
896 31.4657 13974.00 13876.50 118.21
897 31.4920 12833.00 12752.30 113.28
898 31.5183 11984.00 11997.40 109.47
899 31.5445 11641.00 11763.80 107.89
900 31.5708 11664.00 11684.30 108.00
901 31.5970 11495.00 11642.00 107.21
902 31.6233 11638.00 11615.20 107.88
903 31.6496 11605.00 11596.80 107.73
904 31.6758 11634.00 11583.50 107.86
905 31.7021 11451.00 11573.50 107.01
906 31.7283 11564.00 11565.60 107.54
907 31.7546 11408.00 11559.30 106.81
908 31.7809 11467.00 11554.10 107.08
909 31.8071 11534.00 11549.60 107.40
910 31.8334 11419.00 11545.80 106.86
911 31.8596 11536.00 11542.50 107.41
912 31.8859 11564.00 11529.70 107.54
913 31.9122 11604.00 11528.00 107.72
914 31.9384 11470.00 11526.40 107.10
915 31.9647 11404.00 11520.00 106.79
916 31.9909 11310.00 11519.00 106.35
917 32.0172 11477.00 11518.00 107.13
918 32.0435 11229.00 11517.00 105.97
919 32.0697 11338.00 11516.10 106.48
920 32.0960 11679.00 11515.10 108.07
921 32.1222 11694.00 11514.10 108.14
922 32.1485 11555.00 11513.20 107.49
923 32.1748 11568.00 11512.20 107.56
924 32.2010 11391.00 11511.30 106.73
925 32.2273 11660.00 11510.30 107.98
926 32.2535 11473.00 11509.30 107.11
927 32.2798 11565.00 11508.40 107.54
928 32.3061 11611.00 11507.40 107.75
929 32.3323 11392.00 11506.50 106.73
930 32.3586 11642.00 11505.50 107.90
931 32.3848 11678.00 11504.60 108.07
932 32.4111 11547.00 11503.60 107.46
933 32.4374 11663.00 11502.70 108.00
934 32.4636 11631.00 11501.70 107.85
935 32.4899 11411.00 11500.80 106.82
936 32.5161 11563.00 11499.90 107.53
937 32.5424 11416.00 11498.90 106.85
938 32.5687 11431.00 11498.00 106.92
939 32.5949 11645.00 11497.10 107.91
940 32.6212 11417.00 11496.10 106.85
941 32.6474 11443.00 11495.20 106.97
942 32.6737 11334.00 11494.30 106.46
943 32.7000 11720.00 11493.40 108.26
944 32.7262 11679.00 11492.40 108.07
945 32.7525 11518.00 11491.70 107.32
946 32.7787 11393.00 11490.80 106.74
947 32.8050 11309.00 11489.90 106.34
948 32.8313 11565.00 11500.90 107.54
949 32.8575 11507.00 11501.60 107.27
950 32.8838 11576.00 11502.60 107.59
951 32.9100 11752.00 11533.50 108.41
952 32.9363 11625.00 11540.00 107.82
953 32.9626 11724.00 11548.60 108.28
954 32.9888 11765.00 11560.00 108.47
955 33.0151 11564.00 11575.40 107.54
956 33.0413 11609.00 11597.30 107.75
957 33.0676 11830.00 11629.80 108.77
958 33.0939 11913.00 11683.10 109.15
959 33.1201 12333.00 11788.50 111.05
960 33.1464 12267.00 12025.90 110.76
961 33.1726 12493.00 12479.30 111.77
962 33.1989 13423.00 13193.30 115.86
963 33.2252 14805.00 14306.30 121.68
964 33.2514 17043.00 16213.00 130.55
965 33.2777 19332.00 18725.80 139.04
966 33.3039 19183.00 18684.40 138.50
967 33.3302 16659.00 16047.50 129.07
968 33.3565 15553.00 15415.20 124.71
969 33.3827 15614.00 15201.40 124.96
970 33.4090 13684.00 13430.00 116.98
971 33.4352 12151.00 12241.00 110.23
972 33.4615 11657.00 11858.80 107.97
973 33.4878 11737.00 11727.50 108.34
974 33.5140 11585.00 11659.00 107.63
975 33.5403 11502.00 11617.10 107.25
976 33.5665 11667.00 11590.20 108.01
977 33.5928 11451.00 11573.00 107.01
978 33.6191 11616.00 11563.60 107.78
979 33.6453 11619.00 11563.40 107.79
980 33.6716 11476.00 11581.00 107.13
981 33.6978 11694.00 11629.90 108.14
982 33.7241 11731.00 11717.50 108.31
983 33.7504 11797.00 11861.50 108.61
984 33.7766 12311.00 12114.20 110.96
985 33.8029 12573.00 12471.80 112.13
986 33.8291 12756.00 12598.10 112.94
987 33.8554 12653.00 12214.60 112.49
988 33.8817 12480.00 12045.20 111.71
989 33.9079 12486.00 12064.10 111.74
990 33.9342 12368.00 11852.30 111.21
991 33.9604 11803.00 11625.70 108.64
992 33.9867 11766.00 11535.20 108.47
993 34.0130 11837.00 11508.50 108.80
994 34.0392 11508.00 11493.10 107.28
995 34.0655 11542.00 11477.10 107.43
996 34.0917 11522.00 11467.30 107.34
997 34.1180 11246.00 11461.80 106.05
998 34.1443 11403.00 11458.00 106.79
999 34.1705 11606.00 11455.10 107.73
1000 34.1968 11454.00 11452.60 107.02
1001 34.2230 11542.00 11450.60 107.43
1002 34.2493 11482.00 11448.70 107.15
1003 34.2756 11479.00 11447.10 107.14
1004 34.3018 11578.00 11445.60 107.60
1005 34.3281 11463.00 11441.70 107.07
1006 34.3543 11639.00 11440.70 107.88
1007 34.3806 11538.00 11439.60 107.42
1008 34.4069 11485.00 11438.70 107.17
1009 34.4331 11439.00 11436.50 106.95
1010 34.4594 11430.00 11435.70 106.91
1011 34.4856 11373.00 11434.80 106.64
1012 34.5119 11285.00 11434.00 106.23
1013 34.5382 11464.00 11433.20 107.07
1014 34.5644 11401.00 11432.40 106.78
1015 34.5907 11493.00 11431.60 107.21
1016 34.6169 11294.00 11430.80 106.27
1017 34.6432 11357.00 11430.00 106.57
1018 34.6695 11402.00 11429.20 106.78
1019 34.6957 11510.00 11428.50 107.29
1020 34.7220 11527.00 11427.70 107.36
1021 34.7482 11403.00 11426.90 106.79
1022 34.7745 11375.00 11426.10 106.65
1023 34.8008 11345.00 11425.30 106.51
1024 34.8270 11457.00 11424.50 107.04
1025 34.8533 11440.00 11423.80 106.96
1026 34.8795 11460.00 11423.00 107.05
1027 34.9058 11559.00 11422.20 107.51
1028 34.9321 11506.00 11421.40 107.27
1029 34.9583 11391.00 11420.70 106.73
1030 34.9846 11628.00 11419.90 107.83
1031 35.0108 11267.00 11419.10 106.15
1032 35.0371 11367.00 11418.40 106.62
1033 35.0634 11462.00 11417.60 107.06
1034 35.0896 11331.00 11416.90 106.45
1035 35.1159 11509.00 11417.50 107.28
1036 35.1421 11338.00 11416.90 106.48
1037 35.1684 11310.00 11416.40 106.35
1038 35.1947 11422.00 11415.90 106.87
1039 35.2209 11635.00 11439.50 107.87
1040 35.2472 11360.00 11442.90 106.58
1041 35.2734 11386.00 11448.50 106.71
1042 35.2997 11474.00 11454.60 107.12
1043 35.3260 11404.00 11462.80 106.79
1044 35.3522 11400.00 11474.10 106.77
1045 35.3785 11529.00 11490.60 107.37
1046 35.4047 11430.00 11516.20 106.91
1047 35.4310 11587.00 11563.00 107.64
1048 35.4573 11832.00 11666.20 108.78
1049 35.4835 12013.00 11880.20 109.60
1050 35.5098 12218.00 12247.80 110.54
1051 35.5360 12374.00 12862.30 111.24
1052 35.5623 13453.00 13911.10 115.99
1053 35.5886 14509.00 15147.00 120.45
1054 35.6148 14569.00 15020.30 120.70
1055 35.6411 14092.00 14105.90 118.71
1056 35.6673 14193.00 13913.80 119.13
1057 35.6936 13544.00 13645.50 116.38
1058 35.7199 12757.00 12801.90 112.95
1059 35.7461 12426.00 12212.70 111.47
1060 35.7724 12013.00 11848.90 109.60
1061 35.7986 11489.00 11628.90 107.19
1062 35.8249 11541.00 11537.00 107.43
1063 35.8512 11417.00 11496.00 106.85
1064 35.8774 11242.00 11471.70 106.03
1065 35.9037 11442.00 11455.20 106.97
1066 35.9299 11548.00 11443.30 107.46
1067 35.9562 11459.00 11434.20 107.05
1068 35.9825 11575.00 11427.20 107.59
1069 36.0087 11496.00 11421.50 107.22
1070 36.0350 11360.00 11416.80 106.58
1071 36.0612 11187.00 11412.90 105.77
1072 36.0875 11187.00 11409.50 105.77
1073 36.1138 11370.00 11398.40 106.63
1074 36.1400 11467.00 11396.60 107.08
1075 36.1663 11493.00 11393.10 107.21
1076 36.1925 11550.00 11391.80 107.47
1077 36.2188 11452.00 11386.60 107.01
1078 36.2451 11185.00 11385.80 105.76
1079 36.2713 11551.00 11384.20 107.48
1080 36.2976 11327.00 11383.50 106.43
1081 36.3238 11362.00 11382.80 106.59
1082 36.3501 11398.00 11382.10 106.76
1083 36.3764 11341.00 11381.40 106.49
1084 36.4026 11177.00 11380.70 105.72
1085 36.4289 11202.00 11380.10 105.84
1086 36.4551 11226.00 11379.40 105.95
1087 36.4814 11308.00 11378.70 106.34
1088 36.5077 11348.00 11378.00 106.53
1089 36.5339 11238.00 11377.30 106.01
1090 36.5602 11334.00 11376.70 106.46
1091 36.5864 11307.00 11376.00 106.33
1092 36.6127 11412.00 11375.30 106.83
1093 36.6390 11204.00 11374.60 105.85
1094 36.6652 11243.00 11374.00 106.03
1095 36.6915 11423.00 11373.30 106.88
1096 36.7177 11233.00 11372.60 105.99
1097 36.7440 11460.00 11372.00 107.05
1098 36.7703 11225.00 11371.30 105.95
1099 36.7965 11423.00 11370.60 106.88
1100 36.8228 11353.00 11370.00 106.55
1101 36.8490 11221.00 11369.30 105.93
1102 36.8753 11368.00 11368.60 106.62
1103 36.9016 11460.00 11368.00 107.05
1104 36.9278 11385.00 11367.30 106.70
1105 36.9541 11304.00 11366.70 106.32
1106 36.9803 11489.00 11366.00 107.19
1107 37.0066 11225.00 11365.30 105.95
1108 37.0329 11519.00 11364.70 107.33
1109 37.0591 11405.00 11364.00 106.79
1110 37.0854 11476.00 11363.40 107.13
1111 37.1116 11490.00 11362.70 107.19
1112 37.1379 11334.00 11362.10 106.46
1113 37.1642 11377.00 11361.40 106.66
1114 37.1904 11347.00 11360.80 106.52
1115 37.2167 11362.00 11360.20 106.59
1116 37.2429 11514.00 11359.50 107.30
1117 37.2692 11508.00 11358.90 107.28
1118 37.2955 11430.00 11358.20 106.91
1119 37.3217 11286.00 11363.70 106.24
1120 37.3480 11477.00 11363.80 107.13
1121 37.3742 11403.00 11364.10 106.79
1122 37.4005 11646.00 11364.50 107.92
1123 37.4268 11340.00 11368.30 106.49
1124 37.4530 11139.00 11369.60 105.54
1125 37.4793 11333.00 11371.80 106.46
1126 37.5055 11405.00 11374.30 106.79
1127 37.5318 11385.00 11377.70 106.70
1128 37.5581 11310.00 11382.50 106.35
1129 37.5843 11623.00 11389.60 107.81
1130 37.6106 11427.00 11399.80 106.90
1131 37.6368 11547.00 11416.40 107.46
1132 37.6631 11393.00 11448.00 106.74
1133 37.6894 11487.00 11519.40 107.18
1134 37.7156 11521.00 11667.10 107.34
1135 37.7419 11814.00 11923.90 108.69
1136 37.7681 12227.00 12361.60 110.58
1137 37.7944 12680.00 13022.50 112.61
1138 37.8207 12492.00 13386.80 111.77
1139 37.8469 12154.00 12767.00 110.25
1140 37.8732 12010.00 12335.80 109.59
1141 37.8994 11862.00 12413.20 108.91
1142 37.9257 12333.00 12346.20 111.05
1143 37.9520 11620.00 11909.40 107.80
1144 37.9782 11412.00 11662.10 106.83
1145 38.0045 11399.00 11545.10 106.77
1146 38.0307 11579.00 11486.80 107.61
1147 38.0570 11407.00 11472.60 106.80
1148 38.0833 11392.00 11463.10 106.73
1149 38.1095 11611.00 11437.80 107.75
1150 38.1358 11542.00 11424.10 107.43
1151 38.1620 11539.00 11425.30 107.42
1152 38.1883 11586.00 11436.10 107.64
1153 38.2146 11625.00 11457.80 107.82
1154 38.2408 11491.00 11501.50 107.20
1155 38.2671 11532.00 11600.70 107.39
1156 38.2933 12069.00 11816.40 109.86
1157 38.3196 12262.00 12207.30 110.73
1158 38.3459 12780.00 12867.60 113.05
1159 38.3721 13814.00 13891.00 117.53
1160 38.3984 14245.00 14632.60 119.35
1161 38.4246 13884.00 13797.00 117.83
1162 38.4509 13146.00 12944.80 114.66
1163 38.4772 12823.00 12968.30 113.24
1164 38.5034 12805.00 12976.40 113.16
1165 38.5297 12306.00 12270.00 110.93
1166 38.5559 11686.00 11725.20 108.10
1167 38.5822 11728.00 11525.80 108.30
1168 38.6085 11418.00 11455.10 106.86
1169 38.6347 11442.00 11419.00 106.97
1170 38.6610 11381.00 11396.50 106.68
1171 38.6872 11368.00 11381.20 106.62
1172 38.7135 11175.00 11370.20 105.71
1173 38.7398 11441.00 11361.90 106.96
1174 38.7660 11309.00 11355.50 106.34
1175 38.7923 11395.00 11350.40 106.75
1176 38.8185 11263.00 11346.20 106.13
1177 38.8448 11343.00 11342.80 106.50
1178 38.8711 11278.00 11339.80 106.20
1179 38.8973 11278.00 11337.10 106.20
1180 38.9236 11478.00 11334.90 107.14
1181 38.9498 11208.00 11325.50 105.87
1182 38.9761 11325.00 11324.40 106.42
1183 39.0024 11235.00 11323.30 106.00
1184 39.0286 11456.00 11318.40 107.03
1185 39.0549 11152.00 11317.80 105.60
1186 39.0812 11355.00 11317.20 106.56
1187 39.1074 11295.00 11316.70 106.28
1188 39.1337 11397.00 11316.10 106.76
1189 39.1599 11411.00 11315.50 106.82
1190 39.1862 11096.00 11315.00 105.34
1191 39.2124 11287.00 11314.40 106.24
1192 39.2387 11661.00 11313.80 107.99
1193 39.2650 11306.00 11313.30 106.33
1194 39.2912 11309.00 11312.70 106.34
1195 39.3175 11265.00 11312.10 106.14
1196 39.3438 11408.00 11311.60 106.81
1197 39.3700 11254.00 11311.00 106.08
1198 39.3963 11233.00 11310.50 105.99
1199 39.4225 11421.00 11309.90 106.87
1200 39.4488 11348.00 11309.40 106.53
1201 39.4750 11274.00 11308.80 106.18
1202 39.5013 11346.00 11308.30 106.52
1203 39.5276 11309.00 11307.70 106.34
1204 39.5538 11350.00 11307.20 106.54
1205 39.5801 11469.00 11306.60 107.09
1206 39.6063 11540.00 11307.10 107.42
1207 39.6326 11457.00 11306.60 107.04
1208 39.6589 11200.00 11306.20 105.83
1209 39.6851 11304.00 11305.90 106.32
1210 39.7114 11288.00 11306.00 106.25
1211 39.7376 11280.00 11305.80 106.21
1212 39.7639 11274.00 11305.70 106.18
1213 39.7902 11343.00 11305.70 106.50
1214 39.8164 11193.00 11306.00 105.80
1215 39.8427 11470.00 11306.60 107.10
1216 39.8689 11196.00 11308.00 105.81
1217 39.8952 11235.00 11310.40 106.00
1218 39.9215 11360.00 11314.70 106.58
1219 39.9477 11435.00 11321.80 106.93
1220 39.9740 11349.00 11331.60 106.53
1221 40.0002 11192.00 11348.70 105.79
1222 40.0265 11544.00 11385.80 107.44
1223 40.0528 11403.00 11456.80 106.79
1224 40.0790 11630.00 11554.50 107.84
1225 40.1053 11593.00 11600.00 107.67
1226 40.1315 11446.00 11504.30 106.99
1227 40.1578 11466.00 11440.20 107.08
1228 40.1841 11345.00 11450.60 106.51
1229 40.2103 11369.00 11454.60 106.63
1230 40.2366 11538.00 11391.80 107.42
1231 40.2628 11516.00 11342.70 107.31
1232 40.2891 11352.00 11325.50 106.55
1233 40.3154 11364.00 11321.20 106.60
1234 40.3416 11275.00 11321.50 106.18
1235 40.3679 11358.00 11325.10 106.57
1236 40.3941 11379.00 11332.60 106.67
1237 40.4204 11292.00 11348.10 106.26
1238 40.4467 11284.00 11383.40 106.23
1239 40.4729 11340.00 11462.60 106.49
1240 40.4992 11420.00 11612.20 106.86
1241 40.5254 11783.00 11870.80 108.55
1242 40.5517 12164.00 12228.80 110.29
1243 40.5780 12284.00 12351.60 110.83
1244 40.6042 11951.00 11987.30 109.32
1245 40.6305 11678.00 11778.00 108.07
1246 40.6567 11563.00 11827.00 107.53
1247 40.6830 11710.00 11829.90 108.21
1248 40.7093 11534.00 11594.70 107.40
1249 40.7355 11495.00 11417.70 107.21
1250 40.7618 11184.00 11350.50 105.75
1251 40.7880 11286.00 11325.90 106.24
1252 40.8143 11295.00 11313.10 106.28
1253 40.8406 11270.00 11305.00 106.16
1254 40.8668 11331.00 11299.40 106.45
1255 40.8931 11385.00 11295.30 106.70
1256 40.9193 11149.00 11292.10 105.59
1257 40.9456 11409.00 11289.60 106.81
1258 40.9719 11235.00 11287.50 106.00
1259 40.9981 11496.00 11285.70 107.22
1260 41.0244 11095.00 11284.20 105.33
1261 41.0506 11602.00 11282.80 107.71
1262 41.0769 11035.00 11281.60 105.05
1263 41.1032 11217.00 11280.50 105.91
1264 41.1294 11139.00 11276.90 105.54
1265 41.1557 11390.00 11276.20 106.72
1266 41.1819 11174.00 11275.50 105.71
1267 41.2082 11295.00 11274.80 106.28
1268 41.2345 11441.00 11272.90 106.96
1269 41.2607 11276.00 11272.40 106.19
1270 41.2870 11438.00 11271.80 106.95
1271 41.3132 11265.00 11271.30 106.14
1272 41.3395 11451.00 11270.80 107.01
1273 41.3658 11464.00 11270.30 107.07
1274 41.3920 11127.00 11269.80 105.49
1275 41.4183 11101.00 11269.30 105.36
1276 41.4445 11206.00 11268.70 105.86
1277 41.4708 11300.00 11268.20 106.30
1278 41.4971 11322.00 11267.70 106.40
1279 41.5233 11285.00 11268.20 106.23
1280 41.5496 11173.00 11267.80 105.70
1281 41.5758 11157.00 11267.40 105.63
1282 41.6021 11373.00 11267.00 106.64
1283 41.6284 11257.00 11266.70 106.10
1284 41.6546 11305.00 11284.40 106.32
1285 41.6809 11272.00 11286.70 106.17
1286 41.7071 11316.00 11289.70 106.38
1287 41.7334 11262.00 11293.50 106.12
1288 41.7597 11227.00 11298.60 105.96
1289 41.7859 11339.00 11305.40 106.49
1290 41.8122 11233.00 11314.70 105.99
1291 41.8384 11245.00 11328.00 106.04
1292 41.8647 11311.00 11347.80 106.35
1293 41.8910 11503.00 11380.20 107.25
1294 41.9172 11587.00 11442.60 107.64
1295 41.9435 11821.00 11582.30 108.72
1296 41.9697 11929.00 11878.30 109.22
1297 41.9960 12447.00 12421.60 111.57
1298 42.0223 13670.00 13287.40 116.92
1299 42.0485 14187.00 14064.30 119.11
1300 42.0748 14081.00 13553.60 118.66
1301 42.1010 12841.00 12653.60 113.32
1302 42.1273 12543.00 12516.60 112.00
1303 42.1536 12770.00 12748.30 113.00
1304 42.1798 12825.00 12488.50 113.25
1305 42.2061 12107.00 11859.80 110.03
1306 42.2323 11799.00 11525.50 108.62
1307 42.2586 11422.00 11406.90 106.87
1308 42.2849 11401.00 11357.90 106.78
1309 42.3111 11536.00 11330.30 107.41
1310 42.3374 11167.00 11312.50 105.67
1311 42.3636 11257.00 11300.30 106.10
1312 42.3899 11143.00 11291.80 105.56
1313 42.4162 11346.00 11286.30 106.52
1314 42.4424 11264.00 11284.00 106.13
1315 42.4687 11407.00 11285.40 106.80
1316 42.4949 11292.00 11290.50 106.26
1317 42.5212 11435.00 11293.70 106.93
1318 42.5475 11311.00 11284.30 106.35
1319 42.5737 11259.00 11274.20 106.11
1320 42.6000 11152.00 11271.80 105.60
1321 42.6262 11326.00 11265.50 106.42
1322 42.6525 11167.00 11261.30 105.67
1323 42.6788 11323.00 11254.40 106.41
1324 42.7050 11236.00 11250.60 106.00
1325 42.7313 11136.00 11245.40 105.53
1326 42.7575 11159.00 11244.40 105.64
1327 42.7838 11325.00 11243.70 106.42
1328 42.8101 11163.00 11243.00 105.65
1329 42.8363 11183.00 11242.40 105.75
1330 42.8626 11382.00 11241.80 106.69
1331 42.8888 11330.00 11241.20 106.44
1332 42.9151 11289.00 11240.70 106.25
1333 42.9414 11198.00 11240.20 105.82
1334 42.9676 11371.00 11239.60 106.64
1335 42.9939 11268.00 11239.10 106.15
1336 43.0201 11165.00 11238.60 105.67
1337 43.0464 11009.00 11238.10 104.92
1338 43.0727 11129.00 11237.60 105.49
1339 43.0989 11225.00 11237.00 105.95
1340 43.1252 11143.00 11236.50 105.56
1341 43.1514 11081.00 11236.00 105.27
1342 43.1777 11262.00 11235.50 106.12
1343 43.2040 11104.00 11234.90 105.38
1344 43.2302 11347.00 11234.40 106.52
1345 43.2565 11086.00 11234.00 105.29
1346 43.2827 11352.00 11233.50 106.55
1347 43.3090 11279.00 11233.00 106.20
1348 43.3353 11351.00 11232.50 106.54
1349 43.3615 11261.00 11232.00 106.12
1350 43.3878 11263.00 11231.50 106.13
1351 43.4140 11200.00 11234.50 105.83
1352 43.4403 11375.00 11234.40 106.65
1353 43.4666 11206.00 11234.30 105.86
1354 43.4928 11335.00 11234.30 106.47
1355 43.5191 10898.00 11234.40 104.39
1356 43.5453 11311.00 11236.60 106.35
1357 43.5716 11212.00 11237.20 105.89
1358 43.5979 11187.00 11238.10 105.77
1359 43.6241 11277.00 11239.30 106.19
1360 43.6504 11141.00 11241.00 105.55
1361 43.6766 11301.00 11244.60 106.31
1362 43.7029 11186.00 11248.00 105.76
1363 43.7292 11188.00 11253.00 105.77
1364 43.7554 11328.00 11260.20 106.43
1365 43.7817 11264.00 11271.70 106.13
1366 43.8079 11089.00 11291.90 105.30
1367 43.8342 11539.00 11334.90 107.42
1368 43.8605 11348.00 11431.50 106.53
1369 43.8867 11451.00 11624.00 107.01
1370 43.9130 11551.00 11949.70 107.48
1371 43.9392 11819.00 12313.20 108.71
1372 43.9655 11707.00 12258.10 108.20
1373 43.9918 11544.00 11864.00 107.44
1374 44.0180 11513.00 11743.20 107.30
1375 44.0443 11593.00 11872.80 107.67
1376 44.0705 11241.00 11963.40 106.02
1377 44.0968 11402.00 11759.90 106.78
1378 44.1231 11436.00 11503.90 106.94
1379 44.1493 11335.00 11378.90 106.47
1380 44.1756 11454.00 11352.10 107.02
1381 44.2018 11240.00 11352.90 106.02
1382 44.2281 11219.00 11320.50 105.92
1383 44.2544 11299.00 11274.50 106.30
1384 44.2806 11248.00 11250.10 106.06
1385 44.3069 11176.00 11239.30 105.72
1386 44.3331 11261.00 11233.40 106.12
1387 44.3594 11206.00 11229.30 105.86
1388 44.3857 11227.00 11226.20 105.96
1389 44.4119 11437.00 11223.70 106.94
1390 44.4382 11209.00 11221.70 105.87
1391 44.4644 11198.00 11219.90 105.82
1392 44.4907 11283.00 11218.40 106.22
1393 44.5170 11150.00 11214.10 105.59
1394 44.5432 11217.00 11213.20 105.91
1395 44.5695 11043.00 11212.30 105.09
1396 44.5957 11051.00 11211.50 105.12
1397 44.6220 11373.00 11210.70 106.64
1398 44.6483 11427.00 11208.60 106.90
1399 44.6745 11241.00 11207.60 106.02
1400 44.7008 11197.00 11207.10 105.82
1401 44.7270 11226.00 11206.50 105.95
1402 44.7533 11194.00 11206.00 105.80
1403 44.7796 11249.00 11205.30 106.06
1404 44.8058 11205.00 11204.80 105.85
1405 44.8321 11177.00 11204.30 105.72
1406 44.8583 11366.00 11203.80 106.61
1407 44.8846 11344.00 11203.30 106.51
1408 44.9109 11145.00 11202.80 105.57
1409 44.9371 11175.00 11202.30 105.71
1410 44.9634 11372.00 11201.80 106.64
1411 44.9896 11510.00 11201.30 107.29
1412 45.0159 11391.00 11200.80 106.73
1413 45.0422 11381.00 11200.30 106.68
1414 45.0684 11392.00 11199.80 106.73
1415 45.0947 11327.00 11199.30 106.43
1416 45.1209 11258.00 11198.80 106.10
1417 45.1472 11277.00 11198.40 106.19
1418 45.1735 11267.00 11197.90 106.15
1419 45.1997 11162.00 11197.40 105.65
1420 45.2260 11152.00 11196.90 105.60
1421 45.2522 11282.00 11196.40 106.22
1422 45.2785 11159.00 11195.90 105.64
1423 45.3048 11403.00 11195.60 106.79
1424 45.3310 11274.00 11195.20 106.18
1425 45.3573 11041.00 11194.70 105.08
1426 45.3835 11253.00 11194.20 106.08
1427 45.4098 11294.00 11195.80 106.27
1428 45.4361 11375.00 11206.50 106.65
1429 45.4623 11313.00 11207.80 106.36
1430 45.4886 11154.00 11224.20 105.61
1431 45.5148 11218.00 11228.00 105.92
1432 45.5411 11125.00 11232.60 105.47
1433 45.5674 11293.00 11243.40 106.27
1434 45.5936 11192.00 11251.50 105.79
1435 45.6199 11254.00 11261.80 106.08
1436 45.6461 11293.00 11275.60 106.27
1437 45.6724 11474.00 11294.30 107.12
1438 45.6987 11349.00 11321.10 106.53
1439 45.7249 11527.00 11362.60 107.36
1440 45.7512 11523.00 11435.70 107.35
1441 45.7774 12093.00 11580.90 109.97
1442 45.8037 12452.00 11867.80 111.59
1443 45.8300 13047.00 12388.00 114.22
1444 45.8562 14102.00 13115.40 118.75
1445 45.8825 14368.00 13822.90 119.87
1446 45.9087 14810.00 14356.90 121.70
1447 45.9350 14695.00 14449.90 121.22
1448 45.9613 14740.00 14980.70 121.41
1449 45.9875 15006.00 15389.10 122.50
1450 46.0138 14480.00 14475.50 120.33
1451 46.0400 13656.00 13528.20 116.86
1452 46.0663 12761.00 13059.70 112.96
1453 46.0926 12901.00 13076.40 113.58
1454 46.1188 12520.00 12764.00 111.89
1455 46.1451 12040.00 12069.60 109.73
1456 46.1713 11559.00 11673.40 107.51
1457 46.1976 11429.00 11543.60 106.91
1458 46.2239 11558.00 11547.90 107.51
1459 46.2501 11721.00 11663.20 108.26
1460 46.2764 12159.00 11908.30 110.27
1461 46.3026 12562.00 12223.80 112.08
1462 46.3289 12684.00 12331.90 112.62
1463 46.3552 12415.00 12353.60 111.42
1464 46.3814 12626.00 12695.00 112.36
1465 46.4077 12561.00 12982.00 112.08
1466 46.4339 12566.00 12630.70 112.10
1467 46.4602 12337.00 12162.60 111.07
1468 46.4865 12093.00 12008.70 109.97
1469 46.5127 11938.00 12063.40 109.26
1470 46.5390 11696.00 11944.10 108.15
1471 46.5652 11563.00 11610.20 107.53
1472 46.5915 11484.00 11415.70 107.16
1473 46.6178 11283.00 11336.80 106.22
1474 46.6440 11365.00 11285.20 106.61
1475 46.6703 11247.00 11246.90 106.05
1476 46.6965 11363.00 11221.60 106.60
1477 46.7228 11240.00 11209.50 106.02
1478 46.7491 11295.00 11201.40 106.28
1479 46.7753 11287.00 11195.40 106.24
1480 46.8016 11071.00 11190.70 105.22
1481 46.8278 11280.00 11187.00 106.21
1482 46.8541 11298.00 11183.90 106.29
1483 46.8804 11160.00 11181.30 105.64
1484 46.9066 11417.00 11177.00 106.85
1485 46.9329 11278.00 11175.20 106.20
1486 46.9591 11097.00 11173.60 105.34
1487 46.9854 11257.00 11168.50 106.10
1488 47.0117 11235.00 11167.50 106.00
1489 47.0379 11089.00 11165.60 105.30
1490 47.0642 11311.00 11164.90 106.35
1491 47.0904 11286.00 11163.90 106.24
1492 47.1167 11080.00 11161.40 105.26
1493 47.1430 11218.00 11165.70 105.92
1494 47.1692 11149.00 11165.70 105.59
1495 47.1955 11145.00 11165.80 105.57
1496 47.2217 11210.00 11165.80 105.88
1497 47.2480 11276.00 11166.10 106.19
1498 47.2743 11329.00 11173.10 106.44
1499 47.3005 11203.00 11174.50 105.84
1500 47.3268 11109.00 11176.40 105.40
1501 47.3530 11196.00 11178.80 105.81
1502 47.3793 11283.00 11182.00 106.22
1503 47.4056 11233.00 11186.10 105.99
1504 47.4318 11094.00 11191.70 105.33
1505 47.4581 11128.00 11199.30 105.49
1506 47.4843 11231.00 11210.10 105.98
1507 47.5106 11225.00 11225.90 105.95
1508 47.5369 11430.00 11250.80 106.91
1509 47.5631 11330.00 11294.90 106.44
1510 47.5894 11489.00 11388.10 107.19
1511 47.6156 11652.00 11601.90 107.94
1512 47.6419 12137.00 12038.80 110.17
1513 47.6682 12758.00 12716.40 112.95
1514 47.6944 13379.00 13218.30 115.67
1515 47.7207 12953.00 12739.50 113.81
1516 47.7469 12255.00 12075.10 110.70
1517 47.7732 11807.00 11934.70 108.66
1518 47.7995 12078.00 12138.10 109.90
1519 47.8257 12318.00 12235.40 110.99
1520 47.8520 11926.00 11854.90 109.21
1521 47.8782 11697.00 11483.80 108.15
1522 47.9045 11362.00 11316.90 106.59
1523 47.9308 11078.00 11252.50 105.25
1524 47.9570 11076.00 11221.30 105.24
1525 47.9833 11206.00 11202.40 105.86
1526 48.0095 10917.00 11189.70 104.48
1527 48.0358 11271.00 11180.60 106.17
1528 48.0621 11161.00 11173.80 105.65
1529 48.0883 11174.00 11168.60 105.71
1530 48.1146 11035.00 11164.40 105.05
1531 48.1408 11074.00 11160.90 105.23
1532 48.1671 11194.00 11158.10 105.80
1533 48.1934 11275.00 11155.60 106.18
1534 48.2196 11122.00 11153.50 105.46
1535 48.2459 10974.00 11151.60 104.76
1536 48.2721 11335.00 11150.00 106.47
1537 48.2984 11113.00 11143.10 105.42
1538 48.3247 10974.00 11142.20 104.76
1539 48.3509 11212.00 11141.30 105.89
1540 48.3772 10987.00 11140.50 104.82
1541 48.4034 11132.00 11139.80 105.51
1542 48.4297 11122.00 11136.40 105.46
1543 48.4560 11253.00 11135.90 106.08
1544 48.4822 11038.00 11135.40 105.06
1545 48.5085 11206.00 11134.90 105.86
1546 48.5347 10893.00 11134.40 104.37
1547 48.5610 11127.00 11133.90 105.49
1548 48.5873 11062.00 11133.40 105.18
1549 48.6135 11056.00 11132.90 105.15
1550 48.6398 10966.00 11132.40 104.72
1551 48.6660 11096.00 11131.90 105.34
1552 48.6923 11099.00 11131.40 105.35
1553 48.7186 10979.00 11130.90 104.78
1554 48.7448 10970.00 11130.40 104.74
1555 48.7711 10959.00 11129.90 104.68
1556 48.7973 11014.00 11129.40 104.95
1557 48.8236 11080.00 11128.90 105.26
1558 48.8499 11040.00 11128.40 105.07
1559 48.8761 10932.00 11128.00 104.56
1560 48.9024 11048.00 11127.50 105.11
1561 48.9286 11076.00 11127.00 105.24
1562 48.9549 10980.00 11126.50 104.79
1563 48.9812 10962.00 11126.00 104.70
1564 49.0074 10972.00 11125.50 104.75
1565 49.0337 10966.00 11125.00 104.72
1566 49.0599 11219.00 11124.50 105.92
1567 49.0862 11045.00 11124.00 105.10
1568 49.1125 11057.00 11123.50 105.15
1569 49.1387 10946.00 11123.00 104.62
1570 49.1650 11113.00 11122.50 105.42
1571 49.1912 11034.00 11122.00 105.04
1572 49.2175 11041.00 11121.50 105.08
1573 49.2438 10912.00 11121.00 104.46
1574 49.2700 11030.00 11120.50 105.02
1575 49.2963 10854.00 11120.00 104.18
1576 49.3225 11071.00 11119.50 105.22
1577 49.3488 10893.00 11119.00 104.37
1578 49.3751 11032.00 11119.00 105.03
1579 49.4013 11208.00 11118.50 105.87
1580 49.4276 11181.00 11118.10 105.74
1581 49.4538 11240.00 11117.60 106.02
1582 49.4801 11023.00 11117.20 104.99
1583 49.5064 11064.00 11119.80 105.19
1584 49.5326 11132.00 11119.80 105.51
1585 49.5589 11193.00 11119.90 105.80
1586 49.5851 10929.00 11120.20 104.54
1587 49.6114 11187.00 11120.50 105.77
1588 49.6377 11085.00 11121.20 105.29
1589 49.6639 11188.00 11122.10 105.77
1590 49.6902 10900.00 11123.50 104.40
1591 49.7164 10982.00 11125.60 104.79
1592 49.7427 11050.00 11128.80 105.12
1593 49.7690 11040.00 11133.90 105.07
1594 49.7952 11197.00 11142.50 105.82
1595 49.8215 11102.00 11159.40 105.37
1596 49.8477 11277.00 11198.00 106.19
1597 49.8740 11152.00 11284.30 105.60
1598 49.9003 11333.00 11436.40 106.46
1599 49.9265 11620.00 11596.10 107.80
1600 49.9528 11535.00 11563.50 107.40
1601 49.9790 11346.00 11389.90 106.52
1602 50.0053 11269.00 11308.30 106.16
1603 50.0316 11224.00 11323.00 105.94
1604 50.0578 11479.00 11375.50 107.14
1605 50.0841 11176.00 11348.30 105.72
1606 50.1103 11023.00 11246.20 104.99
1607 50.1366 11193.00 11179.20 105.80
1608 50.1629 11076.00 11146.00 105.24
1609 50.1891 10912.00 11130.10 104.46
1610 50.2154 10974.00 11121.70 104.76
1611 50.2416 11058.00 11116.70 105.16
1612 50.2679 10884.00 11113.20 104.33
1613 50.2942 11160.00 11110.60 105.64
1614 50.3204 11197.00 11108.60 105.82
1615 50.3467 11190.00 11106.90 105.78
1616 50.3729 11018.00 11105.50 104.97
1617 50.3992 11070.00 11104.30 105.21
1618 50.4255 11083.00 11103.20 105.28
1619 50.4517 10943.00 11102.20 104.61
1620 50.4780 10917.00 11101.30 104.48
1621 50.5042 10774.00 11100.50 103.80
1622 50.5305 11018.00 11099.70 104.97
1623 50.5568 11242.00 11097.60 106.03
1624 50.5830 10992.00 11097.00 104.84
1625 50.6093 11073.00 11096.40 105.23
1626 50.6355 11297.00 11095.90 106.29
1627 50.6618 10973.00 11095.30 104.75
1628 50.6881 10930.00 11094.10 104.55
1629 50.7143 11245.00 11093.60 106.04
1630 50.7406 11158.00 11093.10 105.63
1631 50.7668 11164.00 11094.90 105.66
1632 50.7931 10939.00 11094.70 104.59
1633 50.8194 11062.00 11106.90 105.18
1634 50.8456 11224.00 11108.30 105.94
1635 50.8719 11297.00 11122.10 106.29
1636 50.8981 10942.00 11125.60 104.60
1637 50.9244 11222.00 11130.00 105.93
1638 50.9507 11015.00 11135.50 104.95
1639 50.9769 11208.00 11142.60 105.87
1640 51.0032 10984.00 11151.50 104.81
1641 51.0294 10984.00 11163.30 104.81
1642 51.0557 11253.00 11180.30 106.08
1643 51.0820 11331.00 11202.70 106.45
1644 51.1082 11188.00 11236.00 105.77
1645 51.1345 11330.00 11290.20 106.44
1646 51.1607 11358.00 11391.00 106.57
1647 51.1870 11491.00 11597.10 107.20
1648 51.2133 12056.00 11991.90 109.80
1649 51.2395 12694.00 12606.60 112.67
1650 51.2658 13334.00 13244.30 115.47
1651 51.2920 13705.00 13766.20 117.07
1652 51.3183 14350.00 14437.70 119.79
1653 51.3446 14561.00 14262.40 120.67
1654 51.3708 13318.00 13296.10 115.40
1655 51.3971 12880.00 12837.00 113.49
1656 51.4233 12679.00 12766.90 112.60
1657 51.4496 12596.00 12913.60 112.23
1658 51.4759 12726.00 12783.20 112.81
1659 51.5021 12144.00 12128.10 110.20
1660 51.5284 11685.00 11656.80 108.10
1661 51.5546 11229.00 11480.10 105.97
1662 51.5809 11418.00 11448.90 106.86
1663 51.6072 11470.00 11486.10 107.10
1664 51.6334 11491.00 11518.40 107.20
1665 51.6597 11360.00 11417.40 106.58
1666 51.6859 11330.00 11295.00 106.44
1667 51.7122 11164.00 11253.50 105.66
1668 51.7385 11200.00 11278.10 105.83
1669 51.7647 11159.00 11322.40 105.64
1670 51.7910 11248.00 11305.80 106.06
1671 51.8172 11143.00 11231.80 105.56
1672 51.8435 11077.00 11169.30 105.25
1673 51.8698 11193.00 11139.60 105.80
1674 51.8960 11202.00 11127.70 105.84
1675 51.9223 11247.00 11127.80 106.05
1676 51.9485 11217.00 11115.50 105.91
1677 51.9748 11190.00 11102.20 105.78
1678 52.0011 10830.00 11091.50 104.07
1679 52.0273 11138.00 11084.20 105.54
1680 52.0536 10992.00 11080.70 104.84
1681 52.0798 11058.00 11078.50 105.16
1682 52.1061 11180.00 11072.90 105.74
1683 52.1324 11158.00 11071.80 105.63
1684 52.1586 11320.00 11070.80 106.39
1685 52.1849 11222.00 11069.70 105.93
1686 52.2111 11012.00 11068.90 104.94
1687 52.2374 10920.00 11068.20 104.50
1688 52.2637 10958.00 11066.60 104.68
1689 52.2899 11189.00 11066.00 105.78
1690 52.3162 10930.00 11069.10 104.55
1691 52.3424 11103.00 11068.90 105.37
1692 52.3687 11015.00 11068.70 104.95
1693 52.3950 11034.00 11068.20 105.04
1694 52.4212 11037.00 11068.10 105.06
1695 52.4475 11064.00 11070.10 105.19
1696 52.4737 11142.00 11070.50 105.56
1697 52.5000 11217.00 11072.20 105.91
1698 52.5263 10899.00 11073.40 104.40
1699 52.5525 10847.00 11074.70 104.15
1700 52.5788 10929.00 11076.40 104.54
1701 52.6050 11067.00 11078.60 105.20
1702 52.6313 10955.00 11081.60 104.67
1703 52.6576 11000.00 11085.80 104.88
1704 52.6838 11056.00 11091.30 105.15
1705 52.7101 11130.00 11099.20 105.50
1706 52.7363 11041.00 11110.80 105.08
1707 52.7626 11049.00 11129.00 105.11
1708 52.7889 11347.00 11160.80 106.52
1709 52.8151 11127.00 11226.70 105.49
1710 52.8414 11258.00 11377.90 106.10
1711 52.8676 11731.00 11685.40 108.31
1712 52.8939 11914.00 12113.10 109.15
1713 52.9202 12224.00 12297.70 110.56
1714 52.9464 12140.00 11965.00 110.18
1715 52.9727 11759.00 11630.20 108.44
1716 52.9989 11639.00 11519.30 107.88
1717 53.0252 11666.00 11617.70 108.01
1718 53.0515 11638.00 11752.40 107.88
1719 53.0777 11858.00 11661.20 108.89
1720 53.1040 11384.00 11465.90 106.70
1721 53.1302 11410.00 11312.10 106.82
1722 53.1565 11200.00 11202.50 105.83
1723 53.1828 11162.00 11146.10 105.65
1724 53.2090 11123.00 11126.20 105.47
1725 53.2353 11184.00 11125.10 105.75
1726 53.2615 11309.00 11124.10 106.34
1727 53.2878 11262.00 11105.30 106.12
1728 53.3141 10928.00 11084.60 104.54
1729 53.3403 11145.00 11072.70 105.57
1730 53.3666 11080.00 11066.40 105.26
1731 53.3928 11024.00 11062.50 105.00
1732 53.4191 11126.00 11059.60 105.48
1733 53.4454 10966.00 11057.20 104.72
1734 53.4716 11024.00 11055.30 105.00
1735 53.4979 10993.00 11053.60 104.85
1736 53.5241 11124.00 11052.20 105.47
1737 53.5504 10914.00 11047.80 104.47
1738 53.5767 10987.00 11046.90 104.82
1739 53.6029 11136.00 11045.60 105.53
1740 53.6292 10996.00 11044.90 104.86
1741 53.6554 11018.00 11044.20 104.97
1742 53.6817 10986.00 11043.50 104.81
1743 53.7080 11007.00 11041.40 104.91
1744 53.7342 11181.00 11040.70 105.74
1745 53.7605 11025.00 11039.90 105.00
1746 53.7867 11122.00 11039.50 105.46
1747 53.8130 11040.00 11039.00 105.07
1748 53.8393 11022.00 11038.60 104.99
1749 53.8655 11016.00 11038.20 104.96
1750 53.8918 11055.00 11037.60 105.14
1751 53.9180 11031.00 11037.20 105.03
1752 53.9443 10977.00 11036.70 104.77
1753 53.9706 11157.00 11036.30 105.63
1754 53.9968 10995.00 11035.90 104.86
1755 54.0231 11230.00 11035.50 105.97
1756 54.0493 11081.00 11035.00 105.27
1757 54.0756 11171.00 11034.60 105.69
1758 54.1019 11015.00 11034.20 104.95
1759 54.1281 11100.00 11033.80 105.36
1760 54.1544 11060.00 11033.30 105.17
1761 54.1806 11138.00 11032.90 105.54
1762 54.2069 10947.00 11032.50 104.63
1763 54.2332 11095.00 11032.10 105.33
1764 54.2594 11206.00 11031.70 105.86
1765 54.2857 11052.00 11031.30 105.13
1766 54.3119 11030.00 11030.80 105.02
1767 54.3382 10895.00 11030.40 104.38
1768 54.3645 11031.00 11030.00 105.03
1769 54.3907 11036.00 11030.50 105.05
1770 54.4170 10910.00 11030.20 104.45
1771 54.4432 11173.00 11029.90 105.70
1772 54.4695 10948.00 11029.60 104.63
1773 54.4958 11177.00 11029.30 105.72
1774 54.5220 11048.00 11029.10 105.11
1775 54.5483 10941.00 11029.40 104.60
1776 54.5745 11006.00 11029.40 104.91
1777 54.6008 11087.00 11029.70 105.29
1778 54.6271 11067.00 11030.40 105.20
1779 54.6533 11107.00 11031.60 105.39
1780 54.6796 11210.00 11032.50 105.88
1781 54.7058 11177.00 11032.00 105.72
1782 54.7321 10989.00 11031.30 104.83
1783 54.7584 11117.00 11031.80 105.44
1784 54.7846 11175.00 11033.20 105.71
1785 54.8109 10920.00 11035.70 104.50
1786 54.8371 11200.00 11038.90 105.83
1787 54.8634 11056.00 11043.70 105.15
1788 54.8897 11154.00 11053.90 105.61
1789 54.9159 10893.00 11078.20 104.37
1790 54.9422 11157.00 11133.10 105.63
1791 54.9684 11282.00 11225.10 106.22
1792 54.9947 11219.00 11300.00 105.92
1793 55.0210 11455.00 11248.50 107.03
1794 55.0472 10981.00 11149.90 104.79
1795 55.0735 11226.00 11106.40 105.95
1796 55.0997 11198.00 11115.70 105.82
1797 55.1260 11118.00 11152.60 105.44
1798 55.1523 11358.00 11164.60 106.57
1799 55.1785 11196.00 11115.00 105.81
1800 55.2048 11092.00 11067.00 105.32
1801 55.2310 10863.00 11043.20 104.23
1802 55.2573 11125.00 11033.00 105.47
1803 55.2836 10822.00 11027.80 104.03
1804 55.3098 11130.00 11024.50 105.50
1805 55.3361 11345.00 11022.20 106.51
1806 55.3623 11219.00 11020.50 105.92
1807 55.3886 10997.00 11019.10 104.87
1808 55.4149 11090.00 11018.00 105.31
1809 55.4411 10904.00 11017.00 104.42
1810 55.4674 10970.00 11016.10 104.74
1811 55.4936 11052.00 11015.40 105.13
1812 55.5199 10998.00 11014.70 104.87
1813 55.5462 10937.00 11014.00 104.58
1814 55.5724 10953.00 11013.50 104.66
1815 55.5987 11050.00 11012.90 105.12
1816 55.6249 11009.00 11012.40 104.92
1817 55.6512 11169.00 11011.10 105.68
1818 55.6775 11170.00 11010.60 105.69
1819 55.7037 11070.00 11010.20 105.21
1820 55.7300 11093.00 11009.80 105.32
1821 55.7562 10881.00 11009.40 104.31
1822 55.7825 10921.00 11010.00 104.50
1823 55.8088 11116.00 11009.30 105.43
1824 55.8350 11008.00 11009.00 104.92
1825 55.8613 11051.00 11008.80 105.12
1826 55.8875 11148.00 11008.50 105.58
1827 55.9138 11211.00 11011.00 105.88
1828 55.9401 10865.00 11011.10 104.24
1829 55.9663 10978.00 11011.70 104.78
1830 55.9926 11066.00 11012.00 105.19
1831 56.0188 10932.00 11012.50 104.56
1832 56.0451 11156.00 11013.30 105.62
1833 56.0714 11109.00 11014.30 105.40
1834 56.0976 11119.00 11015.90 105.45
1835 56.1239 10955.00 11019.60 104.67
1836 56.1501 11054.00 11023.30 105.14
1837 56.1764 11099.00 11028.00 105.35
1838 56.2027 11006.00 11037.00 104.91
1839 56.2289 11017.00 11043.50 104.96
1840 56.2552 11000.00 11055.20 104.88
1841 56.2814 11052.00 11079.90 105.13
1842 56.3077 11169.00 11128.60 105.68
1843 56.3340 11255.00 11236.70 106.09
1844 56.3602 11506.00 11430.10 107.27
1845 56.3865 11406.00 11624.90 106.80
1846 56.4127 11795.00 11574.30 108.61
1847 56.4390 11352.00 11357.60 106.55
1848 56.4653 11554.00 11242.50 107.49
1849 56.4915 11366.00 11254.60 106.61
1850 56.5178 11392.00 11364.90 106.73
1851 56.5440 11467.00 11504.60 107.08
1852 56.5703 11438.00 11542.90 106.95
1853 56.5966 11428.00 11495.20 106.90
1854 56.6228 11471.00 11431.10 107.10
1855 56.6491 11642.00 11458.50 107.90
1856 56.6753 11581.00 11552.80 107.61
1857 56.7016 11565.00 11693.20 107.54
1858 56.7279 11796.00 11934.20 108.61
1859 56.7541 12083.00 11997.40 109.92
1860 56.7804 11665.00 11703.20 108.00
1861 56.8066 11633.00 11467.50 107.86
1862 56.8329 11236.00 11380.80 106.00
1863 56.8592 11611.00 11386.00 107.75
1864 56.8854 11398.00 11456.30 106.76
1865 56.9117 11420.00 11433.00 106.86
1866 56.9379 11308.00 11268.20 106.34
1867 56.9642 11221.00 11141.00 105.93
1868 56.9905 11198.00 11079.60 105.82
1869 57.0167 10959.00 11051.70 104.68
1870 57.0430 11016.00 11036.60 104.96
1871 57.0692 11083.00 11025.30 105.28
1872 57.0955 11247.00 11018.60 106.05
1873 57.1218 11061.00 11013.60 105.17
1874 57.1480 11113.00 11009.80 105.42
1875 57.1743 10904.00 11008.00 104.42
1876 57.2005 11041.00 11005.60 105.08
1877 57.2268 10923.00 11002.90 104.51
1878 57.2531 10813.00 11000.60 103.99
1879 57.2793 11347.00 10999.40 106.52
1880 57.3056 11052.00 11002.00 105.13
1881 57.3318 11128.00 11000.80 105.49
1882 57.3581 11110.00 11000.80 105.40
1883 57.3844 10977.00 11000.90 104.77
1884 57.4106 11097.00 10998.60 105.34
1885 57.4369 10952.00 10999.30 104.65
1886 57.4631 11154.00 11000.40 105.61
1887 57.4894 10972.00 11001.60 104.75
1888 57.5157 11008.00 11003.80 104.92
1889 57.5419 10868.00 11006.70 104.25
1890 57.5682 11121.00 11009.70 105.46
1891 57.5944 11035.00 11015.60 105.05
1892 57.6207 11041.00 11024.30 105.08
1893 57.6470 11050.00 11037.80 105.12
1894 57.6732 11050.00 11061.40 105.12
1895 57.6995 11096.00 11109.80 105.34
1896 57.7257 11283.00 11219.00 106.22
1897 57.7520 11175.00 11435.10 105.71
1898 57.7783 11518.00 11710.70 107.32
1899 57.8045 11527.00 11772.80 107.36
1900 57.8308 11461.00 11539.30 107.06
1901 57.8570 11278.00 11324.90 106.20
1902 57.8833 11256.00 11242.60 106.09
1903 57.9096 11381.00 11289.30 106.68
1904 57.9358 11472.00 11399.20 107.11
1905 57.9621 11238.00 11414.40 106.01
1906 57.9883 11353.00 11286.20 106.55
1907 58.0146 11531.00 11156.80 107.38
1908 58.0409 11209.00 11077.90 105.87
1909 58.0671 11143.00 11040.90 105.56
1910 58.0934 10888.00 11024.70 104.35
1911 58.1196 10942.00 11017.80 104.60
1912 58.1459 11133.00 11013.00 105.51
1913 58.1722 11036.00 11005.30 105.05
1914 58.1984 11129.00 10998.00 105.49
1915 58.2247 11219.00 10993.20 105.92
1916 58.2509 11071.00 10990.10 105.22
1917 58.2772 11021.00 10987.90 104.98
1918 58.3035 11131.00 10986.10 105.50
1919 58.3297 11050.00 10984.70 105.12
1920 58.3560 11029.00 10983.50 105.02
1921 58.3822 11270.00 10982.40 106.16
1922 58.4085 10933.00 10981.50 104.56
1923 58.4348 11081.00 10980.70 105.27
1924 58.4610 11102.00 10977.80 105.37
1925 58.4873 11028.00 10977.20 105.01
1926 58.5135 10993.00 10976.50 104.85
1927 58.5398 11003.00 10976.00 104.89
1928 58.5661 11228.00 10975.60 105.96
1929 58.5923 11132.00 10975.20 105.51
1930 58.6186 11209.00 10973.70 105.87
1931 58.6448 10977.00 10973.40 104.77
1932 58.6711 10964.00 10973.00 104.71
1933 58.6974 11130.00 10979.00 105.50
1934 58.7236 11121.00 10979.30 105.46
1935 58.7499 11022.00 10979.60 104.99
1936 58.7761 11089.00 10980.10 105.30
1937 58.8024 11063.00 10980.60 105.18
1938 58.8287 11123.00 10981.30 105.47
1939 58.8549 11091.00 10985.20 105.31
1940 58.8812 11136.00 10986.50 105.53
1941 58.9074 10913.00 10988.00 104.46
1942 58.9337 11210.00 10989.90 105.88
1943 58.9600 11040.00 10992.20 105.07
1944 58.9862 11003.00 10995.10 104.89
1945 59.0125 11130.00 10998.60 105.50
1946 59.0387 11005.00 11003.20 104.90
1947 59.0650 10950.00 11009.00 104.64
1948 59.0913 11061.00 11016.70 105.17
1949 59.1175 11156.00 11027.10 105.62
1950 59.1438 11206.00 11041.50 105.86
1951 59.1700 10956.00 11062.30 104.67
1952 59.1963 11215.00 11094.00 105.90
1953 59.2226 11485.00 11147.50 107.17
1954 59.2488 11252.00 11253.10 106.07
1955 59.2751 11510.00 11491.00 107.29
1956 59.3013 11889.00 11979.60 109.04
1957 59.3276 12591.00 12676.70 112.21
1958 59.3539 12910.00 12964.40 113.62
1959 59.3801 12547.00 12367.30 112.01
1960 59.4064 11903.00 11765.50 109.10
1961 59.4326 11556.00 11532.10 107.50
1962 59.4589 11595.00 11605.70 107.68
1963 59.4852 11803.00 11877.00 108.64
1964 59.5114 12055.00 12047.10 109.79
1965 59.5377 11790.00 11773.30 108.58
1966 59.5639 11474.00 11416.30 107.12
1967 59.5902 11431.00 11220.00 106.92
1968 59.6165 11099.00 11136.80 105.35
1969 59.6427 11058.00 11105.60 105.16
1970 59.6690 11179.00 11104.10 105.73
1971 59.6952 11189.00 11138.80 105.78
1972 59.7215 11082.00 11226.80 105.27
1973 59.7478 11289.00 11344.90 106.25
1974 59.7740 11209.00 11366.70 105.87
1975 59.8003 11226.00 11248.00 105.95
1976 59.8265 11146.00 11154.10 105.57
1977 59.8528 10978.00 11134.80 104.78
1978 59.8791 11123.00 11176.80 105.47
1979 59.9053 11144.00 11257.10 105.57
1980 59.9316 11152.00 11339.30 105.60
1981 59.9578 11288.00 11405.50 106.25
1982 59.9841 11140.00 11470.60 105.55
1983 60.0104 11150.00 11400.20 105.59
1984 60.0366 10974.00 11232.30 104.76
1985 60.0629 10919.00 11133.30 104.49
1986 60.0891 10797.00 11104.20 103.91
1987 60.1154 11116.00 11132.50 105.43
1988 60.1417 11240.00 11187.80 106.02
1989 60.1679 11084.00 11184.90 105.28
1990 60.1942 11212.00 11101.80 105.89
1991 60.2204 10978.00 11036.80 104.78
1992 60.2467 10966.00 11004.30 104.72
1993 60.2730 11007.00 10989.20 104.91
1994 60.2992 10866.00 10981.10 104.24
1995 60.3255 10724.00 10976.00 103.56
1996 60.3517 11028.00 10972.50 105.01
1997 60.3780 10956.00 10969.80 104.67
1998 60.4043 10725.00 10970.10 103.56
1999 60.4305 10818.00 10968.60 104.01
2000 60.4568 10968.00 10966.60 104.73
2001 60.4830 11058.00 10965.80 105.16
2002 60.5093 11009.00 10968.50 104.92
2003 60.5356 11075.00 10968.50 105.24
2004 60.5618 10990.00 10968.80 104.83
2005 60.5881 11039.00 10969.20 105.07
2006 60.6143 10848.00 10969.50 104.15
2007 60.6406 11061.00 10970.70 105.17
2008 60.6669 11060.00 10972.30 105.17
2009 60.6931 11029.00 10973.60 105.02
2010 60.7194 10855.00 10976.80 104.19
2011 60.7456 10924.00 10981.20 104.52
2012 60.7719 11081.00 10987.60 105.27
2013 60.7982 10878.00 10997.70 104.30
2014 60.8244 11241.00 11015.20 106.02
2015 60.8507 11183.00 11047.10 105.75
2016 60.8769 11058.00 11100.20 105.16
2017 60.9032 11242.00 11164.20 106.03
2018 60.9295 11184.00 11237.00 105.75
2019 60.9557 11349.00 11398.70 106.53
2020 60.9820 11536.00 11666.80 107.41
2021 61.0082 11778.00 11800.00 108.53
2022 61.0345 11445.00 11580.60 106.98
2023 61.0608 11403.00 11339.50 106.79
2024 61.0870 11307.00 11225.00 106.33
2025 61.1133 11273.00 11217.80 106.17
2026 61.1395 11443.00 11304.50 106.97
2027 61.1658 11043.00 11397.80 105.09
2028 61.1921 11185.00 11328.40 105.76
2029 61.2183 11127.00 11173.90 105.49
2030 61.2446 11083.00 11076.50 105.28
2031 61.2708 11019.00 11035.30 104.97
2032 61.2971 11150.00 11026.50 105.59
2033 61.3234 11078.00 11036.30 105.25
2034 61.3496 11121.00 11044.90 105.46
2035 61.3759 11125.00 11026.10 105.47
2036 61.4021 11105.00 10999.50 105.38
2037 61.4284 11036.00 10984.50 105.05
2038 61.4547 11060.00 10980.60 105.17
2039 61.4809 11166.00 10985.10 105.67
2040 61.5072 11024.00 10992.90 105.00
2041 61.5334 10834.00 10990.50 104.09
2042 61.5597 10991.00 10977.00 104.84
2043 61.5860 10954.00 10966.40 104.66
2044 61.6122 11021.00 10960.50 104.98
2045 61.6385 11068.00 10957.50 105.21
2046 61.6647 10797.00 10955.70 103.91
2047 61.6910 10946.00 10954.40 104.62
2048 61.7173 10928.00 10951.10 104.54
2049 61.7435 10891.00 10950.40 104.36
2050 61.7698 10849.00 10949.70 104.16
2051 61.7960 10948.00 10949.40 104.63
2052 61.8223 10968.00 10949.00 104.73
2053 61.8486 10912.00 10948.60 104.46
2054 61.8748 10917.00 10947.10 104.48
2055 61.9011 10992.00 10946.80 104.84
2056 61.9273 10719.00 10946.60 103.53
2057 61.9536 10868.00 10949.50 104.25
2058 61.9799 11003.00 10949.50 104.89
2059 62.0061 10964.00 10949.70 104.71
2060 62.0324 10992.00 10949.90 104.84
2061 62.0586 10792.00 10950.00 103.89
2062 62.0849 11079.00 10950.40 105.26
2063 62.1112 10904.00 10951.80 104.42
2064 62.1374 10958.00 10952.60 104.68
2065 62.1637 10803.00 10953.50 103.94
2066 62.1899 10958.00 10954.70 104.68
2067 62.2162 10802.00 10956.10 103.93
2068 62.2425 11031.00 10958.10 105.03
2069 62.2687 10952.00 10960.80 104.65
2070 62.2950 10690.00 10964.50 103.39
2071 62.3212 10884.00 10970.30 104.33
2072 62.3475 11060.00 10979.40 105.17
2073 62.3738 11053.00 10996.50 105.13
2074 62.4000 11016.00 11031.30 104.96
2075 62.4263 11081.00 11092.50 105.27
2076 62.4525 11136.00 11157.70 105.53
2077 62.4788 11301.00 11158.80 106.31
2078 62.5051 10727.00 11125.00 103.57
2079 62.5313 11064.00 11146.70 105.19
2080 62.5576 11331.00 11265.60 106.45
2081 62.5838 11250.00 11480.20 106.07
2082 62.6101 11432.00 11631.30 106.92
2083 62.6364 11243.00 11502.30 106.03
2084 62.6626 11295.00 11282.60 106.28
2085 62.6889 10950.00 11155.10 104.64
2086 62.7151 11107.00 11129.30 105.39
2087 62.7414 11203.00 11183.50 105.84
2088 62.7677 11039.00 11276.20 105.07
2089 62.7939 11264.00 11287.90 106.13
2090 62.8202 11336.00 11185.90 106.47
2091 62.8464 11168.00 11083.80 105.68
2092 62.8727 11080.00 11023.20 105.26
2093 62.8990 11170.00 10994.80 105.69
2094 62.9252 10797.00 10983.10 103.91
2095 62.9515 10909.00 10980.90 104.45
2096 62.9777 10908.00 10982.60 104.44
2097 63.0040 11223.00 10978.00 105.94
2098 63.0303 11001.00 10966.70 104.89
2099 63.0565 10892.00 10958.00 104.36
2100 63.0828 11064.00 10952.90 105.19
2101 63.1090 10954.00 10950.00 104.66
2102 63.1353 10935.00 10948.00 104.57
2103 63.1616 10982.00 10946.50 104.79
2104 63.1878 10666.00 10944.80 103.28
2105 63.2141 11084.00 10943.90 105.28
2106 63.2403 10966.00 10943.00 104.72
2107 63.2666 10897.00 10942.30 104.39
2108 63.2929 11093.00 10941.70 105.32
2109 63.3191 11043.00 10939.40 105.09
2110 63.3454 11108.00 10938.80 105.39
2111 63.3716 10917.00 10938.40 104.48
2112 63.3979 10831.00 10938.10 104.07
2113 63.4242 10894.00 10937.80 104.37
2114 63.4504 11018.00 10937.50 104.97
2115 63.4767 10748.00 10937.30 103.67
2116 63.5029 10947.00 10936.20 104.63
2117 63.5292 11011.00 10935.90 104.93
2118 63.5555 10706.00 10935.70 103.47
2119 63.5817 10882.00 10935.50 104.32
2120 63.6080 11030.00 10935.40 105.02
2121 63.6342 10929.00 10935.20 104.54
2122 63.6605 11136.00 10935.10 105.53
2123 63.6868 11000.00 10934.90 104.88
2124 63.7130 10984.00 10934.70 104.81
2125 63.7393 10963.00 10934.50 104.70
2126 63.7655 10871.00 10934.30 104.26
2127 63.7918 10964.00 10934.20 104.71
2128 63.8181 10964.00 10934.00 104.71
2129 63.8443 10845.00 10934.50 104.14
2130 63.8706 10964.00 10934.40 104.71
2131 63.8968 11064.00 10934.30 105.19
2132 63.9231 10906.00 10934.20 104.43
2133 63.9494 11072.00 10934.20 105.22
2134 63.9756 11091.00 10934.10 105.31
2135 64.0019 10827.00 10934.00 104.05
2136 64.0282 11101.00 10934.30 105.36
2137 64.0544 10949.00 10934.30 104.64
2138 64.0807 10954.00 10934.40 104.66
2139 64.1069 11168.00 10934.40 105.68
2140 64.1332 11001.00 10934.50 104.89
2141 64.1595 11077.00 10934.70 105.25
2142 64.1857 11007.00 10935.00 104.91
2143 64.2120 10788.00 10935.30 103.86
2144 64.2382 11018.00 10935.80 104.97
2145 64.2645 10979.00 10936.40 104.78
2146 64.2907 10949.00 10937.30 104.64
2147 64.3170 11022.00 10938.60 104.99
2148 64.3433 11128.00 10940.60 105.49
2149 64.3695 10984.00 10943.50 104.81
2150 64.3958 11051.00 10948.20 105.12
2151 64.4221 10863.00 10957.10 104.23
2152 64.4483 10999.00 10975.90 104.88
2153 64.4746 11021.00 11015.50 104.98
2154 64.5008 10974.00 11080.00 104.76
2155 64.5271 11025.00 11127.30 105.00
2156 64.5534 11015.00 11089.20 104.95
2157 64.5796 10915.00 11024.10 104.47
2158 64.6059 11006.00 10987.50 104.91
2159 64.6321 10864.00 10978.50 104.23
2160 64.6584 10899.00 10991.00 104.40
2161 64.6847 10952.00 11019.10 104.65
2162 64.7109 10972.00 11033.20 104.75
2163 64.7372 10911.00 11005.80 104.46
2164 64.7634 10922.00 10972.40 104.51
2165 64.7897 10963.00 10953.00 104.70
2166 64.8159 10814.00 10943.60 103.99
2167 64.8422 11087.00 10939.00 105.29
2168 64.8685 11191.00 10937.70 105.79
2169 64.8947 10873.00 10936.10 104.27
2170 64.9210 10971.00 10937.90 104.74
2171 64.9473 10820.00 10937.50 104.02
2172 64.9735 10971.00 10939.20 104.74
2173 64.9998 10838.00 10939.50 104.11
2174 65.0260 10804.00 10940.10 103.94
2175 65.0523 10849.00 10940.90 104.16
2176 65.0786 11116.00 10942.80 105.43
2177 65.1048 10831.00 10944.50 104.07
2178 65.1311 11155.00 10946.60 105.62
2179 65.1573 10975.00 10949.50 104.76
2180 65.1836 11031.00 10954.00 105.03
2181 65.2099 10936.00 10959.20 104.57
2182 65.2361 10878.00 10966.90 104.30
2183 65.2624 10996.00 10977.00 104.86
2184 65.2886 10942.00 10993.70 104.60
2185 65.3149 10967.00 11025.20 104.72
2186 65.3411 11076.00 11081.00 105.24
2187 65.3674 11130.00 11186.10 105.50
2188 65.3937 11193.00 11353.60 105.80
2189 65.4199 11307.00 11546.20 106.33
2190 65.4462 11561.00 11618.00 107.52
2191 65.4725 11188.00 11477.90 105.77
2192 65.4987 11311.00 11355.50 106.35
2193 65.5250 11223.00 11343.10 105.94
2194 65.5512 11250.00 11458.00 106.07
2195 65.5775 11437.00 11628.00 106.94
2196 65.6038 11640.00 11656.00 107.89
2197 65.6300 11403.00 11531.30 106.79
2198 65.6563 11435.00 11359.10 106.93
2199 65.6825 11395.00 11260.30 106.75
2200 65.7088 11301.00 11253.90 106.31
2201 65.7351 11345.00 11334.30 106.51
2202 65.7613 11699.00 11437.60 108.16
2203 65.7876 11325.00 11444.50 106.42
2204 65.8138 11537.00 11431.40 107.41
2205 65.8401 11412.00 11427.30 106.83
2206 65.8663 11388.00 11385.20 106.71
2207 65.8926 11292.00 11380.60 106.26
2208 65.9189 11200.00 11350.90 105.83
2209 65.9451 11421.00 11263.10 106.87
2210 65.9714 11302.00 11194.90 106.31
2211 65.9977 11332.00 11178.80 106.45
2212 66.0239 11120.00 11177.00 105.45
2213 66.0502 11196.00 11151.20 105.81
2214 66.0764 11091.00 11137.70 105.31
2215 66.1027 11073.00 11106.50 105.23
2216 66.1290 11152.00 11044.00 105.60
2217 66.1552 11039.00 10998.50 105.07
2218 66.1815 10891.00 10970.80 104.36
2219 66.2077 10936.00 10957.30 104.57
2220 66.2340 10928.00 10949.30 104.54
2221 66.2603 10962.00 10944.10 104.70
2222 66.2865 11014.00 10940.50 104.95
2223 66.3128 10892.00 10936.30 104.36
2224 66.3390 11014.00 10935.40 104.95
2225 66.3653 10819.00 10933.20 104.01
2226 66.3915 10904.00 10932.20 104.42
2227 66.4178 10740.00 10931.50 103.63
2228 66.4441 10827.00 10932.30 104.05
2229 66.4703 10901.00 10932.40 104.41
2230 66.4966 10930.00 10932.30 104.55
2231 66.5229 10987.00 10932.40 104.82
2232 66.5491 11004.00 10933.60 104.90
2233 66.5754 11022.00 10934.40 104.99
2234 66.6016 10837.00 10936.80 104.10
2235 66.6279 10971.00 10940.70 104.74
2236 66.6542 11037.00 10944.50 105.06
2237 66.6804 10912.00 10951.00 104.46
2238 66.7067 11098.00 10961.00 105.35
2239 66.7329 11022.00 10976.90 104.99
2240 66.7592 11058.00 11005.30 105.16
2241 66.7855 11104.00 11064.50 105.38
2242 66.8117 11260.00 11185.80 106.11
2243 66.8380 11448.00 11384.30 107.00
2244 66.8642 11385.00 11540.00 106.70
2245 66.8905 11528.00 11436.80 107.37
2246 66.9167 11329.00 11236.40 106.44
2247 66.9430 11239.00 11117.30 106.01
2248 66.9693 11036.00 11081.30 105.05
2249 66.9955 11179.00 11110.00 105.73
2250 67.0218 10973.00 11196.10 104.75
2251 67.0480 11275.00 11291.30 106.18
2252 67.0743 11148.00 11289.00 105.58
2253 67.1006 11175.00 11257.40 105.71
2254 67.1268 11094.00 11301.60 105.33
2255 67.1531 11084.00 11336.70 105.28
2256 67.1794 11149.00 11236.30 105.59
2257 67.2056 11169.00 11110.30 105.68
2258 67.2319 11082.00 11039.00 105.27
2259 67.2581 10844.00 11015.90 104.14
2260 67.2844 11012.00 11029.80 104.94
2261 67.3107 11130.00 11074.70 105.50
2262 67.3369 10961.00 11113.60 104.69
2263 67.3632 11109.00 11079.70 105.40
2264 67.3894 11235.00 11014.10 106.00
2265 67.4157 10861.00 10970.40 104.22
2266 67.4419 10870.00 10947.90 104.26
2267 67.4682 10989.00 10936.40 104.83
2268 67.4945 10924.00 10929.70 104.52
2269 67.5207 11004.00 10925.20 104.90
2270 67.5470 10882.00 10922.00 104.32
2271 67.5732 10893.00 10919.80 104.37
2272 67.5995 10692.00 10917.80 103.40
2273 67.6258 10900.00 10914.50 104.40
2274 67.6520 11213.00 10913.20 105.89
2275 67.6783 10841.00 10912.20 104.12
2276 67.7046 10900.00 10911.30 104.40
2277 67.7308 10980.00 10910.50 104.79
2278 67.7571 11084.00 10910.00 105.28
2279 67.7833 10910.00 10909.40 104.45
2280 67.8096 11094.00 10907.90 105.33
2281 67.8359 10836.00 10907.50 104.10
2282 67.8621 10866.00 10907.10 104.24
2283 67.8884 10872.00 10906.80 104.27
2284 67.9146 10925.00 10905.40 104.52
2285 67.9409 10878.00 10905.20 104.30
2286 67.9671 10767.00 10905.60 103.76
2287 67.9934 10905.00 10905.50 104.43
2288 68.0197 10909.00 10905.60 104.45
2289 68.0459 10916.00 10905.70 104.48
2290 68.0722 10866.00 10906.00 104.24
2291 68.0984 11000.00 10906.00 104.88
2292 68.1247 10954.00 10906.90 104.66
2293 68.1510 10990.00 10908.70 104.83
2294 68.1772 10803.00 10911.40 103.94
2295 68.2035 11017.00 10917.00 104.96
2296 68.2298 11105.00 10928.10 105.38
2297 68.2560 10642.00 10949.50 103.16
2298 68.2823 10966.00 10979.70 104.72
2299 68.3085 10852.00 10991.50 104.17
2300 68.3348 11035.00 10967.00 105.05
2301 68.3611 10980.00 10943.10 104.79
2302 68.3873 10819.00 10929.70 104.01
2303 68.4136 10840.00 10926.90 104.11
2304 68.4398 10964.00 10932.70 104.71
2305 68.4661 11020.00 10945.90 104.98
2306 68.4923 11150.00 10957.40 105.59
2307 68.5186 10975.00 10951.60 104.76
2308 68.5449 11028.00 10939.70 105.01
2309 68.5711 11033.00 10935.60 105.04
2310 68.5974 10802.00 10941.90 103.93
2311 68.6236 11049.00 10962.50 105.11
2312 68.6499 10947.00 11002.70 104.63
2313 68.6762 10896.00 11051.40 104.38
2314 68.7024 11099.00 11059.20 105.35
2315 68.7287 10997.00 11025.30 104.87
2316 68.7550 10900.00 10996.80 104.40
2317 68.7812 10986.00 10989.80 104.81
2318 68.8075 11021.00 11013.60 104.98
2319 68.8337 10920.00 11083.40 104.50
2320 68.8600 11279.00 11215.20 106.20
2321 68.8863 11268.00 11358.90 106.15
2322 68.9125 11111.00 11348.40 105.41
2323 68.9388 11059.00 11196.10 105.16
2324 68.9650 10970.00 11072.20 104.74
2325 68.9913 10875.00 11012.20 104.28
2326 69.0175 11020.00 10999.90 104.98
2327 69.0438 10952.00 11025.80 104.65
2328 69.0701 11121.00 11081.30 105.46
2329 69.0963 10891.00 11113.20 104.36
2330 69.1226 11191.00 11061.30 105.79
2331 69.1488 10942.00 10991.70 104.60
2332 69.1751 10882.00 10948.40 104.32
2333 69.2014 11052.00 10928.50 105.13
2334 69.2276 10910.00 10917.20 104.45
2335 69.2539 10915.00 10910.40 104.47
2336 69.2802 10972.00 10906.10 104.75
2337 69.3064 10926.00 10907.20 104.53
2338 69.3327 11139.00 10905.40 105.54
2339 69.3589 11115.00 10904.20 105.43
2340 69.3852 10753.00 10905.90 103.70
2341 69.4115 11285.00 10905.90 106.23
2342 69.4377 11126.00 10906.30 105.48
2343 69.4640 11234.00 10906.90 105.99
2344 69.4902 10918.00 10908.80 104.49
2345 69.5165 10966.00 10911.00 104.72
2346 69.5427 10949.00 10914.60 104.64
2347 69.5690 11036.00 10919.00 105.05
2348 69.5953 10807.00 10925.20 103.96
2349 69.6215 10953.00 10934.10 104.66
2350 69.6478 11042.00 10947.70 105.08
2351 69.6740 11078.00 10969.60 105.25
2352 69.7003 11010.00 11008.90 104.93
2353 69.7266 10935.00 11069.20 104.57
2354 69.7528 11194.00 11141.70 105.80
2355 69.7791 11473.00 11241.20 107.11
2356 69.8054 11365.00 11428.10 106.61
2357 69.8316 11419.00 11649.90 106.86
2358 69.8579 11548.00 11685.20 107.46
2359 69.8841 11758.00 11621.60 108.43
2360 69.9104 11564.00 11639.60 107.54
2361 69.9367 11914.00 11576.70 109.15
2362 69.9629 11452.00 11410.80 107.01
2363 69.9892 11414.00 11328.80 106.84
2364 70.0154 11508.00 11366.30 107.28
2365 70.0417 11312.00 11410.80 106.36
2366 70.0679 11607.00 11366.80 107.74
2367 70.0942 11439.00 11333.60 106.95
2368 70.1205 11512.00 11300.70 107.29
2369 70.1467 11290.00 11194.70 106.25
2370 70.1730 11151.00 11087.30 105.60
2371 70.1992 11046.00 11031.30 105.10
2372 70.2255 11029.00 11009.60 105.02
2373 70.2518 10795.00 10989.80 103.90
2374 70.2780 11087.00 10969.40 105.29
2375 70.3043 10732.00 10950.40 103.60
2376 70.3306 10875.00 10929.80 104.28
2377 70.3568 10917.00 10915.40 104.48
2378 70.3831 10821.00 10908.80 104.02
2379 70.4093 11162.00 10908.80 105.65
2380 70.4356 10823.00 10907.60 104.03
2381 70.4619 10884.00 10900.50 104.33
2382 70.4881 11034.00 10892.40 105.04
2383 70.5144 10913.00 10886.50 104.46
2384 70.5406 11008.00 10882.90 104.92
2385 70.5669 10849.00 10880.50 104.16
2386 70.5932 10801.00 10878.70 103.93
2387 70.6194 10963.00 10877.70 104.70
2388 70.6457 10958.00 10876.90 104.68
2389 70.6719 10879.00 10876.20 104.30
2390 70.6982 10911.00 10874.20 104.46
2391 70.7244 11089.00 10873.90 105.30
2392 70.7507 11028.00 10873.90 105.01
2393 70.7770 10805.00 10875.00 103.95
2394 70.8032 10662.00 10875.50 103.26
2395 70.8295 10954.00 10875.40 104.66
2396 70.8558 10917.00 10876.70 104.48
2397 70.8820 10750.00 10878.50 103.68
2398 70.9083 10850.00 10880.20 104.16
2399 70.9345 10754.00 10883.80 103.70
2400 70.9608 10690.00 10888.90 103.39
2401 70.9871 10817.00 10896.20 104.00
2402 71.0133 10849.00 10907.20 104.16
2403 71.0396 10741.00 10925.50 103.64
2404 71.0658 11012.00 10959.40 104.94
2405 71.0921 10880.00 11027.90 104.31
2406 71.1184 11115.00 11158.60 105.43
2407 71.1446 11188.00 11347.80 105.77
2408 71.1709 11085.00 11443.50 105.29
2409 71.1971 11177.00 11308.50 105.72
2410 71.2234 11012.00 11139.10 104.94
2411 71.2496 10944.00 11046.70 104.61
2412 71.2759 10996.00 11025.80 104.86
2413 71.3022 10986.00 11064.40 104.81
2414 71.3284 10823.00 11153.10 104.03
2415 71.3547 11207.00 11241.80 105.86
2416 71.3810 11051.00 11239.10 105.12
2417 71.4072 11011.00 11153.90 104.93
2418 71.4335 11090.00 11087.80 105.31
2419 71.4597 11010.00 11033.00 104.93
2420 71.4860 10997.00 10981.10 104.87
2421 71.5123 11052.00 10954.20 105.13
2422 71.5385 10902.00 10944.70 104.41
2423 71.5648 10760.00 10930.70 103.73
2424 71.5910 10812.00 10916.80 103.98
2425 71.6173 10913.00 10915.20 104.46
2426 71.6436 10837.00 10918.20 104.10
2427 71.6698 10863.00 10906.00 104.23
2428 71.6961 10984.00 10885.80 104.81
2429 71.7223 10887.00 10871.30 104.34
2430 71.7486 10836.00 10862.80 104.10
2431 71.7748 11058.00 10857.70 105.16
2432 71.8011 10838.00 10854.30 104.11
2433 71.8274 10941.00 10851.70 104.60
2434 71.8536 10768.00 10849.70 103.77
2435 71.8799 10838.00 10848.00 104.11
2436 71.9062 10885.00 10846.60 104.33
2437 71.9324 10948.00 10845.30 104.63
2438 71.9587 10887.00 10842.30 104.34
2439 71.9849 10610.00 10841.30 103.00
2440 72.0112 10727.00 10840.30 103.57
2441 72.0375 10945.00 10839.40 104.62
2442 72.0637 10795.00 10838.60 103.90
2443 72.0900 10928.00 10837.70 104.54
2444 72.1162 10723.00 10837.00 103.55
2445 72.1425 10883.00 10836.00 104.32
2446 72.1688 10986.00 10834.80 104.81
2447 72.1950 10802.00 10834.20 103.93
2448 72.2213 11080.00 10833.50 105.26
2449 72.2475 10872.00 10832.70 104.27
2450 72.2738 10910.00 10832.10 104.45
2451 72.3000 10800.00 10831.50 103.92
2452 72.3263 10975.00 10831.00 104.76
2453 72.3526 10912.00 10830.30 104.46
2454 72.3788 10830.00 10830.60 104.07
2455 72.4051 10935.00 10830.20 104.57
2456 72.4314 10857.00 10829.90 104.20
2457 72.4576 10851.00 10829.40 104.17
2458 72.4839 10789.00 10829.30 103.87
2459 72.5101 10814.00 10829.20 103.99
2460 72.5364 10841.00 10829.50 104.12
2461 72.5627 11025.00 10830.30 105.00
2462 72.5889 10917.00 10832.10 104.48
2463 72.6152 10718.00 10835.90 103.53
2464 72.6414 10809.00 10841.80 103.97
2465 72.6677 10879.00 10845.70 104.30
2466 72.6940 10947.00 10842.50 104.63
2467 72.7202 11042.00 10837.70 105.08
2468 72.7465 10808.00 10835.70 103.96
2469 72.7727 10979.00 10836.60 104.78
2470 72.7990 10953.00 10840.70 104.66
2471 72.8252 10892.00 10849.50 104.36
2472 72.8515 10930.00 10866.90 104.55
2473 72.8778 11040.00 10898.20 105.07
2474 72.9040 10880.00 10947.20 104.31
2475 72.9303 11236.00 10997.10 106.00
2476 72.9566 11077.00 10985.60 105.25
2477 72.9828 10925.00 10927.20 104.52
2478 73.0091 10968.00 10882.30 104.73
2479 73.0353 10801.00 10859.90 103.93
2480 73.0616 10745.00 10853.90 103.66
2481 73.0879 10865.00 10861.40 104.24
2482 73.1141 11118.00 10882.10 105.44
2483 73.1404 10751.00 10905.00 103.69
2484 73.1666 11077.00 10898.10 105.25
2485 73.1929 10937.00 10867.30 104.58
2486 73.2192 11064.00 10842.80 105.19
2487 73.2454 10986.00 10828.80 104.81
2488 73.2717 10856.00 10821.20 104.19
2489 73.2979 10917.00 10816.80 104.48
2490 73.3242 10909.00 10813.80 104.45
2491 73.3504 10822.00 10811.60 104.03
2492 73.3767 10886.00 10809.80 104.34
2493 73.4030 10790.00 10810.20 103.88
2494 73.4292 10883.00 10811.00 104.32
2495 73.4555 10701.00 10810.20 103.45
2496 73.4818 10956.00 10809.50 104.67
2497 73.5080 10780.00 10809.10 103.83
2498 73.5343 10823.00 10809.20 104.03
2499 73.5605 10802.00 10809.00 103.93
2500 73.5868 10927.00 10809.00 104.53
2501 73.6131 10639.00 10809.30 103.15
2502 73.6393 10862.00 10809.80 104.22
2503 73.6656 10769.00 10810.60 103.77
2504 73.6918 10869.00 10811.70 104.25
2505 73.7181 10911.00 10813.50 104.46
2506 73.7444 10908.00 10816.30 104.44
2507 73.7706 10734.00 10820.00 103.61
2508 73.7969 10833.00 10826.10 104.08
2509 73.8231 10824.00 10834.00 104.04
2510 73.8494 10967.00 10846.60 104.72
2511 73.8756 10853.00 10868.90 104.18
2512 73.9019 10875.00 10908.60 104.28
2513 73.9282 11023.00 10982.90 104.99
2514 73.9544 11196.00 11105.10 105.81
2515 73.9807 11200.00 11258.00 105.83
2516 74.0070 11161.00 11340.60 105.65
2517 74.0332 10952.00 11230.50 104.65
2518 74.0595 11140.00 11071.10 105.55
2519 74.0857 10919.00 10973.70 104.49
2520 74.1120 10851.00 10936.20 104.17
2521 74.1383 11040.00 10943.10 105.07
2522 74.1645 10978.00 10987.90 104.78
2523 74.1908 10961.00 11059.70 104.69
2524 74.2170 10841.00 11118.60 104.12
2525 74.2433 11150.00 11098.60 105.59
2526 74.2696 11034.00 11059.50 105.04
2527 74.2958 11157.00 11060.40 105.63
2528 74.3221 11112.00 11052.60 105.41
2529 74.3483 10997.00 11015.00 104.87
2530 74.3746 11054.00 10998.10 105.14
2531 74.4008 11031.00 11008.10 105.03
2532 74.4271 10733.00 11044.00 103.60
2533 74.4534 10963.00 11059.50 104.70
2534 74.4796 10893.00 11016.30 104.37
2535 74.5059 10972.00 10978.10 104.75
2536 74.5322 10854.00 10954.70 104.18
2537 74.5584 10729.00 10926.50 103.58
2538 74.5847 10956.00 10913.00 104.67
2539 74.6109 10756.00 10920.70 103.71
2540 74.6372 10955.00 10944.30 104.67
2541 74.6635 11015.00 10952.10 104.95
2542 74.6897 10937.00 10910.70 104.58
2543 74.7160 10755.00 10860.30 103.71
2544 74.7422 10861.00 10827.70 104.22
2545 74.7685 10761.00 10812.60 103.74
2546 74.7948 10834.00 10805.10 104.09
2547 74.8210 10861.00 10803.20 104.22
2548 74.8473 10865.00 10806.20 104.24
2549 74.8735 10917.00 10806.50 104.48
2550 74.8998 10715.00 10798.80 103.51
2551 74.9260 10840.00 10790.40 104.11
2552 74.9523 11020.00 10785.60 104.98
2553 74.9786 10863.00 10782.70 104.23
2554 75.0048 10844.00 10781.20 104.14
2555 75.0311 10861.00 10780.00 104.22
2556 75.0574 10771.00 10781.10 103.78
2557 75.0836 10706.00 10782.20 103.47
2558 75.1099 10524.00 10784.20 102.59
2559 75.1361 10922.00 10786.90 104.51
2560 75.1624 10754.00 10791.70 103.70
2561 75.1887 10654.00 10799.00 103.22
2562 75.2149 10883.00 10810.40 104.32
2563 75.2412 10809.00 10830.00 103.97
2564 75.2674 10954.00 10866.10 104.66
2565 75.2937 11034.00 10937.00 105.04
2566 75.3200 11051.00 11061.00 105.12
2567 75.3462 10983.00 11213.00 104.80
2568 75.3725 11051.00 11254.60 105.12
2569 75.3987 11257.00 11147.90 106.10
2570 75.4250 11105.00 11017.40 105.38
2571 75.4512 11053.00 10933.50 105.13
2572 75.4775 10830.00 10902.30 104.07
2573 75.5038 10791.00 10914.00 103.88
2574 75.5300 11006.00 10965.90 104.91
2575 75.5563 10949.00 11053.80 104.64
2576 75.5826 10972.00 11139.30 104.75
2577 75.6088 11051.00 11165.50 105.12
2578 75.6351 11045.00 11123.50 105.10
2579 75.6613 10900.00 11013.60 104.40
2580 75.6876 10939.00 10914.70 104.59
2581 75.7139 10910.00 10858.00 104.45
2582 75.7401 10969.00 10831.80 104.73
2583 75.7664 10954.00 10822.60 104.66
2584 75.7926 10894.00 10827.50 104.37
2585 75.8189 10721.00 10848.50 103.54
2586 75.8452 10842.00 10869.80 104.12
2587 75.8714 10838.00 10854.40 104.11
2588 75.8977 10845.00 10816.50 104.14
2589 75.9239 10913.00 10787.40 104.46
2590 75.9502 10906.00 10770.30 104.43
2591 75.9764 10525.00 10760.60 102.59
2592 76.0027 10678.00 10754.70 103.33
2593 76.0290 10838.00 10750.60 104.11
2594 76.0552 10737.00 10747.40 103.62
2595 76.0815 10600.00 10744.90 102.96
2596 76.1077 10809.00 10742.90 103.97
2597 76.1340 10778.00 10741.10 103.82
2598 76.1603 10756.00 10739.50 103.71
2599 76.1865 10708.00 10736.80 103.48
2600 76.2128 10786.00 10735.60 103.86
2601 76.2391 10839.00 10734.20 104.11
2602 76.2653 10768.00 10733.20 103.77
2603 76.2916 10594.00 10732.50 102.93
2604 76.3178 10687.00 10731.60 103.38
2605 76.3441 10651.00 10730.80 103.20
2606 76.3704 10711.00 10729.90 103.49
2607 76.3966 10692.00 10729.10 103.40
2608 76.4229 10975.00 10727.70 104.76
2609 76.4491 10724.00 10726.90 103.56
2610 76.4754 10804.00 10725.60 103.94
2611 76.5016 10798.00 10725.20 103.91
2612 76.5279 10703.00 10724.70 103.46
2613 76.5542 10634.00 10724.10 103.12
2614 76.5804 10730.00 10723.50 103.59
2615 76.6067 10621.00 10724.20 103.06
2616 76.6329 10709.00 10723.80 103.48
2617 76.6592 10832.00 10723.50 104.08
2618 76.6855 10680.00 10722.80 103.34
2619 76.7117 10684.00 10723.50 103.36
2620 76.7380 10751.00 10723.30 103.69
2621 76.7643 10638.00 10723.30 103.14
2622 76.7905 10603.00 10723.30 102.97
2623 76.8168 10867.00 10723.50 104.25
2624 76.8430 10732.00 10723.90 103.60
2625 76.8693 10743.00 10724.50 103.65
2626 76.8956 10792.00 10725.40 103.89
2627 76.9218 10694.00 10726.80 103.41
2628 76.9481 11091.00 10729.00 105.31
2629 76.9743 10882.00 10732.60 104.32
2630 77.0006 10751.00 10739.00 103.69
2631 77.0268 10710.00 10750.80 103.49
2632 77.0531 10686.00 10770.90 103.37
2633 77.0794 10814.00 10796.30 103.99
2634 77.1056 10782.00 10805.40 103.84
2635 77.1319 10758.00 10791.80 103.72
2636 77.1581 10916.00 10781.60 104.48
2637 77.1844 10782.00 10786.60 103.84
2638 77.2107 10786.00 10810.80 103.86
2639 77.2369 10870.00 10862.40 104.26
2640 77.2632 10920.00 10951.10 104.50
2641 77.2895 11095.00 11043.20 105.33
2642 77.3157 11110.00 11033.60 105.40
2643 77.3420 10935.00 10937.60 104.57
2644 77.3682 10869.00 10852.90 104.25
2645 77.3945 10603.00 10805.20 102.97
2646 77.4208 10928.00 10786.40 104.54
2647 77.4470 10824.00 10788.20 104.04
2648 77.4733 10708.00 10809.60 103.48
2649 77.4995 10893.00 10848.70 104.37
2650 77.5258 11014.00 10872.90 104.95
2651 77.5520 10730.00 10841.30 103.59
2652 77.5783 10738.00 10792.20 103.62
2653 77.6046 10590.00 10758.10 102.91
2654 77.6308 10879.00 10738.80 104.30
2655 77.6571 10895.00 10728.20 104.38
2656 77.6833 10770.00 10721.90 103.78
2657 77.7096 10750.00 10717.70 103.68
2658 77.7359 10854.00 10714.70 104.18
2659 77.7621 10812.00 10712.40 103.98
2660 77.7884 10706.00 10711.50 103.47
2661 77.8147 10744.00 10710.10 103.65
2662 77.8409 10499.00 10709.00 102.46
2663 77.8672 10760.00 10708.10 103.73
2664 77.8934 10642.00 10707.30 103.16
2665 77.9197 10866.00 10707.60 104.24
2666 77.9460 10880.00 10707.20 104.31
2667 77.9722 10820.00 10706.90 104.02
2668 77.9985 10576.00 10706.80 102.84
2669 78.0247 10768.00 10706.80 103.77
2670 78.0510 10837.00 10707.00 104.10
2671 78.0772 10569.00 10707.50 102.81
2672 78.1035 10841.00 10708.50 104.12
2673 78.1298 10560.00 10710.50 102.76
2674 78.1560 10633.00 10712.90 103.12
2675 78.1823 10768.00 10717.10 103.77
2676 78.2085 10643.00 10718.90 103.17
2677 78.2348 10836.00 10717.20 104.10
2678 78.2611 10525.00 10715.90 102.59
2679 78.2873 10710.00 10716.70 103.49
2680 78.3136 10687.00 10719.70 103.38
2681 78.3399 10812.00 10725.40 103.98
2682 78.3661 10697.00 10734.30 103.43
2683 78.3924 10820.00 10747.50 104.02
2684 78.4186 10712.00 10770.80 103.50
2685 78.4449 10614.00 10812.10 103.02
2686 78.4712 11095.00 10880.20 105.33
2687 78.4974 10816.00 10955.90 104.00
2688 78.5237 10977.00 10956.90 104.77
2689 78.5499 10619.00 10882.20 103.05
2690 78.5762 10588.00 10815.60 102.90
2691 78.6024 10706.00 10778.60 103.47
2692 78.6287 10745.00 10763.70 103.66
2693 78.6550 10736.00 10765.40 103.61
2694 78.6812 10866.00 10784.30 104.24
2695 78.7075 10898.00 10822.90 104.39
2696 78.7337 10756.00 10867.10 103.71
2697 78.7600 10798.00 10872.60 103.91
2698 78.7863 10852.00 10835.60 104.17
2699 78.8125 10790.00 10789.10 103.88
2700 78.8388 10754.00 10755.40 103.70
2701 78.8651 10865.00 10736.30 104.24
2702 78.8913 10703.00 10726.60 103.46
2703 78.9176 10684.00 10722.40 103.36
2704 78.9438 10593.00 10722.20 102.92
2705 78.9701 10723.00 10725.90 103.55
2706 78.9964 10739.00 10731.40 103.63
2707 79.0226 10492.00 10731.20 102.43
2708 79.0489 10782.00 10723.40 103.84
2709 79.0751 10656.00 10716.00 103.23
2710 79.1014 10704.00 10711.40 103.46
2711 79.1276 10661.00 10708.80 103.25
2712 79.1539 10733.00 10707.50 103.60
2713 79.1802 10789.00 10706.80 103.87
2714 79.2064 10654.00 10706.40 103.22
2715 79.2327 10764.00 10706.30 103.75
2716 79.2589 10679.00 10706.40 103.34
2717 79.2852 10647.00 10706.70 103.18
2718 79.3115 10714.00 10707.20 103.51
2719 79.3377 10778.00 10707.90 103.82
2720 79.3640 10759.00 10709.00 103.73
2721 79.3903 10871.00 10709.90 104.26
2722 79.4165 10639.00 10712.70 103.15
2723 79.4428 10666.00 10717.50 103.28
2724 79.4690 10793.00 10725.20 103.89
2725 79.4953 10731.00 10733.70 103.59
2726 79.5216 10728.00 10736.30 103.58
2727 79.5478 10725.00 10734.10 103.56
2728 79.5741 10624.00 10736.00 103.07
2729 79.6003 10691.00 10745.10 103.40
2730 79.6266 10799.00 10758.40 103.92
2731 79.6528 10756.00 10760.10 103.71
2732 79.6791 10942.00 10748.70 104.60
2733 79.7054 10812.00 10739.40 103.98
2734 79.7316 10668.00 10735.70 103.29
2735 79.7579 10603.00 10732.80 102.97
2736 79.7841 10845.00 10729.50 104.14
2737 79.8104 10689.00 10729.10 103.39
2738 79.8367 10827.00 10733.00 104.05
2739 79.8629 10620.00 10739.00 103.05
2740 79.8892 10781.00 10739.50 103.83
2741 79.9155 10957.00 10733.00 104.68
2742 79.9417 10721.00 10726.70 103.54
loop_
_refln_index_h
_refln_index_k
_refln_index_l
_refln_F_squared_calc
_refln_F_squared_meas
_refln_F_squared_sigma
_refln_observed_status
_refln_d_spacing
1 0 0 658.55 326.75 26.27 o 7.128869
0 0 2 1.21 0.60 0.05 o 7.099919
1 0 1 2832.99 2625.72 58.79 o 6.371049
1 0 2 9318.33 9340.91 206.19 o 5.030604
2 -1 0 5917.43 6977.41 185.66 o 4.115854
1 0 3 958.18 1429.55 67.40 o 3.943246
2 0 0 31.44 31.57 1.14 o 3.564434
2 -1 2 3922.07 3848.92 108.63 o 3.560799
1 1 2 4323.76 4243.12 119.60 o 3.560799
0 0 4 1841.95 1777.16 56.08 o 3.549959
2 0 1 217.24 312.77 57.15 o 3.457178
2 0 2 1233.53 1406.75 76.67 o 3.185525
1 0 4 102.68 116.91 6.15 o 3.177757
2 0 3 2924.24 2969.15 115.26 o 2.847362
3 -1 0 22.35 25.02 1.27 o 2.694459
2 -1 4 5068.21 5559.94 183.81 o 2.688190
1 1 4 5155.44 5655.63 187.03 o 2.688190
2 1 1 296.14 354.71 37.16 o 2.647222
3 -1 1 369.57 442.66 54.50 o 2.647222
1 0 5 0.82 1.11 0.72 o 2.638319
2 1 2 364.16 322.46 14.57 o 2.519149
3 -1 2 2202.54 1950.33 90.97 o 2.519149
2 0 4 546.33 487.52 22.16 o 2.515302
3 0 0 3073.21 2019.43 200.34 o 2.376290
0 0 6 418.64 268.87 49.37 o 2.366639
3 0 1 36.86 35.00 2.17 o 2.343699
2 1 3 2350.19 2254.23 126.58 o 2.341631
3 -1 3 4.66 4.47 0.42 o 2.341631
3 0 2 6.94 13.42 13.18 < 2.253426
1 0 6 250.32 222.69 110.19 o 2.246102
2 0 5 845.72 716.43 109.46 o 2.221158
2 1 4 214.81 239.10 17.07 o 2.146248
3 -1 4 1880.52 2093.18 139.11 o 2.146248
3 0 3 20.16 20.68 31.66 < 2.123683
4 -2 0 1888.25 959.81 145.61 o 2.057927
1 1 6 9.54 3.93 1.67 o 2.051650
2 -1 6 267.51 110.10 46.64 o 2.051650
4 -1 0 63.96 75.72 4.64 o 1.977192
2 2 2 610.11 722.31 47.20 o 1.976571
4 -2 2 377.02 446.36 29.24 o 1.976571
3 0 4 1686.81 1752.98 92.94 o 1.974711
2 0 6 2426.74 2430.51 125.68 o 1.971623
4 -1 1 326.98 362.17 40.66 o 1.958300
3 1 1 351.11 388.90 43.82 o 1.958300
3 -1 5 471.48 460.88 42.24 o 1.954687
2 1 5 650.01 635.38 58.64 o 1.954687
1 0 7 86.72 77.12 7.70 o 1.951095
4 -1 2 1235.74 1325.65 126.93 o 1.904714
3 1 2 484.82 520.10 48.76 o 1.904714
4 -1 3 112.40 95.29 37.81 o 1.824417
3 1 3 300.89 255.09 103.53 o 1.824417
3 0 5 19.54 16.64 6.77 o 1.822467
4 0 0 26.93 27.15 2.61 o 1.782217
2 2 4 852.46 868.43 62.04 o 1.780399
4 -2 4 1070.54 1090.59 78.30 o 1.780399
2 1 6 1319.83 1338.76 90.67 o 1.778135
3 -1 6 1117.20 1133.22 76.54 o 1.778135
0 0 8 527.45 523.08 36.30 o 1.774980
4 0 1 260.71 222.00 75.94 o 1.768343
2 0 7 44.20 23.22 21.07 < 1.763033
4 0 2 924.49 892.08 155.33 o 1.728589
3 1 4 8.78 8.44 1.33 o 1.727345
4 -1 4 115.17 110.80 17.98 o 1.727345
1 0 8 70.98 70.62 20.71 o 1.722394
3 0 6 2.47 12.37 43.38 < 1.676868
4 0 3 221.75 211.57 188.05 < 1.667902
5 -2 0 2.63 1.19 2.78 < 1.635475
2 -1 8 477.71 465.70 168.13 o 1.629876
1 1 8 509.52 496.71 179.52 o 1.629876
3 2 1 77.83 77.18 22.69 o 1.624734
5 -2 1 116.07 115.10 34.16 o 1.624734
4 -1 5 17.61 16.68 3.57 o 1.622669
3 1 5 169.53 160.55 34.55 o 1.622669
3 -1 7 483.30 463.37 99.97 o 1.620612
2 1 7 127.58 122.31 25.72 o 1.620612
3 2 2 291.89 212.70 75.09 o 1.593738
5 -2 2 289.89 211.25 74.49 o 1.593738
4 0 4 75.80 58.28 19.10 o 1.592762
2 0 8 16.93 16.27 8.41 o 1.588878
5 -1 0 1453.05 1449.27 202.47 o 1.555647
2 2 6 0.05 0.05 0.01 o 1.552930
4 -2 6 0.24 0.25 0.04 o 1.552930
4 1 1 0.71 0.53 0.38 o 1.546394
5 -1 1 6.83 5.13 3.70 o 1.546394
3 2 3 41.68 30.09 20.66 o 1.545800
5 -2 3 218.55 157.78 111.97 o 1.545800
3 0 7 20.14 11.61 7.72 o 1.542839
1 0 9 303.52 144.03 112.05 o 1.540482
5 -1 2 37.86 34.19 13.45 o 1.519598
4 1 2 22.45 20.28 8.05 o 1.519598
4 -1 6 355.70 323.93 101.96 o 1.517346
3 1 6 241.32 219.77 68.68 o 1.517346
4 0 5 50.03 63.30 73.82 < 1.509585
3 2 4 42.64 40.97 37.86 o 1.485417
5 -2 4 81.14 77.97 72.97 o 1.485417
2 1 8 387.92 256.05 139.47 o 1.482265
3 -1 8 0.01 0.00 0.03 o 1.482265
5 -1 3 10.80 8.61 8.16 o 1.477874
4 1 3 18.21 14.52 13.78 o 1.477874
2 0 9 129.65 61.97 105.36 < 1.442740
5 0 0 104.94 73.75 38.33 o 1.425774
5 -1 4 192.16 133.16 59.35 o 1.424843
4 1 4 203.66 141.13 62.93 o 1.424843
4 0 6 45.45 33.50 11.92 o 1.423681
3 0 8 284.26 222.32 82.60 o 1.422060
0 0 10 23.23 21.95 7.67 o 1.419984
5 0 1 90.92 96.99 36.48 o 1.418640
3 2 5 34.20 33.10 12.57 o 1.417265
5 -2 5 150.51 145.67 57.01 o 1.417265
4 -1 7 90.94 84.74 35.51 o 1.415894
3 1 7 84.61 78.85 32.93 o 1.415894
5 0 2 380.44 378.45 193.78 o 1.397866
1 0 10 227.89 147.16 114.65 o 1.392626
6 -3 0 114.13 80.24 285.03 < 1.371951
5 0 3 82.11 53.69 131.65 < 1.365183
5 -1 5 2.83 2.12 3.37 < 1.364366
4 1 5 6.37 4.78 7.60 < 1.364366
2 1 9 64.61 42.01 38.57 o 1.361516
3 -1 9 174.61 113.54 106.58 o 1.361516
6 -2 0 2.29 1.88 0.95 o 1.347229
3 3 2 22.42 18.37 9.96 o 1.347033
6 -3 2 59.31 48.60 26.11 o 1.347033
3 2 6 220.79 208.84 69.98 o 1.345464
5 -2 6 157.26 148.75 49.53 o 1.345464
2 2 8 332.60 316.87 98.96 o 1.344095
4 -2 8 263.12 250.68 77.90 o 1.344095
2 -1 10 1.42 1.60 0.59 o 1.342341
1 1 10 30.95 34.83 13.04 o 1.342341
6 -2 1 9.65 11.32 5.14 o 1.341207
4 2 1 24.07 28.25 12.76 o 1.341207
4 0 7 20.46 26.38 22.69 o 1.338885
6 -2 2 185.63 107.14 96.59 o 1.323611
4 2 2 134.96 77.89 69.74 o 1.323611
5 0 4 1.00 0.54 0.53 o 1.323052
4 -1 8 13.23 8.03 8.31 o 1.320823
3 1 8 35.01 21.26 22.50 o 1.320823
2 0 10 56.54 35.51 40.31 o 1.319159
3 0 9 0.09 0.04 0.23 < 1.314415
5 -1 6 7.59 8.79 68.74 < 1.299955
4 1 6 1.05 1.21 9.33 < 1.299955
6 -2 3 58.84 67.47 146.82 < 1.295764
4 2 3 36.95 42.37 91.23 < 1.295764
6 -1 0 30.30 22.34 19.42 o 1.280383
3 3 4 320.89 236.91 200.13 o 1.279708
6 -3 4 187.54 138.46 115.63 o 1.279708
6 -1 1 58.97 45.71 47.09 o 1.275209
5 1 1 26.15 20.27 20.58 o 1.275209
5 0 5 26.50 23.06 20.94 o 1.274210
3 2 7 64.27 46.71 58.17 o 1.273213
5 -2 7 37.91 27.55 33.85 o 1.273213
1 0 11 23.22 16.04 37.32 < 1.270237
6 -1 2 80.63 61.81 57.34 o 1.260057
5 1 2 124.36 95.34 89.22 o 1.260057
6 -2 4 0.39 0.30 0.34 o 1.259575
4 2 4 44.75 34.26 31.90 o 1.259575
4 0 8 8.59 6.72 5.74 o 1.257651
2 1 10 70.39 49.72 51.25 o 1.256214
3 -1 10 37.39 26.41 26.94 o 1.256214
6 -1 3 30.15 26.17 52.88 < 1.235961
5 1 3 3.39 2.94 6.14 < 1.235961
5 -1 7 2.42 2.54 2.48 o 1.234446
4 1 7 0.00 0.00 0.00 o 1.234446
4 -1 9 108.24 115.41 122.87 o 1.233238
3 1 9 25.97 27.69 28.65 o 1.233238
5 0 6 3.30 2.49 27.34 < 1.221271
3 0 10 1.39 1.04 2.77 < 1.218934
6 -2 5 81.49 50.54 136.05 < 1.217214
4 2 5 29.79 18.48 48.73 < 1.217214
2 0 11 21.82 15.56 47.73 < 1.213749
6 -1 4 9.33 8.02 26.70 < 1.204436
5 1 4 0.51 0.44 1.59 < 1.204436
3 2 8 11.97 10.74 46.68 < 1.202754
5 -2 8 7.90 7.10 30.53 < 1.202754
loop_
_restr_angle_atom_site_label_1
_restr_angle_site_symmetry_1
_restr_angle_atom_site_label_2
_restr_angle_site_symmetry_2
_restr_angle_atom_site_label_3
_restr_angle_site_symmetry_3
_restr_angle_target
_restr_angle_target_weight_param
O1 . C3 . O2 . 126 0.1
loop_
_restr_distance_atom_site_label_1
_restr_distance_site_symmetry_1
_restr_distance_atom_site_label_2
_restr_distance_site_symmetry_2
_restr_distance_target
_restr_distance_target_weight_param
O1 . C3 . 1.235 0.001
O2 . C3 . 1.245 0.001
