#------------------------------------------------------------------------------
#$Date: 2021-03-30 12:00:50 +0300 (Tue, 30 Mar 2021) $
#$Revision: 263442 $
#$URL: file:///home/coder/svn-repositories/cod/cif/1/56/13/1561364.cif $
#------------------------------------------------------------------------------
#
# This file is available in the Crystallography Open Database (COD),
# http://www.crystallography.net/
#
# All data on this site have been placed in the public domain by the
# contributors.
#
data_1561364
loop_
_publ_author_name
'Iyer, Abishek K.'
'Yin, Wenlong'
'Rudyk, Brent W.'
'Lin, Xinsong'
'Nilges, Tom'
'Mar, Arthur'
_publ_section_title
;
 Metal ion displacements in noncentrosymmetric chalcogenides La3Ga1.67S7,
 La3Ag0.6GaCh7 (Ch=S, Se), and La3MGaSe7 (M=Zn, Cd)
;
_journal_name_full               'Journal of Solid State Chemistry'
_journal_page_first              221
_journal_page_last               231
_journal_paper_doi               10.1016/j.jssc.2016.08.031
_journal_volume                  243
_journal_year                    2016
_chemical_absolute_configuration ad
_chemical_formula_structural     'La3 Cd Ga Se7'
_chemical_formula_sum            'Cd Ga La3 Se7'
_chemical_formula_weight         1151.57
_chemical_name_common
'lanthanum cadmium gallium selenide (3/1/1/7)'
_chemical_name_systematic
'lanthanum cadmium gallium selenide (3/1/1/7)'
_space_group_crystal_system      hexagonal
_space_group_IT_number           173
_space_group_name_Hall           'P 6c'
_space_group_name_H-M_alt        'P 63'
_atom_sites_solution_hydrogens   .
_audit_creation_method           SHELXL-2014/7
_cell_angle_alpha                90
_cell_angle_beta                 90
_cell_angle_gamma                120
_cell_formula_units_Z            2
_cell_length_a                   10.606(5)
_cell_length_b                   10.606(5)
_cell_length_c                   6.380(3)
_cell_measurement_reflns_used    2466
_cell_measurement_temperature    296(2)
_cell_measurement_theta_max      25.52
_cell_measurement_theta_min      3.89
_cell_volume                     621.5(5)
_computing_cell_refinement       'Bruker SAINT 8.34A (Bruker, 2013)'
_computing_data_collection       'Bruker APEX 2 (Bruker, 2008)'
_computing_data_reduction        'Bruker SAINT 8.34A'
_computing_molecular_graphics    'ATOMS 5.1 (Dowty, 1999)'
_computing_publication_material  'SHELXL-2014/7 (Sheldrick, 2014)'
_computing_structure_refinement  'SHELXL-2014/7 (Sheldrick, 2014)'
_computing_structure_solution    'SHELXS-97 (Sheldrick, 2008)'
_diffrn_ambient_temperature      296(2)
_diffrn_measured_fraction_theta_full 1.000
_diffrn_measured_fraction_theta_max 1.000
_diffrn_measurement_device_type  'Bruker PLATFORM/SMART APEX II CCD'
_diffrn_measurement_method       '\w and \f scans'
_diffrn_radiation_type           MoK\a
_diffrn_radiation_wavelength     0.71073
_diffrn_reflns_av_R_equivalents  0.0657
_diffrn_reflns_av_unetI/netI     0.0422
_diffrn_reflns_Laue_measured_fraction_full 1.000
_diffrn_reflns_Laue_measured_fraction_max 1.000
_diffrn_reflns_limit_h_max       16
_diffrn_reflns_limit_h_min       -16
_diffrn_reflns_limit_k_max       16
_diffrn_reflns_limit_k_min       -16
_diffrn_reflns_limit_l_max       9
_diffrn_reflns_limit_l_min       -9
_diffrn_reflns_number            9152
_diffrn_reflns_point_group_measured_fraction_full 1.000
_diffrn_reflns_point_group_measured_fraction_max 1.000
_diffrn_reflns_theta_full        25.242
_diffrn_reflns_theta_max         33.154
_diffrn_reflns_theta_min         2.217
_diffrn_source                   'fine-focus sealed tube'
_exptl_absorpt_coefficient_mu    34.350
_exptl_absorpt_correction_T_max  0.391
_exptl_absorpt_correction_T_min  0.222
_exptl_absorpt_correction_type   numerical
_exptl_absorpt_process_details   'SHELXL-2014/7 (Sheldrick, 2014)'
_exptl_crystal_colour            grey
_exptl_crystal_density_diffrn    6.153
_exptl_crystal_description       irregular
_exptl_crystal_F_000             976
_exptl_crystal_size_max          0.071
_exptl_crystal_size_mid          0.043
_exptl_crystal_size_min          0.041
_refine_diff_density_max         3.336
_refine_diff_density_min         -5.499
_refine_diff_density_rms         0.530
_refine_ls_abs_structure_details
;
 Refined as an inversion twin.
;
_refine_ls_abs_structure_Flack   0.01(6)
_refine_ls_extinction_coef       .
_refine_ls_extinction_method     none
_refine_ls_goodness_of_fit_ref   1.075
_refine_ls_hydrogen_treatment    undef
_refine_ls_matrix_type           full
_refine_ls_number_parameters     40
_refine_ls_number_reflns         1587
_refine_ls_number_restraints     1
_refine_ls_restrained_S_all      1.075
_refine_ls_R_factor_all          0.0586
_refine_ls_R_factor_gt           0.0458
_refine_ls_shift/su_max          0.012
_refine_ls_shift/su_mean         0.001
_refine_ls_structure_factor_coef Fsqd
_refine_ls_weighting_details
'w=1/[\s^2^(Fo^2^)+(0.0772P)^2^+7.0900P] where P=(Fo^2^+2Fc^2^)/3'
_refine_ls_weighting_scheme      calc
_refine_ls_wR_factor_gt          0.1270
_refine_ls_wR_factor_ref         0.1361
_reflns_Friedel_coverage         0.858
_reflns_Friedel_fraction_full    1.000
_reflns_Friedel_fraction_max     1.000
_reflns_number_gt                1328
_reflns_number_total             1587
_reflns_threshold_expression     'I > 2\s(I)'
_cod_data_source_file            mmc11.cif
_cod_data_source_block           5
_cod_original_cell_volume        621.5(7)
_cod_database_code               1561364
_shelx_shelxl_version_number     2014/7
_shelx_space_group_comment
;
The symmetry employed for this shelxl refinement is uniquely defined
by the following loop, which should always be used as a source of
symmetry information in preference to the above space-group names.
They are only intended as comments.
;
_shelx_estimated_absorpt_t_min   0.194
_shelx_estimated_absorpt_t_max   0.333
_shelx_res_file
;

    p63.res created by SHELXL-2014/7

TITL La3CdGaSe7 P6(3) lsf final refinement
CELL 0.71073  10.60620  10.60620   6.38000  90.0000  90.0000 120.0000
ZERR    2.00   0.00520   0.00520   0.00320   0.0000   0.0000   0.0000
LATT -1
SYMM -Y, X-Y, Z
SYMM -X+Y, -X, Z
SYMM -X, -Y, 0.5+Z
SYMM Y, -X+Y, 0.5+Z
SYMM X-Y, X, 0.5+Z
SFAC GA SE CD LA
UNIT 2 14 2 6
TEMP 23
SIZE 0.041 0.043 0.071

L.S. 4
ACTA

TWIN

EADP CDA CDB
WGHT    0.077200    7.090000
BASF   0.01081
FVAR       0.07375   0.17909
LA    4    0.146499    0.375304    0.076925    11.00000    0.01743    0.01461 =
         0.02502    0.00192    0.00139    0.00778
CDA   3    0.000000    0.000000    0.000554    20.33333    0.03059    0.03059 =
         0.07482    0.00000    0.00000    0.01530
CDB   3    0.000000    0.000000    0.307003   -20.33333    0.03059    0.03059 =
         0.07482    0.00000    0.00000    0.01530
GA    1    0.333333    0.666667    0.662111    10.33333    0.01838    0.01838 =
         0.01508    0.00000    0.00000    0.00919
SE1   2    0.253731    0.152784    0.040077    11.00000    0.02019    0.01654 =
         0.03237    0.00326    0.00215    0.01049
SE2   2    0.519745    0.093363    0.308448    11.00000    0.01569    0.01518 =
         0.01828    0.00069   -0.00197    0.00505
SE3   2    0.333333    0.666667    0.291353    10.33333    0.01776    0.01776 =
         0.01625    0.00000    0.00000    0.00888
HKLF 4

REM  La3CdGaSe7 P6(3) lsf final refinement
REM R1 =  0.0458 for    1328 Fo > 4sig(Fo)  and  0.0586 for all    1587 data
REM     40 parameters refined using      1 restraints

END

WGHT      0.0791      6.2885

REM Highest difference peak  3.336,  deepest hole -5.499,  1-sigma level  0.530
Q1    1   0.2472  0.5380  0.5775  11.00000  0.05    2.59
Q2    1   0.6854  0.0785  0.2973  11.00000  0.05    1.83
Q3    1   0.0000  0.0000  0.0887  10.33333  0.05    1.65
Q4    1   0.1904  0.2889  0.0732  11.00000  0.05    1.61
Q5    1   0.3176  0.3306  0.0560  11.00000  0.05    1.58
Q6    1   0.2466  0.0305  0.0680  11.00000  0.05    1.57
Q7    1   0.4024  0.1723  0.0375  11.00000  0.05    1.56
Q8    1   0.4716  0.0387  0.1605  11.00000  0.05    1.52
Q9    1   0.0484  0.3015  0.2986  11.00000  0.05    1.52
Q10   1   0.4735 -0.1032  0.3362  11.00000  0.05    1.51
Q11   1   0.3305  0.4342  0.2972  11.00000  0.05    1.51
Q12   1   0.3333  0.6667  0.4652  10.33333  0.05    1.49
Q13   1   0.0847  0.4927  0.0667  11.00000  0.05    1.47
Q14   1   0.2951  0.2443  0.0695  11.00000  0.05    1.46
Q15   1   0.1790  0.1036 -0.0606  11.00000  0.05    1.45
Q16   1   0.3909  0.8015  0.5609  11.00000  0.05    1.44
Q17   1   0.2390  0.0890 -0.1954  11.00000  0.05    1.40
Q18   1   0.5097  0.0067  0.3179  11.00000  0.05    1.39
Q19   1   0.2656  0.6379  0.0725  11.00000  0.05    1.37
Q20   1   0.5111  0.1318  0.0169  11.00000  0.05    1.37
;
_shelx_res_checksum              25144
_shelx_hkl_file
;
   1  -6  -9   -2.40    3.20
   2  -6  -9    3.06    2.32
   3  -6  -9    0.02    1.98
   4  -6  -9    0.82    3.00
   5  -6  -9   -2.07    3.74
   0  -5  -9    3.43    2.18
   1  -5  -9   -1.59    1.39
   2  -5  -9    2.52    1.73
   3  -5  -9    0.64    1.50
   4  -5  -9   19.80    4.65
   5  -5  -9    2.57    3.06
  -1  -4  -9   13.77    3.12
   0  -4  -9    0.31    1.50
   1  -4  -9    3.74    1.79
   2  -4  -9    0.46    1.46
   3  -4  -9    0.81    1.87
   4  -4  -9    2.82    2.10
   5  -4  -9    0.05    1.73
  -2  -3  -9    1.04    1.85
  -1  -3  -9    1.22    1.83
   0  -3  -9    9.95    2.40
   1  -3  -9   11.52    2.55
   2  -3  -9    9.99    3.18
   3  -3  -9    4.86    2.63
   4  -3  -9    3.81    2.39
   5  -3  -9    0.13    1.87
  -3  -2  -9    1.91    2.01
  -2  -2  -9   -0.74    1.48
  -1  -2  -9    9.63    2.41
   0  -2  -9   10.36    2.36
   1  -2  -9    2.59    1.65
   2  -2  -9    6.20    2.60
   3  -2  -9   11.05    3.30
   4  -2  -9    0.31    1.73
   5  -2  -9    2.59    2.26
   6  -2  -9    0.17    2.93
  -4  -1  -9    2.89    2.11
  -3  -1  -9    2.35    2.22
  -2  -1  -9    5.54    2.41
  -1  -1  -9    6.27    2.09
   0  -1  -9    0.61    1.37
   1  -1  -9    1.40    2.13
   2  -1  -9    2.41    2.05
   3  -1  -9    7.77    2.91
   4  -1  -9   -1.20    1.46
   5  -1  -9   14.61    3.88
   6  -1  -9    0.38    2.32
  -4   0  -9    0.70    1.77
  -3   0  -9    8.58    2.62
  -2   0  -9    7.38    2.34
  -1   0  -9    3.86    1.68
   0   0  -9   -1.69    1.47
   1   0  -9    3.62    2.23
   2   0  -9    6.25    2.24
   3   0  -9   10.48    3.23
   4   0  -9    0.84    1.72
   5   0  -9    5.54    3.41
  -5   1  -9   10.97    3.26
  -4   1  -9    0.58    1.86
  -3   1  -9    6.60    2.46
  -2   1  -9    2.62    1.58
  -1   1  -9    1.91    2.11
   0   1  -9   -0.68    1.64
   1   1  -9    3.25    2.20
   2   1  -9   11.65    3.31
   3   1  -9    4.62    2.41
   4   1  -9    1.53    1.77
  -5   2  -9    0.21    1.83
  -4   2  -9    1.20    1.97
  -3   2  -9    9.15    2.65
  -2   2  -9    6.30    2.69
  -1   2  -9    9.28    3.04
   0   2  -9   12.00    3.41
   1   2  -9    9.78    2.91
   2   2  -9    0.94    1.54
   3   2  -9    1.57    2.05
  -6   3  -9    3.74    4.89
  -5   3  -9    1.65    2.03
  -4   3  -9    4.22    2.09
  -3   3  -9    9.61    2.47
  -2   3  -9   14.08    3.50
  -1   3  -9   12.70    3.33
   0   3  -9    8.36    2.77
   1   3  -9   -0.16    1.30
   2   3  -9    0.07    1.99
   3   3  -9    7.69    5.64
  -6   4  -9    4.03    3.09
  -5   4  -9   -1.36    1.68
  -4   4  -9   -0.89    1.46
  -3   4  -9   -0.51    1.72
  -2   4  -9   -0.79    1.78
  -1   4  -9    4.05    2.26
   0   4  -9    0.21    1.76
   1   4  -9   15.67    3.78
   2   4  -9   -1.01    2.83
  -6   5  -9    1.40    2.79
  -5   5  -9    6.02    2.61
  -4   5  -9   13.85    3.62
  -3   5  -9    0.62    1.75
  -2   5  -9    2.16    1.71
  -1   5  -9    1.13    1.96
   0   5  -9    4.67    2.49
   1   5  -9   -1.67    2.57
  -5   6  -9    2.44    2.20
  -4   6  -9    1.31    2.04
  -3   6  -9    9.72    4.73
  -2   6  -9    0.72    2.30
  -1   6  -9    2.48    2.26
   2  -9  -8    4.04    3.44
   3  -9  -8   12.35    4.57
   4  -9  -8    0.11    1.93
   5  -9  -8    4.54    2.37
   6  -9  -8    6.99    3.91
   0  -8  -8    6.88    4.36
   1  -8  -8   20.87    4.49
   2  -8  -8    0.47    1.74
   3  -8  -8    1.29    1.71
   4  -8  -8    1.79    1.76
   5  -8  -8    4.79    2.21
   6  -8  -8    2.23    2.05
   7  -8  -8    6.24    4.43
  -1  -7  -8   14.80    4.19
   0  -7  -8    0.76    1.77
   1  -7  -8    1.29    1.64
   2  -7  -8    7.51    2.07
   3  -7  -8    0.60    1.42
   4  -7  -8   16.83    2.74
   5  -7  -8    0.83    1.37
   6  -7  -8    3.24    1.97
   7  -7  -8    0.05    1.78
   8  -7  -8    8.92    4.02
   9  -7  -8    9.20    4.25
  -3  -6  -8    4.56    3.80
  -2  -6  -8    1.59    2.01
  -1  -6  -8    7.40    2.55
   0  -6  -8    0.35    1.63
   1  -6  -8   20.69    3.20
   2  -6  -8    3.33    1.71
   3  -6  -8   26.00    3.46
   4  -6  -8   -0.49    1.15
   5  -6  -8    3.57    1.72
   6  -6  -8    1.25    1.76
   7  -6  -8    1.38    1.77
   8  -6  -8    0.88    1.96
   9  -6  -8    6.98    2.77
  -4  -5  -8   -1.21    2.93
  -3  -5  -8    6.02    2.46
  -2  -5  -8   -0.23    1.67
  -1  -5  -8    2.63    1.82
   0  -5  -8   13.14    3.04
   1  -5  -8    9.79    2.23
   2  -5  -8    4.08    1.64
   3  -5  -8    1.74    1.50
   4  -5  -8   16.12    2.69
   5  -5  -8    9.58    2.93
   6  -5  -8   21.18    4.07
   7  -5  -8    2.87    2.12
   8  -5  -8    1.57    1.91
   9  -5  -8   -0.84    1.93
  -5  -4  -8   -0.16    2.96
  -4  -4  -8   -0.08    1.69
  -3  -4  -8   20.73    3.90
  -2  -4  -8    0.32    1.65
  -1  -4  -8   25.51    4.12
   0  -4  -8    1.34    1.56
   1  -4  -8    0.00    1.10
   2  -4  -8   19.66    2.93
   3  -4  -8   12.50    2.32
   4  -4  -8    1.39    1.70
   5  -4  -8   11.39    2.89
   6  -4  -8    2.20    1.90
   7  -4  -8    2.99    2.14
   8  -4  -8    1.08    1.60
   9  -4  -8    2.08    2.38
  -6  -3  -8   10.33    3.07
  -5  -3  -8    0.02    1.76
  -4  -3  -8    2.47    2.00
  -3  -3  -8   23.71    4.14
  -2  -3  -8    2.54    1.75
  -1  -3  -8   13.47    2.94
   0  -3  -8    3.05    1.78
   1  -3  -8    3.80    1.62
   2  -3  -8   26.85    3.24
   3  -3  -8    2.11    1.82
   4  -3  -8    3.16    1.90
   5  -3  -8    4.11    2.22
   6  -3  -8   31.90    4.59
   7  -3  -8   14.03    3.42
   8  -3  -8    4.55    1.96
   9  -3  -8    7.80    2.97
  -7  -2  -8    4.06    3.23
  -6  -2  -8    1.85    1.63
  -5  -2  -8    6.50    2.58
  -4  -2  -8    2.16    1.82
  -3  -2  -8    3.52    2.02
  -2  -2  -8   15.12    3.15
  -1  -2  -8   23.88    3.80
   0  -2  -8    0.09    1.13
   1  -2  -8    8.41    1.93
   2  -2  -8    0.37    1.14
   3  -2  -8    6.55    2.33
   4  -2  -8   20.46    3.66
   5  -2  -8    2.67    1.86
   6  -2  -8    0.91    1.61
   7  -2  -8    3.29    1.71
   8  -2  -8    2.40    1.84
  -7  -1  -8   17.15    3.52
  -6  -1  -8    0.71    1.43
  -5  -1  -8   23.06    3.92
  -4  -1  -8   10.53    2.78
  -3  -1  -8    1.22    1.65
  -2  -1  -8    5.36    2.02
  -1  -1  -8    6.05    2.20
   0  -1  -8    0.16    1.17
   1  -1  -8   -0.18    1.09
   2  -1  -8    2.71    1.94
   3  -1  -8   20.85    3.71
   4  -1  -8   13.60    3.25
   5  -1  -8   17.23    3.52
   6  -1  -8    1.92    1.67
   7  -1  -8    8.92    2.36
   8  -1  -8   11.33    3.89
  -8   0  -8    9.59    4.22
  -7   0  -8    0.09    1.35
  -6   0  -8   -0.83    1.31
  -5   0  -8    6.09    2.27
  -4   0  -8    2.73    1.98
  -3   0  -8    3.61    1.97
  -2   0  -8    0.80    1.42
  -1   0  -8    1.05    1.31
   0   0  -8  134.95    6.95
   1   0  -8    0.30    1.33
   2   0  -8    0.17    1.53
   3   0  -8    2.78    1.91
   4   0  -8    0.86    1.69
   5   0  -8    8.66    2.31
   6   0  -8    0.76    1.39
   7   0  -8    1.21    1.81
  -8   1  -8   12.74    2.73
  -7   1  -8    5.66    1.99
  -6   1  -8    0.87    1.45
  -5   1  -8   11.54    2.80
  -4   1  -8   12.00    2.84
  -3   1  -8   23.12    3.72
  -2   1  -8    9.15    2.59
  -1   1  -8    1.54    1.26
   0   1  -8    0.77    1.47
   1   1  -8    5.10    2.17
   2   1  -8    2.02    1.67
   3   1  -8    1.65    1.97
   4   1  -8   10.93    2.34
   5   1  -8   26.76    3.52
   6   1  -8    2.29    2.09
   7   1  -8   19.78    4.24
  -9   2  -8    5.28    5.83
  -8   2  -8    0.85    1.46
  -7   2  -8    0.68    1.38
  -6   2  -8    0.78    1.78
  -5   2  -8    1.64    1.87
  -4   2  -8   18.82    3.56
  -3   2  -8    5.00    1.98
  -2   2  -8    0.39    1.30
  -1   2  -8    5.45    1.76
   0   2  -8    0.75    1.45
   1   2  -8   26.69    4.19
   2   2  -8   11.90    3.02
   3   2  -8    8.18    1.99
   4   2  -8    1.29    1.80
   5   2  -8    3.64    2.29
   6   2  -8    0.58    1.88
  -9   3  -8    8.25    4.75
  -8   3  -8    7.53    2.15
  -7   3  -8   21.78    3.32
  -6   3  -8   26.90    4.24
  -5   3  -8    6.37    2.25
  -4   3  -8    3.16    1.75
  -3   3  -8    2.56    1.78
  -2   3  -8   21.88    2.83
  -1   3  -8    4.13    2.08
   0   3  -8    3.83    2.01
   1   3  -8   21.94    3.81
   2   3  -8    4.32    1.83
   3   3  -8   20.70    3.72
   4   3  -8    1.79    1.97
   5   3  -8   -0.45    1.65
  -9   4  -8    2.75    3.48
  -8   4  -8    1.23    1.48
  -7   4  -8    3.34    1.56
  -6   4  -8    6.05    2.17
  -5   4  -8    6.02    2.21
  -4   4  -8    0.76    1.45
  -3   4  -8    7.85    1.98
  -2   4  -8   22.02    3.73
  -1   4  -8    0.68    1.51
   0   4  -8   -0.04    1.20
   1   4  -8   24.36    4.09
   2   4  -8    0.93    1.73
   3   4  -8   23.76    4.20
   4   4  -8    5.87    2.58
   5   4  -8   -1.47    2.64
  -9   5  -8    0.71    2.80
  -8   5  -8    0.55    1.35
  -7   5  -8    4.19    1.70
  -6   5  -8   30.45    4.43
  -5   5  -8    9.52    2.61
  -4   5  -8   13.26    2.83
  -3   5  -8    4.18    2.22
  -2   5  -8    5.16    2.29
  -1   5  -8   13.96    2.57
   0   5  -8    7.64    2.61
   1   5  -8    2.98    1.92
   2   5  -8    1.18    1.69
   3   5  -8    4.52    2.16
   4   5  -8    6.69    3.63
  -9   6  -8    9.66    4.36
  -8   6  -8    1.71    1.53
  -7   6  -8    0.18    1.52
  -6   6  -8   -1.88    1.38
  -5   6  -8    3.62    1.87
  -4   6  -8   -1.47    1.61
  -3   6  -8   29.01    3.11
  -2   6  -8    1.58    1.78
  -1   6  -8   25.28    3.34
   0   6  -8    1.21    1.47
   1   6  -8    2.42    1.60
   2   6  -8    2.76    1.64
  -9   7  -8    6.47    3.76
  -8   7  -8   15.13    2.79
  -7   7  -8    1.66    1.87
  -6   7  -8    6.07    2.34
  -5   7  -8   -0.07    2.71
  -2   7  -8    1.28    2.65
  -1   7  -8    1.07    1.77
   0   7  -8    3.27    2.20
   1   7  -8   18.76    3.76
  -8   8  -8    8.64    2.29
  -7   8  -8   20.10    3.80
  -6   8  -8    2.27    3.11
  -1   8  -8   20.67    5.57
   0   8  -8    7.27    2.64
  -7   9  -8    2.21    2.65
   5 -11  -7    4.25    3.12
   6 -11  -7    0.47    2.12
   7 -11  -7    1.95    2.23
   8 -11  -7    1.64    4.26
   2 -10  -7    2.71    2.94
   3 -10  -7    1.59    1.74
   4 -10  -7   13.74    3.28
   5 -10  -7    0.56    1.64
   6 -10  -7    1.53    1.68
   7 -10  -7   -0.84    1.69
   8 -10  -7   16.24    3.34
   0  -9  -7    2.44    2.93
   1  -9  -7   10.44    4.11
   2  -9  -7    0.78    1.49
   3  -9  -7   -1.33    1.33
   4  -9  -7   10.62    2.77
   5  -9  -7   23.85    3.69
   6  -9  -7   18.59    3.52
   7  -9  -7    1.27    1.55
   8  -9  -7    1.20    1.82
   9  -9  -7    0.53    2.25
  -3  -8  -7    2.16    3.31
  -2  -8  -7   13.79    5.07
  -1  -8  -7    0.69    2.26
   0  -8  -7    2.69    1.89
   1  -8  -7   24.32    4.11
   2  -8  -7    1.53    1.82
   3  -8  -7    3.78    1.99
   4  -8  -7   -1.07    1.27
   5  -8  -7    2.79    1.68
   6  -8  -7   14.85    3.25
   7  -8  -7   -0.72    1.22
   8  -8  -7    3.21    2.17
   9  -8  -7   10.52    3.17
  10  -8  -7    3.99    3.18
  -4  -7  -7    2.48    3.14
  -3  -7  -7    0.65    2.02
  -2  -7  -7    2.14    2.10
  -1  -7  -7    1.42    1.79
   0  -7  -7    0.29    1.42
   1  -7  -7   10.98    2.80
   2  -7  -7    3.06    1.51
   3  -7  -7   17.34    2.68
   4  -7  -7    1.22    1.22
   5  -7  -7    2.73    1.39
   6  -7  -7   15.89    2.62
   7  -7  -7    2.26    1.59
   8  -7  -7   22.98    3.94
   9  -7  -7    0.33    1.82
  10  -7  -7   -1.16    1.63
  11  -7  -7    3.88    3.07
  -5  -6  -7   -2.90    1.61
  -4  -6  -7   -0.12    1.80
  -3  -6  -7   13.26    2.45
  -2  -6  -7   20.43    3.73
  -1  -6  -7   11.68    2.73
   0  -6  -7    9.11    2.58
   1  -6  -7    0.22    1.39
   2  -6  -7    8.45    2.00
   3  -6  -7    6.45    1.71
   4  -6  -7    7.72    1.86
   5  -6  -7    0.76    1.24
   6  -6  -7   13.58    2.31
   7  -6  -7   16.68    3.40
   8  -6  -7    0.98    1.64
   9  -6  -7   -0.40    1.52
  10  -6  -7   12.24    3.21
  11  -6  -7    6.42    3.14
  -6  -5  -7    1.02    2.41
  -5  -5  -7    0.45    1.47
  -4  -5  -7   39.88    4.27
  -3  -5  -7    0.07    1.32
  -2  -5  -7    1.91    1.56
  -1  -5  -7   -0.02    1.34
   0  -5  -7    8.50    2.42
   1  -5  -7    6.29    2.08
   2  -5  -7   53.67    4.36
   3  -5  -7    1.88    1.08
   4  -5  -7   16.77    2.56
   5  -5  -7    8.25    1.89
   6  -5  -7    0.54    1.51
   7  -5  -7    1.56    1.65
   8  -5  -7    3.69    2.00
   9  -5  -7   10.78    2.35
  10  -5  -7    0.10    1.49
  11  -5  -7    1.03    2.01
  -7  -4  -7    3.07    3.45
  -6  -4  -7   12.23    2.42
  -5  -4  -7    7.81    2.08
  -4  -4  -7    0.62    1.24
  -3  -4  -7   -0.68    1.07
  -2  -4  -7    6.20    2.20
  -1  -4  -7   14.44    2.84
   0  -4  -7    5.51    2.03
   1  -4  -7   19.22    3.22
   2  -4  -7    0.33    0.99
   3  -4  -7    1.97    1.26
   4  -4  -7    8.82    1.90
   5  -4  -7    3.58    1.89
   6  -4  -7   10.63    2.77
   7  -4  -7   11.24    2.79
   8  -4  -7    0.48    1.18
   9  -4  -7   27.56    3.64
  10  -4  -7    0.69    1.41
  11  -4  -7    2.35    3.46
  -7  -3  -7    0.70    1.52
  -6  -3  -7    0.24    1.38
  -5  -3  -7    6.46    1.88
  -4  -3  -7    9.60    1.99
  -3  -3  -7    5.62    1.59
  -2  -3  -7    3.28    1.56
  -1  -3  -7    0.59    1.23
   0  -3  -7   21.48    3.30
   1  -3  -7    7.06    1.75
   2  -3  -7    5.11    1.48
   3  -3  -7   23.09    2.77
   4  -3  -7   22.08    2.77
   5  -3  -7   57.17    5.97
   6  -3  -7    9.47    2.69
   7  -3  -7    2.35    1.82
   8  -3  -7    1.29    1.41
   9  -3  -7   19.34    3.18
  10  -3  -7    1.12    1.54
  11  -3  -7   -0.51    1.89
  -8  -2  -7    5.48    2.09
  -7  -2  -7   -0.32    1.27
  -6  -2  -7    0.26    1.25
  -5  -2  -7    1.48    1.31
  -4  -2  -7    9.97    2.07
  -3  -2  -7   47.97    4.15
  -2  -2  -7    1.20    1.32
  -1  -2  -7    5.57    1.80
   0  -2  -7   27.46    3.73
   1  -2  -7    2.82    1.17
   2  -2  -7   32.04    3.32
   3  -2  -7    4.37    1.41
   4  -2  -7   -0.43    1.05
   5  -2  -7   -0.09    1.26
   6  -2  -7    4.49    1.81
   7  -2  -7    2.64    1.43
   8  -2  -7   15.81    2.82
   9  -2  -7    6.76    2.09
  10  -2  -7    9.20    2.97
  -9  -1  -7    4.37    2.16
  -8  -1  -7   19.59    3.06
  -7  -1  -7   23.71    3.20
  -6  -1  -7   10.99    2.26
  -5  -1  -7    1.84    1.29
  -4  -1  -7    2.36    1.22
  -3  -1  -7   20.92    2.63
  -2  -1  -7    4.02    1.66
  -1  -1  -7    0.93    1.16
   0  -1  -7   16.14    2.78
   1  -1  -7   12.01    2.09
   2  -1  -7    4.66    1.47
   3  -1  -7    9.01    2.41
   4  -1  -7    1.00    1.28
   5  -1  -7   18.29    3.33
   6  -1  -7   -0.04    1.09
   7  -1  -7   12.76    2.28
   8  -1  -7   -0.12    1.28
   9  -1  -7    3.31    2.12
  10  -1  -7    3.26    3.16
  -9   0  -7   -1.05    1.30
  -8   0  -7    3.09    1.59
  -7   0  -7    1.53    1.18
  -6   0  -7   13.16    2.29
  -5   0  -7    6.78    1.73
  -4   0  -7    8.25    1.79
  -3   0  -7   19.66    3.31
  -2   0  -7   42.52    4.60
  -1   0  -7   15.11    2.70
   0   0  -7    0.18    0.89
   1   0  -7   18.25    2.47
   2   0  -7   24.28    3.69
   3   0  -7   20.73    3.57
   4   0  -7   10.87    2.53
   5   0  -7    7.00    1.61
   6   0  -7   15.53    2.65
   7   0  -7    1.65    1.34
   8   0  -7    1.39    1.98
   9   0  -7   -0.21    1.80
 -10   1  -7   11.50    5.76
  -9   1  -7    2.03    2.00
  -8   1  -7    3.11    1.69
  -7   1  -7   11.09    2.28
  -6   1  -7    0.33    1.09
  -5   1  -7   16.57    2.53
  -4   1  -7    1.17    1.06
  -3   1  -7    4.85    1.74
  -2   1  -7    1.76    1.27
  -1   1  -7   16.02    2.77
   0   1  -7   17.51    2.35
   1   1  -7    1.88    1.15
   2   1  -7    3.85    1.67
   3   1  -7   21.09    3.50
   4   1  -7    1.29    1.06
   5   1  -7    1.74    1.30
   6   1  -7    8.07    2.44
   7   1  -7   18.52    3.61
   8   1  -7   18.64    3.72
   9   1  -7    5.19    4.62
 -10   2  -7   11.17    3.07
  -9   2  -7    1.82    1.80
  -8   2  -7   15.07    3.31
  -7   2  -7    1.81    1.64
  -6   2  -7    4.44    1.57
  -5   2  -7    0.83    1.04
  -4   2  -7    1.35    1.09
  -3   2  -7    2.67    1.52
  -2   2  -7   34.39    4.11
  -1   2  -7    3.80    1.33
   0   2  -7   38.37    3.42
   1   2  -7    9.30    2.48
   2   2  -7    0.36    1.25
   3   2  -7   54.28    4.70
   4   2  -7   10.86    2.26
   5   2  -7    3.36    1.85
   6   2  -7   -1.68    1.15
   7   2  -7    1.61    1.80
   8   2  -7    4.71    2.44
 -10   3  -7    0.06    1.82
  -9   3  -7   18.93    3.73
  -8   3  -7    1.77    1.73
  -7   3  -7   -0.56    1.33
  -6   3  -7    9.47    2.54
  -5   3  -7   51.50    4.27
  -4   3  -7   19.62    2.54
  -3   3  -7   20.74    3.33
  -2   3  -7    7.09    2.11
  -1   3  -7    4.97    1.40
   0   3  -7   20.37    3.39
   1   3  -7    1.42    1.32
   2   3  -7    2.44    1.30
   3   3  -7   11.51    2.73
   4   3  -7   10.54    2.62
   5   3  -7    4.38    2.10
   6   3  -7    0.87    1.52
   7   3  -7    0.51    1.85
 -10   4  -7   -0.68    1.61
  -9   4  -7   27.07    4.35
  -8   4  -7   -0.84    1.32
  -7   4  -7   19.38    3.35
  -6   4  -7   14.17    2.78
  -5   4  -7    2.03    1.10
  -4   4  -7    8.52    1.72
  -3   4  -7    1.97    1.40
  -2   4  -7   -0.08    0.99
  -1   4  -7   21.39    3.35
   0   4  -7   12.60    2.69
   1   4  -7   16.95    2.67
   2   4  -7    9.74    2.61
   3   4  -7    0.50    1.46
   4   4  -7    0.85    1.76
   5   4  -7   11.74    3.16
   6   4  -7   12.05    3.18
   7   4  -7    2.36    2.76
 -11   5  -7    5.09    5.20
 -10   5  -7    0.54    1.85
  -9   5  -7    9.02    2.84
  -8   5  -7    3.90    2.04
  -7   5  -7    3.52    1.84
  -6   5  -7   -0.28    1.25
  -5   5  -7   10.25    1.95
  -4   5  -7   18.24    2.92
  -3   5  -7    1.10    1.02
  -2   5  -7   54.55    5.49
  -1   5  -7    2.75    1.19
   0   5  -7    5.96    2.20
   1   5  -7    0.80    1.51
   2   5  -7    2.29    1.72
   3   5  -7    0.98    1.46
   4   5  -7   27.52    4.22
   5   5  -7    0.16    1.32
   6   5  -7    5.79    3.49
 -11   6  -7    4.61    4.49
 -10   6  -7   10.20    3.10
  -9   6  -7    0.98    1.65
  -8   6  -7   -0.03    1.36
  -7   6  -7   15.84    3.05
  -6   6  -7   11.41    2.56
  -5   6  -7    1.10    1.18
  -4   6  -7    6.99    2.08
  -3   6  -7    7.17    1.55
  -2   6  -7    6.89    1.68
  -1   6  -7    0.53    1.40
   0   6  -7   13.20    3.03
   1   6  -7    7.62    1.94
   2   6  -7   12.98    2.29
   3   6  -7   20.60    3.08
   4   6  -7    1.08    1.65
 -10   7  -7    0.98    1.85
  -9   7  -7   -0.65    1.49
  -8   7  -7   18.86    3.50
  -7   7  -7    0.50    1.32
  -6   7  -7    7.77    2.27
  -5   7  -7    1.68    1.19
  -4   7  -7    1.72    1.29
  -3   7  -7   14.41    4.89
  -2   7  -7    4.52    1.57
  -1   7  -7   10.90    2.71
   0   7  -7    1.07    1.52
   1   7  -7   -0.08    1.50
   2   7  -7    5.32    2.28
   3   7  -7    1.56    1.71
 -10   8  -7    5.18    2.41
  -9   8  -7   21.31    3.93
  -8   8  -7    2.53    1.83
  -7   8  -7   -0.19    1.46
  -6   8  -7   17.58    2.66
  -5   8  -7    0.44    1.54
  -2   8  -7    0.46    1.34
  -1   8  -7   23.94    3.13
   0   8  -7    2.51    2.01
   1   8  -7    3.62    2.10
   2   8  -7   17.70    3.72
 -10   9  -7    4.82    3.44
  -9   9  -7    0.14    1.68
  -8   9  -7    1.30    1.69
  -7   9  -7    4.76    1.93
  -6   9  -7   17.97    3.21
  -3   9  -7    3.11    2.62
  -2   9  -7    1.70    1.78
  -1   9  -7   12.73    2.82
   0   9  -7    1.60    1.57
   1   9  -7    7.71    2.48
  -9  10  -7    3.83    2.19
  -8  10  -7   13.94    3.06
  -7  10  -7    1.68    1.70
  -6  10  -7   -1.73    2.12
  -3  10  -7    1.72    2.49
  -2  10  -7    5.19    2.36
  -1  10  -7    4.64    2.42
  -8  11  -7    0.34    1.94
  -7  11  -7    1.91    2.48
  -3  11  -7   16.01    4.89
   4 -12  -6    5.12    3.30
   5 -12  -6    7.16    3.94
   6 -12  -6    8.11    3.88
   7 -12  -6    1.58    1.83
   8 -12  -6    8.93    2.72
   9 -12  -6    2.05    2.05
  10 -12  -6    8.49    4.34
   1 -11  -6    3.80    3.10
   2 -11  -6    8.26    3.40
   3 -11  -6    3.57    2.88
   4 -11  -6   45.23    7.87
   5 -11  -6    1.30    1.64
   6 -11  -6    0.60    1.57
   7 -11  -6    9.80    2.64
   8 -11  -6   -0.31    1.60
   9 -11  -6    2.36    1.80
  10 -11  -6    1.81    1.95
  -2 -10  -6   14.61    5.57
  -1 -10  -6   -0.38    1.85
   0 -10  -6   11.83    3.27
   1 -10  -6    1.05    2.56
   2 -10  -6    8.52    3.70
   3 -10  -6    1.42    1.75
   4 -10  -6    0.26    1.56
   5 -10  -6    5.68    2.10
   6 -10  -6   25.71    3.78
   7 -10  -6    0.43    1.43
   8 -10  -6   37.30    4.87
   9 -10  -6    1.82    1.72
  10 -10  -6    7.53    3.67
  11 -10  -6    3.75    3.12
  -3  -9  -6    3.31    2.24
  -2  -9  -6    0.05    1.93
  -1  -9  -6    4.66    2.22
   0  -9  -6    7.24    2.46
   1  -9  -6   12.61    4.16
   2  -9  -6    0.29    1.38
   3  -9  -6   22.19    3.50
   4  -9  -6    7.81    2.26
   5  -9  -6    2.42    1.69
   6  -9  -6    6.20    2.08
   7  -9  -6    0.06    1.22
   8  -9  -6   18.31    3.38
   9  -9  -6    7.82    2.29
  10  -9  -6   -0.46    2.14
  11  -9  -6    5.46    3.15
  -4  -8  -6   14.68    3.53
  -3  -8  -6    0.70    1.87
  -2  -8  -6   46.09    5.43
  -1  -8  -6   25.99    4.12
   0  -8  -6   25.13    3.26
   1  -8  -6    8.23    2.35
   2  -8  -6    8.49    2.38
   3  -8  -6   10.24    2.37
   4  -8  -6    7.62    1.94
   5  -8  -6    7.81    1.84
   6  -8  -6    1.81    1.07
   7  -8  -6   23.20    2.81
   8  -8  -6   21.91    2.85
   9  -8  -6    7.80    2.60
  10  -8  -6   11.03    2.75
  11  -8  -6    1.33    1.81
  12  -8  -6    1.55    2.11
  -5  -7  -6    1.73    2.32
  -4  -7  -6   15.19    3.42
  -3  -7  -6    0.79    1.76
  -2  -7  -6    0.32    1.43
  -1  -7  -6   23.78    3.03
   0  -7  -6    1.68    1.22
   1  -7  -6   10.21    2.46
   2  -7  -6   27.18    3.19
   3  -7  -6    2.32    1.17
   4  -7  -6   51.59    4.19
   5  -7  -6    5.39    1.53
   6  -7  -6    0.91    1.07
   7  -7  -6    1.58    1.11
   8  -7  -6   10.93    2.67
   9  -7  -6    0.65    1.49
  10  -7  -6    1.48    1.76
  11  -7  -6   45.90    5.66
  12  -7  -6    8.10    2.76
  -6  -6  -6   14.71    3.57
  -5  -6  -6    1.15    1.84
  -4  -6  -6   30.33    4.52
  -3  -6  -6   10.63    2.08
  -2  -6  -6    5.07    1.60
  -1  -6  -6    3.26    1.40
   0  -6  -6    3.66    1.37
   1  -6  -6   42.71    4.85
   2  -6  -6    0.68    1.22
   3  -6  -6   40.37    3.62
   4  -6  -6   15.29    2.32
   5  -6  -6   47.91    3.95
   6  -6  -6    4.29    1.44
   7  -6  -6   10.14    1.90
   8  -6  -6    4.57    1.95
   9  -6  -6   19.76    3.61
  10  -6  -6    0.49    1.59
  11  -6  -6    2.81    1.91
  12  -6  -6   11.33    3.14
  -7  -5  -6   10.02    3.13
  -6  -5  -6    6.20    2.46
  -5  -5  -6    8.20    2.50
  -4  -5  -6    3.31    1.49
  -3  -5  -6    7.85    1.76
  -2  -5  -6    2.18    1.17
  -1  -5  -6   38.47    3.52
   0  -5  -6   20.85    2.61
   1  -5  -6   38.41    4.23
   2  -5  -6   10.09    1.75
   3  -5  -6   23.22    2.72
   4  -5  -6   21.43    2.49
   5  -5  -6   18.88    2.46
   6  -5  -6   36.04    3.32
   7  -5  -6   16.25    3.05
   8  -5  -6    6.20    2.16
   9  -5  -6    9.32    2.12
  10  -5  -6    8.02    1.90
  11  -5  -6   -0.08    1.61
  12  -5  -6   -0.04    1.79
  -8  -4  -6    3.21    2.31
  -7  -4  -6   49.53    5.79
  -6  -4  -6   -0.07    1.28
  -5  -4  -6    7.69    1.81
  -4  -4  -6    6.55    1.70
  -3  -4  -6   43.55    3.82
  -2  -4  -6   13.23    2.07
  -1  -4  -6   23.51    2.69
   0  -4  -6    5.73    1.79
   1  -4  -6   10.86    2.29
   2  -4  -6    6.93    1.50
   3  -4  -6    0.10    0.82
   4  -4  -6    5.18    1.40
   5  -4  -6   37.67    3.37
   6  -4  -6    1.49    1.33
   7  -4  -6    2.11    1.39
   8  -4  -6   13.79    2.31
   9  -4  -6    2.77    1.39
  10  -4  -6   28.38    3.43
  11  -4  -6    7.95    2.49
  12  -4  -6    8.03    2.82
  -9  -3  -6    3.16    3.25
  -8  -3  -6    2.53    1.95
  -7  -3  -6    4.02    1.73
  -6  -3  -6   20.01    2.85
  -5  -3  -6    5.35    1.68
  -4  -3  -6    4.21    1.39
  -3  -3  -6   43.66    3.75
  -2  -3  -6   23.16    2.69
  -1  -3  -6    2.96    1.09
   0  -3  -6   15.25    2.63
   1  -3  -6    2.36    1.41
   2  -3  -6   75.04    4.74
   3  -3  -6   11.72    1.94
   4  -3  -6   10.36    1.77
   5  -3  -6   16.01    2.89
   6  -3  -6   35.62    4.25
   7  -3  -6   50.70    5.28
   8  -3  -6    6.64    1.76
   9  -3  -6   11.48    2.23
  10  -3  -6   -0.94    1.11
  11  -3  -6    2.41    1.56
 -10  -2  -6   -0.15    3.20
  -9  -2  -6    4.58    1.88
  -8  -2  -6    7.91    1.99
  -7  -2  -6   -0.70    1.09
  -6  -2  -6    7.85    1.79
  -5  -2  -6   22.16    2.82
  -4  -2  -6    0.60    0.94
  -3  -2  -6   14.53    2.14
  -2  -2  -6    3.72    1.17
  -1  -2  -6   68.38    3.89
   0  -2  -6   49.95    4.57
   1  -2  -6   35.04    3.79
   2  -2  -6   46.22    3.53
   3  -2  -6    2.82    1.08
   4  -2  -6    5.40    1.32
   5  -2  -6   15.14    2.66
   6  -2  -6   20.37    3.28
   7  -2  -6    4.22    1.51
   8  -2  -6    0.96    1.18
   9  -2  -6   -0.03    1.12
  10  -2  -6   36.85    4.07
  11  -2  -6    3.08    2.22
  12  -2  -6    7.96    4.29
 -10  -1  -6    6.55    2.92
  -9  -1  -6    1.46    1.73
  -8  -1  -6    7.30    2.24
  -7  -1  -6    9.68    2.48
  -6  -1  -6   11.60    1.91
  -5  -1  -6   43.46    3.82
  -4  -1  -6   36.15    3.32
  -3  -1  -6    9.80    1.73
  -2  -1  -6    2.56    0.98
  -1  -1  -6   35.97    2.97
   0  -1  -6   16.22    2.57
   1  -1  -6   18.83    2.35
   2  -1  -6   36.32    3.11
   3  -1  -6   66.81    3.93
   4  -1  -6    3.65    1.64
   5  -1  -6   25.67    3.69
   6  -1  -6   38.83    3.71
   7  -1  -6    2.59    1.21
   8  -1  -6   21.54    3.05
   9  -1  -6   16.98    2.74
  10  -1  -6    1.70    1.84
  11  -1  -6    2.23    2.20
 -11   0  -6    5.35    3.64
 -10   0  -6    5.26    2.31
  -9   0  -6    8.76    2.65
  -8   0  -6   29.22    4.21
  -7   0  -6    0.78    1.47
  -6   0  -6    1.27    1.24
  -5   0  -6   21.37    2.62
  -4   0  -6    4.28    1.27
  -3   0  -6   15.24    1.96
  -2   0  -6   55.95    3.74
  -1   0  -6   15.52    1.90
   0   0  -6    5.69    1.62
   1   0  -6   24.24    2.53
   2   0  -6   53.43    3.67
   3   0  -6   11.26    2.46
   4   0  -6    6.57    2.03
   5   0  -6   25.31    2.90
   6   0  -6    5.12    1.50
   7   0  -6    0.05    1.08
   8   0  -6   22.65    3.89
   9   0  -6    7.62    2.63
  10   0  -6    6.01    2.48
  11   0  -6    3.06    3.15
 -11   1  -6    0.39    2.08
 -10   1  -6    3.42    2.17
  -9   1  -6   17.57    3.50
  -8   1  -6   15.14    3.09
  -7   1  -6    3.89    1.60
  -6   1  -6   34.83    4.14
  -5   1  -6   21.31    3.05
  -4   1  -6    1.43    0.95
  -3   1  -6   72.37    4.51
  -2   1  -6   31.94    2.82
  -1   1  -6   15.83    2.49
   0   1  -6   17.20    2.06
   1   1  -6   38.80    3.12
   2   1  -6    2.99    1.29
   3   1  -6   11.64    2.52
   4   1  -6   42.04    3.81
   5   1  -6   35.52    3.52
   6   1  -6    9.73    1.93
   7   1  -6    6.99    2.14
   8   1  -6    7.59    2.43
   9   1  -6   -0.04    1.66
  10   1  -6    9.56    3.06
 -11   2  -6    1.71    2.17
 -10   2  -6   44.14    5.36
  -9   2  -6    0.26    1.52
  -8   2  -6    1.07    1.21
  -7   2  -6    1.85    1.51
  -6   2  -6   17.26    2.95
  -5   2  -6   26.36    3.45
  -4   2  -6    3.96    1.49
  -3   2  -6    1.36    0.84
  -2   2  -6   50.30    3.43
  -1   2  -6   38.27    3.79
   0   2  -6   50.62    3.53
   1   2  -6   75.13    3.95
   2   2  -6    6.36    1.93
   3   2  -6   12.84    2.04
   4   2  -6   -0.27    0.86
   5   2  -6   32.46    4.42
   6   2  -6    7.54    2.20
   7   2  -6   -0.15    1.38
   8   2  -6   10.08    2.88
   9   2  -6    5.74    2.45
 -12   3  -6    0.61    2.87
 -11   3  -6    2.17    2.24
 -10   3  -6   -1.21    1.41
  -9   3  -6   13.32    2.95
  -8   3  -6    7.22    2.22
  -7   3  -6   54.50    5.20
  -6   3  -6   48.08    4.88
  -5   3  -6   11.60    2.31
  -4   3  -6   10.60    2.12
  -3   3  -6   14.34    1.94
  -2   3  -6   67.95    3.84
  -1   3  -6    2.52    1.05
   0   3  -6   13.00    1.84
   1   3  -6    1.12    1.22
   2   3  -6   26.44    2.88
   3   3  -6   51.50    4.10
   4   3  -6    2.89    1.65
   5   3  -6    7.61    2.33
   6   3  -6   16.60    3.41
   7   3  -6    2.62    1.67
   8   3  -6    2.25    1.98
   9   3  -6    2.98    1.99
 -12   4  -6    5.78    2.73
 -11   4  -6    7.06    2.74
 -10   4  -6   24.75    4.05
  -9   4  -6    2.96    1.71
  -8   4  -6    5.42    2.09
  -7   4  -6    5.95    2.01
  -6   4  -6    1.54    1.13
  -5   4  -6   40.63    4.19
  -4   4  -6    3.67    1.43
  -3   4  -6    0.56    0.81
  -2   4  -6    8.50    1.42
  -1   4  -6   13.03    1.77
   0   4  -6    4.38    1.62
   1   4  -6   29.46    3.07
   2   4  -6   20.56    3.32
   3   4  -6   45.99    4.96
   4   4  -6    6.46    2.15
   5   4  -6    4.87    2.04
   6   4  -6    2.00    1.65
   7   4  -6   50.02    4.69
   8   4  -6    1.42    1.62
 -12   5  -6    0.76    2.01
 -11   5  -6    0.33    1.70
 -10   5  -6    6.04    2.22
  -9   5  -6    9.62    2.59
  -8   5  -6    4.22    1.84
  -7   5  -6   23.32    3.55
  -6   5  -6   41.94    4.55
  -5   5  -6   20.27    3.02
  -4   5  -6   23.36    3.16
  -3   5  -6   25.32    2.26
  -2   5  -6   15.92    1.56
  -1   5  -6   35.81    3.25
   0   5  -6   20.99    2.59
   1   5  -6   38.07    4.45
   2   5  -6   10.16    2.54
   3   5  -6   12.46    2.69
   4   5  -6    3.53    2.04
   5   5  -6   11.02    2.30
   6   5  -6    2.09    1.56
   7   5  -6    5.84    2.01
 -12   6  -6    9.77    3.07
 -11   6  -6    4.96    2.40
 -10   6  -6   -0.31    1.49
  -9   6  -6   14.83    3.12
  -8   6  -6    5.61    1.83
  -7   6  -6   10.08    2.00
  -6   6  -6    5.02    1.51
  -5   6  -6   36.19    3.36
  -4   6  -6   14.69    2.05
  -3   6  -6   42.65    2.13
  -2   6  -6    1.20    0.76
  -1   6  -6   42.25    3.56
   0   6  -6    3.93    1.38
   1   6  -6    3.77    1.39
   2   6  -6    2.37    1.23
   3   6  -6   16.65    2.66
   4   6  -6   30.68    3.33
   5   6  -6   -0.18    1.25
   6   6  -6   10.61    3.07
 -12   7  -6   13.39    3.62
 -11   7  -6   59.94    6.49
 -10   7  -6    2.13    1.61
  -9   7  -6   -0.07    1.14
  -8   7  -6   10.18    2.17
  -7   7  -6    1.85    1.23
  -6   7  -6    3.88    1.34
  -5   7  -6    5.14    1.43
  -4   7  -6   52.91    2.83
  -3   7  -6    5.44    0.85
  -2   7  -6   30.05    2.65
  -1   7  -6    9.56    2.31
   0   7  -6    0.59    1.33
   1   7  -6   30.83    4.10
   2   7  -6    0.07    1.30
   3   7  -6    0.21    1.52
   4   7  -6    6.90    2.55
   5   7  -6    0.23    1.81
 -12   8  -6    5.06    2.74
 -11   8  -6    0.99    1.53
 -10   8  -6   12.23    2.55
  -9   8  -6    7.23    1.85
  -8   8  -6   25.93    3.22
  -7   8  -6   26.97    4.03
  -6   8  -6    3.50    1.77
  -5   8  -6   12.69    2.82
  -4   8  -6    6.44    1.35
  -3   8  -6    5.46    1.45
  -2   8  -6    8.91    1.88
  -1   8  -6   10.61    2.53
   0   8  -6   25.89    3.78
   1   8  -6   11.09    2.74
   2   8  -6   34.63    4.68
   3   8  -6    1.12    1.73
   4   8  -6   11.81    3.01
 -12   9  -6    3.28    3.75
 -11   9  -6    5.01    2.10
 -10   9  -6    0.37    1.35
  -9   9  -6    8.56    2.83
  -8   9  -6   26.15    4.31
  -7   9  -6    0.36    1.34
  -6   9  -6    8.43    2.41
  -5   9  -6    0.88    1.13
  -4   9  -6    7.55    2.09
  -3   9  -6   18.85    2.68
  -2   9  -6    0.12    1.29
  -1   9  -6    7.95    1.92
   0   9  -6    9.17    2.62
   1   9  -6    1.75    1.80
   2   9  -6    1.88    1.96
   3   9  -6    5.04    3.14
 -12  10  -6    3.70    4.11
 -11  10  -6    9.48    3.06
 -10  10  -6   11.54    3.27
  -9  10  -6    7.26    2.54
  -8  10  -6   37.17    5.04
  -7  10  -6    0.49    1.61
  -6  10  -6   22.81    3.88
  -5  10  -6   10.39    2.10
  -4  10  -6    2.27    1.66
  -3  10  -6    5.15    2.05
  -2  10  -6    7.85    2.45
  -1  10  -6    0.15    1.55
   0  10  -6    7.29    2.04
   1  10  -6   -0.21    1.30
   2  10  -6    9.27    3.87
 -11  11  -6   -1.63    3.00
 -10  11  -6    2.18    2.35
  -9  11  -6    0.78    1.86
  -8  11  -6    2.98    1.92
  -7  11  -6    9.70    2.75
  -6  11  -6   -0.18    1.29
  -5  11  -6    2.41    1.95
  -4  11  -6   48.87    5.77
  -3  11  -6    2.81    1.93
  -2  11  -6   10.29    2.89
  -1  11  -6    6.55    2.51
 -10  12  -6    8.52    6.64
  -9  12  -6    1.16    1.96
  -8  12  -6    9.92    3.06
  -7  12  -6    1.30    1.77
  -6  12  -6   13.44    3.36
  -5  12  -6    9.20    2.92
  -4  12  -6    1.48    1.95
  -3  12  -6    2.62    2.23
  -2  12  -6    3.72    3.83
   2 -13  -5    7.59    4.47
   3 -13  -5    3.83    4.41
   4 -13  -5   21.15    5.75
   5 -13  -5    0.64    2.79
   6 -13  -5   -0.70    2.35
   7 -13  -5   -0.80    2.23
   8 -13  -5    1.58    2.71
   9 -13  -5    5.98    2.47
  10 -13  -5    0.87    2.09
   0 -12  -5    8.66    3.53
   1 -12  -5    0.35    2.07
   2 -12  -5   10.25    2.99
   3 -12  -5    2.72    2.81
   4 -12  -5    7.19    3.44
   5 -12  -5    2.10    2.49
   6 -12  -5    3.19    2.83
   7 -12  -5   40.85    4.85
   8 -12  -5   24.43    3.87
   9 -12  -5    0.79    1.67
  10 -12  -5   -1.66    1.41
  11 -12  -5    1.14    1.84
  -2 -11  -5    0.38    2.67
  -1 -11  -5    3.74    2.42
   0 -11  -5   25.40    4.24
   1 -11  -5   11.51    3.05
   2 -11  -5    2.90    1.89
   3 -11  -5   22.42    5.31
   4 -11  -5    7.47    3.60
   5 -11  -5   25.29    3.53
   6 -11  -5    3.06    1.77
   7 -11  -5    7.30    2.34
   8 -11  -5   10.74    2.59
   9 -11  -5   -0.16    1.53
  10 -11  -5    8.00    2.51
  11 -11  -5   15.54    3.23
  12 -11  -5    2.91    2.69
  -3 -10  -5    3.24    2.40
  -2 -10  -5    3.92    2.49
  -1 -10  -5    7.92    2.49
   0 -10  -5   41.61    5.15
   1 -10  -5   35.18    4.52
   2 -10  -5    2.69    1.54
   3 -10  -5   20.69    3.42
   4 -10  -5    6.09    1.97
   5 -10  -5    0.02    1.23
   6 -10  -5   10.36    2.54
   7 -10  -5    1.94    1.45
   8 -10  -5   13.46    2.48
   9 -10  -5    2.85    1.70
  10 -10  -5   37.37    4.69
  11 -10  -5   16.04    4.93
  12 -10  -5    5.38    3.41
  -4  -9  -5    3.33    2.23
  -3  -9  -5    1.70    1.96
  -2  -9  -5    1.85    1.75
  -1  -9  -5    6.36    2.12
   0  -9  -5    3.58    2.03
   1  -9  -5    8.98    2.50
   2  -9  -5   13.03    2.12
   3  -9  -5    1.38    1.13
   4  -9  -5   34.00    4.07
   5  -9  -5    2.33    1.36
   6  -9  -5   11.18    2.52
   7  -9  -5    3.31    1.61
   8  -9  -5   17.78    3.20
   9  -9  -5    3.53    1.76
  10  -9  -5   35.78    4.53
  11  -9  -5    4.50    3.01
  12  -9  -5    4.06    3.25
  13  -9  -5   11.69    4.45
  -5  -8  -5    0.89    1.93
  -4  -8  -5   30.31    4.59
  -3  -8  -5   12.74    3.06
  -2  -8  -5   18.48    3.31
  -1  -8  -5   12.80    2.88
   0  -8  -5    1.81    1.19
   1  -8  -5   12.24    2.15
   2  -8  -5   68.91    4.71
   3  -8  -5   70.37    5.79
   4  -8  -5   46.02    3.81
   5  -8  -5    2.86    1.07
   6  -8  -5   32.57    3.06
   7  -8  -5    2.70    1.21
   8  -8  -5    1.78    0.98
   9  -8  -5    4.14    1.38
  10  -8  -5    2.34    1.52
  11  -8  -5   13.02    3.00
  12  -8  -5    6.46    2.52
  13  -8  -5    1.39    1.89
  14  -8  -5    9.35    5.38
  -6  -7  -5    0.58    1.78
  -5  -7  -5   31.76    4.63
  -4  -7  -5   15.01    3.19
  -3  -7  -5    1.55    1.53
  -2  -7  -5    7.01    2.13
  -1  -7  -5    3.83    1.40
   0  -7  -5    6.26    1.49
   1  -7  -5    6.39    1.54
   2  -7  -5   38.33    3.36
   3  -7  -5   14.72    2.13
   4  -7  -5   14.55    2.12
   5  -7  -5   11.85    1.88
   6  -7  -5  134.59    5.49
   7  -7  -5    8.04    1.66
   8  -7  -5   14.69    2.17
   9  -7  -5   10.48    2.45
  10  -7  -5   14.28    2.94
  11  -7  -5    7.85    2.58
  12  -7  -5    3.16    2.00
  13  -7  -5    1.00    1.95
  14  -7  -5    9.66    4.16
  -7  -6  -5    3.97    2.24
  -6  -6  -5    3.76    2.04
  -5  -6  -5    2.56    1.71
  -4  -6  -5   10.15    2.55
  -3  -6  -5    8.94    1.81
  -2  -6  -5   33.48    3.33
  -1  -6  -5  144.60    5.81
   0  -6  -5    1.58    1.01
   1  -6  -5   33.17    3.02
   2  -6  -5    4.29    1.18
   3  -6  -5   20.05    2.33
   4  -6  -5    2.03    1.04
   5  -6  -5    1.76    1.02
   6  -6  -5    0.88    0.86
   7  -6  -5    4.87    1.35
   8  -6  -5   59.97    4.23
   9  -6  -5    1.53    1.02
  10  -6  -5    3.89    1.76
  11  -6  -5   27.62    3.87
  12  -6  -5    2.87    2.03
  13  -6  -5   -1.27    1.65
  -8  -5  -5   -0.15    2.43
  -7  -5  -5    2.53    1.95
  -6  -5  -5   26.08    4.11
  -5  -5  -5   -1.81    1.20
  -4  -5  -5    2.54    1.15
  -3  -5  -5    5.33    1.45
  -2  -5  -5   13.56    2.06
  -1  -5  -5    1.93    1.01
   0  -5  -5   35.24    3.15
   1  -5  -5    6.51    1.37
   2  -5  -5   75.18    3.95
   3  -5  -5    4.13    1.17
   4  -5  -5  103.51    4.50
   5  -5  -5   36.48    3.08
   6  -5  -5   31.93    2.98
   7  -5  -5   40.85    3.32
   8  -5  -5   63.70    5.76
   9  -5  -5   38.55    3.67
  10  -5  -5    0.85    1.07
  11  -5  -5    3.69    2.07
  12  -5  -5   25.58    4.17
  13  -5  -5    1.62    1.78
  -9  -4  -5   15.36    5.19
  -8  -4  -5    8.89    2.79
  -7  -4  -5    3.80    1.96
  -6  -4  -5    1.92    1.28
  -5  -4  -5   41.14    3.74
  -4  -4  -5   45.33    3.78
  -3  -4  -5   16.03    2.22
  -2  -4  -5    1.34    0.93
  -1  -4  -5  110.58    4.53
   0  -4  -5    1.55    0.90
   1  -4  -5  103.24    4.24
   2  -4  -5    7.50    1.76
   3  -4  -5    9.84    1.66
   4  -4  -5    1.43    0.88
   5  -4  -5    5.82    1.21
   6  -4  -5    4.60    1.22
   7  -4  -5   17.67    2.89
   8  -4  -5   45.30    3.91
   9  -4  -5    2.45    1.25
  10  -4  -5    8.88    2.00
  11  -4  -5    8.48    2.54
  12  -4  -5   32.58    4.75
  13  -4  -5    5.55    2.41
  -9  -3  -5    2.69    2.03
  -8  -3  -5   10.90    2.67
  -7  -3  -5   22.92    2.92
  -6  -3  -5    1.83    1.22
  -5  -3  -5   68.75    4.73
  -4  -3  -5   16.20    2.22
  -3  -3  -5   16.10    2.09
  -2  -3  -5    2.62    1.03
  -1  -3  -5    8.81    1.45
   0  -3  -5   86.24    3.84
   1  -3  -5   53.04    3.06
   2  -3  -5   74.38    3.75
   3  -3  -5   86.83    4.06
   4  -3  -5  105.05    4.54
   5  -3  -5   66.23    3.82
   6  -3  -5   18.69    2.99
   7  -3  -5   15.04    2.64
   8  -3  -5    1.65    1.01
   9  -3  -5    8.49    1.86
  10  -3  -5    0.73    1.14
  11  -3  -5   12.91    2.43
  12  -3  -5    1.89    1.81
 -10  -2  -5    3.70    2.31
  -9  -2  -5    4.59    2.26
  -8  -2  -5    3.67    1.97
  -7  -2  -5   14.74    3.14
  -6  -2  -5   52.86    5.08
  -5  -2  -5   30.91    2.98
  -4  -2  -5    6.90    1.50
  -3  -2  -5   74.85    4.18
  -2  -2  -5    6.15    1.37
  -1  -2  -5   62.10    3.52
   0  -2  -5   24.84    2.19
   1  -2  -5   17.37    1.77
   2  -2  -5   26.82    2.37
   3  -2  -5   57.46    3.74
   4  -2  -5    7.73    1.39
   5  -2  -5    4.95    1.22
   6  -2  -5    3.47    1.49
   7  -2  -5   16.36    2.35
   8  -2  -5   27.35    3.11
   9  -2  -5    3.98    1.43
  10  -2  -5   25.90    3.27
  11  -2  -5   -0.05    1.15
  12  -2  -5    1.28    1.83
 -11  -1  -5    2.26    2.36
 -10  -1  -5   13.74    3.17
  -9  -1  -5   31.42    4.28
  -8  -1  -5    5.94    2.04
  -7  -1  -5   15.13    2.88
  -6  -1  -5    8.00    1.96
  -5  -1  -5   29.22    3.55
  -4  -1  -5    5.28    1.52
  -3  -1  -5   93.28    4.18
  -2  -1  -5   48.87    3.30
  -1  -1  -5   20.23    2.03
   0  -1  -5   38.31    2.71
   1  -1  -5   39.94    2.43
   2  -1  -5   16.73    1.88
   3  -1  -5   74.88    3.84
   4  -1  -5    7.01    1.34
   5  -1  -5   97.00    5.53
   6  -1  -5    2.16    1.10
   7  -1  -5  139.45    5.83
   8  -1  -5    2.23    1.21
   9  -1  -5   16.20    2.57
  10  -1  -5    2.67    1.73
  11  -1  -5    6.33    2.55
  12  -1  -5    0.20    1.81
 -11   0  -5   14.87    3.23
 -10   0  -5   40.21    4.98
  -9   0  -5    4.49    1.91
  -8   0  -5    1.52    1.40
  -7   0  -5    9.86    2.26
  -6   0  -5    1.52    1.21
  -5   0  -5   36.66    3.81
  -4   0  -5    0.88    1.02
  -3   0  -5   81.26    3.94
  -2   0  -5   22.03    2.20
  -1   0  -5   33.79    2.57
   0   0  -5   -0.36    0.45
   1   0  -5   37.73    2.90
   2   0  -5   22.85    2.26
   3   0  -5   93.43    4.11
   4   0  -5    1.62    1.07
   5   0  -5   33.40    3.17
   6   0  -5    0.52    0.80
   7   0  -5    7.07    1.60
   8   0  -5    2.63    1.25
   9   0  -5    2.90    1.75
  10   0  -5   38.89    5.20
  11   0  -5   17.70    3.71
  12   0  -5   11.54    4.70
 -12   1  -5   -1.08    1.94
 -11   1  -5    5.59    2.19
 -10   1  -5    5.57    2.38
  -9   1  -5   24.02    3.73
  -8   1  -5    3.23    1.56
  -7   1  -5  146.39    7.19
  -6   1  -5    3.37    1.37
  -5   1  -5   96.84    5.37
  -4   1  -5    6.98    1.62
  -3   1  -5   67.21    4.28
  -2   1  -5   20.39    1.99
  -1   1  -5   40.12    2.76
   0   1  -5   41.47    2.67
   1   1  -5   20.39    2.03
   2   1  -5   57.68    3.14
   3   1  -5  100.17    5.48
   4   1  -5    6.30    1.47
   5   1  -5   30.89    2.99
   6   1  -5    6.70    1.53
   7   1  -5   11.34    2.43
   8   1  -5    7.91    2.35
   9   1  -5   46.25    5.51
  10   1  -5   12.10    3.16
  11   1  -5    1.08    1.49
 -13   2  -5   -0.15    3.15
 -12   2  -5    0.60    2.06
 -11   2  -5    2.46    1.86
 -10   2  -5   19.81    3.61
  -9   2  -5    6.05    2.11
  -8   2  -5   34.49    3.39
  -7   2  -5   15.66    2.14
  -6   2  -5    4.69    1.22
  -5   2  -5    2.96    1.02
  -4   2  -5    6.39    1.22
  -3   2  -5   51.22    2.84
  -2   2  -5   28.09    1.99
  -1   2  -5   17.97    1.56
   0   2  -5   26.50    1.89
   1   2  -5   79.35    3.53
   2   2  -5    2.47    1.24
   3   2  -5   78.24    4.36
   4   2  -5    5.54    1.34
   5   2  -5   34.44    3.21
   6   2  -5   51.29    5.42
   7   2  -5   12.25    2.90
   8   2  -5    3.18    1.72
   9   2  -5    4.67    2.30
  10   2  -5    6.76    2.06
  11   2  -5   19.58    5.72
 -13   3  -5    2.05    3.49
 -12   3  -5    1.16    1.83
 -11   3  -5   16.41    2.62
 -10   3  -5    1.64    1.28
  -9   3  -5    6.07    1.63
  -8   3  -5    3.43    1.22
  -7   3  -5   15.89    2.22
  -6   3  -5   17.85    2.20
  -5   3  -5   76.90    4.02
  -4   3  -5  104.45    4.18
  -3   3  -5   84.34    2.99
  -2   3  -5   74.27    2.83
  -1   3  -5   51.89    3.19
   0   3  -5   86.49    3.01
   1   3  -5    8.55    1.34
   2   3  -5    3.58    1.15
   3   3  -5   20.97    2.45
   4   3  -5   23.11    3.35
   5   3  -5   64.93    5.92
   6   3  -5    1.16    1.38
   7   3  -5   14.30    3.09
   8   3  -5   10.88    2.15
   9   3  -5    3.30    1.68
  10   3  -5    1.11    1.51
 -13   4  -5    5.22    2.60
 -12   4  -5   24.14    3.47
 -11   4  -5   11.09    2.38
 -10   4  -5   14.98    2.54
  -9   4  -5    3.33    1.36
  -8   4  -5   52.09    4.17
  -7   4  -5   18.41    2.41
  -6   4  -5    5.50    1.33
  -5   4  -5    6.65    1.38
  -4   4  -5    1.17    0.69
  -3   4  -5    6.99    1.09
  -2   4  -5    8.42    1.18
  -1   4  -5  110.15    3.57
   0   4  -5    1.09    0.64
   1   4  -5  101.96    4.42
   2   4  -5    3.66    1.10
   3   4  -5   19.01    3.10
   4   4  -5   45.21    4.68
   5   4  -5   34.69    4.38
   6   4  -5    3.51    1.38
   7   4  -5    6.69    1.79
   8   4  -5   10.22    2.36
   9   4  -5   19.78    3.13
 -13   5  -5    2.37    1.77
 -12   5  -5   28.29    3.56
 -11   5  -5    1.66    1.38
 -10   5  -5   -0.98    1.05
  -9   5  -5   36.21    3.70
  -8   5  -5   66.19    4.77
  -7   5  -5   31.78    3.06
  -6   5  -5   29.95    2.93
  -5   5  -5   38.80    3.26
  -4   5  -5  101.00    3.63
  -3   5  -5    3.82    0.85
  -2   5  -5   78.43    3.19
  -1   5  -5    5.34    1.05
   0   5  -5   36.89    3.05
   1   5  -5    1.55    1.14
   2   5  -5   10.43    2.09
   3   5  -5    3.73    1.53
   4   5  -5    1.79    1.07
   5   5  -5    0.75    1.01
   6   5  -5   18.09    2.75
   7   5  -5    0.48    1.26
   8   5  -5   -0.60    1.30
 -14   6  -5    2.42    3.29
 -13   6  -5    2.35    1.81
 -12   6  -5    4.71    1.90
 -11   6  -5   20.84    3.04
 -10   6  -5    4.99    1.62
  -9   6  -5    1.35    1.17
  -8   6  -5   58.09    5.63
  -7   6  -5    7.84    2.09
  -6   6  -5    1.09    1.15
  -5   6  -5    4.39    1.18
  -4   6  -5    2.88    0.79
  -3   6  -5   17.78    1.85
  -2   6  -5    4.04    1.00
  -1   6  -5   33.90    2.50
   0   6  -5    0.94    0.86
   1   6  -5  142.26    5.60
   2   6  -5   29.94    3.03
   3   6  -5    9.57    1.93
   4   6  -5    8.79    2.00
   5   6  -5    1.09    1.21
   6   6  -5    6.40    1.85
   7   6  -5    3.10    2.03
 -14   7  -5    8.36    4.83
 -13   7  -5    3.88    1.92
 -12   7  -5    1.15    1.39
 -11   7  -5    6.57    2.03
 -10   7  -5   17.55    3.55
  -9   7  -5   16.01    3.19
  -8   7  -5    8.10    2.38
  -7   7  -5   13.33    2.74
  -6   7  -5  145.07    5.75
  -5   7  -5   15.98    2.19
  -4   7  -5   18.41    1.84
  -3   7  -5   18.85    1.97
  -2   7  -5   36.55    3.14
  -1   7  -5    5.44    1.34
   0   7  -5    8.98    1.86
   1   7  -5    2.97    1.58
   2   7  -5    3.84    1.76
   3   7  -5    0.83    1.48
   4   7  -5    8.73    2.57
   5   7  -5   18.30    3.66
   6   7  -5    0.18    1.62
 -13   8  -5    0.33    1.63
 -12   8  -5    7.32    2.23
 -11   8  -5   14.68    3.30
 -10   8  -5    4.69    2.24
  -9   8  -5    5.85    2.15
  -8   8  -5    0.50    1.24
  -7   8  -5    2.72    1.54
  -6   8  -5   33.79    3.33
  -5   8  -5    1.49    1.30
  -4   8  -5   49.32    3.85
  -3   8  -5   72.30    4.59
  -2   8  -5   52.96    4.04
  -1   8  -5   12.70    2.61
   0   8  -5    3.81    1.61
   1   8  -5   18.06    3.22
   2   8  -5   21.05    3.63
   3   8  -5   11.87    2.79
   4   8  -5   29.01    4.45
   5   8  -5    2.59    1.99
 -13   9  -5   13.89    3.62
 -12   9  -5    1.44    2.21
 -11   9  -5    3.06    2.33
 -10   9  -5   25.57    4.26
  -9   9  -5    3.07    1.74
  -8   9  -5   18.17    3.43
  -7   9  -5    7.93    1.95
  -6   9  -5   10.01    2.37
  -5   9  -5    3.03    1.59
  -4   9  -5   35.51    3.33
  -3   9  -5    2.71    1.48
  -2   9  -5    8.41    1.74
  -1   9  -5    5.26    1.53
   0   9  -5    3.71    1.83
   1   9  -5    1.33    1.54
   2   9  -5   -0.36    1.33
   3   9  -5    2.69    1.89
   4   9  -5    6.41    2.44
 -13  10  -5    1.35    2.94
 -12  10  -5    5.09    2.61
 -11  10  -5   14.76    3.41
 -10  10  -5   47.58    6.26
  -9  10  -5    1.37    1.50
  -8  10  -5   27.98    4.31
  -7  10  -5    1.17    1.11
  -6  10  -5   12.31    2.83
  -5  10  -5    0.82    1.33
  -4  10  -5    3.21    1.36
  -3  10  -5   27.15    3.86
  -2  10  -5    2.59    1.58
  -1  10  -5   26.90    3.21
   0  10  -5   37.77    3.94
   1  10  -5    7.75    2.63
   2  10  -5    3.14    2.00
   3  10  -5    3.23    3.10
 -12  11  -5   -0.36    1.96
 -11  11  -5   14.17    3.72
 -10  11  -5    5.44    2.57
  -9  11  -5    1.50    1.80
  -8  11  -5   12.14    2.45
  -7  11  -5    8.68    2.47
  -6  11  -5    4.61    1.91
  -5  11  -5   23.96    4.03
  -4  11  -5    6.66    1.97
  -3  11  -5    7.33    2.36
  -2  11  -5    6.92    2.49
  -1  11  -5   12.06    3.11
   0  11  -5   19.05    3.71
   1  11  -5   -0.05    1.39
   2  11  -5    1.07    2.58
 -11  12  -5    2.77    2.39
 -10  12  -5    2.45    2.23
  -9  12  -5    2.03    2.00
  -8  12  -5   29.70    3.65
  -7  12  -5   28.32    4.42
  -6  12  -5    8.89    2.69
  -5  12  -5    2.34    1.82
  -4  12  -5   10.71    2.25
  -3  12  -5    0.10    1.58
  -2  12  -5    6.39    2.44
  -1  12  -5    1.31    1.72
 -10  13  -5   -1.29    2.22
  -9  13  -5    7.90    2.32
  -8  13  -5    1.22    1.85
  -7  13  -5    0.33    1.72
  -6  13  -5    2.87    2.15
  -5  13  -5    1.03    1.73
  -4  13  -5   21.55    3.20
  -3  13  -5    1.47    1.99
  -8  14  -5    0.11    3.05
   3 -14  -4   11.13    4.78
   4 -14  -4    1.55    2.14
   5 -14  -4    0.95    2.50
   6 -14  -4   -0.60    2.41
   7 -14  -4   12.73    4.40
   8 -14  -4   27.69    6.56
   9 -14  -4   13.11    4.69
  10 -14  -4    1.76    2.72
  11 -14  -4    1.22    2.84
   1 -13  -4    4.04    2.39
   2 -13  -4    1.07    2.12
   3 -13  -4    6.84    2.55
   4 -13  -4   20.48    3.95
   5 -13  -4   28.44    4.50
   6 -13  -4    5.62    3.03
   7 -13  -4    0.86    2.30
   8 -13  -4    2.06    2.78
   9 -13  -4    3.83    2.09
  10 -13  -4    1.90    1.91
  11 -13  -4    0.56    1.88
  12 -13  -4    2.44    2.08
  -1 -12  -4    3.13    2.26
   0 -12  -4    4.61    2.52
   1 -12  -4   -0.68    1.72
   2 -12  -4    6.49    2.44
   3 -12  -4    1.49    1.76
   4 -12  -4    2.74    1.85
   5 -12  -4    4.92    2.14
   6 -12  -4    1.75    2.03
   7 -12  -4    2.36    1.70
   8 -12  -4    2.36    1.76
   9 -12  -4   -0.31    1.36
  10 -12  -4  104.66    8.14
  11 -12  -4    5.43    2.22
  12 -12  -4    3.40    1.87
  13 -12  -4    3.77    3.18
  -2 -11  -4    0.94    2.03
  -1 -11  -4    2.85    2.10
   0 -11  -4    1.53    1.73
   1 -11  -4    8.64    2.41
   2 -11  -4   37.89    4.76
   3 -11  -4   18.00    3.33
   4 -11  -4    0.26    1.30
   5 -11  -4   25.29    2.95
   6 -11  -4   49.96    4.98
   7 -11  -4   27.04    3.71
   8 -11  -4    1.02    1.45
   9 -11  -4    0.52    1.49
  10 -11  -4    0.80    1.35
  11 -11  -4   -0.74    1.30
  12 -11  -4    0.80    1.62
  13 -11  -4    1.00    2.37
  -4 -10  -4    0.85    3.63
  -3 -10  -4    0.90    1.93
  -2 -10  -4  107.03    8.33
  -1 -10  -4    0.94    1.48
   0 -10  -4    2.09    1.49
   1 -10  -4    4.66    1.82
   2 -10  -4    5.27    1.90
   3 -10  -4    0.00    1.21
   4 -10  -4    3.37    1.18
   5 -10  -4    1.59    1.12
   6 -10  -4  100.75    6.43
   7 -10  -4   21.74    3.38
   8 -10  -4    2.51    1.45
   9 -10  -4    5.56    1.84
  10 -10  -4    0.13    1.27
  11 -10  -4    9.37    2.53
  12 -10  -4    3.18    2.84
  13 -10  -4    1.55    2.80
  14 -10  -4    2.20    4.30
  -5  -9  -4   11.73    5.19
  -4  -9  -4    5.20    2.25
  -3  -9  -4    0.50    1.65
  -2  -9  -4    1.43    1.57
  -1  -9  -4   10.60    2.41
   0  -9  -4    3.70    1.57
   1  -9  -4   10.16    2.36
   2  -9  -4   72.69    4.17
   3  -9  -4   79.08    4.89
   4  -9  -4   -0.90    0.72
   5  -9  -4   16.23    2.14
   6  -9  -4    1.47    1.10
   7  -9  -4    6.66    2.07
   8  -9  -4    6.70    1.91
   9  -9  -4    3.98    1.61
  10  -9  -4    4.98    1.76
  11  -9  -4   32.24    4.19
  12  -9  -4    4.77    2.62
  13  -9  -4   20.38    6.05
  14  -9  -4    0.17    2.66
  -6  -8  -4   17.20    5.40
  -5  -8  -4    2.08    2.25
  -4  -8  -4    3.05    1.87
  -3  -8  -4    8.12    2.41
  -2  -8  -4    0.47    1.31
  -1  -8  -4    5.12    1.91
   0  -8  -4   49.87    4.87
   1  -8  -4   16.50    2.14
   2  -8  -4    1.41    0.84
   3  -8  -4    0.39    0.75
   4  -8  -4   19.36    2.23
   5  -8  -4   28.25    2.54
   6  -8  -4   29.68    2.72
   7  -8  -4   61.95    4.15
   8  -8  -4   54.12    3.95
   9  -8  -4   12.42    1.92
  10  -8  -4    8.82    1.77
  11  -8  -4   18.75    3.33
  12  -8  -4   -0.39    1.15
  13  -8  -4   25.54    4.02
  14  -8  -4    2.12    1.97
  -7  -7  -4    9.53    4.78
  -6  -7  -4    8.12    4.10
  -5  -7  -4    5.56    2.11
  -4  -7  -4   28.17    3.78
  -3  -7  -4   20.42    3.16
  -2  -7  -4    6.99    2.01
  -1  -7  -4   66.03    4.29
   0  -7  -4    1.75    0.87
   1  -7  -4   15.30    2.01
   2  -7  -4    5.02    1.20
   3  -7  -4    6.19    1.14
   4  -7  -4   71.35    3.38
   5  -7  -4    3.38    1.03
   6  -7  -4   52.14    3.60
   7  -7  -4    2.80    1.09
   8  -7  -4   11.71    1.77
   9  -7  -4   56.90    4.12
  10  -7  -4    1.66    1.30
  11  -7  -4    3.09    1.69
  12  -7  -4    5.90    2.14
  13  -7  -4   12.17    3.02
  14  -7  -4   12.33    3.36
  -8  -6  -4    6.62    3.76
  -7  -6  -4    5.53    3.61
  -6  -6  -4    3.34    1.78
  -5  -6  -4   45.65    4.83
  -4  -6  -4   96.81    7.00
  -3  -6  -4    2.55    1.10
  -2  -6  -4   27.34    2.76
  -1  -6  -4   54.48    3.80
   0  -6  -4    4.83    1.25
   1  -6  -4   79.11    3.84
   2  -6  -4   10.96    1.66
   3  -6  -4   72.41    3.32
   4  -6  -4   13.29    1.47
   5  -6  -4   21.97    2.23
   6  -6  -4    4.76    1.19
   7  -6  -4   14.64    1.89
   8  -6  -4    0.54    0.77
   9  -6  -4   76.41    4.16
  10  -6  -4    4.42    1.67
  11  -6  -4   24.25    3.68
  12  -6  -4    0.92    1.68
  13  -6  -4    9.35    2.64
  14  -6  -4   19.75    4.01
  -9  -5  -4    2.75    2.88
  -8  -5  -4   17.12    5.36
  -7  -5  -4    7.35    2.38
  -6  -5  -4   21.85    3.49
  -5  -5  -4    3.45    1.60
  -4  -5  -4   17.77    2.28
  -3  -5  -4   26.42    2.78
  -2  -5  -4    5.70    1.24
  -1  -5  -4   17.66    2.09
   0  -5  -4   10.83    1.60
   1  -5  -4   49.42    3.25
   2  -5  -4   31.42    2.52
   3  -5  -4   34.44    2.24
   4  -5  -4   21.60    2.15
   5  -5  -4   11.48    1.67
   6  -5  -4   83.99    3.66
   7  -5  -4    4.27    1.16
   8  -5  -4    1.70    0.91
   9  -5  -4    1.42    0.96
  10  -5  -4    4.61    1.44
  11  -5  -4   38.30    4.73
  12  -5  -4    6.28    2.14
  13  -5  -4    0.71    1.58
  14  -5  -4   13.34    3.34
 -10  -4  -4    0.05    3.35
  -9  -4  -4   19.28    5.52
  -8  -4  -4    1.11    1.67
  -7  -4  -4    1.84    1.47
  -6  -4  -4    6.14    1.54
  -5  -4  -4   -0.22    0.82
  -4  -4  -4   19.87    2.37
  -3  -4  -4   83.55    4.05
  -2  -4  -4   11.79    1.70
  -1  -4  -4   23.92    2.36
   0  -4  -4   13.75    1.67
   1  -4  -4   17.43    1.82
   2  -4  -4  137.57    4.46
   3  -4  -4  144.95    3.95
   4  -4  -4   12.77    1.64
   5  -4  -4   55.78    3.38
   6  -4  -4    6.77    1.30
   7  -4  -4    5.44    1.23
   8  -4  -4   19.84    2.45
   9  -4  -4   13.72    2.06
  10  -4  -4   95.32    5.31
  11  -4  -4   26.42    3.94
  12  -4  -4    1.01    1.55
  13  -4  -4    5.35    2.37
  14  -4  -4   -0.09    1.82
 -10  -3  -4    3.78    3.05
  -9  -3  -4    1.81    2.09
  -8  -3  -4   20.62    3.53
  -7  -3  -4    0.80    1.38
  -6  -3  -4   69.33    5.73
  -5  -3  -4    0.75    1.01
  -4  -3  -4    6.36    1.38
  -3  -3  -4   69.21    3.84
  -2  -3  -4   30.30    2.55
  -1  -3  -4  135.50    4.75
   0  -3  -4   43.85    2.85
   1  -3  -4    0.45    0.58
   2  -3  -4   56.74    2.56
   3  -3  -4   43.34    1.96
   4  -3  -4   15.70    1.82
   5  -3  -4   31.42    2.44
   6  -3  -4   71.81    3.59
   7  -3  -4   75.24    4.65
   8  -3  -4   29.29    2.88
   9  -3  -4    1.57    1.06
  10  -3  -4   22.58    2.82
  11  -3  -4    4.70    1.55
  12  -3  -4   -1.55    1.33
  13  -3  -4    6.60    3.44
 -11  -2  -4    0.65    2.55
 -10  -2  -4    5.00    3.02
  -9  -2  -4   37.36    4.56
  -8  -2  -4    6.47    1.74
  -7  -2  -4   59.14    4.23
  -6  -2  -4   -0.04    0.75
  -5  -2  -4    4.73    1.19
  -4  -2  -4    8.10    1.24
  -3  -2  -4   33.87    1.99
  -2  -2  -4  138.32    4.16
  -1  -2  -4   50.33    2.85
   0  -2  -4    2.30    0.71
   1  -2  -4   15.71    1.48
   2  -2  -4    3.34    0.65
   3  -2  -4    0.99    0.67
   4  -2  -4  129.92    4.50
   5  -2  -4   33.41    2.50
   6  -2  -4   12.03    1.78
   7  -2  -4    5.93    1.40
   8  -2  -4   30.00    2.98
   9  -2  -4    9.75    1.84
  10  -2  -4    1.75    1.24
  11  -2  -4    1.33    1.21
  12  -2  -4   93.80    8.05
  13  -2  -4    1.11    2.57
 -12  -1  -4    7.24    5.22
 -11  -1  -4   -1.44    1.89
 -10  -1  -4   11.40    2.01
  -9  -1  -4    4.80    1.56
  -8  -1  -4   12.09    2.07
  -7  -1  -4   20.74    2.43
  -6  -1  -4   12.27    1.76
  -5  -1  -4   78.11    3.81
  -4  -1  -4   57.04    3.00
  -3  -1  -4   12.89    1.44
  -2  -1  -4    2.25    0.59
  -1  -1  -4   15.92    0.99
   0  -1  -4    6.27    1.01
   1  -1  -4    7.30    1.03
   2  -1  -4   17.45    1.22
   3  -1  -4   55.43    2.85
   4  -1  -4  141.97    4.54
   5  -1  -4   25.93    2.97
   6  -1  -4   17.99    2.07
   7  -1  -4   52.15    3.94
   8  -1  -4   68.09    4.59
   9  -1  -4    7.80    1.74
  10  -1  -4    7.69    1.81
  11  -1  -4   -0.47    1.30
  12  -1  -4    1.26    1.70
 -12   0  -4    8.52    2.83
 -11   0  -4    0.06    1.34
 -10   0  -4    0.94    1.09
  -9   0  -4    2.16    1.26
  -8   0  -4   59.50    4.24
  -7   0  -4    1.54    1.00
  -6   0  -4    5.33    1.21
  -5   0  -4   11.02    1.53
  -4   0  -4   11.36    1.47
  -3   0  -4   42.66    2.38
  -2   0  -4    2.65    0.66
  -1   0  -4    7.00    0.79
   0   0  -4  957.22   15.77
   1   0  -4    4.94    0.75
   2   0  -4    2.33    0.51
   3   0  -4   41.56    2.38
   4   0  -4   15.47    1.58
   5   0  -4    9.34    1.51
   6   0  -4    2.67    1.10
   7   0  -4    2.93    1.11
   8   0  -4   61.57    4.47
   9   0  -4    1.77    1.43
  10   0  -4    0.34    1.35
  11   0  -4    0.20    1.66
  12   0  -4    8.24    2.73
 -13   1  -4    1.22    2.18
 -12   1  -4    1.59    2.01
 -11   1  -4   -1.25    1.19
 -10   1  -4   11.95    2.19
  -9   1  -4    7.17    1.65
  -8   1  -4   66.19    4.38
  -7   1  -4   53.55    3.76
  -6   1  -4   19.45    2.19
  -5   1  -4   26.93    2.37
  -4   1  -4  138.02    4.52
  -3   1  -4   52.04    1.91
  -2   1  -4   17.80    1.58
  -1   1  -4    4.88    0.76
   0   1  -4    6.15    0.94
   1   1  -4   17.26    1.31
   2   1  -4    2.89    0.58
   3   1  -4   13.28    1.43
   4   1  -4   61.18    3.89
   5   1  -4   76.38    4.10
   6   1  -4   12.07    1.89
   7   1  -4   14.71    2.13
   8   1  -4   12.83    2.70
   9   1  -4    5.16    2.05
  10   1  -4   17.94    3.46
  11   1  -4    1.31    1.52
  12   1  -4    3.05    2.41
 -13   2  -4    3.18    2.29
 -12   2  -4  102.94    6.76
 -11   2  -4   -0.25    1.20
 -10   2  -4    2.27    1.23
  -9   2  -4    7.59    1.75
  -8   2  -4   27.81    2.87
  -7   2  -4    5.58    1.29
  -6   2  -4   13.57    1.81
  -5   2  -4   31.04    2.52
  -4   2  -4  132.66    3.61
  -3   2  -4    2.22    0.57
  -2   2  -4    1.74    0.65
  -1   2  -4   15.47    1.54
   0   2  -4    2.05    0.55
   1   2  -4   56.18    2.61
   2   2  -4  139.14    4.21
   3   2  -4   36.23    2.93
   4   2  -4    8.99    1.49
   5   2  -4    4.22    1.20
   6   2  -4    0.64    1.06
   7   2  -4   63.04    5.72
   8   2  -4    9.52    2.42
   9   2  -4   36.37    3.87
  10   2  -4    7.40    2.02
  11   2  -4    1.64    1.84
 -14   3  -4    2.16    3.43
 -13   3  -4    4.41    1.86
 -12   3  -4    0.45    1.21
 -11   3  -4    4.41    1.60
 -10   3  -4   20.10    2.72
  -9   3  -4    2.30    1.21
  -8   3  -4   31.13    3.13
  -7   3  -4   79.00    3.96
  -6   3  -4   69.97    3.76
  -5   3  -4   33.86    2.76
  -4   3  -4   16.07    1.42
  -3   3  -4   40.66    2.11
  -2   3  -4   53.82    2.49
  -1   3  -4    3.31    0.83
   0   3  -4   44.14    2.49
   1   3  -4  142.67    3.86
   2   3  -4   34.79    2.73
   3   3  -4   69.21    3.69
   4   3  -4    9.74    1.57
   5   3  -4   -0.25    0.89
   6   3  -4   79.62    6.41
   7   3  -4    1.07    1.43
   8   3  -4   19.61    2.82
   9   3  -4    0.64    1.25
  10   3  -4    7.08    2.20
 -14   4  -4    1.26    2.27
 -13   4  -4    7.26    2.20
 -12   4  -4    0.34    1.30
 -11   4  -4   27.86    3.44
 -10   4  -4   96.82    5.99
  -9   4  -4   14.03    2.16
  -8   4  -4   14.11    2.03
  -7   4  -4    5.54    1.68
  -6   4  -4    7.39    1.82
  -5   4  -4   51.87    2.94
  -4   4  -4   14.17    1.59
  -3   4  -4  141.06    4.61
  -1   4  -4   17.34    2.26
   0   4  -4   17.07    1.46
   1   4  -4   29.11    1.93
   2   4  -4   10.48    1.53
   3   4  -4   69.03    5.27
   4   4  -4   17.54    2.79
   5   4  -4    0.00    0.88
   6   4  -4    4.38    1.47
   7   4  -4    0.71    1.10
   8   4  -4    0.03    1.08
   9   4  -4   17.01    2.75
  10   4  -4    2.59    1.66
 -14   5  -4   11.41    2.71
 -13   5  -4    0.75    1.49
 -12   5  -4    3.59    1.63
 -11   5  -4   54.04    4.58
 -10   5  -4    4.29    1.34
  -9   5  -4    0.46    1.20
  -8   5  -4    0.73    1.15
  -7   5  -4    5.72    1.75
  -6   5  -4   83.66    4.11
  -5   5  -4    9.69    1.19
  -4   5  -4   20.52    1.75
  -3   5  -4   34.31    2.56
  -2   5  -4   28.74    2.87
  -1   5  -4   56.82    3.46
   0   5  -4    9.40    1.45
   1   5  -4   22.61    2.94
   2   5  -4    5.90    1.31
   3   5  -4   27.74    2.86
   4   5  -4   14.30    2.16
   5   5  -4    2.32    1.16
   6   5  -4   20.44    2.63
   7   5  -4    2.96    1.39
   8   5  -4   27.64    3.36
   9   5  -4    0.45    1.55
 -14   6  -4   20.39    3.20
 -13   6  -4    4.08    1.88
 -12   6  -4    2.04    1.33
 -11   6  -4   21.23    3.78
 -10   6  -4    1.36    1.36
  -9   6  -4   67.51    6.08
  -8   6  -4    0.55    1.00
  -7   6  -4   14.00    1.97
  -6   6  -4    6.25    1.37
  -5   6  -4   18.25    1.69
  -4   6  -4   14.00    1.47
  -3   6  -4   66.26    3.52
  -2   6  -4    5.83    1.18
  -1   6  -4   83.03    3.03
   0   6  -4    2.34    0.96
   1   6  -4   58.43    3.90
   2   6  -4   26.34    2.68
   3   6  -4    2.35    1.11
   4   6  -4   94.09    5.78
   5   6  -4   44.98    4.04
   6   6  -4    3.14    1.45
   7   6  -4    9.42    2.20
   8   6  -4   -0.13    1.83
 -14   7  -4   13.07    2.85
 -13   7  -4    6.52    2.03
 -12   7  -4    4.35    2.12
 -11   7  -4    0.22    1.37
 -10   7  -4    1.68    1.73
  -9   7  -4   68.84    6.22
  -8   7  -4   15.83    2.30
  -7   7  -4    3.56    1.22
  -6   7  -4   51.19    3.68
  -5   7  -4    6.58    1.30
  -4   7  -4   80.04    3.17
  -3   7  -4    6.08    1.01
  -2   7  -4    5.59    1.05
  -1   7  -4   14.68    1.89
   0   7  -4    2.98    1.05
   1   7  -4   63.11    5.39
   2   7  -4   11.88    2.50
   3   7  -4   16.76    2.99
   4   7  -4   23.12    3.68
   5   7  -4    5.52    2.18
   6   7  -4    4.56    2.17
   7   7  -4   10.17    2.88
 -14   8  -4    2.58    1.83
 -13   8  -4   28.27    4.70
 -12   8  -4    0.91    1.73
 -11   8  -4   22.71    3.98
 -10   8  -4    5.21    2.12
  -9   8  -4   10.30    2.60
  -8   8  -4   53.05    4.28
  -7   8  -4   62.10    4.43
  -6   8  -4   19.95    3.06
  -5   8  -4   29.87    2.78
  -4   8  -4   22.05    2.36
  -3   8  -4    0.79    0.81
  -2   8  -4    1.45    0.84
  -1   8  -4   11.60    2.19
   0   8  -4   45.60    4.61
   1   8  -4   12.11    2.59
   2   8  -4   -0.41    1.16
   3   8  -4    1.15    1.42
   4   8  -4    0.37    1.46
   5   8  -4    1.98    1.82
   6   8  -4   24.76    4.28
 -14   9  -4    1.34    2.19
 -13   9  -4   19.18    4.26
 -12   9  -4    0.69    1.80
 -11   9  -4   26.63    4.38
 -10   9  -4    5.47    2.09
  -9   9  -4    0.83    1.25
  -8   9  -4    8.08    1.69
  -7   9  -4    8.63    2.11
  -6   9  -4    3.27    1.48
  -5   9  -4   15.81    2.18
  -4   9  -4   -0.29    0.89
  -3   9  -4   76.34    5.83
  -2   9  -4   65.95    4.41
  -1   9  -4    7.71    1.66
   0   9  -4    1.05    1.15
   1   9  -4    5.89    2.02
   2   9  -4    1.86    1.33
   3   9  -4    1.23    1.53
   4   9  -4    8.20    2.66
   5   9  -4   12.66    3.34
 -14  10  -4    0.16    2.29
 -13  10  -4    5.56    2.85
 -12  10  -4    6.63    2.69
 -11  10  -4   14.84    3.58
 -10  10  -4    1.92    1.72
  -9  10  -4    9.73    1.95
  -8  10  -4   -0.63    1.18
  -7  10  -4   19.70    3.42
  -6  10  -4   80.15    6.43
  -5  10  -4    4.77    1.38
  -4  10  -4    2.37    1.47
  -3  10  -4    0.88    1.26
  -2  10  -4    5.39    1.86
  -1  10  -4    7.41    1.80
   0  10  -4    1.45    1.13
   1  10  -4   -0.14    1.17
   2  10  -4   84.43    7.42
   3  10  -4    2.80    1.92
   4  10  -4    1.42    1.89
 -13  11  -4    1.82    2.13
 -12  11  -4    1.52    1.93
 -11  11  -4    2.34    2.31
 -10  11  -4   -0.26    1.28
  -9  11  -4    1.39    1.23
  -8  11  -4    2.87    1.71
  -7  11  -4   32.53    4.53
  -6  11  -4   46.43    5.23
  -5  11  -4   22.05    2.80
  -4  11  -4    3.85    1.71
  -3  11  -4   19.96    3.34
  -2  11  -4   35.35    4.52
  -1  11  -4   14.34    3.10
   0  11  -4    1.91    1.43
   1  11  -4    3.72    1.61
   2  11  -4    0.44    1.35
   3  11  -4    3.00    3.17
 -13  12  -4    3.62    2.72
 -12  12  -4    3.67    2.31
 -11  12  -4    4.15    2.29
 -10  12  -4   89.64    6.56
  -9  12  -4    1.00    1.67
  -8  12  -4    0.86    1.43
  -7  12  -4    4.04    1.95
  -6  12  -4    3.14    1.90
  -5  12  -4    4.12    1.57
  -4  12  -4    0.54    1.51
  -3  12  -4    0.18    1.50
  -2  12  -4    4.96    2.10
  -1  12  -4    2.16    1.73
   0  12  -4    4.19    2.23
   1  12  -4   -0.67    2.07
 -12  13  -4    0.27    2.93
 -11  13  -4    0.90    1.61
 -10  13  -4    4.52    1.84
  -9  13  -4    6.33    2.63
  -8  13  -4    3.95    2.23
  -7  13  -4    4.97    2.26
  -6  13  -4   10.46    2.80
  -5  13  -4   26.53    3.32
  -4  13  -4   29.38    4.45
  -3  13  -4    5.30    2.34
  -2  13  -4    0.49    1.74
  -1  13  -4    2.89    3.42
 -11  14  -4    0.95    2.61
 -10  14  -4    2.19    1.98
  -9  14  -4   10.15    3.22
  -8  14  -4   18.35    3.72
  -7  14  -4    7.36    2.87
  -6  14  -4    0.50    1.80
  -5  14  -4    2.18    1.69
  -4  14  -4    1.40    1.79
  -3  14  -4   12.16    5.24
   5 -15  -3    7.08    3.69
   6 -15  -3   14.60    3.71
   7 -15  -3   -0.50    2.04
   8 -15  -3    8.49    4.31
   2 -14  -3    7.05    2.76
   3 -14  -3    2.40    2.10
   4 -14  -3    1.07    1.84
   5 -14  -3   10.21    2.93
   6 -14  -3   15.07    3.48
   7 -14  -3   51.36    6.11
   8 -14  -3    3.78    2.85
   9 -14  -3    0.73    2.31
  10 -14  -3   16.81    4.87
  11 -14  -3   -0.48    1.66
  12 -14  -3    7.57    2.65
   0 -13  -3   -1.33    2.27
   1 -13  -3    7.20    2.67
   2 -13  -3   30.12    4.57
   3 -13  -3   35.28    4.92
   4 -13  -3    5.50    2.21
   5 -13  -3    0.31    1.59
   6 -13  -3    5.14    2.05
   7 -13  -3   24.14    3.99
   8 -13  -3   -2.03    1.75
   9 -13  -3    5.61    2.07
  10 -13  -3   21.26    3.70
  11 -13  -3    7.98    2.49
  12 -13  -3   13.25    2.95
  13 -13  -3   -0.58    1.56
  -1 -12  -3    6.73    4.10
   0 -12  -3   19.70    3.68
   1 -12  -3   -0.95    1.45
   2 -12  -3   12.65    2.93
   3 -12  -3    1.48    1.56
   4 -12  -3   14.36    3.17
   5 -12  -3    0.33    1.31
   6 -12  -3    9.39    2.46
   7 -12  -3   19.44    2.63
   8 -12  -3   11.34    2.58
   9 -12  -3    3.52    1.59
  10 -12  -3    1.51    1.44
  11 -12  -3   18.12    3.34
  12 -12  -3    6.38    2.23
  13 -12  -3   11.21    2.77
  14 -12  -3    8.57    5.39
  -3 -11  -3    1.45    3.24
  -2 -11  -3   12.45    4.83
  -1 -11  -3   18.11    3.68
   0 -11  -3   15.22    2.86
   1 -11  -3    8.32    2.42
   2 -11  -3    3.19    1.72
   3 -11  -3   55.63    5.59
   4 -11  -3   17.93    3.27
   5 -11  -3   23.59    3.69
   6 -11  -3    5.10    1.49
   7 -11  -3   10.91    1.94
   8 -11  -3   13.55    2.72
   9 -11  -3   29.50    3.98
  10 -11  -3   12.08    2.64
  11 -11  -3   12.60    2.71
  12 -11  -3   -0.40    1.36
  13 -11  -3   29.32    4.11
  14 -11  -3    2.89    3.08
  -4 -10  -3   12.81    5.24
  -3 -10  -3   15.63    5.44
  -2 -10  -3    1.24    1.72
  -1 -10  -3   16.10    2.83
   0 -10  -3   34.35    4.23
   1 -10  -3   53.85    5.33
   2 -10  -3   15.05    2.91
   3 -10  -3   19.54    2.99
   4 -10  -3    6.74    1.53
   5 -10  -3    2.27    1.05
   6 -10  -3   15.53    2.11
   7 -10  -3    7.85    1.68
   8 -10  -3   19.26    3.10
   9 -10  -3   36.20    4.23
  10 -10  -3   31.38    4.09
  11 -10  -3   10.75    2.56
  12 -10  -3    9.15    2.58
  13 -10  -3   32.03    7.05
  14 -10  -3    0.92    2.95
  -5  -9  -3    2.37    3.09
  -4  -9  -3    9.33    4.15
  -3  -9  -3    5.25    1.98
  -2  -9  -3   31.77    3.97
  -1  -9  -3   26.74    3.52
   0  -9  -3    7.59    1.98
   1  -9  -3   76.73    5.87
   2  -9  -3    3.36    1.44
   3  -9  -3    4.18    1.19
   4  -9  -3    4.28    1.23
   5  -9  -3  130.36    5.07
   6  -9  -3   45.74    3.39
   7  -9  -3    4.47    1.27
   8  -9  -3    3.16    1.46
   9  -9  -3    7.31    2.09
  10  -9  -3   58.70    5.35
  11  -9  -3    1.81    1.49
  12  -9  -3    2.37    2.13
  13  -9  -3   13.42    4.80
  14  -9  -3    8.89    4.05
  15  -9  -3   14.54    5.79
  -7  -8  -3    2.06    3.43
  -6  -8  -3   -0.79    2.39
  -5  -8  -3   -0.57    2.07
  -4  -8  -3   11.85    2.74
  -3  -8  -3   13.12    2.75
  -2  -8  -3   27.77    3.60
  -1  -8  -3    3.44    1.53
   0  -8  -3    1.30    1.16
   1  -8  -3   65.22    3.66
   2  -8  -3   59.90    3.41
   3  -8  -3  100.54    4.25
   4  -8  -3    4.69    1.22
   5  -8  -3   23.50    2.46
   6  -8  -3    0.08    0.62
   7  -8  -3    7.85    1.47
   8  -8  -3   -0.35    0.68
   9  -8  -3   92.00    4.35
  10  -8  -3   17.18    2.21
  11  -8  -3   63.23    4.44
  12  -8  -3    7.59    2.36
  13  -8  -3   -0.36    1.21
  14  -8  -3   10.31    2.98
  15  -8  -3    6.18    2.44
  -8  -7  -3    1.69    3.30
  -7  -7  -3   45.88    8.29
  -6  -7  -3   27.27    6.30
  -5  -7  -3   15.11    3.02
  -4  -7  -3   11.15    2.36
  -3  -7  -3    6.40    1.89
  -2  -7  -3    2.73    1.14
  -1  -7  -3    6.70    1.26
   0  -7  -3    8.17    1.18
   1  -7  -3  102.40    3.43
   2  -7  -3   34.45    2.25
   3  -7  -3  110.48    3.02
   4  -7  -3   38.64    2.39
   5  -7  -3   33.74    2.31
   6  -7  -3  175.06    4.78
   7  -7  -3    7.72    1.37
   8  -7  -3   73.85    4.03
   9  -7  -3    4.96    1.24
  10  -7  -3   22.26    2.58
  11  -7  -3   12.25    2.52
  12  -7  -3    0.18    1.26
  13  -7  -3    4.17    1.91
  14  -7  -3   51.68    6.04
  15  -7  -3    8.48    2.96
  -9  -6  -3   12.17    5.09
  -8  -6  -3   13.20    4.96
  -7  -6  -3    6.46    3.12
  -6  -6  -3    8.57    2.02
  -5  -6  -3    2.83    1.23
  -4  -6  -3   21.05    2.48
  -3  -6  -3   40.48    3.22
  -2  -6  -3    0.20    0.61
  -1  -6  -3  163.88    4.66
   0  -6  -3   34.89    2.24
   1  -6  -3   54.65    2.50
   2  -6  -3   13.11    1.28
   3  -6  -3   34.01    2.14
   4  -6  -3   62.23    2.69
   5  -6  -3   25.22    1.88
   6  -6  -3   35.87    2.23
   7  -6  -3  113.78    4.26
   8  -6  -3   57.34    3.74
   9  -6  -3    5.37    1.33
  10  -6  -3    5.82    1.87
  11  -6  -3   28.42    3.74
  12  -6  -3   11.90    2.81
  13  -6  -3   38.84    4.90
  14  -6  -3    3.85    2.24
  15  -6  -3    1.14    2.03
  -9  -5  -3   19.29    5.63
  -8  -5  -3    0.65    1.52
  -7  -5  -3    0.29    1.41
  -6  -5  -3   33.30    3.26
  -5  -5  -3    2.51    1.12
  -4  -5  -3  118.28    4.06
  -3  -5  -3   19.98    1.88
  -2  -5  -3   33.07    2.23
  -1  -5  -3   23.26    1.71
   0  -5  -3  100.79    3.11
   1  -5  -3   17.60    1.39
   2  -5  -3  122.18    4.13
   3  -5  -3    4.49    0.81
   4  -5  -3  138.46    3.78
   5  -5  -3  102.25    3.12
   6  -5  -3   53.15    3.33
   7  -5  -3   36.64    2.76
   8  -5  -3   99.18    3.56
   9  -5  -3    6.56    1.11
  10  -5  -3    1.88    1.30
  11  -5  -3    2.78    1.49
  12  -5  -3   13.15    2.94
  13  -5  -3   -0.37    1.32
  14  -5  -3    1.70    1.81
  15  -5  -3    8.23    4.15
 -10  -4  -3    0.41    1.88
  -9  -4  -3    7.02    2.57
  -8  -4  -3    5.38    2.07
  -7  -4  -3   15.71    2.25
  -6  -4  -3    4.05    1.25
  -5  -4  -3    5.65    1.28
  -4  -4  -3    3.27    0.84
  -3  -4  -3   37.56    2.35
  -2  -4  -3   68.05    2.52
  -1  -4  -3  142.81    3.76
   0  -4  -3   85.30    2.59
   1  -4  -3  137.61    3.27
   2  -4  -3    1.92    0.61
   3  -4  -3   38.99    1.96
   4  -4  -3   83.83    2.63
   5  -4  -3   15.02    1.20
   6  -4  -3   18.66    1.92
   7  -4  -3  116.75    3.67
   8  -4  -3    4.45    0.94
   9  -4  -3  139.99    5.18
  10  -4  -3   17.71    2.24
  11  -4  -3   10.60    2.50
  12  -4  -3   13.32    2.92
  13  -4  -3    4.48    2.19
  14  -4  -3   22.29    4.10
 -11  -3  -3    5.09    2.53
 -10  -3  -3   26.53    4.19
  -9  -3  -3    2.65    1.89
  -8  -3  -3   70.05    4.73
  -7  -3  -3   17.56    2.21
  -6  -3  -3    4.07    1.19
  -5  -3  -3  103.06    4.27
  -4  -3  -3  111.08    4.18
  -3  -3  -3   37.44    2.62
  -2  -3  -3    4.95    0.81
  -1  -3  -3   42.21    1.89
   0  -3  -3  198.02    4.24
   1  -3  -3   58.82    2.46
   2  -3  -3  122.75    3.68
   3  -3  -3  199.09    4.44
   4  -3  -3  135.85    3.23
   5  -3  -3  132.68    4.17
   6  -3  -3   32.51    2.41
   7  -3  -3   39.14    2.40
   8  -3  -3   21.67    2.27
   9  -3  -3   45.00    3.50
  10  -3  -3    5.93    1.50
  11  -3  -3   14.54    2.23
  12  -3  -3    5.55    2.08
  13  -3  -3   20.01    3.58
  14  -3  -3    2.35    2.82
 -12  -2  -3    8.07    2.78
 -11  -2  -3   18.62    3.65
 -10  -2  -3   13.88    3.14
  -9  -2  -3    2.89    1.27
  -8  -2  -3   16.27    2.24
  -7  -2  -3    4.90    1.30
  -6  -2  -3   55.52    3.69
  -5  -2  -3   37.83    2.90
  -4  -2  -3   11.76    1.50
  -3  -2  -3  126.64    4.01
  -2  -2  -3    2.51    0.66
  -1  -2  -3  127.53    3.12
   0  -2  -3  162.80    4.44
   1  -2  -3   11.04    1.14
   2  -2  -3  161.37    3.64
   3  -2  -3   55.83    2.57
   4  -2  -3    1.97    0.64
   5  -2  -3    2.43    0.70
   6  -2  -3   65.65    2.55
   7  -2  -3   30.02    2.65
   8  -2  -3    0.70    0.72
   9  -2  -3    4.90    1.25
  10  -2  -3   24.84    2.81
  11  -2  -3   28.60    3.02
  12  -2  -3    0.73    1.74
  13  -2  -3    5.92    3.40
 -12  -1  -3   15.54    3.64
 -11  -1  -3    1.57    1.96
 -10  -1  -3    7.44    2.23
  -9  -1  -3   55.49    4.29
  -8  -1  -3   81.02    4.89
  -7  -1  -3   66.61    4.13
  -6  -1  -3  107.16    4.24
  -5  -1  -3   50.42    3.22
  -4  -1  -3   16.03    1.61
  -3  -1  -3  132.66    4.04
  -2  -1  -3   61.74    2.30
  -1  -1  -3   11.07    0.87
   0  -1  -3   21.32    1.61
   1  -1  -3   20.12    1.28
   2  -1  -3   10.34    0.77
   3  -1  -3  119.80    3.78
   4  -1  -3   40.83    2.08
   5  -1  -3  142.74    3.72
   6  -1  -3   22.55    2.22
   7  -1  -3  172.61    5.83
   8  -1  -3    4.78    1.26
   9  -1  -3    2.53    1.10
  10  -1  -3   33.18    3.36
  11  -1  -3   12.24    2.81
  12  -1  -3   26.86    4.14
  13  -1  -3   11.28    4.33
 -13   0  -3    0.29    2.03
 -12   0  -3   12.26    3.26
 -11   0  -3   10.48    2.74
 -10   0  -3   23.60    2.88
  -9   0  -3    8.19    1.62
  -8   0  -3    0.27    0.79
  -7   0  -3    5.57    1.29
  -6   0  -3   35.21    2.77
  -5   0  -3  102.97    3.80
  -4   0  -3   84.17    3.19
  -3   0  -3  194.04    5.16
  -2   0  -3  164.71    3.28
  -1   0  -3   22.17    1.16
   0   0  -3   -0.25    0.34
   1   0  -3   22.10    1.17
   2   0  -3  163.27    3.37
   3   0  -3  197.52    5.04
   4   0  -3   83.75    2.51
   5   0  -3   99.79    3.90
   6   0  -3   34.79    2.79
   7   0  -3    5.98    1.37
   8   0  -3   -0.28    0.74
   9   0  -3    5.85    1.50
  10   0  -3   22.82    3.62
  11   0  -3   16.93    3.00
  12   0  -3   11.62    2.85
  13   0  -3    0.34    2.23
 -13   1  -3   14.89    3.58
 -12   1  -3   24.74    4.08
 -11   1  -3   15.90    2.49
 -10   1  -3   35.81    3.48
  -9   1  -3    1.28    1.00
  -8   1  -3    5.22    1.26
  -7   1  -3  169.10    5.73
  -6   1  -3   24.23    2.33
  -5   1  -3  136.51    4.51
  -4   1  -3   37.93    1.48
  -3   1  -3  126.89    2.99
  -2   1  -3   10.76    1.11
  -1   1  -3   22.80    1.53
   0   1  -3   22.45    1.53
   1   1  -3   10.05    0.87
   2   1  -3   61.60    2.31
   3   1  -3  131.00    3.31
   4   1  -3   17.04    1.83
   5   1  -3   48.76    3.26
   6   1  -3  106.94    4.26
   7   1  -3   70.56    3.98
   8   1  -3   82.68    6.52
   9   1  -3   52.87    5.32
  10   1  -3    9.09    1.98
  11   1  -3    1.57    1.62
  12   1  -3   11.95    3.15
 -14   2  -3    9.55    3.25
 -13   2  -3   10.70    3.00
 -12   2  -3    3.87    1.66
 -11   2  -3   20.82    2.67
 -10   2  -3   27.65    2.97
  -9   2  -3    3.38    1.19
  -8   2  -3    0.96    0.83
  -7   2  -3   31.32    2.67
  -6   2  -3   67.88    2.76
  -5   2  -3    5.55    0.80
  -4   2  -3    2.39    0.53
  -3   2  -3   58.23    1.99
  -2   2  -3  159.90    4.32
  -1   2  -3   12.19    1.47
   0   2  -3  163.91    4.37
   1   2  -3  127.16    3.68
   2   2  -3    2.33    0.51
   3   2  -3  126.56    4.18
   4   2  -3   16.08    1.81
   5   2  -3   38.37    2.87
   6   2  -3   66.67    3.74
   7   2  -3    5.81    1.86
   8   2  -3   19.24    2.53
   9   2  -3    4.81    1.53
  10   2  -3   10.38    2.15
  11   2  -3   25.42    4.19
  12   2  -3    8.41    2.91
 -14   3  -3    3.26    2.22
 -13   3  -3   27.66    4.48
 -12   3  -3    5.56    1.75
 -11   3  -3   11.92    2.15
 -10   3  -3    7.10    1.64
  -9   3  -3   40.15    3.40
  -8   3  -3   26.33    2.57
  -7   3  -3   35.25    3.50
  -6   3  -3   36.90    2.47
  -5   3  -3  126.63    3.08
  -4   3  -3  133.98    4.07
  -3   3  -3  192.97    5.23
   0   3  -3  189.77    6.44
   1   3  -3   36.41    1.65
   2   3  -3    5.47    0.71
   3   3  -3   36.72    2.55
   4   3  -3   99.83    3.88
   5   3  -3  112.17    5.70
   6   3  -3    3.86    1.26
   7   3  -3   15.39    2.34
   8   3  -3   68.68    5.00
   9   3  -3    4.89    1.57
  10   3  -3   37.81    3.91
  11   3  -3    4.09    2.27
 -14   4  -3   21.72    4.18
 -13   4  -3    6.66    1.92
 -12   4  -3   12.27    2.28
 -11   4  -3   13.22    2.32
 -10   4  -3   15.48    2.27
  -9   4  -3  124.76    6.46
  -8   4  -3    4.71    1.55
  -7   4  -3  109.79    4.17
  -6   4  -3   15.34    1.71
  -5   4  -3   17.06    1.29
  -4   4  -3   87.22    2.67
  -3   4  -3   37.40    2.15
  -1   4  -3  134.94    5.22
   0   4  -3   89.15    3.18
   1   4  -3  146.60    4.39
   2   4  -3   63.81    3.05
   3   4  -3   31.30    3.35
   4   4  -3    2.87    1.00
   5   4  -3    4.39    1.35
   6   4  -3    2.53    1.08
   7   4  -3   12.21    2.17
   8   4  -3    5.95    1.55
   9   4  -3   10.90    2.27
  10   4  -3    5.27    2.47
 -15   5  -3    6.33    4.40
 -14   5  -3    1.88    1.64
 -13   5  -3    0.17    1.29
 -12   5  -3   18.90    2.75
 -11   5  -3    5.36    2.11
 -10   5  -3    1.93    1.32
  -9   5  -3    5.30    1.80
  -8   5  -3  110.42    4.47
  -7   5  -3   38.62    2.99
  -6   5  -3   52.26    3.03
  -5   5  -3   99.99    3.05
  -4   5  -3  134.21    4.26
  -3   5  -3    3.99    0.82
  -2   5  -3  125.35    4.00
  -1   5  -3   15.66    1.68
   0   5  -3   98.30    3.07
   1   5  -3   22.13    1.69
   2   5  -3   29.47    2.57
   3   5  -3   20.55    2.28
   4   5  -3  127.40    5.06
   5   5  -3    2.20    1.04
   6   5  -3   21.65    2.72
   7   5  -3   -0.67    0.84
   8   5  -3    0.43    1.22
   9   5  -3    9.79    2.08
  10   5  -3    1.05    2.69
 -15   6  -3   -1.50    1.93
 -14   6  -3    4.63    1.84
 -13   6  -3   28.41    3.63
 -12   6  -3    4.25    2.04
 -11   6  -3   22.42    3.68
 -10   6  -3    2.67    1.55
  -9   6  -3    5.97    1.41
  -8   6  -3   53.51    3.79
  -7   6  -3  104.65    4.33
  -6   6  -3   36.27    2.85
  -5   6  -3   20.41    1.56
  -4   6  -3   66.32    2.50
  -3   6  -3   36.28    2.55
  -2   6  -3   13.82    1.37
  -1   6  -3   48.85    2.22
   0   6  -3   41.15    2.87
   1   6  -3  170.52    5.58
   2   6  -3    0.71    0.74
   3   6  -3   39.09    3.28
   4   6  -3   15.48    2.17
   5   6  -3    2.32    1.11
   6   6  -3    6.08    1.64
   7   6  -3    6.63    1.89
   8   6  -3   11.28    2.39
   9   6  -3   14.14    3.86
 -15   7  -3    6.53    2.29
 -14   7  -3   42.93    5.68
 -13   7  -3    2.19    1.78
 -12   7  -3   -0.21    1.38
 -11   7  -3   15.05    3.14
 -10   7  -3   19.19    3.33
  -9   7  -3    3.13    1.27
  -8   7  -3   64.95    4.39
  -7   7  -3    9.06    1.61
  -6   7  -3  166.47    5.31
  -5   7  -3   30.60    2.52
  -4   7  -3   32.70    2.14
  -3   7  -3  102.84    3.31
  -2   7  -3   36.96    2.29
  -1   7  -3  105.28    3.92
   0   7  -3    9.56    1.44
   1   7  -3    4.37    1.16
   2   7  -3    4.27    1.55
   3   7  -3    5.98    1.75
   4   7  -3    6.92    2.12
   5   7  -3   15.11    3.04
   6   7  -3   33.93    4.49
   7   7  -3   55.82    6.08
   8   7  -3    4.51    2.39
 -15   8  -3    6.76    2.85
 -14   8  -3   11.64    3.19
 -13   8  -3    0.22    1.55
 -12   8  -3    7.33    2.67
 -11   8  -3   64.54    6.50
 -10   8  -3   18.44    2.56
  -9   8  -3   82.06    5.29
  -8   8  -3    0.20    0.87
  -7   8  -3    2.73    1.34
  -6   8  -3    0.55    0.74
  -5   8  -3   22.18    2.26
  -4   8  -3    3.94    1.08
  -3   8  -3  103.08    4.15
  -2   8  -3   56.75    3.78
  -1   8  -3   68.03    4.19
   0   8  -3   -0.66    0.77
   1   8  -3    1.42    1.10
   2   8  -3   28.33    3.77
   3   8  -3   16.61    2.98
   4   8  -3    7.43    2.14
   5   8  -3   -0.27    1.26
   6   8  -3    1.56    1.85
   7   8  -3    5.06    2.43
 -15   9  -3    9.22    3.28
 -14   9  -3   20.85    4.23
 -13   9  -3    9.20    3.00
 -12   9  -3    2.91    2.21
 -11   9  -3    2.13    1.37
 -10   9  -3   52.95    4.65
  -9   9  -3    6.64    1.63
  -8   9  -3    1.46    1.20
  -7   9  -3    2.49    1.27
  -6   9  -3   45.16    3.35
  -5   9  -3  112.77    4.75
  -4   9  -3    7.83    1.89
  -3   9  -3    4.44    1.13
  -2   9  -3    3.73    1.19
  -1   9  -3   82.02    4.59
   0   9  -3    8.15    1.70
   1   9  -3   40.32    4.56
   2   9  -3   26.75    3.87
   3   9  -3    1.83    1.37
   4   9  -3    1.80    1.76
   5   9  -3    2.66    1.91
   6   9  -3    0.62    1.92
 -15  10  -3    3.30    3.46
 -14  10  -3    1.76    2.26
 -13  10  -3   35.95    5.53
 -12  10  -3   14.07    3.37
 -11  10  -3    7.77    2.04
 -10  10  -3   33.76    3.70
  -9  10  -3   36.64    4.36
  -8  10  -3   27.13    3.65
  -7  10  -3    6.43    2.02
  -6  10  -3   19.59    2.35
  -5  10  -3    1.26    0.93
  -4  10  -3    5.84    1.72
  -3  10  -3   23.62    3.34
  -2  10  -3   12.82    1.96
  -1  10  -3   54.20    4.28
   0  10  -3   28.44    3.25
   2  10  -3    2.85    1.75
   3  10  -3   13.51    2.92
   4  10  -3   19.22    3.76
 -14  11  -3    3.86    2.60
 -13  11  -3   21.97    4.25
 -12  11  -3    2.51    1.64
 -11  11  -3   14.18    2.68
 -10  11  -3   14.30    2.45
  -9  11  -3   27.89    4.11
  -8  11  -3   13.83    2.91
  -7  11  -3    9.25    2.38
  -6  11  -3    3.28    1.14
  -5  11  -3   21.45    2.39
  -4  11  -3   14.61    2.71
  -3  11  -3   65.78    5.76
  -2  11  -3    5.70    1.90
  -1  11  -3    8.06    1.83
   0  11  -3    9.26    1.85
   1  11  -3   23.03    3.07
   2  11  -3    2.85    1.39
   3  11  -3    0.42    1.36
 -14  12  -3   13.69    5.65
 -13  12  -3   13.92    3.73
 -12  12  -3    9.05    2.39
 -11  12  -3   23.77    3.37
 -10  12  -3    4.29    2.07
  -9  12  -3    3.41    1.83
  -8  12  -3   11.88    2.87
  -7  12  -3    9.29    2.35
  -6  12  -3   10.37    1.99
  -5  12  -3    0.51    0.97
  -4  12  -3   13.64    2.96
  -3  12  -3    2.15    1.69
  -2  12  -3    7.60    2.38
  -1  12  -3    0.24    1.57
   0  12  -3   10.36    2.85
   1  12  -3    9.74    2.34
   2  12  -3    8.89    2.95
 -13  13  -3   -1.14    1.65
 -12  13  -3    8.99    2.54
 -11  13  -3    5.10    1.87
 -10  13  -3   20.61    3.93
  -9  13  -3    5.79    2.38
  -8  13  -3    0.17    1.45
  -7  13  -3   35.41    4.86
  -6  13  -3    4.22    1.54
  -5  13  -3   -0.13    1.10
  -4  13  -3   11.83    2.98
  -3  13  -3   43.06    5.21
  -2  13  -3   25.44    4.20
  -1  13  -3   12.37    3.20
   0  13  -3    0.82    1.72
 -12  14  -3   12.95    5.08
 -11  14  -3    1.88    2.09
 -10  14  -3   14.89    3.53
  -9  14  -3    0.67    1.60
  -8  14  -3    4.13    2.10
  -7  14  -3   49.09    5.64
  -6  14  -3    9.12    2.08
  -5  14  -3   11.25    2.28
  -4  14  -3    2.33    1.99
  -3  14  -3    5.59    2.29
  -2  14  -3   10.92    4.93
 -10  15  -3    3.75    3.80
  -9  15  -3   -2.53    1.70
  -8  15  -3    6.50    2.83
  -7  15  -3    2.61    1.98
  -6  15  -3    6.54    2.41
  -5  15  -3    6.55    3.18
   3 -15  -2   -2.38    2.33
   4 -15  -2   10.84    3.18
   5 -15  -2    0.95    1.85
   6 -15  -2   16.87    3.71
   7 -15  -2    6.22    2.65
   8 -15  -2    1.55    1.98
   9 -15  -2    1.79    1.90
  10 -15  -2    1.46    2.65
   2 -14  -2    4.28    2.39
   3 -14  -2   -0.09    1.73
   4 -14  -2    3.72    2.16
   5 -14  -2    2.69    2.04
   6 -14  -2    2.10    1.82
   7 -14  -2   15.21    3.28
   8 -14  -2    5.45    2.31
   9 -14  -2   32.93    4.68
  10 -14  -2   60.52    8.64
  11 -14  -2    2.70    1.81
  12 -14  -2   11.37    2.96
  13 -14  -2    0.16    1.76
   0 -13  -2   37.99    8.04
   1 -13  -2    2.25    1.74
   2 -13  -2   48.21    5.35
   3 -13  -2    2.85    1.91
   4 -13  -2    2.29    1.77
   5 -13  -2   36.93    4.95
   6 -13  -2    5.10    2.18
   7 -13  -2   11.14    2.72
   8 -13  -2    4.71    2.02
   9 -13  -2    7.16    1.81
  10 -13  -2    2.68    1.60
  11 -13  -2    0.79    1.40
  12 -13  -2    2.31    1.75
  13 -13  -2   24.03    4.16
  14 -13  -2    6.69    2.49
  -2 -12  -2   22.82    6.90
  -1 -12  -2    5.37    4.25
   0 -12  -2    9.65    2.74
   1 -12  -2    2.52    1.58
   2 -12  -2    2.37    1.65
   3 -12  -2    6.36    2.16
   4 -12  -2    6.92    2.16
   5 -12  -2   10.47    2.48
   6 -12  -2   21.14    3.59
   7 -12  -2    2.70    1.63
   8 -12  -2   55.99    4.43
   9 -12  -2    6.55    1.75
  10 -12  -2   14.76    3.04
  11 -12  -2   17.31    3.20
  12 -12  -2   15.99    3.30
  13 -12  -2   -0.56    1.50
  14 -12  -2    5.41    2.35
  -4 -11  -2   -0.83    4.06
  -3 -11  -2    3.81    2.81
  -2 -11  -2   -1.23    2.06
  -1 -11  -2   19.49    3.44
   0 -11  -2    7.85    2.43
   1 -11  -2   21.78    2.84
   2 -11  -2    5.50    1.57
   3 -11  -2   22.32    2.75
   4 -11  -2  147.58    5.96
   5 -11  -2   10.03    1.80
   6 -11  -2    8.03    1.54
   7 -11  -2   79.08    4.53
   8 -11  -2    6.43    1.54
   9 -11  -2   -0.41    0.87
  10 -11  -2    3.36    1.63
  11 -11  -2    6.55    2.10
  12 -11  -2    3.42    1.77
  13 -11  -2   53.95    5.67
  14 -11  -2    0.07    1.40
  15 -11  -2   11.52    6.42
  -5 -10  -2    3.15    3.13
  -4 -10  -2   63.06   10.06
  -3 -10  -2   -0.05    1.65
  -2 -10  -2   10.55    2.40
  -1 -10  -2    2.08    1.18
   0 -10  -2   42.73    3.71
   1 -10  -2    0.23    0.93
   2 -10  -2   17.86    2.29
   3 -10  -2    2.37    1.11
   4 -10  -2    0.93    0.76
   5 -10  -2   12.79    1.64
   6 -10  -2  132.56    5.16
   7 -10  -2    0.80    0.83
   8 -10  -2  114.79    4.98
   9 -10  -2   38.94    3.46
  10 -10  -2   57.31    5.37
  11 -10  -2   18.02    3.07
  12 -10  -2    1.64    1.48
  13 -10  -2    0.81    1.43
  14 -10  -2    8.51    3.75
  15 -10  -2    0.00    2.22
  -6  -9  -2    0.48    2.45
  -5  -9  -2   26.28    3.98
  -4  -9  -2    8.39    2.54
  -3  -9  -2    4.72    1.95
  -2  -9  -2    0.79    1.03
  -1  -9  -2   38.69    3.40
   0  -9  -2   20.71    2.57
   1  -9  -2   12.72    1.91
   2  -9  -2    3.70    1.14
   3  -9  -2   73.84    3.15
   4  -9  -2   63.59    3.13
   5  -9  -2    6.68    1.34
   6  -9  -2   24.00    2.46
   7  -9  -2    3.79    1.19
   8  -9  -2   36.91    3.17
   9  -9  -2   23.88    2.61
  10  -9  -2   -0.54    0.83
  11  -9  -2    3.64    1.77
  12  -9  -2    3.18    1.66
  13  -9  -2    7.68    3.64
  14  -9  -2    2.07    3.03
  15  -9  -2    7.98    3.99
  -7  -8  -2    3.18    2.31
  -6  -8  -2    4.20    2.28
  -5  -8  -2    5.37    2.28
  -4  -8  -2   57.60    5.78
  -3  -8  -2    7.54    1.59
  -2  -8  -2  118.28    5.16
  -1  -8  -2   39.27    3.27
   0  -8  -2   94.81    4.15
   1  -8  -2    0.40    0.71
   2  -8  -2   25.77    1.98
   3  -8  -2   59.81    2.84
   4  -8  -2   35.78    2.34
   5  -8  -2   45.10    3.18
   6  -8  -2   50.50    3.44
   7  -8  -2   35.14    2.52
   8  -8  -2   98.04    3.43
   9  -8  -2   15.52    1.71
  10  -8  -2   17.25    2.11
  11  -8  -2   21.29    2.51
  12  -8  -2    5.73    1.49
  13  -8  -2   20.21    3.45
  14  -8  -2    2.34    1.74
  15  -8  -2    5.08    2.15
  -8  -7  -2    8.56    2.85
  -7  -7  -2   11.42    2.98
  -6  -7  -2   12.71    2.56
  -5  -7  -2    5.34    2.07
  -4  -7  -2   76.52    4.84
  -3  -7  -2    1.42    0.96
  -2  -7  -2    2.74    1.03
  -1  -7  -2   37.77    2.97
   0  -7  -2    4.98    0.86
   1  -7  -2   65.76    2.59
   2  -7  -2   89.96    3.02
   3  -7  -2   47.29    1.93
   4  -7  -2  141.33    3.41
   5  -7  -2   20.90    1.65
   6  -7  -2   54.47    2.53
   7  -7  -2    4.20    0.85
   8  -7  -2   -0.03    0.50
   9  -7  -2    3.01    0.94
  10  -7  -2    2.09    0.94
  11  -7  -2  151.67    5.74
  12  -7  -2   12.61    2.55
  13  -7  -2    8.80    2.52
  14  -7  -2   11.22    2.86
  15  -7  -2    0.44    1.53
  -9  -6  -2   12.90    3.26
  -8  -6  -2    1.61    1.66
  -7  -6  -2    2.40    1.64
  -6  -6  -2   28.50    4.07
  -5  -6  -2    5.47    1.39
  -4  -6  -2  122.93    4.97
  -3  -6  -2   26.27    2.51
  -2  -6  -2   50.68    3.34
  -1  -6  -2   52.01    2.48
   0  -6  -2   20.46    1.62
   1  -6  -2   56.67    2.36
   2  -6  -2    4.71    0.78
   3  -6  -2   63.23    1.98
   4  -6  -2   85.45    2.70
   5  -6  -2  222.45    5.09
   6  -6  -2   19.58    1.57
   7  -6  -2   60.66    2.61
   8  -6  -2   25.79    1.68
   9  -6  -2   69.58    3.77
  10  -6  -2    1.88    0.87
  11  -6  -2   11.88    2.46
  12  -6  -2   25.81    3.65
  13  -6  -2   11.78    2.85
  14  -6  -2    1.74    1.87
  15  -6  -2    1.04    1.70
 -10  -5  -2    0.48    2.19
  -9  -5  -2    2.87    2.01
  -8  -5  -2   29.58    4.32
  -7  -5  -2   13.79    2.87
  -6  -5  -2   12.22    2.11
  -5  -5  -2   11.66    1.81
  -4  -5  -2    9.13    1.49
  -3  -5  -2   44.14    2.18
  -2  -5  -2   23.83    1.73
  -1  -5  -2  219.37    5.03
   0  -5  -2   29.33    1.82
   1  -5  -2   88.78    2.66
   2  -5  -2   21.88    1.46
   3  -5  -2   56.23    2.00
   4  -5  -2   21.02    1.52
   5  -5  -2   29.97    1.84
   6  -5  -2   52.25    2.16
   7  -5  -2   94.04    2.62
   8  -5  -2   54.89    2.62
   9  -5  -2   57.30    3.08
  10  -5  -2    9.99    1.78
  11  -5  -2    8.96    2.09
  12  -5  -2    5.00    1.91
  13  -5  -2    7.59    2.42
  14  -5  -2   21.67    3.61
  15  -5  -2    1.91    1.87
 -11  -4  -2    7.77    2.86
 -10  -4  -2    1.78    1.85
  -9  -4  -2    7.12    2.40
  -8  -4  -2    5.35    1.97
  -7  -4  -2  155.01    7.69
  -6  -4  -2    0.91    0.87
  -5  -4  -2   51.71    3.47
  -4  -4  -2   32.22    2.09
  -3  -4  -2  145.11    3.42
  -2  -4  -2   81.33    2.67
  -1  -4  -2   21.74    1.53
   0  -4  -2   69.71    2.24
   1  -4  -2  131.20    3.18
   2  -4  -2   63.91    1.98
   3  -4  -2    3.05    0.54
   4  -4  -2   68.91    2.21
   5  -4  -2   88.33    2.58
   6  -4  -2    3.80    0.68
   7  -4  -2   45.58    2.46
   8  -4  -2   31.96    2.15
   9  -4  -2    7.53    1.14
  10  -4  -2  125.32    4.98
  11  -4  -2   94.28    6.00
  12  -4  -2   65.63    6.19
  13  -4  -2    5.48    2.02
  14  -4  -2   56.42    6.16
  15  -4  -2    0.31    2.75
 -12  -3  -2    1.87    2.74
 -11  -3  -2    0.44    1.69
 -10  -3  -2    3.07    2.03
  -9  -3  -2    2.94    1.75
  -8  -3  -2   21.71    3.45
  -7  -3  -2    0.86    0.71
  -6  -3  -2   70.86    3.77
  -5  -3  -2   67.73    3.47
  -4  -3  -2   48.25    2.20
  -3  -3  -2   63.42    2.16
  -2  -3  -2   56.21    1.99
  -1  -3  -2    5.59    0.73
   0  -3  -2   78.97    2.20
   1  -3  -2   23.75    1.12
   2  -3  -2  193.75    4.06
   3  -3  -2   79.74    2.26
   4  -3  -2  128.96    3.07
   5  -3  -2   23.16    1.24
   6  -3  -2   65.82    2.32
   7  -3  -2  149.27    3.95
   8  -3  -2   43.23    2.45
   9  -3  -2   28.82    2.70
  10  -3  -2    3.01    1.04
  11  -3  -2    4.45    1.71
  12  -3  -2   11.30    2.68
  13  -3  -2    1.75    1.56
  14  -3  -2    0.93    2.47
 -12  -2  -2    6.79    2.77
 -11  -2  -2   47.11    5.63
 -10  -2  -2    2.00    1.55
  -9  -2  -2    3.21    1.63
  -8  -2  -2   17.25    2.12
  -7  -2  -2    4.11    1.19
  -6  -2  -2   25.56    2.35
  -5  -2  -2   89.20    2.85
  -4  -2  -2    4.58    0.70
  -3  -2  -2   22.39    1.19
  -2  -2  -2   63.72    2.35
  -1  -2  -2  188.78    3.93
   0  -2  -2  430.11    7.31
   1  -2  -2  155.81    3.88
   2  -2  -2  418.75    7.39
   3  -2  -2   24.82    1.07
   4  -2  -2   63.05    2.35
   5  -2  -2   49.41    2.02
   6  -2  -2   83.12    2.60
   7  -2  -2   19.36    1.51
   8  -2  -2   50.14    3.47
   9  -2  -2    4.80    1.22
  10  -2  -2  130.47    5.17
  11  -2  -2    0.81    0.92
  12  -2  -2   10.48    2.59
  13  -2  -2   -1.07    1.96
  14  -2  -2   16.31    5.19
 -13  -1  -2    4.24    2.49
 -12  -1  -2    1.14    1.87
 -11  -1  -2    5.00    2.27
 -10  -1  -2   22.31    3.60
  -9  -1  -2    0.78    0.90
  -8  -1  -2   13.98    1.93
  -7  -1  -2    1.41    0.78
  -6  -1  -2   62.85    3.07
  -5  -1  -2   51.09    2.09
  -4  -1  -2   86.54    2.39
  -3  -1  -2  128.58    2.84
  -2  -1  -2   26.34    1.63
  -1  -1  -2  161.81    3.72
   0  -1  -2   91.58    2.54
   1  -1  -2   86.83    2.32
   2  -1  -2  161.29    4.01
   3  -1  -2  188.50    4.56
   4  -1  -2    5.37    0.67
   5  -1  -2   21.45    1.36
   6  -1  -2  214.51    4.78
   7  -1  -2   48.79    3.20
   8  -1  -2   33.75    2.85
   9  -1  -2   43.49    3.49
  10  -1  -2   35.12    3.19
  11  -1  -2    1.82    1.20
  12  -1  -2   19.14    3.19
  13  -1  -2    1.47    2.73
 -13   0  -2   24.25    4.22
 -12   0  -2    7.70    2.59
 -11   0  -2    8.91    2.52
 -10   0  -2   41.67    4.72
  -9   0  -2   22.28    2.47
  -8   0  -2   95.93    4.09
  -7   0  -2    6.25    1.21
  -6   0  -2   20.36    1.57
  -5   0  -2   27.87    1.53
  -4   0  -2   72.40    2.06
  -3   0  -2   79.90    2.69
  -2   0  -2  431.05    8.57
  -1   0  -2   87.08    2.31
   0   0  -2  221.44    4.80
   1   0  -2   88.83    2.01
   2   0  -2  421.39    8.54
   3   0  -2   82.14    2.15
   4   0  -2   72.42    1.98
   5   0  -2   24.97    2.07
   6   0  -2   20.70    2.00
   7   0  -2    6.33    1.24
   8   0  -2   94.62    4.12
   9   0  -2   25.80    2.74
  10   0  -2   44.86    3.75
  11   0  -2   13.26    2.91
  12   0  -2   13.80    2.93
  13   0  -2   22.75    5.77
 -14   1  -2   -0.51    1.88
 -13   1  -2    5.74    2.31
 -12   1  -2   15.52    3.18
 -11   1  -2    2.21    1.60
 -10   1  -2   42.58    3.49
  -9   1  -2   38.88    3.28
  -8   1  -2   34.71    2.90
  -7   1  -2   51.07    2.49
  -6   1  -2  214.98    4.97
  -5   1  -2   19.26    1.35
  -4   1  -2    5.92    0.68
  -3   1  -2  186.18    3.79
  -2   1  -2  156.20    3.22
  -1   1  -2   88.19    2.42
   0   1  -2   87.98    2.99
   1   1  -2  156.08    3.78
   2   1  -2   24.94    1.08
   3   1  -2  125.25    3.81
   4   1  -2   88.14    3.17
   5   1  -2   58.73    2.98
   6   1  -2   58.41    3.11
   7   1  -2   -0.31    0.55
   8   1  -2   13.08    1.93
   9   1  -2    1.06    0.94
  10   1  -2   20.57    3.37
  11   1  -2    3.39    1.82
  12   1  -2    0.73    1.69
  13   1  -2    2.28    2.97
 -14   2  -2   18.52    3.90
 -13   2  -2    0.60    1.57
 -12   2  -2   11.75    2.82
 -11   2  -2   -0.51    0.85
 -10   2  -2  133.00    5.29
  -9   2  -2    1.84    0.94
  -8   2  -2   44.26    2.49
  -7   2  -2   19.99    1.92
  -6   2  -2   85.55    3.08
  -5   2  -2   54.47    2.21
  -4   2  -2   64.57    2.30
  -3   2  -2   23.51    1.39
  -2   2  -2  425.18    8.61
   0   2  -2  417.90   10.63
   1   2  -2  182.73    4.67
   2   2  -2   65.54    1.72
   3   2  -2   23.85    1.78
   4   2  -2    3.79    0.78
   5   2  -2   94.15    3.49
   6   2  -2   25.55    2.25
   7   2  -2    3.55    1.12
   8   2  -2   16.18    2.16
   9   2  -2    5.62    1.50
  10   2  -2    1.86    1.52
  11   2  -2   44.77    5.41
  12   2  -2    3.61    2.02
 -15   3  -2   18.15    5.22
 -14   3  -2    2.00    1.78
 -13   3  -2    1.39    1.55
 -12   3  -2    7.14    1.78
 -11   3  -2    6.67    1.63
 -10   3  -2    1.69    1.03
  -9   3  -2   20.81    2.39
  -8   3  -2   42.78    2.97
  -7   3  -2  137.33    4.64
  -6   3  -2   62.44    2.70
  -5   3  -2   21.60    1.71
  -4   3  -2  134.55    3.02
  -3   3  -2   78.46    2.49
  -2   3  -2  182.53    7.95
   0   3  -2   82.33    2.62
   1   3  -2    4.80    0.77
   2   3  -2   52.83    2.19
   3   3  -2   62.83    2.47
   4   3  -2   50.56    2.29
   5   3  -2   52.47    3.43
   6   3  -2   65.06    4.15
   7   3  -2    1.77    0.91
   8   3  -2   18.50    2.45
   9   3  -2    2.70    1.21
  10   3  -2    1.71    1.51
  11   3  -2   -0.21    1.46
  12   3  -2    0.20    2.92
 -15   4  -2    0.06    1.89
 -14   4  -2   55.34    6.30
 -13   4  -2    6.64    2.40
 -12   4  -2   58.93    4.64
 -11   4  -2   80.00    6.47
 -10   4  -2  119.03    6.44
  -9   4  -2    8.44    1.51
  -8   4  -2   34.86    2.78
  -7   4  -2   48.68    2.85
  -6   4  -2    4.06    0.94
  -5   4  -2   89.32    2.63
  -4   4  -2   69.14    2.42
  -3   4  -2    4.60    0.75
  -2   4  -2   61.26    2.33
  -1   4  -2  133.98    3.73
   0   4  -2   72.26    2.18
   1   4  -2   23.26    1.43
   2   4  -2   81.47    2.44
   3   4  -2  142.32    4.78
   4   4  -2   31.87    2.67
   5   4  -2   56.93    3.76
   6   4  -2    0.45    0.72
   7   4  -2  155.76    6.04
   8   4  -2    3.13    1.35
   9   4  -2    6.58    1.73
  10   4  -2    5.58    2.17
  11   4  -2   10.57    3.12
 -15   5  -2   -0.85    1.74
 -14   5  -2   26.71    4.41
 -13   5  -2    5.45    1.69
 -12   5  -2    4.42    1.81
 -11   5  -2    7.24    2.05
 -10   5  -2    9.20    1.71
  -9   5  -2   52.08    3.68
  -8   5  -2   52.70    3.20
  -7   5  -2   93.74    3.83
  -6   5  -2   52.53    2.00
  -5   5  -2   29.72    1.76
  -4   5  -2   23.74    1.43
  -3   5  -2   51.71    2.07
  -2   5  -2   22.71    1.45
  -1   5  -2   87.01    2.94
   0   5  -2   28.39    1.45
   1   5  -2  215.43    4.83
   2   5  -2   19.93    1.91
   3   5  -2   43.70    3.09
   4   5  -2    4.62    1.17
   5   5  -2   14.60    2.08
   6   5  -2   11.07    1.76
   7   5  -2   17.16    2.42
   8   5  -2   36.56    3.63
   9   5  -2    1.67    1.30
  10   5  -2   -0.19    1.66
 -15   6  -2    0.03    1.77
 -14   6  -2    3.76    2.17
 -13   6  -2    9.01    2.57
 -12   6  -2   34.68    4.62
 -11   6  -2   10.79    1.98
 -10   6  -2    0.22    0.82
  -9   6  -2   65.77    4.28
  -8   6  -2   22.69    2.40
  -7   6  -2   56.50    3.30
  -6   6  -2   19.17    1.62
  -5   6  -2  221.61    4.72
  -4   6  -2   81.17    2.53
  -3   6  -2   65.40    2.60
  -2   6  -2    3.28    0.63
  -1   6  -2   51.07    2.51
   0   6  -2   20.10    1.79
   1   6  -2   56.33    2.92
   2   6  -2   44.26    3.05
   3   6  -2   25.05    2.49
   4   6  -2  122.74    4.95
   5   6  -2    9.39    1.75
   6   6  -2   33.86    3.33
   7   6  -2    9.16    2.03
   8   6  -2    2.25    1.43
   9   6  -2   16.56    5.05
 -15   7  -2    2.58    2.09
 -14   7  -2   17.05    3.56
 -13   7  -2    4.02    1.92
 -12   7  -2   18.19    3.38
 -11   7  -2  158.18    6.39
 -10   7  -2    3.64    1.23
  -9   7  -2    3.67    1.23
  -8   7  -2    0.51    0.73
  -7   7  -2    5.43    1.48
  -6   7  -2   47.57    2.70
  -5   7  -2   17.61    1.82
  -4   7  -2  143.58    4.29
  -3   7  -2   45.04    2.49
  -2   7  -2   85.56    3.48
  -1   7  -2   51.56    3.05
   0   7  -2    5.41    1.42
   1   7  -2   37.65    3.71
   2   7  -2    3.62    1.29
   3   7  -2    1.67    1.26
   4   7  -2   80.83    6.47
   5   7  -2    1.65    1.42
   6   7  -2   10.83    2.73
   7   7  -2   12.01    2.81
   8   7  -2    9.32    2.67
 -15   8  -2    5.93    2.69
 -14   8  -2   -0.18    1.61
 -13   8  -2   30.60    4.41
 -12   8  -2    5.81    1.69
 -11   8  -2   20.60    2.71
 -10   8  -2   19.66    2.59
  -9   8  -2   14.28    2.13
  -8   8  -2   93.53    5.31
  -7   8  -2   35.84    2.70
  -6   8  -2   51.74    3.36
  -5   8  -2   40.83    2.99
  -4   8  -2   32.45    2.35
  -3   8  -2   54.86    3.02
  -2   8  -2   24.90    2.31
  -1   8  -2    1.01    0.65
   0   8  -2  100.53    5.21
   1   8  -2   36.95    3.98
   2   8  -2  121.62    6.36
   3   8  -2    3.91    1.45
   4   8  -2   62.74    5.77
   5   8  -2    8.36    2.31
   6   8  -2    5.38    2.20
   7   8  -2    2.43    1.88
 -15   9  -2    9.83    2.68
 -14   9  -2    1.60    1.83
 -13   9  -2    9.99    2.99
 -12   9  -2    4.54    1.53
 -11   9  -2    2.91    1.33
 -10   9  -2    0.61    0.99
  -9   9  -2   19.44    3.15
  -8   9  -2   40.00    4.16
  -7   9  -2    6.06    1.27
  -6   9  -2   21.58    2.35
  -5   9  -2    8.10    1.42
  -4   9  -2   54.12    4.45
  -3   9  -2   68.97    3.41
  -2   9  -2    3.60    1.11
  -1   9  -2   12.47    1.80
   0   9  -2   25.31    2.68
   1   9  -2   43.01    3.74
   2   9  -2    0.03    1.08
   3   9  -2    6.72    1.89
   4   9  -2    6.17    1.94
   5   9  -2   31.94    4.65
   6   9  -2   -0.94    1.39
 -15  10  -2    1.18    2.20
 -14  10  -2    3.60    2.31
 -13  10  -2    2.26    1.53
 -12  10  -2    3.91    1.54
 -11  10  -2   23.59    3.14
 -10  10  -2   48.54    4.24
  -9  10  -2   49.85    5.14
  -8  10  -2  121.38    6.62
  -7  10  -2    3.41    1.15
  -6  10  -2  124.53    5.10
  -5  10  -2   10.82    1.71
  -4  10  -2    0.97    0.97
  -3  10  -2    0.40    0.93
  -2  10  -2   14.96    1.97
  -1  10  -2    0.72    0.88
   0  10  -2   46.30    3.78
   1  10  -2    3.40    1.19
   2  10  -2    9.89    1.96
   3  10  -2   -0.04    1.02
   4  10  -2   65.47    5.23
   5  10  -2    1.73    1.95
 -15  11  -2   14.58    5.18
 -14  11  -2    3.84    2.21
 -13  11  -2   46.60    4.81
 -12  11  -2    1.45    1.50
 -11  11  -2    7.35    1.95
 -10  11  -2    5.09    1.95
  -9  11  -2    1.27    1.34
  -8  11  -2    7.78    2.07
  -7  11  -2   82.27    4.64
  -6  11  -2    8.33    1.54
  -5  11  -2   13.29    2.47
  -4  11  -2  154.55    7.38
  -3  11  -2   18.73    2.90
  -2  11  -2    4.06    1.69
  -1  11  -2   18.85    2.42
   0  11  -2    8.36    1.92
   1  11  -2   20.50    2.87
   2  11  -2    0.74    1.16
   3  11  -2    2.92    1.57
   4  11  -2    0.49    1.49
 -15  12  -2    5.19    4.49
 -14  12  -2    7.62    2.41
 -13  12  -2   -1.44    1.11
 -12  12  -2   12.94    2.66
 -11  12  -2   16.69    2.77
 -10  12  -2    9.30    2.47
  -9  12  -2   11.20    2.79
  -8  12  -2   57.94    5.93
  -7  12  -2    3.29    1.27
  -6  12  -2   30.04    3.20
  -5  12  -2   16.29    2.97
  -4  12  -2    7.04    2.12
  -3  12  -2    3.86    1.73
  -2  12  -2    0.89    1.34
  -1  12  -2    1.97    1.57
   0  12  -2   12.66    2.31
   1  12  -2    4.20    1.47
   2  12  -2   17.39    2.88
   3  12  -2    8.30    3.40
 -14  13  -2    5.99    2.64
 -13  13  -2   26.22    3.84
 -12  13  -2    2.09    1.59
 -11  13  -2   -0.83    1.40
 -10  13  -2    1.61    1.65
  -9  13  -2    5.46    2.18
  -8  13  -2    9.23    2.72
  -7  13  -2   11.59    2.02
  -6  13  -2    3.43    1.35
  -5  13  -2   32.26    4.22
  -4  13  -2    3.95    1.85
  -3  13  -2    3.09    1.93
  -2  13  -2   64.20    6.36
  -1  13  -2   -0.02    1.70
   0  13  -2   34.05    4.72
   1  13  -2    1.26    2.96
 -13  14  -2    2.12    2.26
 -12  14  -2   13.01    2.87
 -11  14  -2    1.30    1.90
 -10  14  -2   57.63    6.35
  -9  14  -2   32.70    4.65
  -8  14  -2    6.71    2.49
  -7  14  -2   10.66    2.20
  -6  14  -2    3.62    1.44
  -5  14  -2    1.42    1.35
  -4  14  -2    7.00    2.42
  -3  14  -2    0.06    1.53
  -2  14  -2    6.57    2.55
  -1  14  -2    3.71    3.60
 -11  15  -2   -1.15    1.64
 -10  15  -2    2.60    2.19
  -9  15  -2    0.37    1.74
  -8  15  -2    0.52    1.75
  -7  15  -2   10.11    2.37
  -6  15  -2   11.44    2.35
  -5  15  -2    0.62    1.28
  -4  15  -2   13.68    3.66
   8 -16  -1   10.70    4.90
   9 -16  -1   24.17    6.78
  10 -16  -1   -2.15    2.84
   4 -15  -1    3.44    2.22
   5 -15  -1    4.89    2.22
   6 -15  -1   15.95    3.64
   7 -15  -1    3.85    2.21
   8 -15  -1    1.43    1.72
   9 -15  -1   -1.61    1.58
  10 -15  -1   10.57    3.09
  11 -15  -1    1.66    2.09
   1 -14  -1    0.27    3.15
   2 -14  -1    6.09    2.92
   3 -14  -1    4.57    1.80
   4 -14  -1    3.60    1.78
   5 -14  -1   24.93    3.31
   6 -14  -1    5.64    1.79
   7 -14  -1   57.90    6.19
   8 -14  -1    7.08    2.42
   9 -14  -1    6.00    2.26
  10 -14  -1   25.68    4.40
  11 -14  -1    3.64    2.20
  12 -14  -1   17.43    3.49
  13 -14  -1    0.20    1.54
  14 -14  -1   -0.90    2.73
  -1 -13  -1    1.07    2.05
   0 -13  -1    1.57    2.14
   1 -13  -1   25.86    4.38
   2 -13  -1   32.47    3.69
   3 -13  -1   20.13    3.00
   4 -13  -1   12.08    2.20
   5 -13  -1    2.73    1.33
   6 -13  -1    9.49    2.01
   7 -13  -1    7.27    2.18
   8 -13  -1    1.07    1.41
   9 -13  -1    4.91    2.10
  10 -13  -1   31.39    3.39
  11 -13  -1    6.62    1.89
  12 -13  -1    8.45    2.63
  13 -13  -1    0.54    1.55
  14 -13  -1    0.83    1.71
  -3 -12  -1    6.43    4.01
  -2 -12  -1   16.78    4.08
  -1 -12  -1    7.11    2.61
   0 -12  -1   18.76    3.69
   1 -12  -1    4.08    1.49
   2 -12  -1    3.26    1.47
   3 -12  -1    6.20    1.74
   4 -12  -1    3.42    1.36
   5 -12  -1    0.43    0.95
   6 -12  -1    3.35    1.35
   7 -12  -1   21.80    3.36
   8 -12  -1   15.66    2.38
   9 -12  -1    0.05    0.96
  10 -12  -1    0.96    1.08
  11 -12  -1   12.57    2.23
  12 -12  -1   16.02    2.86
  13 -12  -1   29.69    4.26
  14 -12  -1    8.33    2.75
  15 -12  -1    4.18    2.70
  -4 -11  -1    2.24    2.36
  -3 -11  -1    1.66    1.78
  -2 -11  -1    5.67    2.52
  -1 -11  -1   11.27    3.01
   0 -11  -1   17.82    2.51
   1 -11  -1   19.28    2.58
   2 -11  -1    8.89    1.78
   3 -11  -1   98.92    4.99
   4 -11  -1   26.47    2.88
   5 -11  -1   57.97    4.34
   6 -11  -1    0.14    0.65
   7 -11  -1   18.58    2.33
   8 -11  -1    9.81    1.76
   9 -11  -1    4.96    1.45
  10 -11  -1   17.92    2.52
  11 -11  -1   17.65    2.50
  12 -11  -1    5.90    2.10
  13 -11  -1   33.65    4.50
  14 -11  -1    3.41    1.95
  15 -11  -1    8.57    4.17
  -6 -10  -1    2.46    3.24
  -5 -10  -1   19.05    4.15
  -4 -10  -1   24.25    4.15
  -3 -10  -1   18.75    3.65
  -2 -10  -1    0.27    1.35
  -1 -10  -1   17.53    2.36
   0 -10  -1   39.06    3.55
   1 -10  -1   40.55    3.48
   2 -10  -1   13.14    2.04
   3 -10  -1   22.89    2.55
   4 -10  -1    1.67    0.97
   5 -10  -1    1.10    0.69
   6 -10  -1    7.02    1.35
   7 -10  -1    4.67    1.23
   8 -10  -1   19.77    2.46
   9 -10  -1   70.92    4.64
  10 -10  -1   34.91    3.34
  11 -10  -1   26.87    2.90
  12 -10  -1    5.36    1.86
  13 -10  -1   27.05    4.06
  14 -10  -1    6.12    2.24
  15 -10  -1    5.81    3.41
  -7  -9  -1    8.02    4.12
  -6  -9  -1   -0.04    1.66
  -5  -9  -1    5.22    2.31
  -4  -9  -1    2.57    1.73
  -3  -9  -1    0.37    1.29
  -2  -9  -1    5.81    1.48
  -1  -9  -1   71.06    4.11
   0  -9  -1   10.86    1.77
   1  -9  -1   85.71    4.53
   2  -9  -1    1.27    0.81
   3  -9  -1    3.22    1.09
   4  -9  -1    5.75    0.99
   5  -9  -1   69.66    3.23
   6  -9  -1   27.66    2.57
   7  -9  -1   30.73    2.73
   8  -9  -1   23.28    2.50
   9  -9  -1   12.95    1.83
  10  -9  -1   46.15    3.68
  11  -9  -1    8.86    1.71
  12  -9  -1    4.55    1.77
  13  -9  -1   12.18    2.75
  14  -9  -1   24.60    5.74
  15  -9  -1    6.62    3.46
  -8  -8  -1    5.29    2.92
  -7  -8  -1    0.97    1.95
  -6  -8  -1    2.50    1.80
  -5  -8  -1    0.92    1.41
  -4  -8  -1   10.36    2.65
  -3  -8  -1    6.90    1.60
  -2  -8  -1   18.13    2.28
  -1  -8  -1   20.30    2.23
   0  -8  -1    4.78    1.18
   1  -8  -1   58.66    3.77
   2  -8  -1   56.67    2.55
   3  -8  -1   94.99    3.20
   4  -8  -1   47.62    2.46
   5  -8  -1    2.45    0.72
   6  -8  -1    4.60    1.17
   7  -8  -1    9.47    1.49
   8  -8  -1    7.47    1.08
   9  -8  -1   86.87    3.38
  10  -8  -1   17.82    1.82
  11  -8  -1  103.57    4.49
  12  -8  -1    8.82    1.77
  13  -8  -1    1.43    1.14
  14  -8  -1    6.90    2.23
  15  -8  -1    2.44    2.01
  16  -8  -1    8.60    3.83
  -9  -7  -1    6.38    2.86
  -8  -7  -1    1.72    2.04
  -7  -7  -1   48.53    5.79
  -6  -7  -1    3.20    1.84
  -5  -7  -1   15.01    3.01
  -4  -7  -1   18.03    2.38
  -3  -7  -1    6.48    1.16
  -2  -7  -1   32.94    2.34
  -1  -7  -1    9.91    1.45
   0  -7  -1    3.65    0.99
   1  -7  -1  138.29    3.70
   2  -7  -1   75.57    2.54
   3  -7  -1  204.91    4.96
   4  -7  -1    8.80    0.72
   5  -7  -1   54.68    2.14
   6  -7  -1  215.49    4.99
   7  -7  -1    3.76    0.78
   8  -7  -1   61.94    2.73
   9  -7  -1    1.27    0.65
  10  -7  -1   22.45    2.33
  11  -7  -1   25.61    2.65
  12  -7  -1    1.37    0.99
  13  -7  -1    9.53    2.51
  14  -7  -1   65.45    6.25
  15  -7  -1    1.29    1.76
  16  -7  -1   16.73    3.94
 -10  -6  -1    0.21    3.07
  -9  -6  -1   23.04    4.32
  -8  -6  -1    9.15    2.84
  -7  -6  -1    8.77    2.43
  -6  -6  -1    3.83    1.75
  -5  -6  -1   -0.20    1.02
  -4  -6  -1    7.47    1.24
  -3  -6  -1   26.04    2.05
  -2  -6  -1    4.55    0.88
  -1  -6  -1  216.95    4.40
   0  -6  -1   12.19    1.12
   1  -6  -1   27.00    1.51
   2  -6  -1   69.06    2.33
   3  -6  -1   48.48    1.55
   4  -6  -1   32.18    1.40
   5  -6  -1   15.97    1.26
   6  -6  -1   13.16    1.23
   7  -6  -1  140.64    3.44
   8  -6  -1   58.61    2.62
   9  -6  -1    3.41    0.86
  10  -6  -1    2.35    0.99
  11  -6  -1   49.76    3.61
  12  -6  -1    3.25    1.53
  13  -6  -1    4.54    1.89
  14  -6  -1    2.10    1.63
  15  -6  -1    0.32    1.59
  16  -6  -1    1.12    4.47
 -10  -5  -1    3.77    2.31
  -9  -5  -1   25.89    4.35
  -8  -5  -1    0.21    1.38
  -7  -5  -1    1.74    1.46
  -6  -5  -1   59.64    5.39
  -5  -5  -1    0.79    0.65
  -4  -5  -1   72.33    3.04
  -3  -5  -1    1.53    0.57
  -2  -5  -1   52.74    1.89
  -1  -5  -1   12.63    0.96
   0  -5  -1  152.31    3.64
   1  -5  -1   17.55    1.23
   2  -5  -1  139.01    2.92
   3  -5  -1   12.94    0.88
   4  -5  -1  269.93    5.33
   5  -5  -1  147.92    3.67
   6  -5  -1   27.62    1.35
   7  -5  -1   74.08    2.12
   8  -5  -1   99.97    3.01
   9  -5  -1    9.54    1.46
  10  -5  -1    1.07    0.78
  11  -5  -1    0.59    1.01
  12  -5  -1   14.30    2.87
  13  -5  -1    0.04    1.23
  14  -5  -1    8.02    2.44
  15  -5  -1   12.46    3.03
 -11  -4  -1    2.48    2.22
 -10  -4  -1    3.21    2.00
  -9  -4  -1   10.02    2.72
  -8  -4  -1    5.41    2.03
  -7  -4  -1   16.05    2.83
  -6  -4  -1    2.48    0.97
  -5  -4  -1    6.76    1.08
  -4  -4  -1   48.45    2.41
  -3  -4  -1    7.67    0.98
  -2  -4  -1   34.56    1.53
  -1  -4  -1  268.07    4.72
   0  -4  -1   61.96    1.94
   1  -4  -1  186.73    3.96
   2  -4  -1   13.06    0.86
   3  -4  -1    4.08    0.56
   4  -4  -1   58.54    1.91
   5  -4  -1   17.96    1.27
   6  -4  -1   69.46    1.96
   7  -4  -1  208.05    4.72
   8  -4  -1   46.60    2.26
   9  -4  -1   72.57    2.92
  10  -4  -1    9.15    1.52
  11  -4  -1   12.81    2.56
  12  -4  -1   13.20    2.69
  13  -4  -1    3.08    1.77
  14  -4  -1   28.85    4.27
  15  -4  -1    4.36    2.05
 -12  -3  -1    2.04    2.32
 -11  -3  -1    3.95    2.23
 -10  -3  -1   23.17    3.65
  -9  -3  -1   10.19    2.54
  -8  -3  -1  101.11    7.37
  -7  -3  -1   22.38    3.16
  -6  -3  -1    3.57    0.81
  -5  -3  -1  102.80    3.23
  -4  -3  -1  205.83    4.81
  -3  -3  -1   50.46    1.95
  -2  -3  -1   13.76    1.09
  -1  -3  -1    4.70    0.54
   0  -3  -1  374.15    6.54
   1  -3  -1  143.71    3.01
   2  -3  -1  132.54    2.54
   3  -3  -1  372.65    6.57
   4  -3  -1  181.33    3.86
   5  -3  -1  138.16    2.91
   6  -3  -1   50.08    1.84
   7  -3  -1    9.33    1.03
   8  -3  -1    1.35    0.62
   9  -3  -1   23.30    1.81
  10  -3  -1    6.43    1.33
  11  -3  -1   11.20    2.37
  12  -3  -1    0.19    1.14
  13  -3  -1   28.28    4.22
  14  -3  -1   -0.15    1.48
 -12  -2  -1    5.67    2.53
 -11  -2  -1   36.13    4.83
 -10  -2  -1    3.04    1.69
  -9  -2  -1    5.59    1.94
  -8  -2  -1   16.16    2.63
  -7  -2  -1    2.50    0.74
  -6  -2  -1   59.01    2.56
  -5  -2  -1   73.19    2.52
  -4  -2  -1   67.87    2.26
  -3  -2  -1  143.50    3.37
  -2  -2  -1   13.67    0.96
  -1  -2  -1  130.82    2.80
   0  -2  -1  102.32    2.22
   1  -2  -1   33.69    1.05
   2  -2  -1   98.02    2.22
   3  -2  -1  135.53    2.87
   4  -2  -1   12.33    0.93
   5  -2  -1   14.42    1.08
   6  -2  -1   30.44    1.63
   7  -2  -1   55.02    2.27
   8  -2  -1    4.14    0.81
   9  -2  -1   25.17    2.42
  10  -2  -1   17.37    2.12
  11  -2  -1    4.22    1.27
  12  -2  -1    0.74    1.20
  13  -2  -1    6.67    3.24
  14  -2  -1   13.49    4.55
 -13  -1  -1    0.86    2.03
 -12  -1  -1   24.58    4.09
 -11  -1  -1    4.66    1.84
 -10  -1  -1   18.71    3.02
  -9  -1  -1   44.58    4.56
  -8  -1  -1   87.34    3.27
  -7  -1  -1   58.38    2.64
  -6  -1  -1  138.26    3.79
  -5  -1  -1   34.30    1.91
  -4  -1  -1   20.36    1.33
  -3  -1  -1  188.17    3.85
  -2  -1  -1  136.21    2.84
  -1  -1  -1   34.05    0.95
   0  -1  -1   22.42    0.92
   1  -1  -1   19.16    0.71
   2  -1  -1   33.11    0.99
   3  -1  -1  135.70    2.87
   4  -1  -1    4.81    0.59
   5  -1  -1  264.58    5.22
   6  -1  -1   12.83    1.12
   7  -1  -1  225.49    4.99
   8  -1  -1    8.00    1.31
   9  -1  -1   21.98    2.12
  10  -1  -1   76.60    4.66
  11  -1  -1   22.00    2.62
  12  -1  -1   13.73    2.88
  13  -1  -1    8.29    3.73
  14  -1  -1    6.19    3.83
 -13   0  -1    2.91    2.06
 -12   0  -1   17.65    3.38
 -11   0  -1   15.97    3.09
 -10   0  -1   33.87    4.06
  -9   0  -1   11.20    2.33
  -8   0  -1    6.82    1.10
  -7   0  -1    3.70    0.78
  -6   0  -1   11.45    1.18
  -5   0  -1  150.46    3.69
  -4   0  -1   58.35    1.89
  -3   0  -1  377.26    6.49
  -2   0  -1  102.25    2.12
  -1   0  -1   19.15    0.83
   0   0  -1   -0.05    0.18
   1   0  -1   19.36    0.87
   2   0  -1  101.89    2.16
   3   0  -1  375.63    6.36
   4   0  -1   60.83    1.74
   5   0  -1  153.15    3.47
   6   0  -1   11.95    1.03
   7   0  -1    3.09    0.85
   8   0  -1    6.05    1.06
   9   0  -1   10.08    1.35
  10   0  -1   38.90    3.69
  11   0  -1   24.21    3.49
  12   0  -1   20.21    3.62
  13   0  -1    0.78    2.35
 -14   1  -1    1.65    2.88
 -13   1  -1    9.34    2.76
 -12   1  -1    8.54    2.45
 -11   1  -1   16.45    2.99
 -10   1  -1   63.60    5.29
  -9   1  -1   20.28    1.90
  -8   1  -1    9.29    1.24
  -7   1  -1  219.24    5.18
  -6   1  -1   14.51    1.45
  -5   1  -1  274.09    6.32
  -4   1  -1    3.55    0.61
  -3   1  -1  135.81    3.31
  -2   1  -1   30.37    1.15
  -1   1  -1   19.89    1.50
   1   1  -1   35.57    1.28
   2   1  -1  132.05    3.38
   3   1  -1  181.40    4.48
   4   1  -1   18.48    1.49
   5   1  -1   24.32    1.91
   6   1  -1  135.81    3.80
   7   1  -1   53.52    2.68
   8   1  -1   89.13    3.41
   9   1  -1   39.09    3.18
  10   1  -1   19.26    3.17
  11   1  -1    6.00    2.08
  12   1  -1   25.09    3.98
  13   1  -1   -0.22    1.92
 -14   2  -1   26.57    6.61
 -13   2  -1    5.28    2.20
 -12   2  -1    0.39    1.31
 -11   2  -1    4.48    1.73
 -10   2  -1   18.52    1.89
  -9   2  -1   32.69    2.36
  -8   2  -1    3.92    0.99
  -7   2  -1   58.90    2.88
  -6   2  -1   32.81    2.25
  -5   2  -1   12.01    1.22
  -4   2  -1   10.51    1.04
  -3   2  -1  136.60    3.04
  -2   2  -1   98.97    2.45
  -1   2  -1   32.52    2.05
   0   2  -1  100.27    3.16
   1   2  -1  136.55    3.17
   2   2  -1   13.22    1.01
   3   2  -1  135.91    3.27
   4   2  -1   67.68    2.23
   5   2  -1   72.57    2.50
   6   2  -1   63.66    2.78
   7   2  -1    1.97    0.83
   8   2  -1   14.45    1.95
   9   2  -1    9.53    1.90
  10   2  -1    4.32    1.71
  11   2  -1   37.79    4.67
  12   2  -1    6.11    2.42
 -14   3  -1    1.28    1.83
 -13   3  -1   30.40    4.10
 -12   3  -1   -0.85    1.05
 -11   3  -1   12.20    1.95
 -10   3  -1    5.07    1.27
  -9   3  -1   26.71    2.52
  -8   3  -1    3.05    0.88
  -7   3  -1    6.74    1.16
  -6   3  -1   45.86    2.33
  -5   3  -1  132.18    4.01
  -4   3  -1  184.00    4.17
  -3   3  -1  375.41    7.46
  -2   3  -1  133.92    3.15
  -1   3  -1  139.48    3.26
   0   3  -1  377.16    7.53
   1   3  -1    4.40    0.45
   2   3  -1   12.99    0.77
   3   3  -1   51.23    1.73
   4   3  -1  206.42    4.64
   5   3  -1  104.14    3.89
   6   3  -1    2.35    0.89
   7   3  -1   19.82    2.27
   8   3  -1  101.50    4.84
   9   3  -1    3.81    1.70
  10   3  -1   23.37    3.71
  11   3  -1    7.14    2.64
  12   3  -1    1.85    1.83
 -15   4  -1    2.10    3.38
 -14   4  -1   24.47    4.00
 -13   4  -1    4.46    1.90
 -12   4  -1   15.34    2.99
 -11   4  -1   19.89    2.45
 -10   4  -1    6.99    1.42
  -9   4  -1   66.62    4.06
  -8   4  -1   44.56    3.06
  -7   4  -1  203.95    5.87
  -6   4  -1   69.60    2.10
  -5   4  -1   18.55    1.13
  -4   4  -1   66.48    2.21
  -3   4  -1    4.38    0.53
  -2   4  -1   10.82    1.00
  -1   4  -1  184.92    4.23
   0   4  -1   61.56    1.63
   1   4  -1  266.38    6.17
   2   4  -1   28.47    2.01
   3   4  -1    7.72    1.19
   4   4  -1   53.67    2.98
   5   4  -1    6.10    1.29
   6   4  -1    0.81    0.75
   7   4  -1   24.88    2.64
   8   4  -1    5.99    1.50
   9   4  -1    8.41    2.41
  10   4  -1    3.86    1.84
  11   4  -1    1.46    1.87
 -15   5  -1   18.80    5.51
 -14   5  -1    5.84    2.21
 -13   5  -1    0.97    1.50
 -12   5  -1   21.08    2.63
 -11   5  -1   -0.85    0.71
 -10   5  -1    1.31    0.81
  -9   5  -1    7.41    1.44
  -8   5  -1   97.28    3.99
  -7   5  -1   70.07    2.35
  -6   5  -1   23.09    1.44
  -5   5  -1  157.24    4.20
  -4   5  -1  263.60    5.01
  -3   5  -1   15.75    1.17
  -2   5  -1  143.26    3.10
  -1   5  -1   19.99    1.09
   0   5  -1  157.36    4.10
   1   5  -1   12.68    1.28
   2   5  -1   60.32    2.79
   3   5  -1    2.84    0.88
   4   5  -1   71.08    3.48
   5   5  -1    0.92    0.76
   6   5  -1   54.49    3.94
   7   5  -1    1.40    1.03
   8   5  -1    0.37    1.02
   9   5  -1   21.24    3.56
  10   5  -1    4.48    2.13
 -15   6  -1    0.29    3.09
 -14   6  -1    6.42    2.37
 -13   6  -1    3.25    1.94
 -12   6  -1    2.31    1.12
 -11   6  -1   54.29    4.01
 -10   6  -1    1.54    0.93
  -9   6  -1    3.19    1.02
  -8   6  -1   59.89    3.54
  -7   6  -1  135.35    4.15
  -6   6  -1   12.16    1.34
  -5   6  -1   14.80    1.50
  -4   6  -1   32.30    1.45
  -3   6  -1   49.71    2.12
  -2   6  -1   72.62    1.91
  -1   6  -1   29.07    1.39
   0   6  -1   11.99    1.24
   1   6  -1  218.15    5.81
   2   6  -1    3.00    0.81
   3   6  -1   29.31    2.55
   4   6  -1    6.48    1.36
   5   6  -1    0.46    0.83
   6   6  -1    5.15    1.47
   7   6  -1    8.55    1.76
   8   6  -1    9.24    1.95
   9   6  -1   24.18    5.64
 -15   7  -1    0.54    2.36
 -14   7  -1   56.27    6.03
 -13   7  -1   11.59    2.18
 -12   7  -1    0.50    0.97
 -11   7  -1   27.25    3.03
 -10   7  -1   19.12    2.39
  -9   7  -1    0.34    0.65
  -8   7  -1   53.26    4.60
  -7   7  -1    2.05    0.71
  -6   7  -1  211.28    5.87
  -5   7  -1   55.42    2.92
  -4   7  -1    8.22    1.02
  -3   7  -1  208.43    5.47
  -2   7  -1   71.13    2.90
  -1   7  -1  136.39    4.54
   0   7  -1    2.92    0.90
   1   7  -1   11.76    1.98
   2   7  -1   23.86    2.93
   3   7  -1    4.05    1.45
   4   7  -1   15.51    2.61
   5   7  -1   21.19    3.26
   6   7  -1    4.89    1.88
   7   7  -1   63.84    6.16
   8   7  -1    0.28    1.52
 -15   8  -1    5.22    2.40
 -14   8  -1    7.84    2.51
 -13   8  -1    0.54    1.12
 -12   8  -1    5.92    1.61
 -11   8  -1  102.32    5.61
 -10   8  -1   13.76    2.11
  -9   8  -1   83.32    4.69
  -8   8  -1    3.98    1.36
  -7   8  -1    7.75    1.27
  -6   8  -1    3.35    0.80
  -5   8  -1    2.57    0.88
  -4   8  -1   45.68    2.40
  -3   8  -1  100.20    3.62
  -2   8  -1   66.95    3.13
  -1   8  -1   59.26    3.35
   0   8  -1    5.80    1.24
   1   8  -1   19.32    2.13
   2   8  -1   17.47    2.59
   3   8  -1    8.73    2.10
   4   8  -1   13.94    2.73
   5   8  -1   -0.55    1.19
   6   8  -1    4.82    2.06
   7   8  -1    3.59    2.09
 -15   9  -1   17.72    3.79
 -14   9  -1   23.49    3.08
 -13   9  -1   13.55    2.47
 -12   9  -1    7.95    1.88
 -11   9  -1   12.22    2.11
 -10   9  -1   44.55    3.84
  -9   9  -1    8.17    2.01
  -8   9  -1   25.18    2.41
  -7   9  -1   27.26    2.43
  -6   9  -1   30.22    2.66
  -5   9  -1   68.65    3.73
  -4   9  -1    9.32    1.77
  -3   9  -1    4.87    1.06
  -2   9  -1    3.12    0.95
  -1   9  -1   80.72    3.85
   0   9  -1    9.08    1.61
   1   9  -1   70.12    4.54
   2   9  -1    3.19    1.25
   3   9  -1    0.56    0.98
   4   9  -1    1.87    1.45
   5   9  -1    3.83    1.93
   6   9  -1    0.62    1.79
   7   9  -1   17.51    5.09
 -15  10  -1    2.59    1.99
 -14  10  -1    4.49    1.77
 -13  10  -1   20.62    3.12
 -12  10  -1    3.50    1.52
 -11  10  -1   23.41    3.02
 -10  10  -1   37.24    4.53
  -9  10  -1   77.62    6.28
  -8  10  -1   23.53    2.56
  -7  10  -1    4.30    1.07
  -6  10  -1    5.27    1.20
  -5  10  -1    0.78    0.70
  -4  10  -1    2.15    1.19
  -3  10  -1   24.34    2.22
  -2  10  -1   12.07    1.77
  -1  10  -1   43.67    3.47
   0  10  -1   37.61    3.31
   1  10  -1   13.38    2.05
   2  10  -1    0.26    0.87
   3  10  -1   31.19    3.40
   4  10  -1   27.54    3.48
   5  10  -1   16.48    2.98
   6  10  -1    2.55    3.37
 -15  11  -1    4.45    2.10
 -14  11  -1    4.37    1.89
 -13  11  -1   30.66    3.83
 -12  11  -1    6.25    1.90
 -11  11  -1   19.77    2.89
 -10  11  -1   21.03    3.45
  -9  11  -1    6.27    1.89
  -8  11  -1    9.83    1.71
  -7  11  -1   19.76    2.45
  -6  11  -1   -0.41    0.71
  -5  11  -1   47.49    4.46
  -4  11  -1   20.70    3.02
  -3  11  -1   98.53    5.74
  -2  11  -1    8.03    1.52
  -1  11  -1   22.02    2.64
   0  11  -1   16.15    2.38
   1  11  -1   12.91    2.14
   2  11  -1    8.31    1.92
   3  11  -1    0.56    1.21
   4  11  -1    1.54    1.51
 -15  12  -1    1.18    2.16
 -14  12  -1    7.54    2.21
 -13  12  -1   26.12    3.58
 -12  12  -1   15.13    2.41
 -11  12  -1    8.44    2.43
 -10  12  -1    0.29    1.13
  -9  12  -1    0.89    1.28
  -8  12  -1   12.66    2.09
  -7  12  -1   22.39    2.73
  -6  12  -1    2.08    1.05
  -5  12  -1    1.23    1.15
  -4  12  -1    7.90    2.13
  -3  12  -1    5.53    1.85
  -2  12  -1    9.50    2.52
  -1  12  -1    3.96    1.47
   0  12  -1   15.22    2.43
   1  12  -1    9.78    2.18
   2  12  -1   14.08    2.68
   3  12  -1    4.75    2.08
 -14  13  -1    0.51    1.64
 -13  13  -1    1.09    1.50
 -12  13  -1    9.92    2.53
 -11  13  -1    5.34    2.35
 -10  13  -1   23.29    3.76
  -9  13  -1    1.06    1.44
  -8  13  -1    0.09    0.96
  -7  13  -1    5.03    1.51
  -6  13  -1    7.37    1.68
  -5  13  -1   -0.06    1.23
  -4  13  -1    7.40    2.14
  -3  13  -1   31.69    4.29
  -2  13  -1   43.92    5.20
  -1  13  -1   21.73    3.80
   0  13  -1   -0.43    1.52
   1  13  -1    4.22    1.92
 -14  14  -1    0.39    3.08
 -13  14  -1    5.62    2.13
 -12  14  -1   12.15    3.31
 -11  14  -1    0.54    1.64
 -10  14  -1   27.63    4.48
  -9  14  -1    9.29    2.68
  -8  14  -1    6.76    1.75
  -7  14  -1   60.14    4.91
  -6  14  -1    9.43    2.08
  -5  14  -1   19.23    2.87
  -4  14  -1    5.93    2.13
  -3  14  -1    2.65    1.96
  -2  14  -1    5.73    2.32
  -1  14  -1   -1.29    1.51
   0  14  -1    1.71    3.42
 -12  15  -1    2.45    2.26
 -11  15  -1    2.24    2.17
 -10  15  -1   10.66    2.94
  -9  15  -1    0.08    1.54
  -8  15  -1    2.39    1.49
  -7  15  -1    2.77    1.59
  -6  15  -1   13.38    2.52
  -5  15  -1    3.82    1.76
  -4  15  -1    2.70    2.07
  -3  15  -1    2.86    2.52
  -9  16  -1   32.75   10.33
  -8  16  -1   10.30    4.62
  -7  16  -1    8.63    3.47
   6 -16   0    3.19    2.20
   7 -16   0   13.69    4.52
   8 -16   0    4.25    2.69
   9 -16   0    0.86    3.36
  10 -16   0   -0.01    5.22
   2 -15   0    4.69    3.80
   3 -15   0    6.97    3.32
   4 -15   0   22.08    4.43
   5 -15   0   -0.42    1.33
   6 -15   0    3.68    1.75
   7 -15   0   -1.78    1.53
   8 -15   0    0.52    1.79
   9 -15   0   66.95    7.00
  10 -15   0    2.96    1.93
  11 -15   0   -1.10    1.70
  12 -15   0   26.52    6.65
  13 -15   0   10.31    4.85
   0 -14   0   -0.80    2.76
   1 -14   0   23.76    4.54
   2 -14   0   10.60    3.37
   3 -14   0   10.49    3.18
   4 -14   0   18.78    2.97
   5 -14   0   -0.79    1.23
   6 -14   0    5.68    1.80
   7 -14   0    1.31    1.69
   8 -14   0   35.86    5.00
   9 -14   0   14.04    3.32
  10 -14   0    4.12    2.13
  11 -14   0    7.81    2.82
  12 -14   0    1.29    1.43
  13 -14   0    4.20    1.95
  14 -14   0    2.76    3.29
  -1 -13   0    3.01    2.48
   0 -13   0   21.92    4.25
   1 -13   0    4.46    2.20
   2 -13   0   -1.79    1.41
   3 -13   0    8.40    1.96
   4 -13   0   20.34    2.70
   5 -13   0  115.86    6.28
   6 -13   0    5.71    1.72
   7 -13   0   20.11    3.55
   8 -13   0   17.68    3.43
   9 -13   0   20.17    3.56
  10 -13   0    7.70    1.93
  11 -13   0    6.27    1.79
  12 -13   0    0.93    1.31
  13 -13   0   20.01    3.00
  14 -13   0   30.57    4.47
  -3 -12   0   26.49    4.76
  -2 -12   0   -0.32    1.86
  -1 -12   0   -0.75    1.63
   0 -12   0   29.26    4.68
   1 -12   0    3.91    2.02
   2 -12   0    3.45    1.40
   3 -12   0    6.15    1.69
   4 -12   0    0.32    0.95
   5 -12   0    1.50    1.18
   6 -12   0   -0.60    0.88
   7 -12   0   12.72    2.74
   8 -12   0    2.10    1.09
   9 -12   0    4.67    1.45
  10 -12   0  156.23    6.46
  11 -12   0    2.21    1.34
  12 -12   0   28.19    3.46
  13 -12   0    7.03    2.05
  14 -12   0    9.29    2.71
  15 -12   0    3.03    2.25
  -4 -11   0    1.20    2.29
  -3 -11   0    9.16    2.77
  -2 -11   0   11.78    3.07
  -1 -11   0    4.01    2.08
   0 -11   0   -0.73    1.25
   1 -11   0   47.51    3.99
   2 -11   0   37.09    3.35
   3 -11   0   54.74    4.25
   4 -11   0   19.28    2.52
   5 -11   0   54.91    4.19
   6 -11   0   81.14    5.14
   7 -11   0  138.32    5.47
   8 -11   0   19.23    2.48
   9 -11   0    2.07    1.12
  10 -11   0   15.57    2.24
  11 -11   0    0.51    0.98
  12 -11   0    2.66    1.36
  13 -11   0   -1.38    1.14
  14 -11   0   13.20    3.09
  15 -11   0   28.21    4.54
  -6 -10   0   -1.10    3.13
  -5 -10   0    0.43    2.04
  -4 -10   0    2.83    1.96
  -3 -10   0    8.03    2.04
  -2 -10   0  163.48    7.02
  -1 -10   0   12.96    2.89
   0 -10   0    3.91    1.10
   1 -10   0   12.67    1.92
   2 -10   0    1.10    0.98
   3 -10   0    0.57    0.84
   4 -10   0   18.50    2.35
   5 -10   0   48.80    2.95
   6 -10   0  195.01    5.52
   7 -10   0   28.44    2.68
   8 -10   0    2.11    1.09
   9 -10   0   33.48    3.16
  10 -10   0    5.44    1.42
  11 -10   0   47.54    4.08
  12 -10   0    4.59    1.50
  13 -10   0    6.13    1.99
  14 -10   0   18.74    3.50
  15 -10   0    0.30    2.26
  -7  -9   0    1.57    2.12
  -6  -9   0   57.98    6.37
  -5  -9   0    4.73    2.15
  -4  -9   0   19.92    3.06
  -3  -9   0    1.89    1.19
  -2  -9   0    0.19    0.84
  -1  -9   0   32.03    2.55
   0  -9   0   36.37    3.04
   1  -9   0    2.27    1.00
   2  -9   0  116.22    4.71
   3  -9   0  254.60    7.67
   4  -9   0    1.08    0.62
   5  -9   0   37.05    2.47
   6  -9   0   13.64    1.79
   7  -9   0   33.88    2.94
   8  -9   0    4.22    1.22
   9  -9   0   37.95    3.22
  10  -9   0   11.52    1.78
  11  -9   0   40.13    3.64
  12  -9   0    3.43    1.58
  13  -9   0   23.44    3.76
  14  -9   0    0.53    1.50
  15  -9   0    4.05    3.10
  -8  -8   0    7.13    3.12
  -7  -8   0    1.06    1.96
  -6  -8   0   32.80    4.76
  -5  -8   0   15.02    2.50
  -4  -8   0    3.44    1.33
  -3  -8   0   13.03    2.15
  -2  -8   0    1.87    1.10
  -1  -8   0    1.92    0.75
   0  -8   0  100.62    3.69
   1  -8   0   48.09    3.27
   2  -8   0    0.05    0.61
   3  -8   0   10.72    1.23
   4  -8   0    0.50    0.50
   5  -8   0   37.29    2.37
   6  -8   0   81.93    3.70
   7  -8   0  277.78    7.61
   8  -8   0  111.31    4.45
   9  -8   0    1.41    0.64
  10  -8   0    1.40    0.68
  11  -8   0   57.28    3.94
  12  -8   0   -0.18    0.71
  13  -8   0  109.53    5.70
  14  -8   0    3.21    1.79
  15  -8   0    0.42    1.69
  16  -8   0    7.18    3.04
  -9  -7   0   11.82    4.76
  -8  -7   0   -0.75    1.81
  -7  -7   0    3.14    1.96
  -6  -7   0   20.37    3.58
  -5  -7   0    5.55    1.58
  -4  -7   0  148.43    5.95
  -3  -7   0   27.25    2.86
  -2  -7   0   31.52    2.24
  -1  -7   0  260.61    6.36
   0  -7   0    0.47    0.51
   1  -7   0    8.38    0.82
   2  -7   0    2.48    0.57
   3  -7   0   32.66    1.80
   4  -7   0  131.61    3.71
   5  -7   0   76.14    2.03
   6  -7   0  143.47    3.70
   7  -7   0    0.30    0.43
   8  -7   0   41.93    2.29
   9  -7   0  111.84    3.69
  10  -7   0    0.39    0.64
  11  -7   0   16.50    2.07
  12  -7   0    2.68    1.09
  13  -7   0    6.34    1.63
  14  -7   0    8.43    2.35
  15  -7   0    2.21    1.90
  16  -7   0    1.28    2.17
  -9  -6   0    4.99    2.40
  -8  -6   0    3.46    1.85
  -7  -6   0    5.27    1.97
  -6  -6   0    0.67    0.98
  -5  -6   0   87.80    4.93
  -4  -6   0  186.35    6.55
  -3  -6   0   12.63    1.35
  -2  -6   0   80.93    2.91
  -1  -6   0  146.19    4.03
   0  -6   0    7.84    1.03
   1  -6   0   87.88    2.47
   2  -6   0   34.20    1.67
   3  -6   0  346.59    6.92
   4  -6   0   28.11    1.79
   5  -6   0   12.66    1.01
   6  -6   0    6.91    0.87
   7  -6   0    5.79    0.87
   8  -6   0    0.65    0.50
   9  -6   0  250.50    7.05
  10  -6   0   18.43    2.12
  11  -6   0   46.80    3.44
  12  -6   0   -0.36    0.82
  13  -6   0   11.89    2.35
  14  -6   0   37.38    4.73
  15  -6   0   60.30    6.49
  16  -6   0    3.80    2.55
 -10  -5   0    1.16    1.86
  -9  -5   0   -1.69    1.34
  -8  -5   0  111.32    7.29
  -7  -5   0    2.74    1.29
  -6  -5   0   51.41    3.90
  -5  -5   0   45.80    3.50
  -4  -5   0   35.76    2.08
  -3  -5   0   31.19    1.98
  -2  -5   0   75.21    2.57
  -1  -5   0   10.16    1.06
   0  -5   0   -0.11    0.18
   1  -5   0  309.74    5.36
   2  -5   0   53.37    1.83
   3  -5   0   17.82    1.30
   4  -5   0   10.99    0.86
   5  -5   0    0.22    0.30
   6  -5   0   87.44    2.68
   7  -5   0    1.94    0.56
   8  -5   0   11.40    1.46
   9  -5   0    0.33    0.57
  10  -5   0   45.07    3.25
  11  -5   0   89.08    4.60
  12  -5   0    7.13    1.97
  13  -5   0   16.92    3.06
  14  -5   0   11.56    2.82
  15  -5   0    0.22    1.66
 -11  -4   0   18.02    5.38
 -10  -4   0   19.76    3.38
  -9  -4   0   19.91    3.47
  -8  -4   0   -0.67    0.93
  -7  -4   0   21.36    2.61
  -6  -4   0   15.70    2.10
  -5  -4   0    1.49    0.84
  -4  -4   0    0.88    0.52
  -3  -4   0  131.34    3.50
  -2  -4   0   26.65    1.62
  -1  -4   0   12.24    1.07
   0  -4   0   63.57    1.57
   1  -4   0   71.45    1.95
   2  -4   0  756.43   12.36
   3  -4   0  285.63    4.78
   4  -4   0   62.86    1.90
   5  -4   0  305.40    5.99
   6  -4   0   33.55    1.30
   7  -4   0   29.25    1.48
   8  -4   0    0.43    0.41
   9  -4   0   44.58    3.06
  10  -4   0  199.70    6.26
  11  -4   0  155.40    7.15
  12  -4   0    2.26    1.27
  13  -4   0   21.20    3.61
  14  -4   0    3.81    1.91
  15  -4   0   -1.20    1.63
 -12  -3   0    1.67    3.71
 -11  -3   0   12.16    3.14
 -10  -3   0    6.09    2.22
  -9  -3   0    3.53    1.82
  -8  -3   0   64.84    4.50
  -7  -3   0    0.57    0.78
  -6  -3   0  252.95    7.42
  -5  -3   0   11.32    1.17
  -4  -3   0   27.73    1.71
  -3  -3   0  346.71    6.68
  -2  -3   0   20.08    1.26
  -1  -3   0  296.15    5.49
   0  -3   0    4.08    0.37
   1  -3   0   12.36    0.80
   2  -3   0   64.63    1.40
   3  -3   0    3.85    0.49
   4  -3   0   70.94    1.59
   5  -3   0   53.77    1.49
   6  -3   0  346.20    6.53
   7  -3   0  127.92    3.36
   8  -3   0   30.57    1.89
   9  -3   0   12.02    1.30
  10  -3   0   30.24    2.20
  11  -3   0   16.04    2.73
  12  -3   0    2.18    1.45
  13  -3   0    9.27    2.47
  14  -3   0    8.39    2.51
  15  -3   0   24.66    6.62
 -12  -2   0    9.45    4.53
 -11  -2   0    1.44    1.66
 -10  -2   0    0.25    1.16
  -9  -2   0   45.84    3.70
  -8  -2   0    0.15    0.76
  -7  -2   0  117.10    4.60
  -6  -2   0    1.13    0.53
  -5  -2   0    2.87    0.63
  -4  -2   0   31.90    1.57
  -3  -2   0   52.36    1.74
  -2  -2   0  766.86   12.22
  -1  -2   0   61.91    1.66
   0  -2   0   18.43    0.83
   1  -2   0   11.26    0.65
   2  -2   0   19.02    0.80
   3  -2   0   12.05    0.61
   4  -2   0  754.07   12.09
   5  -2   0   18.61    1.18
   6  -2   0   29.99    1.68
   7  -2   0   75.62    2.47
   8  -2   0   82.81    2.79
   9  -2   0   36.39    2.34
  10  -2   0    2.93    1.00
  11  -2   0    2.54    1.15
  12  -2   0  165.28    7.99
  13  -2   0    8.36    2.49
  14  -2   0    1.73    2.29
 -13  -1   0   20.33    5.90
 -12  -1   0    9.69    4.02
 -11  -1   0    3.32    1.66
 -10  -1   0   51.65    4.18
  -9  -1   0   15.09    2.10
  -8  -1   0    1.51    0.87
  -7  -1   0   48.29    2.34
  -6  -1   0    6.34    0.81
  -5  -1   0   90.32    2.60
  -4  -1   0  310.79    5.24
  -3  -1   0   73.23    1.72
  -2  -1   0   13.46    0.72
  -1  -1   0   13.14    0.61
   0  -1   0    6.71    0.38
   1  -1   0    5.77    0.42
   2  -1   0   12.17    0.53
   3  -1   0   62.64    1.60
   4  -1   0  293.35    5.34
   5  -1   0   10.43    0.92
   6  -1   0   12.15    1.10
   7  -1   0  146.54    3.26
   8  -1   0  273.57    5.74
   9  -1   0    2.14    0.88
  10  -1   0   31.62    2.95
  11  -1   0   12.96    1.94
  12  -1   0    1.59    1.88
  13  -1   0    3.42    2.72
  14  -1   0    0.23    2.37
 -13   0   0   23.15    6.25
 -12   0   0   28.33    6.35
 -11   0   0    0.34    1.13
 -10   0   0    7.21    1.62
  -9   0   0   35.04    3.11
  -8   0   0  106.52    4.33
  -7   0   0    0.77    0.51
  -6   0   0    9.57    0.85
  -5   0   0   -0.07    0.25
  -4   0   0   65.11    1.93
  -3   0   0    4.66    0.52
  -2   0   0   18.10    0.78
  -1   0   0    7.12    0.45
   1   0   0    5.63    0.39
   2   0   0   19.16    0.71
   3   0   0    3.84    0.49
   4   0   0   65.71    1.87
   5   0   0    0.12    0.26
   6   0   0    7.99    0.77
   7   0   0    0.83    0.49
   8   0   0  115.07    3.51
   9   0   0   30.22    2.74
  10   0   0    4.80    1.27
  11   0   0    0.75    1.17
  12   0   0   26.31    3.80
  13   0   0   26.62    5.88
 -14   1   0    6.71    3.96
 -13   1   0    1.79    2.48
 -12   1   0    5.30    1.88
 -11   1   0   15.24    2.14
 -10   1   0   34.32    3.19
  -9   1   0    2.76    0.97
  -8   1   0  269.57    5.51
  -7   1   0  140.77    3.76
  -6   1   0   11.45    1.06
  -5   1   0   11.44    0.95
  -4   1   0  287.84    5.36
  -3   1   0   62.49    1.95
  -2   1   0   11.78    0.77
  -1   1   0    6.21    0.37
   0   1   0    6.25    0.53
   1   1   0   11.70    0.53
   2   1   0   12.53    0.78
   3   1   0   70.44    1.94
   4   1   0  312.14    5.89
   5   1   0   89.67    2.62
   6   1   0    6.56    0.92
   7   1   0   52.82    2.55
   8   1   0    1.16    0.63
   9   1   0   13.56    2.40
  10   1   0   52.90    5.04
  11   1   0    2.73    1.59
  12   1   0   10.31    2.68
  13   1   0   23.12    6.05
 -14   2   0   -0.38    2.23
 -13   2   0    9.71    3.91
 -12   2   0  164.05    7.24
 -11   2   0    1.57    0.98
 -10   2   0    1.88    0.95
  -9   2   0   36.67    2.93
  -8   2   0   79.09    2.88
  -7   2   0   71.60    2.43
  -6   2   0   30.95    1.59
  -5   2   0   18.04    1.49
  -4   2   0  746.70   13.95
  -3   2   0   14.04    0.94
  -2   2   0   18.71    0.88
  -1   2   0   10.93    0.62
   0   2   0   17.27    0.78
   1   2   0   59.92    1.85
   2   2   0  760.76   12.05
   3   2   0   53.24    1.71
   4   2   0   34.55    1.64
   5   2   0    3.28    0.69
   6   2   0    0.48    0.46
   7   2   0  112.47    3.57
   8   2   0    1.19    0.83
   9   2   0   45.03    4.49
  10   2   0    3.22    1.59
  11   2   0   -1.30    1.20
  12   2   0   11.67    2.95
  13   2   0    5.46    3.60
 -15   3   0   27.59   10.29
 -14   3   0    2.69    3.13
 -13   3   0    5.58    3.23
 -12   3   0    2.01    1.13
 -11   3   0   13.54    1.95
 -10   3   0   26.94    2.67
  -9   3   0   14.11    1.86
  -8   3   0   37.37    2.22
  -7   3   0  128.09    3.44
  -6   3   0  340.79    7.96
  -5   3   0   56.35    1.99
  -4   3   0   75.01    2.24
  -3   3   0    4.19    0.59
  -2   3   0   63.12    1.72
  -1   3   0   14.08    0.95
   0   3   0    5.51    0.57
   1   3   0  296.79    6.20
   2   3   0   20.07    0.98
   3   3   0  347.02    6.47
   4   3   0   32.20    1.65
   5   3   0   11.01    1.14
   6   3   0  258.55    7.11
   7   3   0    0.08    0.68
   8   3   0   58.44    3.93
   9   3   0    2.77    1.44
  10   3   0    7.39    2.29
  11   3   0    8.66    2.57
  12   3   0    4.39    2.35
 -15   4   0    0.33    2.66
 -14   4   0    2.04    2.32
 -13   4   0   20.83    3.55
 -12   4   0    0.52    0.95
 -11   4   0  144.09    5.68
 -10   4   0  191.56    6.35
  -9   4   0   41.71    3.08
  -8   4   0    1.26    0.55
  -7   4   0   29.44    1.63
  -6   4   0   32.47    1.65
  -5   4   0  299.44    6.75
  -4   4   0   66.03    2.22
  -3   4   0  292.44    5.21
  -2   4   0  756.89   13.93
  -1   4   0   69.46    2.29
   0   4   0   67.03    2.03
   1   4   0   11.08    1.13
   2   4   0   30.31    2.02
   3   4   0  132.29    3.17
   4   4   0   -0.16    0.42
   5   4   0    0.83    0.69
   6   4   0   20.01    2.16
   7   4   0   17.04    2.14
   8   4   0    0.59    0.89
   9   4   0   18.52    3.11
  10   4   0   25.78    4.09
  11   4   0   27.37    4.36
 -15   5   0   -0.08    2.57
 -14   5   0    9.62    3.76
 -13   5   0   18.40    3.35
 -12   5   0    8.85    1.79
 -11   5   0   84.65    4.68
 -10   5   0   47.30    3.48
  -9   5   0    1.00    0.73
  -8   5   0   12.47    1.29
  -7   5   0    2.38    0.60
  -6   5   0   85.30    2.95
  -5   5   0   -0.29    0.33
  -4   5   0   12.39    0.75
  -3   5   0   21.54    1.23
  -2   5   0   56.13    2.05
  -1   5   0  307.32    5.62
   0   5   0    0.14    0.28
   1   5   0   12.80    1.25
   2   5   0   69.44    2.78
   3   5   0   31.62    2.36
   4   5   0   39.41    2.89
   5   5   0   46.74    3.30
   6   5   0   55.78    3.82
   7   5   0    3.04    1.13
   8   5   0  106.26    7.61
   9   5   0    0.59    1.51
  10   5   0   -0.38    1.62
 -15   6   0   45.26    8.16
 -14   6   0   35.51    4.83
 -13   6   0   19.00    2.61
 -12   6   0    0.49    0.87
 -11   6   0   51.51    3.91
 -10   6   0   19.26    2.28
  -9   6   0  258.09    7.50
  -8   6   0    0.55    0.47
  -7   6   0    6.25    1.08
  -6   6   0    6.69    0.95
  -5   6   0   13.59    1.35
  -4   6   0   29.92    1.37
  -3   6   0  352.78    7.55
  -2   6   0   29.74    1.81
  -1   6   0   87.32    2.29
   0   6   0    7.45    0.86
   1   6   0  149.91    4.31
   2   6   0   85.45    3.26
   3   6   0   13.65    1.63
   4   6   0  205.94    7.41
   5   6   0   79.66    4.06
   6   6   0    1.21    0.97
   7   6   0    8.99    1.84
   8   6   0    8.88    2.58
   9   6   0    8.29    2.82
 -15   7   0    0.00    2.48
 -14   7   0    8.13    2.60
 -13   7   0    9.40    2.01
 -12   7   0    3.13    1.28
 -11   7   0   21.71    2.58
 -10   7   0   -0.26    0.61
  -9   7   0  109.63    4.57
  -8   7   0   52.38    2.79
  -7   7   0    0.49    0.53
  -6   7   0  137.92    4.48
  -5   7   0   74.57    2.24
  -4   7   0  130.15    3.37
  -3   7   0   29.66    2.02
  -2   7   0    1.53    0.63
  -1   7   0    7.77    1.12
   0   7   0    2.05    0.74
   1   7   0  260.25    7.31
   2   7   0   38.61    2.90
   3   7   0   29.98    3.46
   4   7   0  152.42    7.03
   5   7   0   11.42    2.29
   6   7   0   21.62    3.54
   7   7   0    4.82    1.99
   8   7   0   -0.26    1.80
 -15   8   0    0.25    1.62
 -14   8   0    8.65    2.70
 -13   8   0  123.78    6.15
 -12   8   0   -0.30    0.91
 -11   8   0   62.72    4.53
 -10   8   0    1.06    0.91
  -9   8   0    1.10    1.00
  -8   8   0  109.97    4.14
  -7   8   0  261.35    7.17
  -6   8   0   82.68    3.42
  -5   8   0   36.02    2.62
  -4   8   0    1.74    0.54
  -3   8   0   11.58    1.41
  -2   8   0    1.00    0.58
  -1   8   0   44.03    3.00
   0   8   0  113.55    4.28
   1   8   0    3.26    1.00
   2   8   0    1.74    0.92
   3   8   0   17.59    2.25
   4   8   0    1.27    1.19
   5   8   0   22.68    3.41
   6   8   0   37.31    4.44
   7   8   0    0.09    1.74
 -15   9   0    3.61    2.04
 -14   9   0    0.06    1.52
 -13   9   0   23.00    3.05
 -12   9   0    3.89    1.42
 -11   9   0   43.99    3.86
 -10   9   0   15.39    2.26
  -9   9   0   23.89    3.21
  -8   9   0    2.22    0.85
  -7   9   0   38.56    2.96
  -6   9   0   10.78    1.64
  -5   9   0   37.30    2.91
  -4   9   0    1.07    0.60
  -3   9   0  257.15    6.93
  -2   9   0  108.78    4.27
  -1   9   0    1.22    0.77
   0   9   0   34.36    2.95
   1   9   0   31.63    3.01
   2   9   0    0.49    0.88
   3   9   0    3.32    1.23
   4   9   0   19.57    2.64
   5   9   0   11.57    3.00
   6   9   0   67.94    6.58
 -16  10   0    4.91    3.92
 -15  10   0    1.01    1.77
 -14  10   0   22.02    4.02
 -13  10   0    6.15    1.82
 -12  10   0    2.89    1.34
 -11  10   0   40.90    3.91
 -10  10   0    5.05    1.80
  -9  10   0   37.15    3.65
  -8  10   0    0.97    0.80
  -7  10   0   27.81    2.63
  -6  10   0  198.01    6.41
  -5  10   0   43.93    3.32
  -4  10   0   19.27    2.74
  -3  10   0   -0.17    0.59
  -2  10   0    0.97    0.75
  -1  10   0   15.50    2.09
   0  10   0    7.69    1.61
   1  10   0   15.46    2.26
   2  10   0  155.86    6.35
   3  10   0    7.66    1.96
   4  10   0    6.39    2.48
   5  10   0    1.69    1.78
   6  10   0    0.58    2.65
 -15  11   0   32.38    4.82
 -14  11   0   13.82    3.26
 -13  11   0    1.40    1.38
 -12  11   0    2.17    1.31
 -11  11   0    0.10    1.27
 -10  11   0   10.23    2.49
  -9  11   0    0.28    0.78
  -8  11   0   12.05    1.91
  -7  11   0  149.12    5.64
  -6  11   0   88.32    4.77
  -5  11   0   55.77    3.94
  -4  11   0   21.66    2.86
  -3  11   0   64.90    5.46
  -2  11   0   41.01    3.38
  -1  11   0   53.51    3.98
   0  11   0    0.55    0.96
   1  11   0    4.47    1.43
   2  11   0    9.37    2.02
   3  11   0    8.80    2.02
   4  11   0   -0.88    1.56
 -15  12   0    2.63    2.12
 -14  12   0   10.47    3.00
 -13  12   0    9.12    2.29
 -12  12   0   26.92    3.51
 -11  12   0    1.81    1.64
 -10  12   0  160.73    8.30
  -9  12   0    2.66    1.10
  -8  12   0    1.02    0.88
  -7  12   0    9.73    1.84
  -6  12   0    0.74    0.89
  -5  12   0    2.30    1.09
  -4  12   0   -0.55    0.92
  -3  12   0    2.18    1.22
  -2  12   0    5.17    1.80
  -1  12   0    3.67    1.42
   0  12   0   25.90    3.09
   1  12   0    1.78    1.36
   2  12   0    1.84    1.46
   3  12   0   23.66    3.97
 -14  13   0   26.15    4.54
 -13  13   0   20.87    3.22
 -12  13   0   -1.25    1.47
 -11  13   0   13.38    3.23
 -10  13   0    6.65    2.10
  -9  13   0   19.65    2.72
  -8  13   0   11.21    1.89
  -7  13   0   18.13    2.57
  -6  13   0    7.45    1.73
  -5  13   0  103.34    5.43
  -4  13   0   11.74    2.47
  -3  13   0    7.74    2.24
  -2  13   0   -0.82    1.25
  -1  13   0    5.90    2.07
   0  13   0   22.09    3.02
   1  13   0    4.64    1.92
   2  13   0    9.44    4.17
 -14  14   0   -0.18    3.45
 -13  14   0    4.68    1.87
 -12  14   0    0.73    1.96
 -11  14   0    3.07    2.13
 -10  14   0    4.69    2.06
  -9  14   0    9.90    2.25
  -8  14   0   32.50    3.55
  -7  14   0    4.52    1.51
  -6  14   0    4.96    1.64
  -5  14   0   -0.54    0.99
  -4  14   0   23.05    3.60
  -3  14   0   12.40    2.99
  -2  14   0   11.79    2.98
  -1  14   0   29.61    4.51
   0  14   0    1.14    2.82
 -12  15   0   30.51    4.78
 -11  15   0   -1.97    1.56
 -10  15   0    1.46    1.87
  -9  15   0   56.91    6.32
  -8  15   0    0.41    1.14
  -7  15   0   -0.66    1.09
  -6  15   0    6.03    1.79
  -5  15   0    0.42    1.29
  -4  15   0   37.89    4.80
  -3  15   0    8.96    3.03
  -2  15   0    6.25    4.54
 -10  16   0   -1.16    2.39
  -9  16   0    1.38    2.96
  -8  16   0    4.43    2.08
  -7  16   0    5.83    2.23
  -6  16   0    0.72    2.65
   6 -16   1    7.49    3.70
   7 -16   1    5.34    2.51
   8 -16   1    5.07    3.26
   3 -15   1    6.73    4.37
   4 -15   1    3.73    2.39
   5 -15   1    6.32    2.03
   6 -15   1   16.31    2.85
   7 -15   1    2.55    1.55
   8 -15   1    1.29    1.81
   9 -15   1   -0.20    1.72
  10 -15   1   15.47    3.60
  11 -15   1    2.18    1.99
  12 -15   1   12.28    4.82
   1 -14   1   -1.45    1.95
   2 -14   1    8.81    3.01
   3 -14   1    2.22    2.07
   4 -14   1    5.10    1.81
   5 -14   1   23.62    3.17
   6 -14   1    5.78    1.86
   7 -14   1   66.13    5.42
   8 -14   1    7.44    2.42
   9 -14   1    9.11    2.66
  10 -14   1   24.98    4.18
  11 -14   1   -1.43    1.33
  12 -14   1    9.73    3.03
  13 -14   1    2.98    1.73
  14 -14   1    0.29    1.86
  -1 -13   1    3.86    2.53
   0 -13   1    3.48    2.35
   1 -13   1   20.02    3.84
   2 -13   1   39.73    5.42
   3 -13   1   33.82    3.96
   4 -13   1   11.82    2.27
   5 -13   1    1.37    1.26
   6 -13   1    8.85    1.98
   7 -13   1    6.73    1.85
   8 -13   1    0.00    1.35
   9 -13   1    1.32    1.57
  10 -13   1   31.56    4.62
  11 -13   1    6.37    1.80
  12 -13   1   12.81    2.39
  13 -13   1    1.08    1.45
  14 -13   1    1.74    1.98
  -3 -12   1    3.13    2.34
  -2 -12   1   14.21    3.74
  -1 -12   1   10.45    3.17
   0 -12   1   17.69    3.61
   1 -12   1    1.48    1.76
   2 -12   1    1.22    1.59
   3 -12   1    4.74    1.43
   4 -12   1    5.21    1.50
   5 -12   1    2.36    1.22
   6 -12   1    3.50    1.27
   7 -12   1   17.65    2.66
   8 -12   1    7.71    2.34
   9 -12   1   -0.13    0.93
  10 -12   1    1.31    1.15
  11 -12   1   14.24    2.48
  12 -12   1   14.33    2.44
  13 -12   1   29.30    3.60
  14 -12   1    6.66    2.61
  15 -12   1    1.54    2.14
  -4 -11   1    1.08    1.63
  -3 -11   1    0.20    1.46
  -2 -11   1    7.33    2.16
  -1 -11   1   12.91    3.05
   0 -11   1   18.87    3.52
   1 -11   1   17.88    3.12
   2 -11   1    7.95    1.71
   3 -11   1  101.50    5.34
   4 -11   1   25.16    2.91
   5 -11   1   52.05    4.16
   6 -11   1    0.67    0.94
   7 -11   1   23.38    2.58
   8 -11   1    8.79    1.67
   9 -11   1    7.62    1.70
  10 -11   1   22.64    2.76
  11 -11   1   18.04    2.71
  12 -11   1    3.44    1.39
  13 -11   1   40.42    5.01
  14 -11   1    3.48    2.02
  15 -11   1    2.08    1.98
  -6 -10   1    0.26    3.03
  -5 -10   1   11.21    2.61
  -4 -10   1   27.65    3.66
  -3 -10   1   21.60    3.05
  -2 -10   1   -1.07    0.93
  -1 -10   1   17.14    2.67
   0 -10   1   27.25    3.16
   1 -10   1   36.36    3.27
   2 -10   1   15.76    2.16
   3 -10   1   21.99    2.59
   4 -10   1    3.33    1.20
   5 -10   1    1.70    1.00
   6 -10   1    7.66    1.31
   7 -10   1    6.67    1.53
   8 -10   1   17.94    2.24
   9 -10   1   79.00    4.91
  10 -10   1   28.59    3.15
  11 -10   1   22.57    2.84
  12 -10   1    4.54    1.55
  13 -10   1   31.03    4.31
  14 -10   1    4.65    2.16
  15 -10   1    0.84    1.75
  -7  -9   1    5.17    3.80
  -6  -9   1   -0.79    1.72
  -5  -9   1    4.94    1.74
  -4  -9   1    2.54    1.49
  -3  -9   1   -0.42    0.95
  -2  -9   1    5.35    1.61
  -1  -9   1   66.35    4.85
   0  -9   1   10.85    1.54
   1  -9   1   88.02    3.93
   2  -9   1    1.43    0.87
   3  -9   1    3.19    1.05
   4  -9   1    4.75    0.94
   5  -9   1   72.27    3.28
   6  -9   1   30.62    2.42
   7  -9   1   28.48    2.68
   8  -9   1   17.58    2.06
   9  -9   1   11.98    1.82
  10  -9   1   35.72    3.29
  11  -9   1    7.72    1.69
  12  -9   1    5.00    1.93
  13  -9   1    7.97    2.30
  14  -9   1   18.68    3.41
  15  -9   1   20.87    3.97
  -7  -8   1    0.95    1.87
  -6  -8   1    4.84    1.76
  -5  -8   1    0.29    1.05
  -4  -8   1   10.09    2.00
  -3  -8   1    5.27    1.48
  -2  -8   1   14.13    2.23
  -1  -8   1   22.72    2.04
   0  -8   1    5.81    1.09
   1  -8   1   63.27    3.15
   2  -8   1   56.25    3.31
   3  -8   1  102.18    3.25
   4  -8   1   42.03    2.32
   5  -8   1    2.67    0.79
   6  -8   1    2.58    0.91
   7  -8   1    8.18    1.44
   8  -8   1    4.43    1.20
   9  -8   1   93.09    3.52
  10  -8   1   15.51    1.71
  11  -8   1  104.67    4.77
  12  -8   1    5.87    1.35
  13  -8   1    0.42    1.07
  14  -8   1    7.16    1.91
  15  -8   1    2.56    1.90
  -8  -7   1    0.70    2.00
  -7  -7   1   56.80    4.85
  -6  -7   1    2.99    1.32
  -5  -7   1   19.60    2.70
  -4  -7   1   15.23    2.32
  -3  -7   1    4.71    1.29
  -2  -7   1   25.34    2.73
  -1  -7   1    9.72    1.26
   0  -7   1    4.11    0.91
   1  -7   1  132.17    4.06
   2  -7   1   73.99    2.57
   3  -7   1  211.73    4.99
   4  -7   1   10.76    1.19
   5  -7   1   57.53    1.96
   6  -7   1  215.19    5.01
   7  -7   1    2.18    0.63
   8  -7   1   65.67    2.83
   9  -7   1    1.64    0.70
  10  -7   1   25.15    2.52
  11  -7   1   22.33    2.44
  12  -7   1    3.25    1.23
  13  -7   1   10.64    1.88
  14  -7   1   61.59    6.12
  15  -7   1    1.63    1.94
  16  -7   1   11.41    4.04
  -9  -6   1   15.78    5.74
  -8  -6   1    8.34    2.11
  -7  -6   1   12.79    2.33
  -6  -6   1    4.05    1.38
  -5  -6   1    0.21    0.82
  -4  -6   1    5.89    1.44
  -3  -6   1   31.27    2.86
  -2  -6   1    2.57    0.71
  -1  -6   1  215.31    5.30
   0  -6   1   13.54    1.36
   1  -6   1   29.02    1.26
   2  -6   1   72.46    2.13
   3  -6   1   50.54    2.08
   4  -6   1   38.20    1.46
   5  -6   1   14.85    1.22
   6  -6   1   14.79    1.31
   7  -6   1  140.76    3.91
   8  -6   1   50.15    2.59
   9  -6   1    4.43    1.07
  10  -6   1    1.69    0.86
  11  -6   1   51.37    3.85
  12  -6   1    2.12    1.13
  13  -6   1    9.50    2.04
  14  -6   1    4.23    1.91
  15  -6   1    0.41    1.51
 -10  -5   1    4.92    3.46
  -9  -5   1   20.26    5.65
  -8  -5   1   -0.81    0.91
  -7  -5   1    0.96    1.03
  -6  -5   1   43.10    3.66
  -5  -5   1    0.44    0.79
  -4  -5   1   78.81    3.93
  -3  -5   1    2.91    0.69
  -2  -5   1   56.57    2.29
  -1  -5   1   13.37    1.20
   0  -5   1  153.53    3.90
   1  -5   1   18.66    1.03
   2  -5   1  146.78    3.16
   3  -5   1   14.69    0.93
   4  -5   1  264.37    4.81
   5  -5   1  151.39    3.72
   6  -5   1   24.85    1.70
   7  -5   1   69.39    2.60
   8  -5   1   93.18    3.69
   9  -5   1    6.27    1.25
  10  -5   1    0.60    0.81
  11  -5   1   -0.32    0.74
  12  -5   1   17.41    2.29
  13  -5   1    1.54    1.53
  14  -5   1    5.62    2.12
  15  -5   1   11.15    2.95
 -11  -4   1    4.19    3.24
 -10  -4   1    2.03    2.79
  -9  -4   1    8.82    1.96
  -8  -4   1    5.55    1.52
  -7  -4   1   23.39    2.65
  -6  -4   1    3.56    1.16
  -5  -4   1    4.71    1.17
  -4  -4   1   41.42    3.05
  -3  -4   1    9.15    0.91
  -2  -4   1   37.11    1.68
  -1  -4   1  268.07    5.45
   0  -4   1   65.46    1.60
   1  -4   1  184.30    3.52
   2  -4   1   11.27    0.72
   3  -4   1    4.67    0.53
   4  -4   1   66.38    2.01
   5  -4   1   17.71    1.33
   6  -4   1   70.48    1.83
   7  -4   1  205.96    4.98
   8  -4   1   42.48    2.02
   9  -4   1   70.49    3.72
  10  -4   1    6.79    1.40
  11  -4   1   18.85    2.30
  12  -4   1   10.82    2.40
  13  -4   1    3.10    1.77
  14  -4   1   25.60    4.19
  15  -4   1    0.83    1.86
 -11  -3   1    4.10    3.50
 -10  -3   1   26.41    4.18
  -9  -3   1    4.90    1.46
  -8  -3   1  101.86    4.96
  -7  -3   1   21.50    2.45
  -6  -3   1    2.85    0.97
  -5  -3   1   93.03    3.86
  -4  -3   1  196.77    4.02
  -3  -3   1   48.27    1.59
  -2  -3   1   13.39    0.80
  -1  -3   1    6.08    0.62
   0  -3   1  370.22    5.33
   1  -3   1  138.27    2.40
   2  -3   1  135.79    2.60
   3  -3   1  365.30    6.35
   4  -3   1  186.47    3.35
   5  -3   1  146.84    2.93
   6  -3   1   47.07    1.74
   7  -3   1    7.20    0.87
   8  -3   1    2.59    0.64
   9  -3   1   26.32    1.92
  10  -3   1    7.48    1.43
  11  -3   1    5.47    1.42
  12  -3   1    2.32    1.46
  13  -3   1   32.88    4.55
  14  -3   1    0.33    1.64
 -12  -2   1    7.54    3.92
 -11  -2   1   38.34    7.33
 -10  -2   1    2.86    1.67
  -9  -2   1    5.95    1.54
  -8  -2   1   18.09    2.29
  -7  -2   1    1.32    0.83
  -6  -2   1   55.99    2.80
  -5  -2   1   69.38    2.61
  -4  -2   1   65.04    2.37
  -3  -2   1  145.61    3.56
  -2  -2   1   12.17    0.63
  -1  -2   1  133.07    2.55
   0  -2   1   99.84    1.81
   1  -2   1   31.55    0.75
   2  -2   1   99.39    1.80
   3  -2   1  139.00    2.58
   4  -2   1   13.41    0.90
   5  -2   1   12.66    0.99
   6  -2   1   38.12    1.77
   7  -2   1   53.72    2.17
   8  -2   1    2.93    0.69
   9  -2   1   28.53    2.06
  10  -2   1   18.68    1.84
  11  -2   1    2.70    1.52
  12  -2   1   -0.64    1.11
  13  -2   1   10.77    2.68
  14  -2   1   15.77    4.66
 -13  -1   1   -0.40    2.26
 -12  -1   1   28.79    6.48
 -11  -1   1    1.67    1.73
 -10  -1   1   13.16    2.67
  -9  -1   1   39.01    3.36
  -8  -1   1   90.58    3.53
  -7  -1   1   63.66    2.82
  -6  -1   1  135.11    3.89
  -5  -1   1   24.31    1.06
  -4  -1   1   17.65    1.33
  -3  -1   1  186.09    3.99
  -2  -1   1  141.26    3.04
  -1  -1   1   31.43    0.99
   0  -1   1   22.01    0.56
   1  -1   1   20.78    0.52
   2  -1   1   30.57    1.01
   3  -1   1  132.37    2.85
   4  -1   1    4.32    0.58
   5  -1   1  263.83    4.50
   6  -1   1   14.46    0.93
   7  -1   1  216.74    4.24
   8  -1   1   10.45    1.23
   9  -1   1   17.44    1.72
  10  -1   1   75.38    4.07
  11  -1   1   21.41    2.50
  12  -1   1   13.79    2.96
  13  -1   1    5.89    3.12
  14  -1   1    2.12    2.68
 -13   0   1    2.28    2.85
 -12   0   1   13.48    3.06
 -11   0   1   14.87    3.06
 -10   0   1   31.62    3.04
  -9   0   1   12.90    1.90
  -8   0   1    5.02    0.99
  -7   0   1    3.33    0.76
  -6   0   1   12.14    0.96
  -5   0   1  153.87    3.77
  -4   0   1   62.57    1.98
  -3   0   1  370.60    6.55
  -2   0   1   99.57    1.98
  -1   0   1   19.91    0.81
   0   0   1    0.22    0.17
   1   0   1   19.98    0.67
   2   0   1  102.13    1.90
   3   0   1  365.21    6.28
   4   0   1   65.15    1.64
   5   0   1  151.20    3.10
   6   0   1   13.32    1.12
   7   0   1    2.62    0.59
   8   0   1    4.70    1.09
   9   0   1   13.30    1.86
  10   0   1   34.67    3.17
  11   0   1   17.22    3.03
  12   0   1   10.56    3.92
  13   0   1    0.71    2.67
 -14   1   1    6.03    3.95
 -13   1   1   13.66    4.63
 -12   1   1    9.15    2.52
 -11   1   1   16.30    3.05
 -10   1   1   66.79    4.35
  -9   1   1   19.82    2.03
  -8   1   1    9.63    1.17
  -7   1   1  211.97    5.12
  -6   1   1   14.62    1.25
  -5   1   1  250.27    5.30
  -4   1   1    5.09    0.60
  -3   1   1  133.97    2.52
  -2   1   1   30.97    0.88
  -1   1   1   21.64    0.65
   0   1   1   21.15    0.64
   1   1   1   33.27    0.84
   2   1   1  140.91    2.85
   3   1   1  187.47    4.31
   4   1   1   18.32    1.22
   5   1   1   25.44    1.43
   6   1   1  147.19    3.72
   7   1   1   67.44    2.57
   8   1   1   96.14    4.01
   9   1   1   37.75    3.24
  10   1   1   20.99    3.28
  11   1   1    5.48    1.94
  12   1   1   27.17    4.10
  13   1   1   -1.16    2.34
 -14   2   1   12.96    4.88
 -13   2   1   10.40    2.84
 -12   2   1   -0.16    1.23
 -11   2   1    6.74    2.07
 -10   2   1   20.73    2.29
  -9   2   1   26.27    2.04
  -8   2   1    2.60    0.70
  -7   2   1   56.68    2.29
  -6   2   1   37.72    1.85
  -5   2   1   12.42    1.01
  -4   2   1   11.82    0.79
  -3   2   1  140.66    2.95
  -2   2   1  100.93    2.16
  -1   2   1   31.90    1.01
   0   2   1  103.80    2.13
   1   2   1  137.68    2.46
   2   2   1   11.54    0.87
   3   2   1  148.35    3.30
   4   2   1   66.87    2.18
   5   2   1   71.32    2.73
   6   2   1   56.70    2.44
   7   2   1    1.57    0.62
   8   2   1   15.44    2.51
   9   2   1    7.65    1.96
  10   2   1    3.12    1.54
  11   2   1   44.51    5.00
  12   2   1    8.94    2.77
 -14   3   1   -0.14    1.75
 -13   3   1   24.42    3.98
 -12   3   1    1.46    1.28
 -11   3   1    7.52    2.13
 -10   3   1    7.26    1.41
  -9   3   1   31.82    2.19
  -8   3   1    2.22    0.63
  -7   3   1    9.03    1.03
  -6   3   1   48.64    1.92
  -5   3   1  145.99    2.97
  -4   3   1  184.77    3.83
  -3   3   1  375.27    6.43
  -2   3   1  134.25    2.77
  -1   3   1  139.09    2.82
   0   3   1  365.73    6.36
   1   3   1    4.52    0.48
   2   3   1   13.61    1.03
   3   3   1   48.96    1.83
   4   3   1  206.09    4.67
   5   3   1  100.50    3.09
   6   3   1    3.19    0.79
   7   3   1   25.56    2.39
   8   3   1   98.03    6.12
   9   3   1    4.94    1.82
  10   3   1   24.56    3.86
  11   3   1    6.97    2.42
  12   3   1    2.51    1.93
 -15   4   1    5.52    3.57
 -14   4   1   31.50    4.64
 -13   4   1    6.04    2.22
 -12   4   1   12.29    2.56
 -11   4   1   18.53    2.95
 -10   4   1    5.78    1.31
  -9   4   1   71.23    3.01
  -8   4   1   45.67    2.35
  -7   4   1  208.03    4.80
  -6   4   1   69.47    2.27
  -5   4   1   18.77    1.25
  -4   4   1   66.71    1.90
  -3   4   1    5.92    0.64
  -2   4   1   12.27    0.85
  -1   4   1  187.54    3.70
   0   4   1   63.65    1.84
   1   4   1  259.66    5.21
   2   4   1   36.30    1.65
   3   4   1    9.52    0.99
   4   4   1   42.90    2.09
   5   4   1    4.19    1.03
   6   4   1    4.36    1.02
   7   4   1   25.29    2.55
   8   4   1    7.17    2.06
   9   4   1    9.15    2.42
  10   4   1    7.05    2.42
  11   4   1    3.24    2.01
 -15   5   1   18.39    3.83
 -14   5   1    6.86    2.45
 -13   5   1   -0.99    1.04
 -12   5   1   15.95    2.97
 -11   5   1   -0.22    0.64
 -10   5   1    0.52    0.71
  -9   5   1    6.58    1.06
  -8   5   1   97.57    3.17
  -7   5   1   70.88    2.51
  -6   5   1   28.88    1.61
  -5   5   1  156.50    3.56
  -4   5   1  265.95    5.16
  -3   5   1   13.80    1.03
  -2   5   1  145.39    3.13
  -1   5   1   20.16    1.12
   0   5   1  158.53    3.55
   1   5   1   12.32    1.09
   2   5   1   56.11    2.22
   3   5   1    3.23    0.84
   4   5   1   74.33    3.43
   5   5   1    1.32    0.77
   6   5   1   58.47    3.97
   7   5   1    2.09    1.10
   8   5   1    0.71    1.31
   9   5   1   23.99    3.83
  10   5   1    5.74    2.31
 -15   6   1    1.13    1.81
 -14   6   1    3.57    1.94
 -13   6   1    5.14    1.98
 -12   6   1    3.64    1.61
 -11   6   1   55.81    3.95
 -10   6   1    2.95    0.96
  -9   6   1    3.20    0.80
  -8   6   1   57.96    2.60
  -7   6   1  141.22    4.44
  -6   6   1   15.19    1.21
  -5   6   1   15.77    1.16
  -4   6   1   37.31    1.71
  -3   6   1   51.34    2.12
  -2   6   1   69.29    1.99
  -1   6   1   27.26    1.39
   0   6   1   14.03    1.16
   1   6   1  221.00    5.01
   2   6   1    3.27    0.73
   3   6   1   29.44    2.14
   4   6   1    8.68    1.42
   5   6   1    0.13    0.81
   6   6   1    5.37    1.41
   7   6   1   10.08    2.56
   8   6   1    8.18    2.32
   9   6   1   16.02    3.29
 -16   7   1   13.28    5.12
 -15   7   1    1.15    1.86
 -14   7   1   69.65    6.70
 -13   7   1    5.81    2.00
 -12   7   1    2.42    1.64
 -11   7   1   23.51    2.63
 -10   7   1   21.48    2.47
  -9   7   1    3.25    0.82
  -8   7   1   67.29    3.18
  -7   7   1    3.58    0.84
  -6   7   1  221.14    6.05
  -5   7   1   57.12    2.12
  -4   7   1    7.91    0.91
  -3   7   1  205.75    5.41
  -2   7   1   69.42    2.83
  -1   7   1  144.30    4.46
   0   7   1    3.28    0.65
   1   7   1    8.86    1.11
   2   7   1   28.77    2.08
   3   7   1    5.92    1.11
   4   7   1   21.82    2.36
   5   7   1   16.12    2.51
   6   7   1    5.05    1.89
   7   7   1   50.97    7.79
   8   7   1    3.23    2.50
 -16   8   1   -1.41    2.69
 -15   8   1    0.19    1.48
 -14   8   1    8.71    2.63
 -13   8   1    0.34    1.17
 -12   8   1    5.27    1.89
 -11   8   1  105.38    4.80
 -10   8   1   18.58    2.33
  -9   8   1   92.20    3.93
  -8   8   1    4.36    1.08
  -7   8   1   12.89    1.65
  -6   8   1    4.22    0.98
  -5   8   1    2.72    0.64
  -4   8   1   42.76    2.18
  -3   8   1   99.36    3.59
  -2   8   1   59.58    2.79
  -1   8   1   58.97    3.22
   0   8   1    7.05    1.28
   1   8   1   25.56    2.41
   2   8   1   18.80    2.18
   3   8   1    7.11    1.60
   4   8   1   14.80    2.75
   5   8   1    0.87    1.35
   6   8   1    4.52    1.86
   7   8   1   -0.94    2.20
 -16   9   1    7.55    4.40
 -15   9   1   14.71    3.40
 -14   9   1   22.21    3.80
 -13   9   1   15.07    3.11
 -12   9   1    8.54    2.27
 -11   9   1    6.66    1.57
 -10   9   1   35.54    4.03
  -9   9   1   13.20    1.85
  -8   9   1   22.64    2.31
  -7   9   1   28.81    2.52
  -6   9   1   30.45    2.56
  -5   9   1   76.37    3.41
  -4   9   1    5.86    1.07
  -3   9   1    3.94    0.99
  -2   9   1    1.84    0.75
  -1   9   1   92.92    3.93
   0   9   1   11.74    1.70
   1   9   1   72.94    4.16
   2   9   1    7.84    1.58
   3   9   1    0.31    0.90
   4   9   1    3.40    1.69
   5   9   1    2.87    1.79
   6   9   1   -0.10    1.64
 -16  10   1    9.25    6.11
 -15  10   1    0.75    1.69
 -14  10   1    0.82    1.50
 -13  10   1   30.71    4.42
 -12  10   1    1.74    1.43
 -11  10   1   22.69    2.84
 -10  10   1   29.97    3.87
  -9  10   1   70.39    3.99
  -8  10   1   20.56    2.38
  -7  10   1    6.63    1.14
  -6  10   1    6.02    1.29
  -5  10   1    1.72    0.87
  -4  10   1    1.76    0.87
  -3  10   1   25.77    2.48
  -2  10   1   14.82    1.92
  -1  10   1   32.29    2.80
   0  10   1   36.09    3.18
   1  10   1   14.62    2.16
   2  10   1    1.18    1.02
   3  10   1   31.80    4.14
   4  10   1   31.87    4.32
   5  10   1   14.86    3.12
 -15  11   1    4.28    2.37
 -14  11   1    8.21    2.68
 -13  11   1   36.85    4.90
 -12  11   1    4.79    2.06
 -11  11   1   19.72    3.40
 -10  11   1   24.76    3.67
  -9  11   1    3.78    1.24
  -8  11   1    8.49    1.54
  -7  11   1   16.75    2.11
  -6  11   1    0.21    0.74
  -5  11   1   53.94    3.92
  -4  11   1   23.60    3.13
  -3  11   1  103.94    4.41
  -2  11   1   10.32    1.75
  -1  11   1   23.54    2.55
   0  11   1   16.00    2.29
   1  11   1   13.30    2.19
   2  11   1    9.03    2.50
   3  11   1   -1.07    1.37
   4  11   1    3.93    2.04
 -15  12   1    3.39    2.25
 -14  12   1    5.86    2.47
 -13  12   1   27.99    4.44
 -12  12   1   20.11    3.65
 -11  12   1   15.25    3.16
 -10  12   1    0.43    1.31
  -9  12   1    0.72    0.99
  -8  12   1   11.51    1.93
  -7  12   1   21.07    2.47
  -6  12   1    5.98    1.51
  -5  12   1    1.73    1.05
  -4  12   1    9.26    2.24
  -3  12   1    5.09    1.66
  -2  12   1    3.89    1.27
  -1  12   1    5.53    1.50
   0  12   1   14.53    2.40
   1  12   1   10.04    2.60
   2  12   1   15.48    3.06
   3  12   1    4.88    2.43
 -14  13   1   -1.68    1.65
 -13  13   1    0.75    1.65
 -12  13   1    7.93    2.56
 -11  13   1    3.51    1.83
 -10  13   1   31.72    4.27
  -9  13   1    3.09    1.30
  -8  13   1    0.48    1.03
  -7  13   1    5.92    1.53
  -6  13   1    9.01    1.84
  -5  13   1    5.95    1.44
  -4  13   1    8.48    2.35
  -3  13   1   25.73    3.64
  -2  13   1   31.86    4.22
  -1  13   1   26.84    3.98
   0  13   1    2.11    1.71
   1  13   1    5.24    2.24
 -14  14   1    1.95    2.78
 -13  14   1    5.46    2.38
 -12  14   1   11.36    2.92
 -11  14   1    1.07    1.74
 -10  14   1   29.81    4.41
  -9  14   1    6.28    1.81
  -8  14   1    4.24    1.50
  -7  14   1   60.86    4.87
  -6  14   1    7.99    1.95
  -5  14   1   19.93    2.83
  -4  14   1    3.07    1.66
  -3  14   1    5.04    2.11
  -2  14   1   11.55    2.89
  -1  14   1    0.91    2.44
 -12  15   1    2.72    2.99
 -11  15   1    1.72    2.06
 -10  15   1   16.66    3.74
  -9  15   1    0.70    1.29
  -8  15   1    0.88    1.18
  -7  15   1    1.77    1.34
  -6  15   1   18.98    2.94
  -5  15   1    5.81    1.74
  -4  15   1    1.05    1.77
  -3  15   1    3.43    3.21
  -9  16   1   21.92    5.43
  -8  16   1    5.64    3.06
  -7  16   1   10.59    4.41
   4 -15   2   13.31    3.73
   5 -15   2    1.82    2.23
   6 -15   2   11.76    2.50
   7 -15   2   12.55    2.67
   8 -15   2    2.31    2.07
   9 -15   2   -0.47    1.69
  10 -15   2    2.11    2.03
  11 -15   2   -0.77    1.80
   1 -14   2    3.35    3.75
   2 -14   2   -0.19    1.92
   3 -14   2   -0.93    1.81
   4 -14   2    6.45    2.61
   5 -14   2    2.47    1.50
   6 -14   2    0.99    1.37
   7 -14   2   11.15    2.40
   8 -14   2    4.34    2.16
   9 -14   2   37.73    5.11
  10 -14   2   56.16    6.16
  11 -14   2    2.70    2.15
  12 -14   2   16.48    3.63
  13 -14   2    0.11    2.04
  -1 -13   2    3.45    3.31
   0 -13   2   24.80    4.49
   1 -13   2   -0.33    1.69
   2 -13   2   55.42    6.74
   3 -13   2    2.27    1.94
   4 -13   2    5.37    1.63
   5 -13   2   39.56    3.96
   6 -13   2    4.37    1.69
   7 -13   2    9.00    2.11
   8 -13   2    4.70    2.05
   9 -13   2    6.86    2.43
  10 -13   2    0.78    1.48
  11 -13   2    0.16    1.24
  12 -13   2   -0.02    1.33
  13 -13   2   29.51    3.79
  14 -13   2    4.58    3.46
  -3 -12   2    7.20    2.98
  -2 -12   2   11.83    2.66
  -1 -12   2   -0.73    1.80
   0 -12   2   13.56    3.45
   1 -12   2    3.84    2.00
   2 -12   2    1.84    1.53
   3 -12   2    4.24    1.62
   4 -12   2    8.02    1.82
   5 -12   2   12.30    2.12
   6 -12   2   29.95    3.35
   7 -12   2    2.19    1.37
   8 -12   2   55.99    5.84
   9 -12   2    5.06    1.53
  10 -12   2   14.94    2.36
  11 -12   2   22.27    3.12
  12 -12   2   12.27    2.47
  13 -12   2    0.43    1.28
  14 -12   2    8.95    2.76
  -4 -11   2   -0.21    1.70
  -3 -11   2    1.46    1.60
  -2 -11   2    0.11    1.31
  -1 -11   2   17.20    2.99
   0 -11   2    7.25    1.85
   1 -11   2   15.68    3.15
   2 -11   2    2.23    1.62
   3 -11   2   20.74    2.71
   4 -11   2  154.02    6.25
   5 -11   2   12.43    2.16
   6 -11   2    9.16    1.87
   7 -11   2   75.29    6.31
   8 -11   2    6.85    1.56
   9 -11   2   -0.10    0.85
  10 -11   2    5.37    1.54
  11 -11   2    9.25    2.09
  12 -11   2    1.67    1.38
  13 -11   2   53.32    5.77
  14 -11   2   -0.26    1.54
  15 -11   2   11.38    3.17
  -5 -10   2    1.20    1.65
  -4 -10   2   58.23    5.33
  -3 -10   2    0.15    1.24
  -2 -10   2   10.14    2.27
  -1 -10   2    1.96    1.27
   0 -10   2   44.24    4.17
   1 -10   2    1.00    1.04
   2 -10   2   20.32    2.47
   3 -10   2    1.02    0.93
   4 -10   2    0.28    0.81
   5 -10   2   13.70    2.02
   6 -10   2  130.22    4.47
   7 -10   2    2.97    1.06
   8 -10   2  126.53    5.25
   9 -10   2   51.47    4.14
  10 -10   2   47.47    4.03
  11 -10   2   24.48    3.08
  12 -10   2    3.35    1.74
  13 -10   2    1.62    1.56
  14 -10   2    8.66    2.64
  15 -10   2   -0.33    1.71
  -6  -9   2    0.62    1.78
  -5  -9   2   34.26    4.00
  -4  -9   2    9.58    2.12
  -3  -9   2    7.01    1.86
  -2  -9   2    0.17    0.95
  -1  -9   2   34.07    3.46
   0  -9   2   16.15    2.43
   1  -9   2   10.61    1.53
   2  -9   2    3.23    0.96
   3  -9   2   74.24    4.06
   4  -9   2   53.77    3.86
   5  -9   2    5.07    1.03
   6  -9   2   27.06    2.23
   7  -9   2    2.71    1.05
   8  -9   2   37.32    3.21
   9  -9   2   24.39    2.56
  10  -9   2    0.01    0.89
  11  -9   2    0.34    1.13
  12  -9   2    4.34    1.90
  13  -9   2    7.15    2.24
  14  -9   2    2.03    1.70
  15  -9   2    4.94    2.42
  -7  -8   2    0.19    1.87
  -6  -8   2    3.93    1.93
  -5  -8   2    5.54    1.77
  -4  -8   2   64.31    4.87
  -3  -8   2    5.75    1.66
  -2  -8   2  120.69    5.50
  -1  -8   2   34.35    3.38
   0  -8   2   96.35    3.76
   1  -8   2    0.67    0.65
   2  -8   2   22.18    2.00
   3  -8   2   53.87    2.62
   4  -8   2   34.88    2.27
   5  -8   2   46.19    2.82
   6  -8   2   46.62    3.31
   7  -8   2   38.84    3.15
   8  -8   2   99.68    4.42
   9  -8   2   11.26    1.48
  10  -8   2   21.29    2.07
  11  -8   2   16.32    2.17
  12  -8   2    6.91    1.64
  13  -8   2   34.91    3.53
  14  -8   2    1.38    1.32
  15  -8   2    7.99    2.08
  -8  -7   2    8.28    2.99
  -7  -7   2   11.23    3.02
  -6  -7   2   14.69    2.41
  -5  -7   2    2.03    1.27
  -4  -7   2   68.28    4.92
  -3  -7   2    1.07    0.89
  -2  -7   2    3.03    1.14
  -1  -7   2   27.34    2.81
   0  -7   2    3.98    0.91
   1  -7   2   65.15    2.89
   2  -7   2   93.52    2.72
   3  -7   2   49.90    2.38
   4  -7   2  148.81    3.50
   5  -7   2   23.00    1.46
   6  -7   2   50.79    2.44
   7  -7   2    4.10    0.79
   8  -7   2    1.04    0.59
   9  -7   2    2.18    0.79
  10  -7   2    1.81    0.91
  11  -7   2  150.97    5.82
  12  -7   2   13.03    2.10
  13  -7   2    4.09    1.42
  14  -7   2   15.13    2.48
  15  -7   2    2.31    1.86
  -9  -6   2   11.34    3.35
  -8  -6   2    1.74    1.83
  -7  -6   2    4.22    1.97
  -6  -6   2   27.68    3.07
  -5  -6   2    7.92    1.65
  -4  -6   2  132.66    5.41
  -3  -6   2   21.23    2.40
  -2  -6   2   41.05    3.28
  -1  -6   2   44.59    2.23
   0  -6   2   18.22    1.59
   1  -6   2   52.64    1.99
   2  -6   2    2.00    0.51
   3  -6   2   60.87    2.05
   4  -6   2   81.20    2.37
   5  -6   2  211.74    5.01
   6  -6   2   16.48    1.47
   7  -6   2   62.13    2.86
   8  -6   2   21.20    1.92
   9  -6   2   73.21    3.82
  10  -6   2    0.16    0.72
  11  -6   2    9.59    1.75
  12  -6   2   32.21    3.21
  13  -6   2   13.45    2.24
  14  -6   2    7.71    2.41
  15  -6   2    3.34    1.96
 -10  -5   2    0.71    1.79
  -9  -5   2   -0.68    1.52
  -8  -5   2   29.62    4.40
  -7  -5   2    8.81    2.07
  -6  -5   2    8.22    1.69
  -5  -5   2   10.90    1.58
  -4  -5   2    2.96    0.96
  -3  -5   2   38.51    3.07
  -2  -5   2   18.93    1.37
  -1  -5   2  214.02    5.03
   0  -5   2   25.69    1.77
   1  -5   2   84.67    2.32
   2  -5   2   16.21    1.05
   3  -5   2   46.29    1.79
   4  -5   2   23.45    1.13
   5  -5   2   29.24    1.35
   6  -5   2   53.52    1.83
   7  -5   2   92.46    3.17
   8  -5   2   55.52    3.45
   9  -5   2   51.42    3.50
  10  -5   2   12.93    1.90
  11  -5   2    9.83    1.80
  12  -5   2    4.08    1.36
  13  -5   2    6.32    1.69
  14  -5   2   29.45    4.36
  15  -5   2    0.27    1.77
 -10  -4   2    6.06    2.46
  -9  -4   2    4.58    2.06
  -8  -4   2    5.74    1.89
  -7  -4   2  162.49    6.18
  -6  -4   2    0.79    0.86
  -5  -4   2   53.80    3.17
  -4  -4   2   30.60    2.30
  -3  -4   2  147.59    4.29
  -2  -4   2   80.44    2.22
  -1  -4   2   24.18    1.26
   0  -4   2   71.56    1.82
   1  -4   2  128.28    2.43
   2  -4   2   63.96    1.46
   3  -4   2    5.20    0.57
   4  -4   2   69.17    1.93
   5  -4   2   80.79    2.19
   6  -4   2    2.35    0.50
   7  -4   2   48.47    2.11
   8  -4   2   33.97    1.96
   9  -4   2    6.99    1.32
  10  -4   2  130.94    5.17
  11  -4   2   77.09    4.85
  12  -4   2   63.15    4.67
  13  -4   2    8.43    2.32
  14  -4   2   54.27    6.03
  15  -4   2    1.58    2.09
 -11  -3   2    0.90    1.86
 -10  -3   2    2.55    1.68
  -9  -3   2    3.29    1.78
  -8  -3   2   13.38    2.83
  -7  -3   2    2.02    0.85
  -6  -3   2   69.12    3.37
  -5  -3   2   59.69    2.98
  -4  -3   2   49.93    2.51
  -3  -3   2   61.96    2.42
  -2  -3   2   51.51    1.59
  -1  -3   2    6.40    0.66
   0  -3   2   83.62    1.76
   1  -3   2   27.07    1.05
   2  -3   2  186.29    2.81
   3  -3   2   82.63    1.81
   4  -3   2  127.87    2.83
   5  -3   2   16.34    1.18
   6  -3   2   64.19    2.17
   7  -3   2  149.60    3.87
   8  -3   2   37.67    2.13
   9  -3   2   25.64    1.98
  10  -3   2    2.10    0.93
  11  -3   2    5.88    1.45
  12  -3   2    7.04    2.14
  13  -3   2   -0.01    1.21
  14  -3   2    4.12    2.03
 -12  -2   2    5.03    2.31
 -11  -2   2   49.07    5.80
 -10  -2   2    2.65    1.86
  -9  -2   2    3.53    1.39
  -8  -2   2   22.79    2.66
  -7  -2   2    4.60    1.01
  -6  -2   2   24.28    2.00
  -5  -2   2   93.45    3.17
  -4  -2   2    1.84    0.57
  -3  -2   2   15.33    1.30
  -2  -2   2   64.11    2.15
  -1  -2   2  188.68    3.26
   0  -2   2  430.67    5.32
   1  -2   2  157.99    2.42
   2  -2   2  433.01    5.25
   3  -2   2   23.81    0.94
   4  -2   2   64.61    2.00
   5  -2   2   45.86    1.92
   6  -2   2   77.50    2.55
   7  -2   2   16.52    1.44
   8  -2   2   46.33    2.44
   9  -2   2    4.35    0.94
  10  -2   2  121.90    4.13
  11  -2   2   -0.62    0.99
  12  -2   2   13.05    2.86
  13  -2   2    0.18    1.41
  14  -2   2   15.26    4.72
 -12  -1   2    0.86    1.73
 -11  -1   2    2.49    1.81
 -10  -1   2   19.88    3.46
  -9  -1   2   -0.33    0.80
  -8  -1   2    7.28    1.48
  -7  -1   2    0.55    0.58
  -6  -1   2   59.20    2.59
  -5  -1   2   54.28    2.42
  -4  -1   2   79.92    2.55
  -3  -1   2  129.14    3.21
  -2  -1   2   24.22    1.17
  -1  -1   2  159.01    3.07
   0  -1   2   83.21    1.51
   1  -1   2   81.92    1.58
   2  -1   2  155.25    3.39
   3  -1   2  188.73    3.39
   4  -1   2    6.18    0.51
   5  -1   2   21.10    1.46
   6  -1   2  215.22    5.02
   7  -1   2   49.43    2.46
   8  -1   2   32.43    2.22
   9  -1   2   40.21    3.11
  10  -1   2   40.52    3.37
  11  -1   2    4.31    1.77
  12  -1   2   22.38    3.74
  13  -1   2    0.53    2.25
 -13   0   2   24.95    4.56
 -12   0   2   14.76    3.18
 -11   0   2    4.94    2.15
 -10   0   2   50.70    5.27
  -9   0   2   19.66    2.39
  -8   0   2   93.33    4.25
  -7   0   2    4.15    0.86
  -6   0   2   22.86    1.67
  -5   0   2   28.89    1.55
  -4   0   2   73.55    2.16
  -3   0   2   81.64    1.96
  -2   0   2  427.23    7.63
  -1   0   2   88.27    2.17
   0   0   2  220.99    3.39
   1   0   2   82.50    1.80
   2   0   2  428.06    7.35
   3   0   2   78.64    2.07
   4   0   2   66.92    1.94
   5   0   2   28.68    1.32
   6   0   2   18.72    1.16
   7   0   2    3.59    1.01
   8   0   2   95.95    4.05
   9   0   2   24.40    2.53
  10   0   2   40.40    3.43
  11   0   2    4.43    1.66
  12   0   2   11.63    4.02
  13   0   2   17.12    5.08
 -14   1   2    3.33    3.05
 -13   1   2    2.67    1.83
 -12   1   2   10.91    2.61
 -11   1   2    4.03    1.85
 -10   1   2   39.18    4.40
  -9   1   2   34.68    3.10
  -8   1   2   32.04    2.83
  -7   1   2   50.68    2.42
  -6   1   2  213.13    4.90
  -5   1   2   20.36    1.31
  -4   1   2    6.41    0.57
  -3   1   2  185.99    4.05
  -2   1   2  156.01    3.32
  -1   1   2   85.14    1.79
   0   1   2   82.74    1.87
   1   1   2  162.03    2.86
   2   1   2   24.58    1.21
   3   1   2  126.31    3.41
   4   1   2   84.38    2.40
   5   1   2   54.10    2.00
   6   1   2   61.47    2.27
   7   1   2    0.32    0.62
   8   1   2    8.32    1.54
   9   1   2    0.55    0.85
  10   1   2   19.21    3.12
  11   1   2    2.25    1.56
  12   1   2    0.71    1.46
 -14   2   2    9.02    2.89
 -13   2   2    0.43    1.62
 -12   2   2    7.09    2.19
 -11   2   2   -0.18    0.98
 -10   2   2  113.62    6.31
  -9   2   2    3.02    1.03
  -8   2   2   45.75    2.44
  -7   2   2   20.87    1.57
  -6   2   2   83.47    2.52
  -5   2   2   50.18    1.61
  -4   2   2   65.55    1.64
  -3   2   2   26.10    1.28
  -2   2   2  426.48    6.56
  -1   2   2  161.73    3.36
   0   2   2  429.63    7.25
   1   2   2  189.94    3.35
   2   2   2   62.60    1.57
   3   2   2   16.70    1.24
   4   2   2    2.72    0.56
   5   2   2   91.57    2.85
   6   2   2   25.24    1.82
   7   2   2    3.23    1.00
   8   2   2   17.72    2.20
   9   2   2    0.82    1.16
  10   2   2    2.54    1.59
  11   2   2   47.93    5.28
  12   2   2    2.46    2.04
 -15   3   2   11.43    5.08
 -14   3   2    8.02    2.74
 -13   3   2    0.12    1.42
 -12   3   2    8.65    2.48
 -11   3   2    4.76    1.78
 -10   3   2    0.86    0.89
  -9   3   2   24.59    2.40
  -8   3   2   46.37    2.33
  -7   3   2  144.58    4.30
  -6   3   2   62.08    1.91
  -5   3   2   19.56    1.15
  -4   3   2  129.85    3.18
  -3   3   2   80.78    2.17
  -2   3   2  193.61    3.40
  -1   3   2   25.26    1.25
   0   3   2   76.03    2.07
   1   3   2    6.18    0.60
   2   3   2   46.30    1.48
   3   3   2   65.61    1.86
   4   3   2   42.18    2.13
   5   3   2   64.35    2.51
   6   3   2   70.62    2.93
   7   3   2    0.60    0.90
   8   3   2   27.19    3.49
   9   3   2    3.31    1.56
  10   3   2    0.92    1.45
  11   3   2   -0.47    1.53
  12   3   2   -0.54    2.31
 -15   4   2   -1.97    1.74
 -14   4   2   56.78    6.27
 -13   4   2    8.37    2.55
 -12   4   2   53.41    5.47
 -11   4   2   87.00    6.47
 -10   4   2  131.79    5.18
  -9   4   2    4.82    1.22
  -8   4   2   32.48    2.08
  -7   4   2   45.17    1.96
  -6   4   2    3.47    0.57
  -5   4   2   76.74    2.48
  -4   4   2   70.35    2.17
  -3   4   2    7.11    0.77
  -2   4   2   62.80    1.68
  -1   4   2  130.67    3.06
   0   4   2   69.28    2.08
   1   4   2   22.75    1.36
   2   4   2   77.85    2.15
   3   4   2  151.59    3.33
   4   4   2   35.25    2.15
   5   4   2   55.27    3.13
   6   4   2    0.58    0.78
   7   4   2  161.57    7.38
   8   4   2    6.97    2.17
   9   4   2    4.12    2.07
  10   4   2    5.67    2.37
  11   4   2   11.58    2.99
 -15   5   2   -0.71    1.61
 -14   5   2   38.12    4.77
 -13   5   2    2.46    1.62
 -12   5   2    2.02    1.36
 -11   5   2    8.03    2.02
 -10   5   2   12.57    1.90
  -9   5   2   51.20    3.43
  -8   5   2   60.16    2.57
  -7   5   2   92.98    2.60
  -6   5   2   55.10    2.20
  -5   5   2   26.87    1.64
  -4   5   2   23.71    1.49
  -3   5   2   46.12    1.74
  -2   5   2   17.80    1.28
  -1   5   2   82.21    2.42
   0   5   2   30.32    1.70
   1   5   2  219.25    4.80
   2   5   2   20.04    1.47
   3   5   2   44.49    2.24
   4   5   2    2.79    0.87
   5   5   2   13.06    1.71
   6   5   2   13.57    1.92
   7   5   2   13.02    2.64
   8   5   2   46.07    4.99
   9   5   2    2.32    1.76
  10   5   2   -0.19    1.69
 -15   6   2    0.86    1.72
 -14   6   2    7.68    2.47
 -13   6   2    7.31    2.25
 -12   6   2   26.96    3.78
 -11   6   2   11.45    2.54
 -10   6   2    1.47    0.84
  -9   6   2   62.81    3.58
  -8   6   2   28.21    2.00
  -7   6   2   56.46    2.38
  -6   6   2   26.32    1.76
  -5   6   2  217.64    4.88
  -4   6   2   82.69    2.53
  -3   6   2   62.66    2.14
  -2   6   2    2.02    0.52
  -1   6   2   52.67    1.96
   0   6   2   22.77    1.61
   1   6   2   54.53    2.22
   2   6   2   44.78    2.29
   3   6   2   24.75    1.90
   4   6   2  127.94    4.77
   5   6   2    7.65    1.47
   6   6   2   35.29    3.21
   7   6   2    3.84    1.81
   8   6   2    1.90    1.55
   9   6   2   12.54    3.44
 -15   7   2    1.31    1.84
 -14   7   2   17.14    3.50
 -13   7   2    6.19    2.00
 -12   7   2   14.64    2.76
 -11   7   2  163.45    7.62
 -10   7   2    1.68    0.93
  -9   7   2    3.20    0.86
  -8   7   2    1.89    0.78
  -7   7   2    6.33    1.12
  -6   7   2   47.21    2.36
  -5   7   2   20.83    1.60
  -4   7   2  148.21    3.82
  -3   7   2   49.96    2.68
  -2   7   2   89.38    2.75
  -1   7   2   65.19    2.31
   0   7   2    3.77    0.78
   1   7   2   34.09    2.18
   2   7   2    2.94    0.74
   3   7   2    2.32    0.98
   4   7   2   80.66    4.70
   5   7   2    3.39    1.55
   6   7   2   15.21    4.31
   7   7   2   10.90    3.81
   8   7   2   13.17    4.41
 -15   8   2    9.08    2.81
 -14   8   2    1.39    1.63
 -13   8   2   36.11    4.76
 -12   8   2    6.53    2.00
 -11   8   2   22.74    3.34
 -10   8   2   18.11    2.22
  -9   8   2   10.16    1.64
  -8   8   2   96.14    4.09
  -7   8   2   35.93    2.85
  -6   8   2   47.72    3.05
  -5   8   2   43.78    2.43
  -4   8   2   38.92    2.28
  -3   8   2   59.10    2.76
  -2   8   2   19.30    1.94
  -1   8   2    0.97    0.65
   0   8   2  107.53    4.07
   1   8   2   42.81    3.19
   2   8   2  123.08    6.00
   3   8   2    2.27    1.36
   4   8   2   69.45    5.67
   5   8   2    6.84    2.02
   6   8   2    5.32    3.06
   7   8   2    0.09    1.99
 -15   9   2   10.15    2.87
 -14   9   2    2.92    1.88
 -13   9   2    3.15    1.79
 -12   9   2    4.68    1.82
 -11   9   2    4.15    1.57
 -10   9   2    0.53    0.80
  -9   9   2   19.10    2.22
  -8   9   2   37.76    2.99
  -7   9   2    2.87    1.01
  -6   9   2   24.31    2.34
  -5   9   2    6.57    1.06
  -4   9   2   54.83    2.90
  -3   9   2   65.52    3.29
  -2   9   2    3.30    0.98
  -1   9   2   11.16    1.68
   0   9   2   22.45    2.37
   1   9   2   40.60    3.17
   2   9   2   -0.82    0.80
   3   9   2    8.13    2.26
   4   9   2   10.18    2.38
   5   9   2   33.84    4.33
   6   9   2    3.10    2.65
 -15  10   2    0.99    1.83
 -14  10   2    5.61    2.34
 -13  10   2    4.24    1.91
 -12  10   2    5.18    1.96
 -11  10   2   21.69    3.51
 -10  10   2   54.42    4.04
  -9  10   2   40.98    3.43
  -8  10   2  121.28    4.84
  -7  10   2    0.68    0.77
  -6  10   2  127.22    4.84
  -5  10   2   15.25    1.96
  -4  10   2    0.59    0.58
  -3  10   2    1.43    0.81
  -2  10   2   23.67    2.36
  -1  10   2    1.75    0.93
   0  10   2   55.56    3.81
   1  10   2    4.79    1.67
   2  10   2   10.40    2.36
   3  10   2   -0.06    1.12
   4  10   2   62.80    5.83
   5  10   2    1.69    1.90
 -15  11   2   13.05    3.34
 -14  11   2    1.09    1.62
 -13  11   2   53.26    5.86
 -12  11   2    2.56    1.64
 -11  11   2    7.83    2.15
 -10  11   2    3.73    1.23
  -9  11   2   -0.23    0.77
  -8  11   2    5.84    1.35
  -7  11   2   91.61    4.67
  -6  11   2    8.27    1.64
  -5  11   2   12.01    1.85
  -4  11   2  159.45    5.74
  -3  11   2   18.39    2.23
  -2  11   2    1.55    0.98
  -1  11   2   16.06    2.10
   0  11   2    6.47    1.95
   1  11   2   11.22    2.55
   2  11   2   -0.81    1.30
   3  11   2    0.43    1.47
   4  11   2   -2.29    1.36
 -15  12   2    3.89    3.25
 -14  12   2    4.49    2.24
 -13  12   2    0.32    1.62
 -12  12   2   11.68    2.79
 -11  12   2   26.71    4.05
 -10  12   2   10.97    2.09
  -9  12   2    6.65    1.59
  -8  12   2   64.71    4.49
  -7  12   2    2.99    1.23
  -6  12   2   33.16    3.16
  -5  12   2   14.93    2.22
  -4  12   2    5.66    1.46
  -3  12   2    1.67    1.30
  -2  12   2    4.64    1.37
  -1  12   2    2.37    1.39
   0  12   2   11.76    2.52
   1  12   2    1.50    1.47
   2  12   2   18.39    3.48
   3  12   2    8.88    5.21
 -13  13   2   40.54    7.93
 -12  13   2    1.05    2.44
 -11  13   2    1.06    1.92
 -10  13   2    0.58    1.44
  -9  13   2    6.25    2.02
  -8  13   2    4.17    1.84
  -7  13   2   13.85    2.70
  -6  13   2    7.80    2.17
  -5  13   2   27.56    3.83
  -4  13   2    6.35    2.05
  -3  13   2    4.32    1.76
  -2  13   2   59.46    5.74
  -1  13   2    0.71    1.50
   0  13   2   23.68    3.63
   1  13   2    1.34    1.86
 -12  14   2   12.25    4.62
 -11  14   2    2.53    2.77
 -10  14   2   66.28    6.17
  -9  14   2   34.34    4.46
  -8  14   2    8.35    2.43
  -7  14   2   12.80    2.85
  -6  14   2    1.11    1.46
  -5  14   2    2.37    1.63
  -4  14   2    5.71    2.21
  -3  14   2    0.78    1.60
  -2  14   2    7.05    3.37
 -11  15   2    1.09    2.60
 -10  15   2    3.94    2.03
  -9  15   2    0.04    1.41
  -8  15   2    0.41    1.62
  -7  15   2   11.60    2.93
  -6  15   2    8.66    2.67
  -5  15   2    2.03    1.62
  -4  15   2   11.33    3.49
   6 -15   3   12.21    6.30
   7 -15   3    2.31    1.72
   8 -15   3    5.53    2.41
   9 -15   3   -1.52    2.44
  10 -15   3    0.37    3.69
   2 -14   3    6.88    4.15
   3 -14   3    0.63    2.15
   4 -14   3    5.38    2.62
   5 -14   3   22.70    4.61
   6 -14   3   12.89    2.52
   7 -14   3   44.86    4.66
   8 -14   3    3.07    1.96
   9 -14   3    0.13    1.60
  10 -14   3   23.83    4.16
  11 -14   3    1.04    1.80
  12 -14   3   14.37    8.10
   0 -13   3    0.34    2.04
   1 -13   3    9.32    3.14
   2 -13   3   27.11    4.59
   3 -13   3   37.37    5.42
   4 -13   3    8.54    2.95
   5 -13   3    0.40    1.31
   6 -13   3    4.60    1.74
   7 -13   3   30.59    3.69
   8 -13   3    0.05    1.50
   9 -13   3    7.80    2.53
  10 -13   3   22.83    3.98
  11 -13   3    5.41    2.39
  12 -13   3    9.09    2.24
  13 -13   3   -1.65    1.54
  -2 -12   3   12.94    3.47
  -1 -12   3    7.54    2.34
   0 -12   3   12.98    2.81
   1 -12   3    1.22    1.79
   2 -12   3   17.28    3.54
   3 -12   3    0.00    1.47
   4 -12   3    7.61    1.94
   5 -12   3    0.69    1.14
   6 -12   3    6.17    1.81
   7 -12   3   16.33    2.57
   8 -12   3    8.55    2.40
   9 -12   3    1.88    1.54
  10 -12   3    1.38    1.34
  11 -12   3   23.56    3.04
  12 -12   3    9.07    2.12
  13 -12   3    9.39    2.78
  14 -12   3   10.66    4.36
  -3 -11   3    1.74    1.96
  -2 -11   3    9.32    2.45
  -1 -11   3   18.96    3.02
   0 -11   3   18.52    2.94
   1 -11   3    6.28    1.94
   2 -11   3    1.11    1.54
   3 -11   3   79.31    5.94
   4 -11   3   16.45    2.33
   5 -11   3   23.34    2.91
   6 -11   3    3.40    1.40
   7 -11   3   14.84    2.80
   8 -11   3   13.68    2.18
   9 -11   3   25.05    2.92
  10 -11   3   14.17    2.39
  11 -11   3   21.05    3.03
  12 -11   3    0.00    1.58
  13 -11   3   22.61    3.87
  14 -11   3    1.36    1.98
  -5 -10   3    4.08    3.65
  -4 -10   3   23.66    4.56
  -3 -10   3   19.59    3.08
  -2 -10   3    0.67    1.31
   0 -10   3   26.17    3.18
   1 -10   3   65.40    5.06
   2 -10   3   14.34    2.40
   3 -10   3   21.82    2.64
   4 -10   3    6.20    1.51
   5 -10   3    1.34    0.99
   6 -10   3   17.82    2.02
   7 -10   3    5.91    1.42
   8 -10   3   24.51    2.85
   9 -10   3   39.99    3.68
  10 -10   3   25.75    3.07
  11 -10   3    8.53    2.00
  12 -10   3    7.35    2.52
  13 -10   3   33.34    4.64
  14 -10   3    3.92    2.28
  15 -10   3    1.73    2.86
  -6  -9   3   -1.49    1.92
  -5  -9   3    2.86    2.08
  -4  -9   3    7.67    2.55
  -3  -9   3    4.08    1.56
  -2  -9   3   23.76    3.06
  -1  -9   3   36.22    3.75
   0  -9   3    6.32    1.68
   1  -9   3   78.62    5.27
   2  -9   3    5.72    1.19
   3  -9   3    4.10    1.24
   4  -9   3    5.54    1.43
   5  -9   3  124.20    4.24
   6  -9   3   40.45    2.93
   7  -9   3    5.30    1.36
   8  -9   3    3.96    1.20
   9  -9   3    6.60    1.59
  10  -9   3   60.13    4.67
  11  -9   3    3.98    1.82
  12  -9   3    3.47    1.86
  13  -9   3   11.44    2.91
  14  -9   3   17.69    3.77
  15  -9   3   11.60    3.58
  -7  -8   3    1.22    2.01
  -6  -8   3    4.90    2.36
  -5  -8   3   -0.57    1.43
  -4  -8   3   12.39    2.32
  -3  -8   3   14.84    2.39
  -2  -8   3   19.65    2.68
  -1  -8   3    1.65    1.08
   0  -8   3   -0.48    0.83
   1  -8   3   62.34    3.19
   2  -8   3   53.48    3.28
   3  -8   3  104.27    3.39
   4  -8   3    5.89    1.06
   5  -8   3   21.56    1.90
   6  -8   3    0.31    0.68
   7  -8   3    7.06    1.47
   8  -8   3   -0.16    0.68
   9  -8   3   86.07    3.97
  10  -8   3   16.37    2.19
  11  -8   3   68.81    4.77
  12  -8   3    9.17    1.87
  13  -8   3    0.43    1.10
  14  -8   3   15.03    2.57
  15  -8   3    1.48    1.93
  -8  -7   3    2.58    2.23
  -7  -7   3   37.77    5.23
  -6  -7   3   30.28    4.52
  -5  -7   3   20.14    3.74
  -4  -7   3   10.56    2.13
  -3  -7   3    6.43    1.66
  -2  -7   3    5.14    1.28
  -1  -7   3    3.77    1.18
   0  -7   3   10.24    1.37
   1  -7   3  106.27    3.68
   2  -7   3   38.07    2.13
   3  -7   3  107.42    2.84
   4  -7   3   40.21    2.21
   5  -7   3   30.41    1.90
   6  -7   3  174.17    4.78
   7  -7   3   10.42    1.39
   8  -7   3   61.03    3.18
   9  -7   3    4.46    1.25
  10  -7   3   19.35    2.40
  11  -7   3   14.65    2.26
  12  -7   3   -0.15    0.98
  13  -7   3    5.04    1.70
  14  -7   3   44.19    4.33
  15  -7   3    5.95    1.99
  -9  -6   3   16.79    4.20
  -8  -6   3   14.33    3.57
  -7  -6   3    4.04    2.06
  -6  -6   3    5.47    2.27
  -5  -6   3    3.16    1.70
  -4  -6   3   11.82    1.90
  -3  -6   3   41.06    3.52
  -2  -6   3    1.02    0.77
  -1  -6   3  173.38    5.20
   0  -6   3   30.51    1.92
   1  -6   3   52.56    2.16
   2  -6   3   15.95    1.34
   3  -6   3   33.55    1.75
   4  -6   3   64.73    2.08
   5  -6   3   24.20    1.57
   6  -6   3   29.83    2.17
   7  -6   3  103.02    3.60
   8  -6   3   49.59    3.39
   9  -6   3    4.78    1.23
  10  -6   3    2.77    1.16
  11  -6   3   22.94    2.73
  12  -6   3    6.78    1.58
  13  -6   3   27.40    3.23
  14  -6   3    0.62    1.40
  15  -6   3    3.80    2.18
 -10  -5   3    5.14    3.91
  -9  -5   3    9.67    2.92
  -8  -5   3   -1.06    1.32
  -7  -5   3   -0.47    1.21
  -6  -5   3   25.41    3.81
  -5  -5   3    1.21    1.06
  -4  -5   3  120.30    4.38
  -3  -5   3   21.04    2.02
  -2  -5   3   30.71    2.39
  -1  -5   3   20.17    1.41
   0  -5   3  101.95    2.89
   1  -5   3   15.66    1.13
   2  -5   3  122.79    2.50
   3  -5   3    4.19    0.51
   4  -5   3  141.82    3.12
   5  -5   3   96.67    2.74
   6  -5   3   49.78    2.05
   7  -5   3   36.43    2.80
   8  -5   3  102.23    4.26
   9  -5   3    5.26    1.31
  10  -5   3    0.74    0.88
  11  -5   3    1.16    0.97
  12  -5   3   12.03    2.19
  13  -5   3   -0.77    0.97
  14  -5   3    3.02    1.87
  15  -5   3    3.71    2.39
 -11  -4   3    0.93    3.71
 -10  -4   3    2.81    2.02
  -9  -4   3    8.86    2.53
  -8  -4   3    7.90    2.49
  -7  -4   3   16.88    2.53
  -6  -4   3    3.76    1.35
  -5  -4   3    5.69    1.19
  -4  -4   3    5.55    1.09
  -3  -4   3   31.99    2.32
  -2  -4   3   61.47    2.86
  -1  -4   3  146.68    3.40
   0  -4   3   88.39    2.31
   1  -4   3  134.94    2.56
   2  -4   3    2.47    0.43
   3  -4   3   39.38    1.48
   4  -4   3   81.01    2.10
   5  -4   3   17.96    1.28
   6  -4   3   16.65    1.43
   7  -4   3  110.18    3.38
   8  -4   3    7.70    1.45
   9  -4   3  115.39    4.79
  10  -4   3   23.14    2.68
  11  -4   3    8.13    1.78
  12  -4   3   12.20    2.12
  13  -4   3    3.79    2.00
  14  -4   3   16.77    3.41
  15  -4   3    2.63    4.00
 -11  -3   3    3.26    2.27
 -10  -3   3   32.13    4.51
  -9  -3   3    2.12    1.40
  -8  -3   3   67.76    5.06
  -7  -3   3   19.35    2.61
  -6  -3   3    3.22    1.16
  -5  -3   3  110.65    3.81
  -4  -3   3  111.06    3.69
  -3  -3   3   37.09    2.36
  -2  -3   3    4.10    0.76
  -1  -3   3   41.12    1.61
   0  -3   3  205.68    3.28
   1  -3   3   63.56    1.55
   2  -3   3  131.01    2.36
   3  -3   3  202.67    3.37
   4  -3   3  135.50    3.00
   5  -3   3  124.00    2.80
   6  -3   3   34.26    2.07
   7  -3   3   40.13    2.35
   8  -3   3   22.85    1.90
   9  -3   3   35.38    3.06
  10  -3   3    3.89    1.20
  11  -3   3   14.39    2.22
  12  -3   3    1.67    1.43
  13  -3   3   14.66    2.97
  14  -3   3   -0.23    1.64
 -12  -2   3    6.03    2.93
 -11  -2   3   23.36    4.18
 -10  -2   3    8.85    2.18
  -9  -2   3    2.28    1.20
  -8  -2   3   13.76    2.29
  -7  -2   3    5.87    1.45
  -6  -2   3   53.37    3.81
  -5  -2   3   37.01    2.38
  -4  -2   3   15.60    1.47
  -3  -2   3  124.29    3.54
  -2  -2   3    2.10    0.53
  -1  -2   3  127.06    3.06
   0  -2   3  154.28    2.66
   1  -2   3   11.44    0.73
   2  -2   3  151.10    2.57
   3  -2   3   64.36    1.88
   4  -2   3    2.26    0.45
   5  -2   3    5.14    0.57
   6  -2   3   63.79    2.79
   7  -2   3   31.69    2.12
   8  -2   3    0.71    0.55
   9  -2   3    3.01    0.83
  10  -2   3   29.82    3.92
  11  -2   3   22.83    3.45
  12  -2   3    2.27    1.61
  13  -2   3    7.22    2.41
 -12  -1   3   13.12    3.28
 -11  -1   3   -0.53    1.41
 -10  -1   3    4.43    1.56
  -9  -1   3   65.20    4.87
  -8  -1   3   87.96    4.91
  -7  -1   3   57.15    4.03
  -6  -1   3   97.47    4.26
  -5  -1   3   53.99    2.44
  -4  -1   3   19.41    1.42
  -3  -1   3  134.63    3.14
  -2  -1   3   63.78    1.88
  -1  -1   3   11.72    0.85
   0  -1   3   18.63    1.08
   1  -1   3   19.79    1.03
   2  -1   3   11.45    0.78
   3  -1   3  131.06    3.42
   4  -1   3   37.79    1.54
   5  -1   3  135.00    3.77
   6  -1   3   26.41    1.92
   7  -1   3  178.58    5.47
   8  -1   3    4.30    1.07
   9  -1   3    3.90    1.16
  10  -1   3   39.11    3.35
  11  -1   3   15.87    3.00
  12  -1   3   25.02    3.96
  13  -1   3    8.76    4.21
 -13   0   3   -0.83    1.68
 -12   0   3    7.28    2.46
 -11   0   3   15.42    3.19
 -10   0   3   23.64    3.00
  -9   0   3    9.26    1.89
  -8   0   3    1.33    0.92
  -7   0   3    8.82    1.58
  -6   0   3   36.04    2.92
  -5   0   3  100.29    3.87
  -4   0   3   88.82    2.97
  -3   0   3  199.40    4.72
  -2   0   3  154.11    3.79
  -1   0   3   21.46    1.22
   0   0   3   -0.02    0.23
   1   0   3   23.31    1.16
   2   0   3  153.21    3.02
   3   0   3  202.95    4.37
   4   0   3   85.97    2.52
   5   0   3  100.99    2.83
   6   0   3   29.39    2.37
   7   0   3    9.44    1.48
   8   0   3   -0.41    0.59
   9   0   3    6.54    1.46
  10   0   3   26.44    2.83
  11   0   3   13.08    2.14
  12   0   3   10.58    3.84
  13   0   3    2.13    3.19
 -13   1   3    7.51    2.71
 -12   1   3   13.74    2.98
 -11   1   3   14.93    3.20
 -10   1   3   26.60    2.97
  -9   1   3    2.83    1.24
  -8   1   3    5.66    1.38
  -7   1   3  173.59    5.83
  -6   1   3   25.18    2.27
  -5   1   3  140.04    4.03
  -4   1   3   40.16    2.06
  -3   1   3  132.30    3.37
  -2   1   3   11.64    0.87
  -1   1   3   22.01    1.46
   0   1   3   19.11    1.20
   1   1   3   11.06    0.78
   2   1   3   62.43    2.07
   3   1   3  132.68    3.39
   4   1   3   15.69    1.23
   5   1   3   54.69    2.19
   6   1   3  104.79    4.03
   7   1   3   63.92    3.65
   8   1   3   77.40    4.02
   9   1   3   63.47    4.41
  10   1   3    5.45    1.89
  11   1   3   -0.12    1.27
  12   1   3   13.23    4.59
 -14   2   3   13.13    3.35
 -13   2   3    8.99    2.72
 -12   2   3    3.73    1.80
 -11   2   3   20.56    3.31
 -10   2   3   20.12    2.49
  -9   2   3    3.81    1.18
  -8   2   3    0.49    0.69
  -7   2   3   30.82    2.70
  -6   2   3   57.85    2.79
  -5   2   3    6.01    0.91
  -4   2   3    1.82    0.51
  -3   2   3   63.37    2.00
  -2   2   3  155.27    3.08
  -1   2   3   10.97    0.99
   0   2   3  153.66    3.97
   1   2   3  127.69    2.69
   2   2   3    2.52    0.59
   3   2   3  124.26    3.38
   4   2   3   14.87    1.29
   5   2   3   36.01    1.92
   6   2   3   63.44    3.52
   7   2   3    7.81    1.48
   8   2   3   14.94    2.08
   9   2   3    3.06    1.50
  10   2   3   11.72    2.64
  11   2   3   30.69    4.25
  12   2   3    7.25    2.55
 -14   3   3    0.78    1.94
 -13   3   3   14.89    3.31
 -12   3   3    5.12    1.98
 -11   3   3    9.25    2.29
 -10   3   3    6.82    1.60
  -9   3   3   40.97    3.35
  -8   3   3   18.10    2.12
  -7   3   3   34.45    2.37
  -6   3   3   33.25    2.17
  -5   3   3  120.32    3.43
  -4   3   3  132.07    3.40
  -3   3   3  202.25    4.25
  -2   3   3  130.57    3.34
  -1   3   3   61.55    2.04
   0   3   3  204.97    4.28
   1   3   3   36.11    1.56
   2   3   3    5.54    0.57
   3   3   3   34.31    2.03
   4   3   3  113.65    3.37
   5   3   3  109.24    3.42
   6   3   3    3.38    1.07
   7   3   3   19.06    2.82
   8   3   3   76.25    6.14
   9   3   3    3.26    1.69
  10   3   3   22.82    3.64
  11   3   3    5.82    2.37
 -14   4   3   20.00    3.77
 -13   4   3    3.06    1.84
 -12   4   3   12.23    2.63
 -11   4   3   13.61    2.63
 -10   4   3   18.25    2.29
  -9   4   3  125.98    4.96
  -8   4   3    4.21    0.92
  -7   4   3  108.32    3.54
  -6   4   3   16.58    1.52
  -5   4   3   18.95    1.47
  -4   4   3   80.56    2.48
  -3   4   3   39.18    1.53
  -2   4   3    2.79    0.41
  -1   4   3  139.58    3.41
   0   4   3   84.83    2.50
   1   4   3  142.69    3.43
   2   4   3   63.82    1.97
   3   4   3   36.11    2.19
   4   4   3    4.01    0.83
   5   4   3    6.90    1.09
   6   4   3    3.93    1.38
   7   4   3   16.58    2.85
   8   4   3   10.44    2.55
   9   4   3   13.08    2.91
  10   4   3    4.79    2.26
 -15   5   3    7.23    2.75
 -14   5   3    1.09    1.68
 -13   5   3   -0.07    1.43
 -12   5   3   20.17    3.35
 -11   5   3    3.72    1.63
 -10   5   3    1.50    0.96
  -9   5   3    7.86    1.45
  -8   5   3  110.09    3.66
  -7   5   3   40.39    2.48
  -6   5   3   50.80    2.30
  -5   5   3   99.88    2.99
  -4   5   3  137.93    3.52
  -3   5   3    5.07    0.64
  -2   5   3  124.84    2.82
  -1   5   3   14.88    1.26
   0   5   3  104.19    2.93
   1   5   3   22.16    1.53
   2   5   3   32.05    2.43
   3   5   3   22.70    2.13
   4   5   3  127.77    4.61
   5   5   3    1.22    0.88
   6   5   3   21.24    3.21
   7   5   3    0.39    1.18
   8   5   3   -0.15    1.24
   9   5   3   11.68    2.74
  10   5   3   -0.16    1.95
 -15   6   3    0.49    1.79
 -14   6   3    3.79    2.04
 -13   6   3   31.31    4.36
 -12   6   3    6.23    2.09
 -11   6   3   24.68    2.86
 -10   6   3    2.30    1.02
  -9   6   3    4.58    1.20
  -8   6   3   64.47    3.33
  -7   6   3  100.39    3.33
  -6   6   3   35.12    2.18
  -5   6   3   22.30    1.60
  -4   6   3   61.94    2.22
  -3   6   3   35.51    1.64
  -2   6   3   15.42    1.37
  -1   6   3   52.14    2.13
   0   6   3   35.04    2.04
   1   6   3  181.42    4.46
   2   6   3    0.28    0.69
   3   6   3   39.10    2.97
   4   6   3   20.10    2.29
   5   6   3    2.26    1.04
   6   6   3    7.03    2.07
   7   6   3    5.43    2.12
   8   6   3   16.54    3.29
   9   6   3   14.79    4.79
 -15   7   3   10.28    2.95
 -14   7   3   43.93    5.18
 -13   7   3    3.54    1.89
 -12   7   3    1.19    1.30
 -11   7   3   19.60    2.49
 -10   7   3   21.96    2.48
  -9   7   3    8.49    1.52
  -8   7   3   62.47    3.45
  -7   7   3    8.34    1.21
  -6   7   3  176.04    4.56
  -5   7   3   37.20    2.18
  -4   7   3   36.39    2.10
  -3   7   3  119.59    2.96
  -2   7   3   35.25    2.10
  -1   7   3  104.11    3.22
   0   7   3    8.60    1.06
   1   7   3    6.51    1.21
   2   7   3    5.50    1.27
   3   7   3    4.72    1.25
   4   7   3   13.48    2.20
   5   7   3   17.86    3.00
   6   7   3   31.46    6.07
   7   7   3   50.81    7.80
   8   7   3    3.58    3.01
 -15   8   3    0.22    1.80
 -14   8   3    9.95    2.69
 -13   8   3   -0.22    1.21
 -12   8   3    7.37    2.16
 -11   8   3   70.72    4.67
 -10   8   3   18.01    2.31
  -9   8   3   83.44    4.25
  -8   8   3    0.49    0.65
  -7   8   3    5.85    1.21
  -6   8   3    1.44    0.66
  -5   8   3   21.46    1.75
  -4   8   3    4.54    0.88
  -3   8   3  109.64    3.39
  -2   8   3   63.34    3.37
  -1   8   3   61.71    3.32
   0   8   3    0.57    0.66
   1   8   3    3.81    1.36
   2   8   3   21.15    3.01
   3   8   3   14.94    2.62
   4   8   3   10.09    2.39
   5   8   3   -0.48    1.67
   6   8   3    3.92    2.75
   7   8   3    5.77    3.69
 -15   9   3   12.74    4.92
 -14   9   3   18.11    5.45
 -13   9   3   10.32    2.76
 -12   9   3    3.35    1.76
 -11   9   3    3.89    1.36
 -10   9   3   68.46    4.49
  -9   9   3    7.87    1.54
  -8   9   3    2.92    1.00
  -7   9   3    6.33    1.40
  -6   9   3   42.82    4.08
  -5   9   3  121.96    4.59
  -4   9   3    4.49    1.14
  -3   9   3    6.20    1.19
  -2   9   3    5.64    1.19
  -1   9   3   85.47    3.78
   0   9   3    7.21    1.84
   1   9   3   38.28    3.99
   2   9   3   28.42    3.70
   3   9   3    4.59    1.76
   4   9   3    5.70    1.96
   5   9   3   -0.48    2.17
 -14  10   3    6.44    3.64
 -13  10   3   36.62    7.22
 -12  10   3   12.61    4.09
 -11  10   3    7.09    2.14
 -10  10   3   33.37    4.20
  -9  10   3   32.25    3.87
  -8  10   3   24.47    3.27
  -7  10   3    3.35    1.54
  -6  10   3   19.08    2.84
  -5  10   3    1.79    1.23
  -4  10   3    3.95    1.10
  -3  10   3   21.08    2.35
  -2  10   3   16.06    2.04
  -1  10   3   50.56    4.69
   0  10   3   25.23    3.40
   1  10   3   13.12    2.57
   2  10   3    1.06    1.41
   3  10   3   22.95    3.52
   4  10   3   20.12    3.33
 -14  11   3    2.93    3.02
 -12  11   3    4.05    2.71
 -11  11   3   12.93    2.70
 -10  11   3   17.45    3.00
  -9  11   3   30.32    3.94
  -8  11   3   21.35    3.21
  -7  11   3    9.06    2.16
  -6  11   3    2.33    1.29
  -5  11   3   30.11    3.75
  -4  11   3   16.24    2.53
  -3  11   3   74.46    4.61
  -2  11   3    3.47    1.56
  -1  11   3    6.56    1.83
   0  11   3   15.64    2.96
   1  11   3   20.59    3.37
   2  11   3    8.17    2.15
   3  11   3    1.07    1.35
 -13  12   3   21.66    5.64
 -12  12   3   15.63    4.84
 -11  12   3   25.96    3.93
 -10  12   3    1.99    1.51
  -9  12   3    3.45    1.74
  -8  12   3    9.74    2.44
  -7  12   3   16.65    2.94
  -6  12   3    8.00    2.20
  -5  12   3    0.22    1.07
  -4  12   3    7.14    2.04
  -3  12   3    6.91    1.75
  -2  12   3   12.99    2.53
  -1  12   3    1.45    1.34
   0  12   3   10.92    2.65
   1  12   3    7.18    2.38
   2  12   3   10.20    2.83
 -13  13   3    1.68    2.87
 -12  13   3    7.38    3.93
 -11  13   3    4.94    2.23
 -10  13   3   19.96    3.63
  -9  13   3    4.19    1.93
  -8  13   3   -1.05    0.92
  -7  13   3   32.00    4.12
  -6  13   3    3.68    1.67
  -5  13   3   -0.28    1.17
  -4  13   3    9.95    2.47
  -3  13   3   29.88    5.59
  -2  13   3   14.60    4.04
  -1  13   3   13.87    2.94
   0  13   3    0.67    1.53
 -12  14   3   19.52    8.37
 -11  14   3   -1.69    1.44
 -10  14   3   22.34    3.85
  -9  14   3    0.53    1.41
  -8  14   3    2.97    1.82
  -7  14   3   43.19    4.98
  -6  14   3   13.96    3.00
  -5  14   3   15.81    3.17
  -4  14   3    6.61    3.13
  -3  14   3    6.43    3.37
 -10  15   3    6.56    2.89
  -9  15   3   -0.50    1.55
  -8  15   3    9.71    2.74
  -7  15   3    3.79    2.14
  -6  15   3    8.77    2.88
   3 -14   4    2.53    3.89
   4 -14   4   -0.36    2.77
   5 -14   4    3.27    2.37
   6 -14   4    2.37    1.97
   7 -14   4   10.21    2.44
   8 -14   4   19.82    3.63
   9 -14   4    8.53    2.71
  10 -14   4   -3.19    1.83
   1 -13   4   -1.52    2.67
   2 -13   4    2.12    2.12
   3 -13   4    5.04    2.48
   4 -13   4    9.37    2.99
   5 -13   4   30.97    4.99
   6 -13   4    8.18    2.05
   7 -13   4    3.83    2.00
   8 -13   4    1.98    1.83
   9 -13   4   10.61    2.92
  10 -13   4    2.59    1.94
  11 -13   4    0.38    1.98
  12 -13   4    1.84    3.60
   0 -12   4    3.16    1.68
   1 -12   4    1.18    1.55
   2 -12   4    3.41    2.33
   3 -12   4    0.30    1.69
   4 -12   4   -0.52    1.48
   5 -12   4    5.69    1.67
   6 -12   4    2.31    1.30
   7 -12   4    5.12    1.92
   8 -12   4    0.62    1.34
   9 -12   4   -0.39    1.31
  10 -12   4  107.57    8.29
  11 -12   4    4.60    1.85
  12 -12   4    7.63    2.45
  13 -12   4    4.32    3.17
  -2 -11   4   -0.37    1.97
  -1 -11   4    4.50    2.01
   0 -11   4    1.23    1.46
   1 -11   4    8.32    2.06
   2 -11   4   30.57    3.60
   3 -11   4   14.53    3.18
   4 -11   4    0.19    1.06
   5 -11   4   21.58    2.81
   6 -11   4   46.92    4.17
   7 -11   4   31.82    4.20
   8 -11   4    6.88    2.10
   9 -11   4    1.87    1.16
  10 -11   4   -1.26    0.98
  11 -11   4    1.64    1.41
  12 -11   4    0.98    1.50
  13 -11   4    3.36    2.05
  -4 -10   4   -1.65    1.78
  -3 -10   4   -0.19    1.73
  -2 -10   4   91.97    8.21
  -1 -10   4    0.17    1.27
   0 -10   4    0.61    1.16
   1 -10   4    5.36    1.67
   2 -10   4    8.25    1.96
   3 -10   4   -0.59    1.19
   4 -10   4    2.82    1.24
   5 -10   4    5.58    1.61
   6 -10   4   96.25    5.32
   7 -10   4   16.53    2.32
   8 -10   4    1.24    1.02
   9 -10   4   10.03    2.02
  10 -10   4    2.34    1.35
  11 -10   4    8.88    2.28
  12 -10   4    5.46    2.26
  13 -10   4    9.11    2.74
  14 -10   4    1.84    2.01
  -5  -9   4    9.03    3.04
  -4  -9   4    8.03    2.73
  -3  -9   4    0.05    1.59
  -2  -9   4    1.68    1.58
  -1  -9   4    8.09    1.91
   0  -9   4    0.86    0.95
   1  -9   4    9.19    1.98
   2  -9   4   61.33    4.71
   3  -9   4   70.94    4.05
   4  -9   4   -0.21    0.75
   5  -9   4   15.33    1.81
   6  -9   4    1.58    0.98
   7  -9   4   10.33    1.75
   8  -9   4    7.22    1.59
   9  -9   4    1.64    1.07
  10  -9   4    4.14    1.72
  11  -9   4   31.09    4.28
  12  -9   4    2.50    1.62
  13  -9   4   18.05    3.68
  14  -9   4    6.20    2.35
  -6  -8   4   25.20    4.55
  -5  -8   4   -0.51    1.75
  -4  -8   4    1.97    1.76
  -3  -8   4    5.44    2.13
  -2  -8   4    1.14    1.16
  -1  -8   4    6.63    1.73
   0  -8   4   56.52    4.37
   1  -8   4   15.54    2.23
   2  -8   4    1.19    0.72
   3  -8   4    1.41    0.83
   4  -8   4   16.33    1.78
   5  -8   4   26.92    2.27
   6  -8   4   29.55    2.90
   7  -8   4   71.66    4.60
   8  -8   4   57.31    4.30
   9  -8   4    9.46    1.76
  10  -8   4    7.12    1.56
  11  -8   4   25.80    2.95
  12  -8   4    0.49    1.22
  13  -8   4   39.03    4.94
  14  -8   4    3.85    2.31
  -7  -7   4   12.05    3.42
  -6  -7   4    4.59    2.22
  -5  -7   4    8.55    2.66
  -4  -7   4   27.61    4.06
  -3  -7   4   20.47    3.39
  -2  -7   4   12.07    2.07
  -1  -7   4   76.27    5.01
   0  -7   4    1.39    1.05
   1  -7   4   10.17    1.38
   2  -7   4    7.71    1.03
   3  -7   4    8.60    1.00
   4  -7   4   73.86    2.80
   5  -7   4    5.77    0.96
   6  -7   4   56.12    3.19
   7  -7   4    0.80    0.69
   8  -7   4   13.94    1.98
   9  -7   4   64.48    4.42
  10  -7   4    1.43    0.91
  11  -7   4    1.45    1.09
  12  -7   4    3.67    1.44
  13  -7   4    7.84    1.99
  14  -7   4   14.13    2.75
  -8  -6   4    3.09    2.16
  -7  -6   4    9.22    2.75
  -6  -6   4    3.27    1.89
  -5  -6   4   42.83    4.93
  -4  -6   4   95.24    5.93
  -3  -6   4    1.22    0.77
  -2  -6   4   25.28    2.37
  -1  -6   4   52.22    3.32
   0  -6   4    4.80    1.08
   1  -6   4   73.23    2.55
   2  -6   4    9.04    0.94
   3  -6   4   67.76    2.18
   4  -6   4   14.94    1.24
   5  -6   4   19.74    1.56
   6  -6   4    4.70    0.99
   7  -6   4   12.15    1.71
   8  -6   4    1.43    0.86
   9  -6   4   71.69    4.57
  10  -6   4    3.12    1.15
  11  -6   4   26.71    3.16
  12  -6   4    2.69    1.32
  13  -6   4    3.03    1.53
  14  -6   4   23.95    3.30
  -9  -5   4    1.81    2.07
  -8  -5   4   20.26    3.92
  -7  -5   4    6.24    1.91
  -6  -5   4   21.90    2.87
  -5  -5   4    3.19    1.37
  -4  -5   4   14.71    2.23
  -3  -5   4   27.78    2.89
  -2  -5   4    5.65    1.12
  -1  -5   4   15.81    1.65
   0  -5   4    6.72    0.96
   1  -5   4   54.03    2.09
   2  -5   4   35.22    1.62
   3  -5   4   31.09    1.51
   4  -5   4   22.64    1.47
   5  -5   4    7.93    1.03
   6  -5   4   79.66    2.93
   7  -5   4    6.65    1.32
   8  -5   4    0.04    0.71
   9  -5   4    0.38    0.77
  10  -5   4    2.40    1.16
  11  -5   4   44.70    4.01
  12  -5   4    4.65    1.66
  13  -5   4    1.53    1.37
  14  -5   4   10.09    2.92
 -10  -4   4    1.46    1.96
  -9  -4   4   22.00    4.05
  -8  -4   4    0.01    1.21
  -7  -4   4    2.25    1.32
  -6  -4   4    2.83    1.16
  -5  -4   4    0.88    0.95
  -4  -4   4   20.53    2.41
  -3  -4   4   72.98    4.55
  -2  -4   4   12.96    1.51
  -1  -4   4   26.18    1.57
   0  -4   4   16.82    1.25
   1  -4   4   16.07    1.06
   2  -4   4  138.39    2.76
   3  -4   4  142.33    2.80
   4  -4   4   16.26    1.20
   5  -4   4   53.96    2.10
   6  -4   4    9.37    1.22
   7  -4   4    9.21    1.20
   8  -4   4   22.63    2.48
   9  -4   4   17.04    2.23
  10  -4   4   96.44    5.39
  11  -4   4   27.23    3.10
  12  -4   4   -0.72    1.12
  13  -4   4    5.51    2.20
  14  -4   4    0.56    1.61
 -10  -3   4    6.34    2.09
  -9  -3   4    1.86    1.45
  -8  -3   4   19.33    2.69
  -7  -3   4    1.11    1.06
  -6  -3   4   71.67    4.97
  -5  -3   4    1.61    0.93
  -4  -3   4    8.23    1.58
  -3  -3   4   74.94    4.46
  -2  -3   4   32.05    2.00
  -1  -3   4  148.96    3.77
   0  -3   4   42.90    1.80
   1  -3   4    1.42    0.38
   2  -3   4   49.69    1.67
   3  -3   4   40.82    1.69
   4  -3   4   16.88    1.28
   5  -3   4   31.43    2.14
   6  -3   4   61.82    2.95
   7  -3   4   75.33    3.26
   8  -3   4   29.88    2.37
   9  -3   4    1.60    0.95
  10  -3   4   24.78    3.62
  11  -3   4    4.70    2.01
  12  -3   4    1.52    1.47
  13  -3   4    1.37    1.67
  14  -3   4    1.55    2.87
 -11  -2   4    3.91    2.25
 -10  -2   4    4.20    1.71
  -9  -2   4   26.15    3.34
  -8  -2   4    5.43    1.61
  -7  -2   4   68.80    4.90
  -6  -2   4    0.08    0.79
  -5  -2   4    6.09    1.29
  -4  -2   4    9.21    1.60
  -3  -2   4   31.53    2.39
  -2  -2   4  140.93    3.51
  -1  -2   4   52.36    1.99
   0  -2   4    2.94    0.55
   1  -2   4   15.50    1.11
   2  -2   4    2.82    0.52
   3  -2   4    1.54    0.42
   4  -2   4  141.28    3.40
   5  -2   4   30.38    2.11
   6  -2   4   18.19    1.75
   7  -2   4    4.62    0.97
   8  -2   4   25.64    2.45
   9  -2   4   12.87    1.80
  10  -2   4    1.49    1.35
  11  -2   4    2.10    1.52
  12  -2   4  101.39    8.01
  13  -2   4    0.59    1.72
 -12  -1   4    0.28    1.96
 -11  -1   4    1.03    1.53
 -10  -1   4    8.14    1.80
  -9  -1   4    4.93    1.50
  -8  -1   4    6.71    1.65
  -7  -1   4   15.07    2.15
  -6  -1   4   15.56    2.15
  -5  -1   4   71.90    3.93
  -4  -1   4   48.47    2.99
  -3  -1   4   15.59    1.51
  -2  -1   4    1.68    0.63
  -1  -1   4   18.17    1.41
   0  -1   4    6.02    0.74
   1  -1   4    5.44    0.73
   2  -1   4   17.30    1.21
   3  -1   4   44.93    2.96
   4  -1   4  138.91    4.64
   5  -1   4   23.33    2.17
   6  -1   4   16.25    1.95
   7  -1   4   59.39    3.82
   8  -1   4   65.62    3.78
   9  -1   4    7.70    1.56
  10  -1   4   10.48    1.91
  11  -1   4    0.10    1.42
  12  -1   4    3.47    1.97
 -12   0   4    3.04    2.11
 -11   0   4   -0.52    1.19
 -10   0   4    0.14    0.98
  -9   0   4    2.49    1.23
  -8   0   4   54.12    4.13
  -7   0   4    4.09    1.28
  -6   0   4    6.65    1.35
  -5   0   4    4.91    1.01
  -4   0   4   16.06    1.63
  -3   0   4   44.69    2.32
  -2   0   4    2.84    0.63
  -1   0   4    6.65    0.76
   0   0   4  978.46   16.23
   1   0   4    9.23    0.88
   2   0   4    2.76    0.47
   3   0   4   39.03    2.33
   4   0   4   15.39    1.39
   5   0   4    6.01    1.18
   6   0   4    5.02    1.18
   7   0   4    3.58    1.06
   8   0   4   57.71    4.02
   9   0   4    2.01    1.02
  10   0   4    1.54    1.08
  11   0   4    0.68    1.38
  12   0   4    0.62    2.66
 -13   1   4    0.93    2.04
 -12   1   4    3.43    1.97
 -11   1   4    0.52    1.22
 -10   1   4    6.99    1.72
  -9   1   4    7.29    1.69
  -8   1   4   67.31    4.49
  -7   1   4   53.66    3.77
  -6   1   4   15.09    1.60
  -5   1   4   25.15    1.98
  -4   1   4  141.85    4.06
  -3   1   4   53.30    2.30
  -2   1   4   15.01    1.11
  -1   1   4    7.18    0.95
   0   1   4    5.61    0.80
   1   1   4   16.97    1.17
   2   1   4    0.96    0.51
   3   1   4   18.44    1.54
   4   1   4   50.11    2.40
   5   1   4   68.92    3.75
   6   1   4   13.19    1.88
   7   1   4   10.80    1.70
   8   1   4    9.09    1.77
   9   1   4    2.95    1.21
  10   1   4   10.66    2.12
  11   1   4    0.42    1.57
 -13   2   4    3.12    1.87
 -12   2   4  101.54    8.22
 -11   2   4    0.62    1.18
 -10   2   4    0.63    1.10
  -9   2   4    9.91    1.86
  -8   2   4   23.30    2.52
  -7   2   4    5.74    1.16
  -6   2   4   12.37    1.46
  -5   2   4   29.77    2.10
  -4   2   4  137.42    3.76
  -3   2   4    2.35    0.55
  -2   2   4    2.02    0.57
  -1   2   4   14.77    1.31
   0   2   4    1.57    0.49
   1   2   4   50.40    1.82
   2   2   4  137.97    3.85
   3   2   4   33.22    2.13
   4   2   4    8.81    1.13
   5   2   4    7.00    1.27
   6   2   4    0.53    0.81
   7   2   4   57.18    4.13
   8   2   4    6.38    1.58
   9   2   4   40.80    4.58
  10   2   4    4.34    1.86
  11   2   4    2.83    1.88
 -14   3   4    0.98    2.53
 -13   3   4    3.32    1.86
 -12   3   4    0.17    1.55
 -11   3   4    4.59    1.53
 -10   3   4   15.56    2.27
  -9   3   4    3.50    1.16
  -8   3   4   31.60    2.54
  -7   3   4   75.96    3.33
  -6   3   4   65.97    2.89
  -5   3   4   30.73    2.02
  -4   3   4   19.08    1.42
  -3   3   4   42.68    2.43
  -2   3   4   46.36    2.27
  -1   3   4    1.33    0.49
   0   3   4   40.87    1.91
   1   3   4  143.23    4.50
   2   3   4   28.93    1.97
   3   3   4   65.17    2.81
   4   3   4    5.97    0.99
   5   3   4    2.00    0.85
   6   3   4   67.54    4.41
   7   3   4   -0.05    0.82
   8   3   4   25.21    3.52
   9   3   4    0.11    1.35
  10   3   4    7.12    2.44
  11   3   4    9.17    3.87
 -14   4   4    0.39    1.79
 -13   4   4    2.44    1.78
 -12   4   4    1.40    1.55
 -11   4   4   31.24    3.37
 -10   4   4   88.45    4.90
  -9   4   4   14.82    2.07
  -8   4   4   17.51    1.88
  -7   4   4    8.99    1.28
  -6   4   4   10.14    1.26
  -5   4   4   49.66    2.46
  -4   4   4   15.66    1.74
  -3   4   4  140.17    4.00
  -2   4   4  139.06    3.83
  -1   4   4   15.35    1.36
   0   4   4   17.02    1.35
   1   4   4   20.48    1.92
   2   4   4   14.13    1.65
   3   4   4   76.11    3.01
   4   4   4   20.21    1.85
   5   4   4    0.21    0.81
   6   4   4    3.00    1.51
   7   4   4    2.19    1.45
   8   4   4    0.20    1.30
   9   4   4   14.84    3.11
  10   4   4   -0.22    1.83
 -14   5   4    8.33    3.97
 -13   5   4    3.90    2.93
 -12   5   4    9.26    2.48
 -11   5   4   48.53    4.13
 -10   5   4    3.04    1.15
  -9   5   4    0.42    0.69
  -8   5   4    1.33    0.67
  -7   5   4    7.46    1.52
  -6   5   4   71.55    3.67
  -5   5   4    6.59    1.24
  -4   5   4   29.21    2.41
  -3   5   4   30.94    2.10
  -2   5   4   31.58    2.05
  -1   5   4   53.74    2.37
   0   5   4    5.90    1.15
   1   5   4   20.22    2.03
   2   5   4    3.81    1.02
   3   5   4   26.35    2.45
   4   5   4   17.29    2.05
   5   5   4    4.71    1.63
   6   5   4   30.51    3.95
   7   5   4    4.50    2.00
   8   5   4   29.74    4.42
   9   5   4    1.18    1.90
 -14   6   4   33.33    7.46
 -13   6   4    9.27    4.11
 -12   6   4    4.57    3.00
 -11   6   4   24.95    3.82
 -10   6   4    5.73    1.86
  -9   6   4   67.89    5.63
  -8   6   4    0.31    0.75
  -7   6   4   15.77    1.97
  -6   6   4    4.65    1.14
  -5   6   4   17.74    1.94
  -4   6   4   13.31    1.64
  -3   6   4   67.60    2.76
  -2   6   4    9.73    1.19
  -1   6   4   73.74    2.73
   0   6   4    2.77    0.87
   1   6   4   50.97    3.38
   2   6   4   32.43    2.69
   3   6   4    3.71    1.17
   4   6   4   95.55    4.47
   5   6   4   42.79    4.61
   6   6   4    6.38    2.14
   7   6   4    8.90    2.58
   8   6   4    0.82    1.84
 -14   7   4   11.58    4.46
 -13   7   4    4.63    3.15
 -12   7   4    6.39    3.14
 -11   7   4    1.69    1.34
 -10   7   4    0.85    1.09
  -9   7   4   76.28    6.10
  -8   7   4   11.89    2.07
  -7   7   4    1.69    0.99
  -6   7   4   51.42    3.49
  -5   7   4    5.40    1.25
  -4   7   4   65.29    3.59
  -3   7   4    9.31    1.26
  -2   7   4    7.12    1.09
  -1   7   4    9.76    1.54
   0   7   4    1.31    0.80
   1   7   4   67.84    4.09
   2   7   4   14.28    1.90
   3   7   4   17.05    2.19
   4   7   4   32.67    3.59
   5   7   4    8.93    3.54
   6   7   4    9.71    3.93
   7   7   4   14.03    4.45
 -14   8   4    1.49    2.96
 -13   8   4   29.42    6.60
 -12   8   4   -0.70    1.17
 -11   8   4   25.52    3.52
 -10   8   4    6.81    2.05
  -9   8   4    7.66    2.06
  -8   8   4   68.46    5.44
  -7   8   4   65.99    5.34
  -6   8   4   26.55    2.58
  -5   8   4   24.65    2.43
  -4   8   4   22.35    2.24
  -3   8   4    1.10    0.69
  -2   8   4    0.18    0.60
  -1   8   4   11.58    2.06
   0   8   4   55.18    4.62
   1   8   4    5.23    1.48
   2   8   4    3.28    1.43
   3   8   4    1.64    1.26
   4   8   4   -0.48    1.22
   5   8   4    1.92    2.21
   6   8   4   19.53    5.32
 -14   9   4    0.66    2.72
 -13   9   4   24.75    5.99
 -12   9   4    1.46    2.09
 -11   9   4   36.84    4.50
 -10   9   4    7.02    2.02
  -9   9   4    1.66    1.26
  -8   9   4    5.77    1.82
  -7   9   4    7.63    1.95
  -6   9   4    1.83    0.99
  -5   9   4   19.79    2.26
  -4   9   4   -0.27    0.66
  -3   9   4   70.15    3.95
  -2   9   4   55.27    4.83
  -1   9   4    8.95    1.96
   0   9   4    0.86    1.06
   1   9   4   10.76    2.28
   2   9   4    0.20    1.20
   3   9   4    0.19    1.36
   4   9   4    5.33    3.57
   5   9   4    8.05    4.22
 -14  10   4    6.40    5.12
 -13  10   4    4.16    2.81
 -12  10   4    4.51    2.79
 -11  10   4   11.10    2.52
 -10  10   4    2.71    1.58
  -9  10   4   12.03    2.58
  -8  10   4    2.51    1.44
  -7  10   4   20.22    3.05
  -6  10   4   99.08    5.53
  -5  10   4    3.04    1.13
  -4  10   4    4.49    1.25
  -3  10   4    1.39    1.04
  -2  10   4    4.10    1.58
  -1  10   4    7.20    1.85
   0  10   4    0.72    1.24
   1  10   4    0.54    1.35
   2  10   4  105.62    6.89
   3  10   4    1.02    1.68
   4  10   4    1.31    3.45
 -13  11   4    4.22    3.38
 -12  11   4    0.66    2.29
 -11  11   4    3.79    1.94
 -10  11   4   -0.67    1.16
  -9  11   4    0.89    1.30
  -8  11   4    3.86    1.74
  -7  11   4   34.49    4.32
  -6  11   4   50.04    4.95
  -5  11   4   20.37    3.13
  -4  11   4    1.39    1.19
  -3  11   4   24.41    3.43
  -2  11   4   34.42    4.17
  -1  11   4    8.92    2.26
   0  11   4   -0.12    1.33
   1  11   4    2.35    1.62
   2  11   4    0.51    1.45
   3  11   4    0.58    2.47
 -13  12   4    7.55    5.09
 -12  12   4    4.62    3.31
 -11  12   4    4.39    1.86
 -10  12   4  100.09    7.62
  -9  12   4    0.63    1.42
  -8  12   4    0.50    1.37
  -7  12   4    4.33    1.88
  -6  12   4    2.56    1.47
  -5  12   4    4.08    1.69
  -4  12   4   -1.02    1.50
  -3  12   4    1.27    1.55
  -2  12   4    2.25    1.48
  -1  12   4    0.31    1.38
   0  12   4    5.71    2.13
   1  12   4    1.36    1.63
 -12  13   4    3.55    3.46
 -11  13   4    1.32    1.80
 -10  13   4    1.83    1.80
  -9  13   4    3.18    1.88
  -8  13   4    2.75    1.77
  -7  13   4   10.81    2.72
  -6  13   4   10.61    2.68
  -5  13   4   25.87    5.41
  -4  13   4   20.10    5.02
  -3  13   4    6.61    3.07
  -2  13   4    1.93    2.49
  -1  13   4    1.61    1.83
 -11  14   4    5.43    3.31
 -10  14   4    0.79    1.97
  -9  14   4    6.45    2.49
  -8  14   4   25.96    4.22
  -7  14   4   17.87    3.49
  -6  14   4    2.29    2.71
  -5  14   4    1.04    2.24
   2 -13   5   26.97   10.19
   3 -13   5    1.16    2.34
   4 -13   5   13.73    3.41
   5 -13   5    2.25    2.00
   6 -13   5   -0.21    1.85
   7 -13   5   -0.27    1.59
   8 -13   5    0.37    1.79
   9 -13   5    5.07    2.29
  10 -13   5    4.69    3.30
   1 -12   5   -0.06    1.98
   2 -12   5    8.86    2.96
   3 -12   5    2.73    2.09
   4 -12   5    8.82    2.88
   5 -12   5    1.86    1.71
   6 -12   5    6.30    1.89
   7 -12   5   22.62    3.90
   8 -12   5   21.92    3.66
   9 -12   5   -0.24    1.59
  10 -12   5    1.55    1.91
  11 -12   5    1.87    1.99
  12 -12   5    1.87    3.04
  -1 -11   5    1.10    2.13
   0 -11   5   23.44    4.16
   1 -11   5   15.04    3.05
   2 -11   5    3.75    1.75
   3 -11   5   14.60    3.16
   4 -11   5    9.64    2.80
   5 -11   5   19.37    2.73
   6 -11   5    2.78    1.40
   7 -11   5    9.89    2.60
   8 -11   5   14.49    3.02
   9 -11   5    0.59    1.26
  10 -11   5    5.87    1.77
  11 -11   5   17.68    3.38
  12 -11   5    0.49    1.80
  -3 -10   5    4.30    3.50
  -2 -10   5    2.57    2.19
  -1 -10   5    4.30    2.06
   0 -10   5   45.54    5.78
   1 -10   5   31.15    3.62
   2 -10   5    5.51    1.76
   3 -10   5   17.68    2.69
   4 -10   5    5.65    2.21
   5 -10   5    1.10    1.02
   6 -10   5    9.62    2.29
   7 -10   5    2.26    1.17
   8 -10   5   21.55    2.87
   9 -10   5    6.48    1.69
  10 -10   5   42.15    4.85
  11 -10   5   12.08    2.92
  12 -10   5    6.48    2.48
  13 -10   5    3.80    3.47
  -4  -9   5    2.37    2.21
  -3  -9   5    2.23    2.10
  -2  -9   5    1.63    1.71
  -1  -9   5    5.23    2.06
   0  -9   5    3.14    1.74
   1  -9   5    7.39    1.89
   2  -9   5    8.25    1.95
   3  -9   5    1.47    1.19
   4  -9   5   33.34    3.23
   5  -9   5    5.34    1.47
   6  -9   5   12.46    2.07
   7  -9   5    8.73    1.86
   8  -9   5   17.74    2.52
   9  -9   5    3.76    1.76
  10  -9   5   22.45    3.65
  11  -9   5    3.79    1.91
  12  -9   5    3.66    1.97
  13  -9   5   18.58    3.67
  -5  -8   5    0.49    2.00
  -4  -8   5   29.33    4.63
  -3  -8   5   17.74    3.44
  -2  -8   5   24.90    4.16
  -1  -8   5   15.60    3.07
   0  -8   5    3.32    1.36
   1  -8   5   12.48    2.21
   2  -8   5   59.06    4.62
   3  -8   5   70.28    3.92
   4  -8   5   43.22    3.08
   5  -8   5    2.08    0.90
   6  -8   5   31.62    3.11
   7  -8   5    2.89    1.23
   8  -8   5    1.01    1.20
   9  -8   5    6.49    2.10
  10  -8   5    4.73    1.93
  11  -8   5   13.65    2.95
  12  -8   5   10.67    3.04
  13  -8   5   -0.23    1.66
  -6  -7   5    0.34    1.85
  -5  -7   5   17.02    3.67
  -4  -7   5    6.68    2.41
  -3  -7   5    1.16    1.22
  -2  -7   5    5.15    1.69
  -1  -7   5    3.40    1.38
   0  -7   5    6.23    1.28
   1  -7   5   10.00    1.55
   2  -7   5   35.24    2.37
   3  -7   5   18.37    1.43
   4  -7   5   17.73    1.54
   5  -7   5   15.77    1.71
   6  -7   5  145.09    4.80
   7  -7   5    8.20    1.54
   8  -7   5   12.71    1.93
   9  -7   5    9.54    1.80
  10  -7   5   15.50    2.38
  11  -7   5    6.96    1.83
  12  -7   5    1.82    1.42
  13  -7   5    4.30    1.78
  14  -7   5   15.81    4.62
  -7  -6   5    1.64    1.96
  -6  -6   5    3.84    1.77
  -5  -6   5    2.72    1.44
  -4  -6   5    5.62    1.67
  -3  -6   5   10.30    2.00
  -2  -6   5   26.21    3.06
  -1  -6   5  150.13    6.01
   0  -6   5    1.30    0.84
   1  -6   5   30.67    2.15
   2  -6   5    5.78    0.81
   3  -6   5   18.44    1.29
   4  -6   5    2.46    0.62
   5  -6   5    2.92    0.80
   6  -6   5    1.63    0.90
   7  -6   5    5.90    1.40
   8  -6   5   60.68    4.28
   9  -6   5    1.38    1.04
  10  -6   5    3.91    1.44
  11  -6   5   22.87    3.05
  12  -6   5    4.14    1.65
  13  -6   5   -0.40    1.25
  -8  -5   5    0.34    1.47
  -7  -5   5    2.20    1.55
  -6  -5   5   19.30    2.89
  -5  -5   5   -0.32    0.93
  -4  -5   5    3.68    1.30
  -3  -5   5    2.81    1.13
  -2  -5   5   19.83    2.54
  -1  -5   5    2.08    1.06
   0  -5   5   37.61    2.42
   1  -5   5    5.71    0.83
   2  -5   5   81.84    2.33
   3  -5   5    2.54    0.52
   4  -5   5  104.84    2.96
   5  -5   5   38.49    2.63
   6  -5   5   32.14    2.43
   7  -5   5   29.90    2.90
   8  -5   5   65.77    4.58
   9  -5   5   33.84    3.38
  10  -5   5   -0.75    0.87
  11  -5   5    2.55    1.41
  12  -5   5   18.88    3.07
  13  -5   5    1.36    1.70
  -9  -4   5   18.75    3.33
  -8  -4   5   14.66    2.74
  -7  -4   5    7.53    2.03
  -6  -4   5    6.93    1.82
  -5  -4   5   31.70    3.35
  -4  -4   5   45.36    3.89
  -3  -4   5   15.91    2.26
  -2  -4   5    1.56    0.98
  -1  -4   5  104.53    3.96
   0  -4   5    1.17    0.57
   1  -4   5  108.89    2.59
   2  -4   5    6.18    0.74
   3  -4   5    4.78    0.76
   4  -4   5    1.35    0.56
   5  -4   5    4.73    0.96
   6  -4   5    5.29    1.03
   7  -4   5   18.98    1.96
   8  -4   5   37.81    3.42
   9  -4   5    1.83    1.04
  10  -4   5    9.90    2.38
  11  -4   5   12.46    2.83
  12  -4   5   26.21    4.12
  13  -4   5    4.15    2.33
 -10  -3   5    1.73    2.15
  -9  -3   5    2.90    1.76
  -8  -3   5   14.27    2.57
  -7  -3   5   21.22    2.91
  -6  -3   5   -0.06    1.06
  -5  -3   5   65.62    4.68
  -4  -3   5   15.29    2.09
  -3  -3   5   15.65    1.82
  -2  -3   5    4.18    1.05
  -1  -3   5    9.03    1.42
   0  -3   5   86.34    2.73
   1  -3   5   46.89    2.30
   2  -3   5   74.27    2.44
   3  -3   5   80.77    2.69
   4  -3   5  109.98    3.22
   5  -3   5   86.22    3.79
   6  -3   5   19.95    1.90
   7  -3   5   14.85    1.97
   8  -3   5    1.83    0.96
   9  -3   5    8.34    2.24
  10  -3   5   -0.14    1.25
  11  -3   5    8.29    2.58
  12  -3   5    0.43    1.77
  13  -3   5    2.94    2.37
 -11  -2   5   15.19    3.44
 -10  -2   5    4.53    1.92
  -9  -2   5    3.83    1.66
  -8  -2   5    3.03    1.49
  -7  -2   5    7.53    1.70
  -6  -2   5   51.80    4.16
  -5  -2   5   31.02    3.03
  -4  -2   5    4.89    1.16
  -3  -2   5   87.37    3.78
  -2  -2   5    7.76    1.26
  -1  -2   5   64.80    2.92
   0  -2   5   18.48    1.53
   1  -2   5   16.54    1.26
   2  -2   5   21.69    1.58
   3  -2   5   44.05    2.64
   4  -2   5    6.30    1.04
   5  -2   5    2.52    0.90
   6  -2   5    3.29    0.95
   7  -2   5   14.38    1.95
   8  -2   5   29.09    2.86
   9  -2   5    2.89    1.44
  10  -2   5   18.65    3.33
  11  -2   5    1.24    1.51
  12  -2   5    1.41    1.77
  13  -2   5    1.71    3.03
 -11  -1   5   -0.34    1.48
 -10  -1   5   11.33    2.29
  -9  -1   5   29.24    3.50
  -8  -1   5    4.12    1.51
  -7  -1   5   16.26    2.40
  -6  -1   5    7.02    1.56
  -5  -1   5   32.88    2.70
  -4  -1   5    6.91    1.24
  -3  -1   5  111.30    3.98
  -2  -1   5   51.31    2.74
  -1  -1   5   15.05    1.39
   0  -1   5   38.52    1.94
   1  -1   5   40.62    2.08
   2  -1   5   15.91    1.30
   3  -1   5   75.12    3.68
   4  -1   5    5.53    0.98
   5  -1   5   96.74    4.20
   6  -1   5    1.89    0.86
   7  -1   5  138.85    5.45
   8  -1   5    2.44    0.98
   9  -1   5   15.26    2.25
  10  -1   5    4.58    2.06
  11  -1   5    6.48    2.35
  12  -1   5    1.02    1.85
 -11   0   5   20.67    3.18
 -10   0   5   43.98    4.30
  -9   0   5    3.16    1.33
  -8   0   5    2.06    1.13
  -7   0   5    6.97    1.52
  -6   0   5    0.67    0.83
  -5   0   5   37.14    2.81
  -4   0   5    1.93    0.79
  -3   0   5   84.84    3.37
  -2   0   5   24.51    2.05
  -1   0   5   35.83    2.42
   0   0   5    0.05    0.44
   1   0   5   36.30    1.88
   2   0   5   22.86    1.88
   3   0   5   79.45    3.13
   4   0   5    1.27    0.63
   5   0   5   34.54    2.98
   6   0   5    1.25    0.93
   7   0   5    7.56    1.50
   8   0   5    1.41    1.04
   9   0   5    3.27    1.32
  10   0   5   35.55    3.54
  11   0   5   22.50    4.10
 -12   1   5    0.45    2.97
 -11   1   5    5.32    2.39
 -10   1   5    4.00    1.77
  -9   1   5   19.76    2.73
  -8   1   5    1.77    1.10
  -7   1   5  143.35    5.01
  -6   1   5    1.27    1.02
  -5   1   5   97.03    4.83
  -4   1   5    6.53    1.41
  -3   1   5   70.32    3.88
  -2   1   5   16.42    1.64
  -1   1   5   41.12    2.47
   0   1   5   37.35    2.21
   1   1   5   18.57    1.90
   2   1   5   46.76    2.73
   3   1   5  101.28    3.49
   4   1   5    4.66    0.95
   5   1   5   31.31    2.86
   6   1   5    8.78    1.60
   7   1   5   14.32    2.00
   8   1   5    8.37    1.78
   9   1   5   28.68    3.20
  10   1   5   11.91    2.27
  11   1   5    2.59    2.99
 -12   2   5    3.49    3.08
 -11   2   5    2.10    2.05
 -10   2   5   18.62    3.43
  -9   2   5    5.83    2.14
  -8   2   5   31.61    4.09
  -7   2   5   18.48    2.55
  -6   2   5    2.35    1.09
  -5   2   5    4.49    1.32
  -4   2   5    5.86    1.26
  -3   2   5   45.49    3.22
  -2   2   5   23.26    1.91
  -1   2   5   17.26    1.57
   0   2   5   28.85    2.01
   1   2   5   72.10    3.22
   2   2   5    5.82    1.02
   3   2   5   83.81    3.24
   4   2   5    6.18    1.10
   5   2   5   35.30    3.16
   6   2   5   51.75    3.85
   7   2   5   10.27    1.85
   8   2   5    4.90    1.51
   9   2   5    4.34    1.78
  10   2   5    7.10    2.30
  11   2   5   11.91    3.95
 -12   3   5    4.87    3.35
 -11   3   5   12.89    3.04
 -10   3   5    0.11    1.09
  -9   3   5    6.15    2.08
  -8   3   5    1.23    1.02
  -7   3   5   12.91    2.04
  -6   3   5   18.29    2.34
  -5   3   5   84.66    4.14
  -4   3   5  110.22    4.35
  -3   3   5   88.12    3.27
  -2   3   5   70.59    3.01
  -1   3   5   48.93    2.49
   0   3   5   88.59    3.68
   1   3   5    3.72    0.97
   2   3   5    2.82    0.91
   3   3   5   18.65    1.77
   4   3   5   15.81    1.72
   5   3   5   69.34    4.47
   6   3   5    2.06    1.10
   7   3   5   19.56    2.56
   8   3   5   13.36    2.79
   9   3   5    1.81    1.76
  10   3   5    2.04    1.94
 -13   4   5    5.08    3.39
 -12   4   5   29.26    4.59
 -11   4   5    9.52    2.53
 -10   4   5    6.28    2.14
  -9   4   5    4.30    1.41
  -8   4   5   43.55    3.94
  -7   4   5   19.56    2.43
  -6   4   5    4.12    1.19
  -5   4   5    5.82    1.38
  -4   4   5    2.34    0.93
  -3   4   5    8.38    1.25
  -2   4   5    6.24    1.00
  -1   4   5  113.96    4.31
   0   4   5    1.06    0.81
   1   4   5  101.62    4.10
   2   4   5    1.86    0.73
   3   4   5   18.02    2.02
   4   4   5   43.06    3.51
   5   4   5   33.04    3.27
   6   4   5    2.27    1.43
   7   4   5    5.72    2.02
   8   4   5   10.34    2.73
   9   4   5   16.01    3.31
 -13   5   5   -1.08    2.44
 -12   5   5   28.76    4.33
 -11   5   5    1.75    1.60
 -10   5   5   -0.41    1.12
  -9   5   5   29.84    3.18
  -8   5   5   64.09    4.54
  -7   5   5   31.86    3.07
  -6   5   5   36.94    3.20
  -5   5   5   35.72    2.96
  -4   5   5   97.35    4.10
  -3   5   5    4.12    0.88
  -2   5   5   82.93    3.18
  -1   5   5    6.84    1.29
   0   5   5   39.60    3.03
   1   5   5    1.67    0.87
   2   5   5   18.56    2.09
   3   5   5    2.26    0.93
   4   5   5    1.48    1.03
   5   5   5    0.44    1.15
   6   5   5   23.90    3.75
   7   5   5    1.13    1.58
   8   5   5   -1.39    1.46
 -13   6   5   -0.23    2.60
 -12   6   5    2.99    2.00
 -11   6   5   18.69    3.52
 -10   6   5    6.48    1.98
  -9   6   5    1.83    1.20
  -8   6   5   59.54    4.40
  -7   6   5    8.16    1.59
  -6   6   5    1.79    0.88
  -5   6   5    1.99    0.94
  -4   6   5    2.14    0.92
  -3   6   5   22.17    1.93
  -2   6   5    4.28    1.13
  -1   6   5   30.89    2.73
   0   6   5    0.02    0.65
   1   6   5  140.47    5.22
   2   6   5   25.85    2.51
   3   6   5    8.01    1.46
   4   6   5   10.33    2.19
   5   6   5    1.55    1.53
   6   6   5    5.45    2.06
   7   6   5    1.75    1.84
 -13   7   5    2.70    2.84
 -12   7   5    0.50    1.46
 -11   7   5    7.37    2.34
 -10   7   5   16.30    3.01
  -9   7   5   11.62    2.44
  -8   7   5   15.85    2.34
  -7   7   5    5.92    1.37
  -6   7   5  149.87    5.50
  -5   7   5   16.60    2.08
  -4   7   5   16.15    1.98
  -3   7   5   18.21    1.97
  -2   7   5   32.85    2.89
  -1   7   5   10.18    1.61
   0   7   5    6.83    1.41
   1   7   5    2.41    1.01
   2   7   5    7.43    1.54
   3   7   5    1.20    1.04
   4   7   5    6.57    3.03
   5   7   5   31.63    6.30
   6   7   5   -1.67    2.32
 -13   8   5   -1.20    2.34
 -12   8   5    4.61    2.23
 -11   8   5   11.55    2.85
 -10   8   5    5.22    1.88
  -9   8   5    6.91    2.12
  -8   8   5    2.84    1.43
  -7   8   5    2.04    1.09
  -6   8   5   29.78    2.89
  -5   8   5    2.43    1.03
  -4   8   5   45.81    3.46
  -3   8   5   68.05    5.27
  -2   8   5   58.23    4.92
  -1   8   5   11.49    2.25
   0   8   5    1.24    1.12
   1   8   5   17.09    2.73
   2   8   5   20.31    3.03
   3   8   5   13.41    2.53
   4   8   5   14.67    4.38
   5   8   5   -0.39    1.93
 -13   9   5   23.67    6.20
 -12   9   5    0.48    1.51
 -11   9   5    3.79    1.73
 -10   9   5   29.02    3.97
  -9   9   5    5.11    1.86
  -8   9   5   18.62    3.15
  -7   9   5    7.93    2.14
  -6   9   5    7.69    1.60
  -5   9   5    2.67    1.11
  -4   9   5   28.69    3.53
  -3   9   5    1.66    1.20
  -2   9   5    9.38    2.13
  -1   9   5   10.32    2.24
   0   9   5    4.81    1.75
   1   9   5    3.40    1.61
   2   9   5   -0.52    1.16
   3   9   5    3.45    2.68
   4   9   5    7.24    3.69
 -13  10   5    1.52    3.76
 -12  10   5    7.12    2.40
 -11  10   5    9.38    2.60
 -10  10   5   33.10    4.36
  -9  10   5    3.76    1.79
  -8  10   5   23.23    3.62
  -7  10   5    0.55    1.29
  -6  10   5   10.33    2.39
  -5  10   5   -1.12    0.99
  -4  10   5    5.91    1.80
  -3  10   5   12.21    2.42
  -2  10   5    1.42    1.30
  -1  10   5   33.65    4.08
   0  10   5   39.65    4.43
   1  10   5    6.12    2.07
   2  10   5    2.54    1.84
   3  10   5    2.76    3.97
 -12  11   5    1.07    1.75
 -11  11   5   24.48    4.03
 -10  11   5    7.14    2.42
  -9  11   5   -0.49    1.23
  -8  11   5   18.52    3.10
  -7  11   5   11.54    2.72
  -6  11   5    2.84    2.57
  -5  11   5   14.63    4.08
  -4  11   5   10.94    2.43
  -3  11   5   14.61    2.76
  -2  11   5    5.07    2.12
  -1  11   5    8.58    2.23
   0  11   5   22.06    3.60
   1  11   5    3.25    2.00
   2  11   5    0.29    2.69
 -12  12   5    8.41    4.16
 -11  12   5    5.05    2.11
 -10  12   5    2.19    1.67
  -9  12   5   -0.47    1.57
  -8  12   5   28.42    4.05
  -7  12   5   22.45    3.88
  -6  12   5    5.07    3.00
  -5  12   5   -0.41    1.85
  -4  12   5    6.58    3.24
  -3  12   5    2.31    1.63
  -2  12   5    4.47    2.04
  -1  12   5    0.94    1.50
   0  12   5    4.93    3.46
 -10  13   5    3.69    2.17
  -9  13   5    7.46    2.56
  -8  13   5    0.19    1.57
  -7  13   5   -1.95    1.88
  -6  13   5    0.24    2.38
  -5  13   5    0.42    2.25
  -4  13   5   25.08    5.57
   3 -12   6    1.47    3.05
   4 -12   6    3.63    2.41
   5 -12   6    9.40    2.98
   6 -12   6   10.92    4.53
   7 -12   6    0.82    1.95
   8 -12   6   17.07    3.47
   9 -12   6    4.53    2.12
   0 -11   6    0.39    4.08
   1 -11   6    6.96    2.67
   2 -11   6    4.98    2.48
   3 -11   6   -0.98    2.59
   4 -11   6   49.35    5.77
   5 -11   6    2.06    1.84
   6 -11   6    0.14    1.73
   7 -11   6    7.84    2.41
   8 -11   6    0.00    1.46
   9 -11   6    6.22    3.06
  10 -11   6   -1.12    1.60
  11 -11   6   -1.88    2.36
  -1 -10   6    0.42    1.87
   0 -10   6    8.90    3.01
   1 -10   6    0.27    1.73
   2 -10   6    6.85    2.49
   3 -10   6    3.38    1.69
   4 -10   6    0.65    1.63
   5 -10   6   10.04    2.82
   6 -10   6   19.95    3.37
   7 -10   6    1.46    1.67
   8 -10   6   38.66    4.92
   9 -10   6    4.77    2.07
  10 -10   6    9.06    2.68
  11 -10   6   11.11    2.98
  -3  -9   6    5.58    3.42
  -2  -9   6    5.63    2.34
  -1  -9   6    3.52    2.05
   0  -9   6    7.00    2.31
   1  -9   6    5.68    2.28
   2  -9   6   -1.14    1.31
   3  -9   6   15.90    2.53
   4  -9   6    7.20    2.21
   5  -9   6    4.95    1.86
   6  -9   6   11.15    2.06
   7  -9   6    0.42    1.11
   8  -9   6   18.96    3.21
   9  -9   6   10.31    2.64
  10  -9   6    0.95    1.70
  11  -9   6    3.57    2.04
  12  -9   6    2.66    3.23
  -4  -8   6   13.15    3.40
  -3  -8   6    0.31    1.64
  -2  -8   6   44.02    5.43
  -1  -8   6   18.64    3.47
   0  -8   6   31.37    4.37
   1  -8   6   11.16    2.74
   2  -8   6    7.35    2.26
   3  -8   6    5.72    1.58
   4  -8   6    9.73    1.87
   5  -8   6   11.47    1.86
   6  -8   6    5.00    1.41
   7  -8   6   19.73    3.27
   8  -8   6   25.05    3.73
   9  -8   6    7.91    2.24
  10  -8   6    5.93    2.16
  11  -8   6    3.13    1.90
  12  -8   6    0.95    1.93
  -5  -7   6    1.14    1.75
  -4  -7   6   10.69    2.33
  -3  -7   6    1.43    1.39
  -2  -7   6   -0.52    1.13
  -1  -7   6   22.17    2.91
   0  -7   6    3.66    1.40
   1  -7   6   12.19    2.10
   2  -7   6   26.33    2.48
   3  -7   6    3.94    0.77
   4  -7   6   54.48    2.68
   5  -7   6    5.05    1.16
   6  -7   6    2.98    1.14
   7  -7   6   -0.32    0.95
   8  -7   6    8.70    1.83
   9  -7   6    1.09    1.05
  10  -7   6    4.78    1.58
  11  -7   6   59.97    4.89
  12  -7   6   10.06    2.43
  -6  -6   6   11.24    2.56
  -5  -6   6    1.35    1.47
  -4  -6   6   32.38    3.73
  -3  -6   6   12.96    2.42
  -2  -6   6    4.35    1.60
  -1  -6   6    3.45    1.36
   0  -6   6    5.28    1.49
   1  -6   6   45.01    3.33
   2  -6   6    1.24    0.63
   3  -6   6   44.35    2.15
   4  -6   6   22.29    2.14
   5  -6   6   44.02    3.15
   6  -6   6    3.65    1.17
   7  -6   6   15.32    2.30
   8  -6   6    5.95    1.56
   9  -6   6   22.24    2.74
  10  -6   6    1.02    1.24
  11  -6   6    0.46    1.40
  12  -6   6   13.28    3.17
  -7  -5   6   10.18    2.41
  -6  -5   6    3.79    1.81
  -5  -5   6   10.34    2.24
  -4  -5   6    1.00    1.20
  -3  -5   6    7.64    1.82
  -2  -5   6    5.52    1.55
  -1  -5   6   43.86    3.38
   0  -5   6   28.44    2.57
   1  -5   6   40.80    2.99
   2  -5   6   11.28    1.16
   3  -5   6   24.93    1.79
   4  -5   6   21.84    2.15
   5  -5   6   22.56    2.21
   6  -5   6   54.05    4.12
   7  -5   6   26.55    2.92
   8  -5   6    6.40    1.65
   9  -5   6    5.96    2.13
  10  -5   6    6.21    2.08
  11  -5   6    1.68    1.60
  12  -5   6   -1.08    1.81
  -8  -4   6    4.27    2.47
  -7  -4   6   55.20    5.59
  -6  -4   6    0.92    1.37
  -5  -4   6    9.03    2.04
  -4  -4   6   11.29    2.21
  -3  -4   6   58.42    4.51
  -2  -4   6   18.51    2.19
  -1  -4   6   22.16    2.27
   0  -4   6    4.21    1.09
   1  -4   6   15.70    1.73
   2  -4   6    4.60    0.98
   3  -4   6    1.41    0.75
   4  -4   6    4.09    1.22
   5  -4   6   32.26    2.97
   6  -4   6    1.34    0.83
   7  -4   6    3.24    1.52
   8  -4   6    6.00    1.98
   9  -4   6    3.04    1.72
  10  -4   6   25.74    3.99
  11  -4   6   10.52    2.92
  12  -4   6   11.87    3.14
  -9  -3   6    5.59    4.17
  -8  -3   6   -0.24    1.65
  -7  -3   6    2.67    1.99
  -6  -3   6   18.68    3.62
  -5  -3   6    6.51    2.14
  -4  -3   6    4.32    1.85
  -3  -3   6   48.69    4.31
  -2  -3   6   20.42    2.68
  -1  -3   6    0.47    0.90
   0  -3   6   15.46    1.81
   1  -3   6    1.01    0.75
   2  -3   6   78.24    4.04
   3  -3   6   13.96    1.66
   4  -3   6   13.76    1.97
   5  -3   6    8.24    1.53
   6  -3   6   36.87    3.29
   7  -3   6   54.41    4.10
   8  -3   6    5.78    1.96
   9  -3   6   12.59    2.86
  10  -3   6    2.37    1.92
  11  -3   6    1.24    1.74
  12  -3   6    2.46    3.24
  -9  -2   6    8.45    2.84
  -8  -2   6    9.54    2.87
  -7  -2   6   -1.42    1.36
  -6  -2   6    4.99    2.02
  -5  -2   6   25.25    3.80
  -4  -2   6    1.43    1.12
  -3  -2   6   11.43    2.07
  -2  -2   6    2.93    1.16
  -1  -2   6   74.27    4.67
   0  -2   6   57.23    3.36
   1  -2   6   45.49    2.90
   2  -2   6   59.96    3.39
   3  -2   6    2.91    0.91
   4  -2   6    3.87    1.14
   5  -2   6   18.07    2.26
   6  -2   6   15.56    2.05
   7  -2   6    4.36    1.42
   8  -2   6    4.69    1.50
   9  -2   6   -0.36    1.44
  10  -2   6   36.41    4.81
  11  -2   6    0.72    1.77
 -10  -1   6   10.01    3.17
  -9  -1   6   -0.55    1.54
  -8  -1   6    9.25    2.74
  -7  -1   6    5.12    2.19
  -6  -1   6   10.88    2.53
  -5  -1   6   48.04    4.23
  -4  -1   6   34.81    3.52
  -3  -1   6    7.97    1.70
  -2  -1   6    1.79    0.95
  -1  -1   6   41.62    2.94
   0  -1   6   21.67    2.00
   1  -1   6   17.85    2.16
   2  -1   6   44.92    2.95
   3  -1   6   72.44    4.54
   4  -1   6    1.91    0.96
   5  -1   6   15.26    1.99
   6  -1   6   38.99    3.48
   7  -1   6    3.33    1.25
   8  -1   6   18.78    2.56
   9  -1   6   23.91    3.22
  10  -1   6    3.40    2.08
  11  -1   6   -1.34    1.42
 -11   0   6   -2.49    2.98
 -10   0   6   13.11    3.42
  -9   0   6    8.93    2.85
  -8   0   6   22.76    3.87
  -7   0   6    0.14    1.13
  -6   0   6    3.72    1.44
  -5   0   6   26.52    3.03
  -4   0   6    5.25    1.45
  -3   0   6   13.72    2.15
  -2   0   6   58.35    3.49
  -1   0   6   19.31    1.95
   0   0   6    5.90    1.33
   1   0   6   20.28    2.27
   2   0   6   56.44    3.32
   3   0   6   12.16    1.81
   4   0   6    3.96    1.23
   5   0   6   20.88    2.42
   6   0   6    3.53    1.30
   7   0   6    0.65    0.96
   8   0   6   20.82    2.84
   9   0   6    9.61    2.04
  10   0   6    6.20    2.50
  11   0   6    1.23    2.72
 -11   1   6   -0.69    1.83
 -10   1   6    3.14    2.15
  -9   1   6   19.43    3.62
  -8   1   6   19.24    3.36
  -7   1   6    3.27    1.40
  -6   1   6   37.22    3.72
  -5   1   6   25.38    3.03
  -4   1   6    1.22    0.89
  -3   1   6   75.08    4.60
  -2   1   6   42.24    2.93
  -1   1   6   16.54    1.73
   0   1   6   20.28    2.24
   1   1   6   35.59    2.98
   2   1   6    2.87    0.99
   3   1   6   11.62    1.49
   4   1   6   38.66    3.36
   5   1   6   36.46    3.41
   6   1   6   11.49    2.00
   7   1   6    9.25    1.81
   8   1   6    4.84    1.58
   9   1   6    0.99    1.19
  10   1   6    4.98    1.83
 -12   2   6    2.54    3.43
 -11   2   6    2.42    2.05
 -10   2   6   42.08    7.47
  -9   2   6    0.50    1.44
  -8   2   6    2.56    1.50
  -7   2   6    6.03    1.72
  -6   2   6   16.10    2.44
  -5   2   6   24.18    2.77
  -4   2   6    8.44    1.64
  -3   2   6    2.23    0.93
  -2   2   6   53.76    3.19
  -1   2   6   44.14    3.41
   0   2   6   61.82    4.01
   1   2   6   72.97    3.99
   2   2   6    6.67    1.29
   3   2   6    8.84    1.37
   4   2   6    1.27    0.92
   5   2   6   27.76    2.97
   6   2   6    7.18    1.58
   7   2   6    1.27    1.19
   8   2   6    8.08    2.10
   9   2   6    3.29    1.83
  10   2   6    6.77    3.40
 -12   3   6    2.19    3.42
 -11   3   6    2.09    2.03
 -10   3   6    1.61    1.75
  -9   3   6   10.02    2.56
  -8   3   6    5.74    1.81
  -7   3   6   47.78    4.10
  -6   3   6   44.26    3.88
  -5   3   6    9.34    1.81
  -4   3   6   12.82    1.92
  -3   3   6   18.23    1.82
  -2   3   6   79.60    4.76
  -1   3   6    1.77    0.95
   0   3   6   14.89    1.96
   1   3   6    1.10    0.75
   2   3   6   24.47    2.44
   3   3   6   38.79    3.15
   4   3   6    3.99    1.54
   5   3   6    8.53    1.87
   6   3   6   22.95    2.91
   7   3   6    1.81    1.31
   8   3   6    3.86    1.94
   9   3   6    1.75    1.95
 -12   4   6   12.12    3.35
 -11   4   6   11.43    3.10
 -10   4   6   30.49    4.47
  -9   4   6    2.73    1.48
  -8   4   6    9.64    2.06
  -7   4   6    2.14    1.24
  -6   4   6    0.95    0.99
  -5   4   6   38.72    3.33
  -4   4   6    4.28    1.25
  -3   4   6    1.68    0.76
  -2   4   6    5.45    1.39
  -1   4   6   10.59    1.73
   0   4   6    8.15    1.59
   1   4   6   21.22    2.36
   2   4   6   19.54    2.33
   3   4   6   51.60    3.76
   4   4   6   11.23    2.47
   5   4   6    5.11    1.98
   6   4   6    1.21    1.39
   7   4   6   66.41    6.25
   8   4   6    3.82    2.17
 -12   5   6    0.52    1.80
 -11   5   6   -0.36    1.50
 -10   5   6   11.89    3.02
  -9   5   6    4.99    1.59
  -8   5   6    3.55    1.40
  -7   5   6   30.72    3.23
  -6   5   6   48.08    3.86
  -5   5   6   23.37    2.53
  -4   5   6   24.92    2.57
  -3   5   6   20.19    2.42
  -2   5   6   10.33    1.76
  -1   5   6   35.75    3.12
   0   5   6   18.66    2.16
   1   5   6   43.84    3.50
   2   5   6    4.05    1.23
   3   5   6    5.41    1.94
   4   5   6    1.15    1.32
   5   5   6    7.71    2.31
   6   5   6    2.40    1.74
   7   5   6   12.73    3.14
 -12   6   6   11.60    3.09
 -11   6   6    0.28    1.49
 -10   6   6   -0.22    1.24
  -9   6   6   22.06    3.01
  -8   6   6    7.07    1.57
  -7   6   6   12.89    2.10
  -6   6   6    5.10    1.44
  -5   6   6   46.89    3.68
  -4   6   6   14.74    2.70
  -3   6   6   44.17    3.55
  -2   6   6    1.84    1.02
  -1   6   6   41.18    3.41
   0   6   6    4.70    1.24
   1   6   6    1.69    1.09
   2   6   6    3.59    1.26
   3   6   6   12.35    2.58
   4   6   6   31.20    4.21
   5   6   6    2.30    1.76
   6   6   6   15.61    3.17
 -12   7   6    5.76    2.57
 -11   7   6   60.76    6.25
 -10   7   6    1.54    1.83
  -9   7   6    0.77    1.36
  -8   7   6    8.58    1.98
  -7   7   6    1.23    1.09
  -6   7   6    4.59    1.38
  -5   7   6    5.39    1.31
  -4   7   6   54.35    4.93
  -3   7   6    2.31    1.17
  -2   7   6   27.54    2.90
  -1   7   6    9.19    1.73
   0   7   6    3.12    1.14
   1   7   6   28.32    2.96
   2   7   6    0.10    1.03
   3   7   6   -0.53    1.86
   4   7   6   11.33    4.03
   5   7   6    1.07    2.16
 -12   8   6    4.86    2.29
 -11   8   6    1.62    1.71
 -10   8   6    7.01    2.30
  -9   8   6    8.76    2.45
  -8   8   6   27.51    3.91
  -7   8   6   22.90    2.81
  -6   8   6    4.03    1.35
  -5   8   6    6.61    1.86
  -4   8   6    8.11    2.13
  -3   8   6    6.77    1.82
  -2   8   6    4.69    1.67
  -1   8   6    6.56    1.83
   0   8   6   28.25    3.72
   1   8   6   15.76    2.87
   2   8   6   40.78    4.63
   3   8   6    1.47    2.20
   4   8   6   18.05    5.22
 -12   9   6    2.64    2.15
 -11   9   6    3.36    1.91
 -10   9   6    1.62    1.61
  -9   9   6    7.65    2.41
  -8   9   6   23.40    3.63
  -7   9   6    0.76    1.33
  -6   9   6   10.80    2.47
  -5   9   6    2.69    1.54
  -4   9   6    9.61    2.41
  -3   9   6   21.61    3.32
  -2   9   6   -0.25    1.15
  -1   9   6    4.40    1.78
   0   9   6    7.04    2.16
   1   9   6    3.40    2.03
   2   9   6    2.27    1.80
 -12  10   6    0.20    2.05
 -11  10   6    8.46    2.69
 -10  10   6    9.42    2.61
  -9  10   6    5.56    2.20
  -8  10   6   38.22    4.70
  -7  10   6   -0.51    1.44
  -6  10   6   31.89    6.02
  -5  10   6    8.64    2.35
  -4  10   6    0.37    1.25
  -3  10   6    4.06    1.79
  -2  10   6    9.77    2.41
  -1  10   6   -1.45    1.15
   0  10   6    8.97    2.41
   1  10   6    0.65    1.56
 -11  11   6   -1.16    1.77
 -10  11   6   -0.41    1.59
  -9  11   6    1.20    1.73
  -8  11   6    4.06    2.79
  -7  11   6    7.74    3.25
  -6  11   6   -0.09    1.96
  -5  11   6    3.86    3.08
  -4  11   6   53.63    7.81
  -3  11   6    0.60    1.45
  -2  11   6    3.45    1.89
  -1  11   6    9.99    2.71
   0  11   6    1.76    2.41
 -10  12   6    7.34    3.72
  -8  12   6    7.07    3.55
  -7  12   6    0.40    2.43
  -6  12   6   10.22    3.85
  -5  12   6   14.27    4.11
  -4  12   6    4.95    2.87
  -3  12   6    3.21    2.96
  -2  12   6    2.42    2.68
   3 -11   7   14.51    5.03
   4 -11   7    0.28    2.69
   6 -11   7    0.43    2.86
   8 -11   7   -0.21    2.42
   1 -10   7    8.37    2.80
   2 -10   7    4.59    2.47
   3 -10   7    2.62    2.95
   4 -10   7   14.53    4.69
   6 -10   7   -0.01    2.35
   7 -10   7    0.01    2.18
   8 -10   7   12.90    4.24
   9 -10   7    6.24    2.49
  -1  -9   7    4.14    3.50
   0  -9   7    3.40    3.16
   1  -9   7   15.93    5.15
   2  -9   7   -1.08    1.94
   3  -9   7    4.36    2.98
   5  -9   7   19.67    5.06
   6  -9   7   19.69    4.86
   7  -9   7    4.55    2.01
   8  -9   7   -0.36    1.62
   9  -9   7   -0.50    1.66
  10  -9   7    3.39    3.38
  -2  -8   7   12.09    4.74
  -1  -8   7    2.42    2.82
   0  -8   7   -0.60    1.62
   1  -8   7   17.34    3.34
   2  -8   7    0.09    2.17
   3  -8   7    4.55    2.92
   5  -8   7    1.31    1.34
   6  -8   7    9.64    2.48
   7  -8   7    0.17    1.50
   8  -8   7    1.95    1.75
   9  -8   7   14.33    3.31
  10  -8   7    2.24    2.00
  -3  -7   7   -0.54    1.78
  -2  -7   7    4.18    2.18
  -1  -7   7    1.17    1.66
   0  -7   7   -0.11    1.44
   1  -7   7   18.34    3.26
   2  -7   7    4.12    1.72
   3  -7   7   11.53    2.69
   4  -7   7    2.36    1.49
   5  -7   7    2.14    1.21
   6  -7   7   15.26    2.25
   7  -7   7   -1.03    0.96
   8  -7   7   20.69    2.96
   9  -7   7    0.48    1.52
  10  -7   7    0.66    1.66
  11  -7   7    0.47    2.51
  -4  -6   7    0.69    1.74
  -3  -6   7   19.65    3.64
  -2  -6   7   19.70    3.42
  -1  -6   7   16.34    3.27
   0  -6   7   17.22    3.13
   1  -6   7    2.33    1.19
   2  -6   7   14.11    2.80
   3  -6   7    7.89    1.82
   4  -6   7    3.08    1.30
   5  -6   7    1.15    1.43
   6  -6   7   11.97    2.63
   7  -6   7   14.54    2.94
   8  -6   7    0.52    1.25
   9  -6   7    1.82    1.61
  10  -6   7   12.18    3.10
  11  -6   7    7.75    3.63
  -5  -5   7    1.03    1.88
  -4  -5   7   31.54    4.61
  -3  -5   7    1.44    1.60
  -2  -5   7    1.63    1.61
  -1  -5   7    1.26    1.15
   0  -5   7   11.53    2.25
   1  -5   7    3.30    1.42
   2  -5   7   46.41    3.97
   3  -5   7    3.45    1.35
   4  -5   7   19.05    2.59
   5  -5   7    8.54    1.83
   6  -5   7    3.08    1.64
   7  -5   7    2.89    1.56
   8  -5   7    4.35    1.91
   9  -5   7   10.21    2.74
  10  -5   7    3.75    2.12
  11  -5   7    2.31    2.75
  -6  -4   7   15.17    3.60
  -5  -4   7    7.43    2.50
  -4  -4   7    0.04    1.53
  -3  -4   7   -0.07    1.41
  -2  -4   7    9.70    2.07
  -1  -4   7   14.44    2.40
   0  -4   7   11.43    2.04
   1  -4   7   26.31    2.94
   2  -4   7   -0.27    0.95
   3  -4   7    0.99    0.97
   4  -4   7    9.30    1.87
   5  -4   7    4.75    1.50
   6  -4   7   10.58    1.95
   7  -4   7   16.78    3.08
   8  -4   7   -0.07    1.27
   9  -4   7   23.34    3.93
  10  -4   7   -2.27    1.40
  -7  -3   7    1.01    1.98
  -6  -3   7    0.80    1.83
  -5  -3   7    5.99    2.30
  -4  -3   7   20.11    3.68
  -3  -3   7    6.93    1.84
  -2  -3   7    1.44    1.24
  -1  -3   7    1.35    1.13
   0  -3   7   22.97    2.42
   1  -3   7    3.49    1.32
   2  -3   7    9.48    1.91
   3  -3   7   25.58    2.91
   4  -3   7   27.11    3.06
   5  -3   7   48.49    3.98
   6  -3   7    5.68    1.48
   7  -3   7    1.68    1.29
   8  -3   7    1.12    1.54
   9  -3   7   15.88    3.19
  10  -3   7    1.30    1.71
  -8  -2   7    3.22    2.15
  -7  -2   7   -0.52    1.73
  -6  -2   7    4.47    2.43
  -5  -2   7    5.77    2.10
  -4  -2   7   10.89    2.18
  -3  -2   7   42.48    4.09
  -2  -2   7    0.79    0.95
  -1  -2   7    6.78    1.65
   0  -2   7   28.77    3.12
   1  -2   7    2.29    1.15
   2  -2   7   33.73    3.17
   3  -2   7    3.56    1.31
   4  -2   7    0.07    0.87
   5  -2   7    1.26    0.99
   6  -2   7    7.61    1.68
   7  -2   7    2.01    1.33
   8  -2   7   11.39    2.82
   9  -2   7    1.54    1.65
  10  -2   7   15.23    3.40
  -9  -1   7   -0.91    5.21
  -8  -1   7   11.28    3.18
  -7  -1   7   26.39    4.34
  -6  -1   7   16.82    3.51
  -5  -1   7    2.23    1.30
  -4  -1   7    4.46    1.52
  -3  -1   7   19.04    2.53
  -2  -1   7    3.59    1.41
  -1  -1   7    2.88    1.20
   0  -1   7   19.02    2.53
   1  -1   7   18.09    2.39
   2  -1   7    2.09    1.01
   3  -1   7    4.78    1.41
   4  -1   7    0.42    0.94
   5  -1   7   16.98    2.42
   6  -1   7    0.70    0.92
   7  -1   7    9.12    1.96
   8  -1   7    1.61    1.28
   9  -1   7    1.82    1.66
  10  -1   7    1.67    2.76
  -9   0   7    2.77    2.13
  -8   0   7   -1.12    1.52
  -7   0   7    1.42    1.79
  -6   0   7   13.70    2.65
  -5   0   7    8.00    1.99
  -4   0   7   11.77    2.18
  -3   0   7   22.66    2.82
  -2   0   7   35.17    3.67
  -1   0   7   22.09    2.73
   0   0   7    0.79    0.93
   1   0   7   21.02    2.55
   2   0   7   32.33    3.11
   3   0   7   22.34    3.27
   4   0   7    8.94    1.83
   5   0   7    7.94    1.76
   6   0   7   15.01    2.42
   7   0   7   -0.03    1.03
   8   0   7    0.71    1.22
   9   0   7    0.13    1.56
 -10   1   7    0.55    3.28
  -9   1   7   -0.26    1.75
  -8   1   7    0.61    1.51
  -7   1   7   13.04    2.62
  -6   1   7    1.61    1.34
  -5   1   7   19.55    2.54
  -4   1   7    1.32    1.11
  -3   1   7    5.50    1.51
  -2   1   7    2.84    1.31
  -1   1   7   15.37    2.32
   0   1   7   17.95    2.37
   1   1   7    3.27    1.22
   2   1   7    4.99    1.39
   3   1   7   17.12    2.81
   4   1   7    2.72    1.29
   5   1   7    0.69    1.08
   6   1   7   12.74    2.25
   7   1   7   21.48    2.88
   8   1   7   18.79    2.86
   9   1   7    5.18    2.18
 -10   2   7   11.70    3.05
  -9   2   7    2.41    1.99
  -8   2   7   17.59    2.95
  -7   2   7    3.39    1.64
  -6   2   7    4.87    1.72
  -5   2   7    2.75    1.34
  -4   2   7    0.84    0.97
  -3   2   7    5.48    1.84
  -2   2   7   27.56    3.04
  -1   2   7    2.08    1.15
   0   2   7   33.05    3.17
   1   2   7    4.69    1.26
   2   2   7    0.01    0.82
   3   2   7   47.85    4.83
   4   2   7   10.26    2.36
   5   2   7    4.02    1.40
   6   2   7    2.15    1.44
   7   2   7   -0.16    1.16
   8   2   7    2.16    1.47
 -10   3   7    0.23    1.91
  -9   3   7   15.31    2.85
  -8   3   7    0.81    1.38
  -7   3   7   -0.02    1.13
  -6   3   7    8.28    2.01
  -5   3   7   54.75    4.48
  -4   3   7   21.36    3.46
  -3   3   7   20.80    3.13
  -2   3   7    5.27    1.54
  -1   3   7    6.95    1.54
   0   3   7   24.42    2.70
   1   3   7    1.12    1.00
   2   3   7    3.28    1.29
   3   3   7   11.46    2.49
   4   3   7   16.22    2.89
   5   3   7    5.81    2.10
   6   3   7    2.44    1.69
   7   3   7    0.55    1.69
 -11   4   7    0.52    2.64
 -10   4   7   -0.34    1.73
  -9   4   7   23.67    3.36
  -8   4   7   -0.72    1.19
  -7   4   7   18.91    2.83
  -6   4   7   13.43    2.32
  -5   4   7    3.50    1.45
  -4   4   7    7.23    2.11
  -3   4   7    0.59    0.92
  -2   4   7   -0.26    0.89
  -1   4   7   28.74    2.87
   0   4   7    9.53    1.78
   1   4   7   16.75    2.30
   2   4   7    5.32    1.53
   3   4   7    1.50    1.40
   4   4   7    0.86    1.36
   5   4   7    6.20    2.14
   6   4   7   10.42    2.83
   7   4   7    4.00    3.80
 -11   5   7    0.36    1.75
 -10   5   7    0.78    1.82
  -9   5   7   10.20    2.35
  -8   5   7    4.36    1.67
  -7   5   7    2.29    1.37
  -6   5   7    0.87    1.08
  -5   5   7    7.66    2.24
  -4   5   7   21.66    3.37
  -3   5   7    0.44    0.95
  -2   5   7   42.86    3.81
  -1   5   7    2.73    1.15
   0   5   7    8.05    1.66
   1   5   7    1.40    1.20
   2   5   7    3.41    1.62
   3   5   7   -0.11    1.19
   4   5   7   26.04    3.94
   5   5   7    1.50    1.93
   6   5   7    6.99    3.41
 -11   6   7    7.47    2.91
 -10   6   7    8.69    2.69
  -9   6   7   -0.21    1.41
  -8   6   7    0.32    1.21
  -7   6   7   12.34    2.30
  -6   6   7   14.54    3.01
  -5   6   7    1.01    1.40
  -4   6   7    5.37    1.84
  -3   6   7    8.84    1.88
  -2   6   7   13.53    2.21
  -1   6   7    1.91    1.17
   0   6   7   13.99    2.18
   1   6   7   14.95    2.27
   2   6   7    9.16    2.41
   3   6   7   16.84    3.18
   4   6   7    0.77    1.69
   5   6   7    0.75    2.48
 -11   7   7    2.19    2.31
 -10   7   7    0.46    1.81
  -9   7   7    0.72    1.54
  -8   7   7   17.76    2.78
  -7   7   7    0.96    1.47
  -6   7   7   10.51    2.67
  -5   7   7    1.46    1.37
  -4   7   7    0.49    1.24
  -3   7   7   15.96    2.41
  -2   7   7    3.84    1.39
  -1   7   7   13.13    2.21
   0   7   7    0.08    1.08
   1   7   7    0.12    1.12
   2   7   7    4.31    3.07
   3   7   7    1.13    2.63
 -11   8   7   19.79    8.16
 -10   8   7    1.83    1.97
  -9   8   7   19.72    3.56
  -8   8   7    2.94    2.41
  -7   8   7    0.75    1.55
  -6   8   7   13.26    2.90
  -5   8   7    2.66    1.60
  -4   8   7   -0.63    1.13
  -3   8   7    5.72    1.93
  -2   8   7   -0.05    1.34
  -1   8   7   12.19    2.79
   0   8   7    0.76    1.45
   1   8   7    0.64    1.38
   2   8   7   18.29    5.28
 -10   9   7    1.69    2.95
  -9   9   7    1.04    2.33
  -8   9   7   -0.12    2.25
  -7   9   7    5.93    3.24
  -6   9   7   16.24    3.04
  -5   9   7   24.15    3.78
  -4   9   7    6.90    2.21
  -3   9   7   -0.10    1.42
  -2   9   7    0.79    1.33
  -1   9   7   18.57    3.22
   0   9   7    1.80    1.61
   1   9   7    5.33    3.04
  -8  10   7   14.33    4.58
  -7  10   7    1.56    2.46
  -6  10   7   -0.33    1.91
  -5  10   7    1.35    1.54
  -4  10   7   12.60    2.84
  -3  10   7    1.88    1.68
  -2  10   7    2.82    1.89
  -1  10   7    3.66    1.95
  -4  11   7    2.73    2.86
  -3  11   7   10.24    4.01
   0  -8   8    3.79    2.47
   1  -8   8    9.25    3.68
   6  -8   8    5.03    3.37
   7  -8   8   11.52    4.19
   8  -8   8    5.81    3.55
  -2  -7   8    1.79    3.84
  -1  -7   8   15.77    3.49
   0  -7   8   -0.34    1.76
   1  -7   8    1.28    2.32
   4  -7   8   12.33    4.82
   5  -7   8    3.47    1.97
   6  -7   8   10.03    2.86
   7  -7   8    0.63    1.80
   8  -7   8   10.62    2.72
  -3  -6   8   10.22    4.76
  -2  -6   8    6.56    2.47
  -1  -6   8    5.86    2.38
   0  -6   8   -0.16    2.19
   1  -6   8   24.86    3.88
   2  -6   8    5.45    3.25
   3  -6   8   24.99    4.16
   4  -6   8    0.05    2.23
   5  -6   8    2.84    1.78
   6  -6   8   -0.88    1.40
   7  -6   8    2.20    1.83
   8  -6   8   -0.80    1.61
   9  -6   8   12.73    4.30
  -4  -5   8    5.73    3.74
  -3  -5   8    5.50    2.43
  -2  -5   8    1.23    1.67
  -1  -5   8    5.18    2.20
   0  -5   8    5.26    2.05
   1  -5   8   13.95    3.15
   2  -5   8    7.79    2.57
   3  -5   8    4.90    2.09
   4  -5   8   24.53    3.84
   5  -5   8    4.15    1.95
   6  -5   8   23.09    3.76
   7  -5   8    3.42    1.92
   8  -5   8   -0.18    1.71
   9  -5   8   -2.89    2.23
  -5  -4   8   -0.15    2.74
  -4  -4   8    2.90    2.15
  -3  -4   8   27.43    4.17
  -2  -4   8    0.31    1.28
  -1  -4   8   25.00    3.84
   0  -4   8    2.41    1.92
   1  -4   8    0.18    1.57
   2  -4   8   25.08    3.84
   3  -4   8   13.74    3.02
   4  -4   8    2.98    1.82
   5  -4   8   18.09    2.67
   6  -4   8    1.36    1.51
   7  -4   8    1.85    1.66
   8  -4   8    1.12    1.84
  -6  -3   8   13.17    5.98
  -5  -3   8    0.78    1.86
  -4  -3   8    0.54    1.76
  -3  -3   8   25.78    3.33
  -2  -3   8    5.05    2.28
  -1  -3   8    9.76    2.63
   0  -3   8    5.33    2.11
   1  -3   8    3.89    1.60
   2  -3   8   19.58    3.54
   3  -3   8    3.94    1.78
   4  -3   8    1.60    1.55
   5  -3   8    8.89    2.03
   6  -3   8   28.02    3.35
   7  -3   8   14.06    3.08
   8  -3   8    5.06    2.21
  -6  -2   8    0.12    1.89
  -5  -2   8    6.56    2.40
  -4  -2   8    5.06    1.92
  -3  -2   8    6.27    1.99
  -2  -2   8   24.46    3.99
  -1  -2   8   11.13    2.78
   0  -2   8    0.00    1.08
   1  -2   8    8.68    1.82
   2  -2   8    0.90    1.37
   3  -2   8    1.56    1.49
   4  -2   8   19.71    3.26
   5  -2   8    1.41    1.25
   6  -2   8    2.38    1.30
   7  -2   8   -1.62    1.23
   8  -2   8    3.57    2.11
  -7  -1   8   15.28    5.35
  -6  -1   8    1.25    2.01
  -5  -1   8   18.77    2.92
  -4  -1   8   11.56    2.33
  -3  -1   8    1.43    1.62
  -2  -1   8    4.81    2.01
  -1  -1   8   10.29    2.72
   0  -1   8    1.37    1.13
   1  -1   8    1.26    1.12
   2  -1   8    5.86    2.13
   3  -1   8   18.57    3.27
   4  -1   8   18.36    3.22
   5  -1   8   16.32    2.55
   6  -1   8    1.24    1.27
   7  -1   8    7.92    1.95
   8  -1   8   15.33    4.73
  -8   0   8    0.72    4.23
  -7   0   8    0.94    1.95
  -6   0   8    0.66    1.40
  -5   0   8   14.70    2.80
  -4   0   8    2.32    1.89
  -3   0   8    5.76    2.20
  -2   0   8    0.85    1.29
  -1   0   8   -0.04    1.07
   0   0   8  140.42    6.26
   1   0   8    0.37    1.05
   2   0   8    0.39    1.20
   3   0   8    2.81    1.64
   4   0   8    1.66    1.39
   5   0   8   10.02    2.44
   6   0   8    2.40    1.51
   7   0   8   -1.04    1.18
   8   0   8    2.29    2.49
  -8   1   8   16.18    4.37
  -7   1   8    7.46    2.34
  -6   1   8    2.17    1.50
  -5   1   8   27.20    4.01
  -4   1   8   15.99    3.33
  -3   1   8   16.26    3.21
  -2   1   8    8.09    2.44
  -1   1   8    0.40    1.10
   0   1   8    0.21    1.07
   1   1   8    6.30    1.65
   2   1   8    4.02    1.70
   3   1   8    1.19    1.49
   4   1   8   11.07    2.61
   5   1   8   19.78    3.31
   6   1   8    0.38    1.58
   7   1   8   12.80    3.16
  -8   2   8    1.35    1.76
  -7   2   8    3.29    1.77
  -6   2   8    0.39    1.37
  -5   2   8   -0.50    1.69
  -4   2   8   22.44    3.80
  -3   2   8    4.36    2.12
  -2   2   8   -0.73    1.09
  -1   2   8    7.07    1.85
   0   2   8   -0.11    0.98
   1   2   8   19.09    2.62
   2   2   8   15.71    3.00
   3   2   8    6.10    2.07
   4   2   8    4.80    2.10
   5   2   8    5.27    2.12
   6   2   8    1.29    1.55
  -9   3   8    5.95    2.64
  -8   3   8    4.50    1.99
  -7   3   8   18.18    3.07
  -6   3   8   25.80    4.21
  -5   3   8    5.97    2.31
  -4   3   8    3.90    2.15
  -3   3   8    3.46    1.81
  -2   3   8   15.85    2.49
  -1   3   8    4.99    1.54
   0   3   8    3.02    1.39
   1   3   8   11.53    2.07
   2   3   8    3.56    1.85
   3   3   8   25.81    3.95
   4   3   8    1.00    1.50
   5   3   8   -0.18    1.45
  -9   4   8    7.84    2.69
  -8   4   8    1.48    1.68
  -7   4   8    1.13    1.86
  -6   4   8    1.20    1.68
  -5   4   8   11.99    2.94
  -4   4   8    2.30    1.68
  -3   4   8   12.69    2.72
  -2   4   8   24.34    3.07
  -1   4   8    2.25    1.36
   0   4   8    0.84    1.17
   1   4   8   17.30    2.40
   2   4   8    1.11    1.61
   3   4   8   17.91    3.46
   4   4   8    1.49    2.00
   5   4   8   -0.77    2.48
  -9   5   8    0.88    2.17
  -8   5   8   -0.56    1.83
  -7   5   8    4.86    2.35
  -6   5   8   32.70    4.70
  -5   5   8   11.65    2.80
  -4   5   8   17.67    3.38
  -3   5   8    3.05    1.81
  -2   5   8    7.96    1.82
  -1   5   8   11.58    2.24
   0   5   8   10.08    2.02
   1   5   8    1.56    1.71
   2   5   8    0.41    1.60
   3   5   8    6.45    2.41
   4   5   8    4.22    3.30
  -8   6   8    1.38    2.06
  -7   6   8    0.04    1.65
  -6   6   8    1.33    1.73
  -5   6   8    1.12    1.77
  -4   6   8    0.82    1.36
  -3   6   8   22.97    3.68
  -2   6   8    3.16    1.55
  -1   6   8   17.28    2.62
   0   6   8    1.45    1.28
   1   6   8    5.49    2.23
   2   6   8    4.60    2.27
   3   6   8    8.53    3.94
  -8   7   8   14.28    4.92
  -7   7   8   -0.73    1.67
  -6   7   8    6.48    2.35
  -5   7   8    1.32    1.52
  -4   7   8   17.13    3.35
  -3   7   8    1.60    1.68
  -2   7   8    5.35    1.71
  -1   7   8   -1.32    1.24
   0   7   8   -1.02    1.33
  -7   8   8   16.42    4.95
  -6   8   8    1.71    1.86
  -5   8   8    4.99    2.18
  -4   8   8    1.27    1.87
  -3   8   8    0.39    1.64
  -2   8   8    0.38    1.55
  -1   8   8   18.51    3.39
   0   8   8    4.18    2.78
  -6   9   8    5.46    3.67
  -5   9   8    5.01    3.26
  -4   9   8    1.81    2.86
  -3   9   8   13.17    6.35
   1  -6   9    1.74    3.35
   2  -6   9    3.95    3.10
   4  -6   9    0.85    2.76
   5  -6   9    1.76    2.98
   0  -5   9    5.12    2.40
   1  -5   9    2.25    3.10
   2  -5   9    0.78    3.05
   3  -5   9    1.54    2.04
   4  -5   9   22.77    5.65
   5  -5   9   10.51    4.25
  -2  -4   9    0.90    3.61
  -1  -4   9   20.96    3.94
   0  -4   9   -1.03    1.93
   1  -4   9   10.09    4.23
   2  -4   9    2.31    2.05
   3  -4   9    0.48    1.78
   4  -4   9   -1.01    1.78
   5  -4   9    0.87    2.54
  -2  -3   9   -0.83    1.87
  -1  -3   9    0.16    1.95
   0  -3   9   11.82    2.99
   1  -3   9   10.03    2.86
   2  -3   9   10.66    2.59
   3  -3   9    5.15    2.42
   4  -3   9    4.58    2.32
   5  -3   9    4.96    2.31
  -3  -2   9    1.42    2.17
  -2  -2   9   -0.17    1.90
  -1  -2   9    4.00    2.15
   0  -2   9    7.21    2.53
   1  -2   9   -0.04    1.59
   2  -2   9    6.87    2.44
   3  -2   9    5.66    2.37
   4  -2   9    0.11    1.72
   5  -2   9    0.42    1.58
   6  -2   9    0.30    3.11
  -4  -1   9    0.61    2.86
  -3  -1   9    8.90    2.93
  -2  -1   9   11.35    3.03
  -1  -1   9    1.82    2.06
   0  -1   9   -0.42    1.28
   1  -1   9    1.35    1.77
   2  -1   9    5.89    2.39
   3  -1   9   10.40    2.85
   4  -1   9    0.10    1.57
   5  -1   9   13.96    3.86
   6  -1   9   -0.76    2.61
  -4   0   9    1.18    1.95
  -3   0   9    6.35    2.47
  -2   0   9    7.46    2.54
  -1   0   9    4.33    2.09
   0   0   9   -0.83    1.15
   1   0   9    1.92    1.80
   2   0   9   10.58    2.81
   3   0   9    8.61    2.73
   4   0   9    1.78    1.84
   5   0   9    2.74    2.91
  -5   1   9   13.84    3.95
  -4   1   9   -0.01    1.78
  -3   1   9    8.69    2.99
  -2   1   9    5.00    2.36
  -1   1   9    1.46    1.42
   0   1   9    0.03    1.28
   1   1   9    2.42    1.90
   2   1   9    4.68    2.25
   3   1   9    3.96    2.08
   4   1   9    0.13    2.31
  -5   2   9   -2.34    1.61
  -4   2   9    0.77    1.87
  -3   2   9    3.61    2.35
  -2   2   9   13.11    3.21
  -1   2   9    3.80    1.64
   0   2   9    5.26    1.80
   1   2   9   10.10    2.83
   2   2   9    1.55    2.02
   3   2   9    3.42    2.00
  -5   3   9    0.49    1.97
  -4   3   9    4.77    2.38
  -3   3   9    5.75    2.54
  -2   3   9    9.49    2.76
  -1   3   9   10.55    2.32
   0   3   9    5.56    1.74
   1   3   9   -1.58    1.47
   2   3   9   -0.94    1.60
  -5   4   9   -1.01    1.75
  -4   4   9    0.22    1.82
  -3   4   9    1.23    1.80
  -2   4   9    0.45    1.38
  -1   4   9    7.19    2.02
   0   4   9    0.92    1.75
   1   4   9   13.27    4.60
  -4   5   9    9.49    3.00
  -3   5   9   -0.50    1.75
  -2   5   9    1.31    1.56
  -1   5   9   -0.47    1.51
   0   5   9    3.30    3.27
  -3   6   9    3.11    4.52
  -2   6   9    0.77    1.77
  -1   6   9    2.09    2.15
   0   0   0    0.00    0.00
;
_shelx_hkl_checksum              16664
loop_
_space_group_symop_operation_xyz
'x, y, z'
'-y, x-y, z'
'-x+y, -x, z'
'-x, -y, z+1/2'
'y, -x+y, z+1/2'
'x-y, x, z+1/2'
loop_
_atom_site_label
_atom_site_type_symbol
_atom_site_fract_x
_atom_site_fract_y
_atom_site_fract_z
_atom_site_U_iso_or_equiv
_atom_site_adp_type
_atom_site_occupancy
_atom_site_site_symmetry_order
_atom_site_calc_flag
_atom_site_refinement_flags_posn
_atom_site_refinement_flags_adp
_atom_site_refinement_flags_occupancy
_atom_site_disorder_assembly
_atom_site_disorder_group
La La 0.14650(10) 0.37530(10) 0.0769(2) 0.0191(2) Uani 1 1 d . . . . .
CdA Cd 0.0000 0.0000 0.001(4) 0.0453(10) Uani 0.179(8) 3 d S T P . .
CdB Cd 0.0000 0.0000 0.3070(10) 0.0453(10) Uani 0.821(8) 3 d S T P . .
Ga Ga 0.3333 0.6667 0.6621(5) 0.0173(6) Uani 1 3 d S T P . .
Se1 Se 0.2537(2) 0.15278(19) 0.0401(3) 0.0225(4) Uani 1 1 d . . . . .
Se2 Se 0.51975(17) 0.09336(18) 0.3084(3) 0.0176(3) Uani 1 1 d . . . . .
Se3 Se 0.3333 0.6667 0.2914(5) 0.0173(5) Uani 1 3 d S T P . .
loop_
_atom_site_aniso_label
_atom_site_aniso_U_11
_atom_site_aniso_U_22
_atom_site_aniso_U_33
_atom_site_aniso_U_23
_atom_site_aniso_U_13
_atom_site_aniso_U_12
La 0.0174(4) 0.0146(4) 0.0250(5) 0.0019(4) 0.0014(4) 0.0078(3)
CdA 0.0306(9) 0.0306(9) 0.075(3) 0.000 0.000 0.0153(4)
CdB 0.0306(9) 0.0306(9) 0.075(3) 0.000 0.000 0.0153(4)
Ga 0.0184(9) 0.0184(9) 0.0151(14) 0.000 0.000 0.0092(5)
Se1 0.0202(8) 0.0165(7) 0.0324(10) 0.0033(6) 0.0022(7) 0.0105(6)
Se2 0.0157(7) 0.0152(7) 0.0183(7) 0.0007(6) -0.0020(7) 0.0050(6)
Se3 0.0178(8) 0.0178(8) 0.0162(12) 0.000 0.000 0.0089(4)
loop_
_atom_type_symbol
_atom_type_description
_atom_type_scat_dispersion_real
_atom_type_scat_dispersion_imag
_atom_type_scat_source
Ga Ga 0.2307 1.6083 'International Tables Vol C Tables 4.2.6.8 and 6.1.1.4'
Se Se -0.0929 2.2259 'International Tables Vol C Tables 4.2.6.8 and 6.1.1.4'
Cd Cd -0.8075 1.2024 'International Tables Vol C Tables 4.2.6.8 and 6.1.1.4'
La La -0.2871 2.4523 'International Tables Vol C Tables 4.2.6.8 and 6.1.1.4'
loop_
_geom_angle_atom_site_label_1
_geom_angle_atom_site_label_2
_geom_angle_atom_site_label_3
_geom_angle
_geom_angle_site_symmetry_1
_geom_angle_site_symmetry_3
Se2 La Se3 78.34(6) 5_564 .
Se2 La Se1 98.91(6) 5_564 2
Se3 La Se1 147.26(7) . 2
Se2 La Se2 78.76(7) 5_564 6_554
Se3 La Se2 76.64(6) . 6_554
Se1 La Se2 135.37(7) 2 6_554
Se2 La Se1 139.97(7) 5_564 .
Se3 La Se1 120.52(5) . .
Se1 La Se1 82.60(7) 2 .
Se2 La Se1 73.03(5) 6_554 .
Se2 La Se1 141.38(6) 5_564 6
Se3 La Se1 83.28(7) . 6
Se1 La Se1 79.03(6) 2 6
Se2 La Se1 129.28(6) 6_554 6
Se1 La Se1 78.45(6) . 6
Se2 La Se2 72.53(4) 5_564 2
Se3 La Se2 77.89(5) . 2
Se1 La Se2 70.33(5) 2 2
Se2 La Se2 144.75(5) 6_554 2
Se1 La Se2 141.84(6) . 2
Se1 La Se2 70.54(6) 6 2
Se2 La CdA 126.1(4) 5_564 .
Se3 La CdA 155.6(3) . .
Se1 La CdA 41.41(4) 2 .
Se2 La CdA 104.8(3) 6_554 .
Se1 La CdA 41.27(4) . .
Se1 La CdA 77.1(4) 6 .
Se2 La CdA 108.44(19) 2 .
Se2 La CdB 147.77(6) 5_564 .
Se3 La CdB 127.83(11) . .
Se1 La CdB 48.87(6) 2 .
Se2 La CdB 121.72(6) 6_554 .
Se1 La CdB 48.72(6) . .
Se1 La CdB 46.20(9) 6 .
Se2 La CdB 93.21(6) 2 .
CdA La CdB 30.9(4) . .
CdB CdA CdB 180.0 4_554 .
CdB CdA Se1 96.1(6) 4_554 .
CdB CdA Se1 83.9(6) . .
CdB CdA Se1 96.1(6) 4_554 3
CdB CdA Se1 83.9(6) . 3
Se1 CdA Se1 118.9(2) . 3
CdB CdA Se1 96.1(6) 4_554 2
CdB CdA Se1 83.9(6) . 2
Se1 CdA Se1 118.9(2) . 2
Se1 CdA Se1 118.9(2) 3 2
CdB CdA CdA 180.0 4_554 4
CdB CdA CdA 0.0 . 4
Se1 CdA CdA 83.9(6) . 4
Se1 CdA CdA 83.9(6) 3 4
Se1 CdA CdA 83.9(6) 2 4
CdB CdA CdA 0.0 4_554 4_554
CdB CdA CdA 180.0 . 4_554
Se1 CdA CdA 96.1(6) . 4_554
Se1 CdA CdA 96.1(6) 3 4_554
Se1 CdA CdA 96.1(6) 2 4_554
CdA CdA CdA 180.0 4 4_554
CdB CdA La 98.0(4) 4_554 .
CdB CdA La 82.0(4) . .
Se1 CdA La 60.01(9) . .
Se1 CdA La 165.9(10) 3 .
Se1 CdA La 59.04(9) 2 .
CdA CdA La 82.0(4) 4 .
CdA CdA La 98.0(4) 4_554 .
CdB CdA La 98.0(4) 4_554 2
CdB CdA La 82.0(4) . 2
Se1 CdA La 165.9(10) . 2
Se1 CdA La 59.04(9) 3 2
Se1 CdA La 60.01(9) 2 2
CdA CdA La 82.0(4) 4 2
CdA CdA La 98.0(4) 4_554 2
La CdA La 118.1(2) . 2
CdB CdA La 98.0(4) 4_554 3
CdB CdA La 82.0(4) . 3
Se1 CdA La 59.04(9) . 3
Se1 CdA La 60.01(9) 3 3
Se1 CdA La 165.9(10) 2 3
CdA CdA La 82.0(4) 4 3
CdA CdA La 98.0(4) 4_554 3
La CdA La 118.1(2) . 3
La CdA La 118.1(2) 2 3
CdA CdB CdA 180.0 4 .
CdA CdB Se1 57.64(12) 4 6
CdA CdB Se1 122.36(12) . 6
CdA CdB Se1 57.64(12) 4 5
CdA CdB Se1 122.36(12) . 5
Se1 CdB Se1 94.03(16) 6 5
CdA CdB Se1 57.64(12) 4 4
CdA CdB Se1 122.36(12) . 4
Se1 CdB Se1 94.03(16) 6 4
Se1 CdB Se1 94.03(16) 5 4
CdA CdB Se1 125.97(11) 4 .
CdA CdB Se1 54.03(11) . .
Se1 CdB Se1 88.43(4) 6 .
Se1 CdB Se1 88.43(4) 5 .
Se1 CdB Se1 176.4(2) 4 .
CdA CdB Se1 125.97(11) 4 3
CdA CdB Se1 54.03(11) . 3
Se1 CdB Se1 176.4(2) 6 3
Se1 CdB Se1 88.43(4) 5 3
Se1 CdB Se1 88.43(4) 4 3
Se1 CdB Se1 89.00(15) . 3
CdA CdB Se1 125.97(11) 4 2
CdA CdB Se1 54.03(11) . 2
Se1 CdB Se1 88.43(4) 6 2
Se1 CdB Se1 176.4(2) 5 2
Se1 CdB Se1 88.43(4) 4 2
Se1 CdB Se1 89.00(15) . 2
Se1 CdB Se1 89.00(15) 3 2
CdA CdB CdB 180.0 4 4_554
CdA CdB CdB 0.0 . 4_554
Se1 CdB CdB 122.36(12) 6 4_554
Se1 CdB CdB 122.36(12) 5 4_554
Se1 CdB CdB 122.36(12) 4 4_554
Se1 CdB CdB 54.03(11) . 4_554
Se1 CdB CdB 54.03(11) 3 4_554
Se1 CdB CdB 54.03(11) 2 4_554
CdA CdB CdB 0.000(4) 4 4
CdA CdB CdB 180.0 . 4
Se1 CdB CdB 57.64(12) 6 4
Se1 CdB CdB 57.64(12) 5 4
Se1 CdB CdB 57.64(12) 4 4
Se1 CdB CdB 125.97(11) . 4
Se1 CdB CdB 125.97(11) 3 4
Se1 CdB CdB 125.97(11) 2 4
CdB CdB CdB 180.0 4_554 4
CdA CdB La 112.90(9) 4 .
CdA CdB La 67.10(9) . .
Se1 CdB La 55.26(6) 6 .
Se1 CdB La 127.09(5) 5 .
Se1 CdB La 126.27(5) 4 .
Se1 CdB La 53.43(6) . .
Se1 CdB La 121.13(19) 3 .
Se1 CdB La 52.64(6) 2 .
CdB CdB La 67.10(9) 4_554 .
CdB CdB La 112.90(9) 4 .
CdA CdB La 112.90(9) 4 2
CdA CdB La 67.10(9) . 2
Se1 CdB La 127.09(5) 6 2
Se1 CdB La 126.27(5) 5 2
Se1 CdB La 55.26(6) 4 2
Se1 CdB La 121.13(19) . 2
Se1 CdB La 52.64(6) 3 2
Se1 CdB La 53.43(6) 2 2
CdB CdB La 67.10(9) 4_554 2
CdB CdB La 112.90(9) 4 2
La CdB La 105.83(10) . 2
Se3 Ga Se2 112.79(9) . 4_665
Se3 Ga Se2 112.79(9) . 5_565
Se2 Ga Se2 105.96(10) 4_665 5_565
Se3 Ga Se2 112.79(9) . 6
Se2 Ga Se2 105.96(10) 4_665 6
Se2 Ga Se2 105.96(10) 5_565 6
CdA Se1 CdB 26.2(6) . 4_554
CdA Se1 CdB 42.1(6) . .
CdB Se1 CdB 68.33(6) 4_554 .
CdA Se1 La 79.54(8) . 3
CdB Se1 La 83.11(6) 4_554 3
CdB Se1 La 78.49(5) . 3
CdA Se1 La 78.72(8) . .
CdB Se1 La 82.39(5) 4_554 .
CdB Se1 La 77.85(5) . .
La Se1 La 155.51(7) 3 .
CdA Se1 La 104.8(6) . 5_554
CdB Se1 La 78.53(12) 4_554 5_554
CdB Se1 La 146.86(12) . 5_554
La Se1 La 98.57(6) 3 5_554
La Se1 La 97.75(6) . 5_554
Ga Se2 La 88.74(7) 4_664 6_655
Ga Se2 La 86.15(7) 4_664 5
La Se2 La 101.45(7) 6_655 5
Ga Se2 La 121.05(10) 4_664 3
La Se2 La 146.02(6) 6_655 3
La Se2 La 96.88(6) 5 3
Ga Se3 La 116.77(6) . 3_565
Ga Se3 La 116.77(6) . 2_665
La Se3 La 101.28(7) 3_565 2_665
Ga Se3 La 116.77(6) . .
La Se3 La 101.28(7) 3_565 .
La Se3 La 101.28(7) 2_665 .
loop_
_geom_bond_atom_site_label_1
_geom_bond_atom_site_label_2
_geom_bond_distance
_geom_bond_site_symmetry_2
La Se2 2.977(2) 5_564
La Se3 3.037(2) .
La Se1 3.060(2) 2
La Se2 3.090(2) 6_554
La Se1 3.099(2) .
La Se1 3.163(3) 6
La Se2 3.213(2) 2
La CdA 3.509(4) .
La CdB 3.772(3) .
CdA CdB 1.23(3) 4_554
CdA CdB 1.96(3) .
CdA Se1 2.360(3) .
CdA Se1 2.360(3) 3
CdA Se1 2.360(3) 2
CdA CdA 3.1900(16) 4
CdA CdA 3.1900(16) 4_554
CdA La 3.509(4) 2
CdA La 3.509(4) 3
CdB CdA 1.23(3) 4
CdB Se1 2.778(4) 6
CdB Se1 2.778(4) 5
CdB Se1 2.778(4) 4
CdB Se1 2.900(4) .
CdB Se1 2.900(4) 3
CdB Se1 2.900(4) 2
CdB CdB 3.1900(16) 4_554
CdB CdB 3.1900(16) 4
CdB La 3.772(3) 2
Ga Se3 2.365(5) .
Ga Se2 2.411(2) 4_665
Ga Se2 2.411(2) 5_565
Ga Se2 2.411(2) 6
Se1 CdB 2.778(4) 4_554
Se1 La 3.060(2) 3
Se1 La 3.163(3) 5_554
Se2 Ga 2.411(2) 4_664
Se2 La 2.977(2) 6_655
Se2 La 3.090(2) 5
Se2 La 3.213(2) 3
Se3 La 3.037(2) 3_565
Se3 La 3.037(2) 2_665
