#------------------------------------------------------------------------------
#$Date: 2021-04-14 03:47:07 +0300 (Wed, 14 Apr 2021) $
#$Revision: 264103 $
#$URL: file:///home/coder/svn-repositories/cod/cif/1/56/17/1561706.cif $
#------------------------------------------------------------------------------
#
# This file is available in the Crystallography Open Database (COD),
# http://www.crystallography.net/
#
# All data on this site have been placed in the public domain by the
# contributors.
#
data_1561706
loop_
_publ_author_name
'Nguyen, Vu T.'
'Haug, Graham C.'
'Nguyen, Viet D.'
'Vuong, Ngan T. H.'
'Arman, Hadi D.'
'Larionov, Oleg V.'
_publ_section_title
;
 Photocatalytic decarboxylative amidosulfonation enables direct
 transformation of carboxylic acids to sulfonamides
;
_journal_name_full               'Chemical Science'
_journal_paper_doi               10.1039/D1SC01389K
_journal_year                    2021
_chemical_formula_moiety         'C9 H11 N3 O3 S2'
_chemical_formula_sum            'C9 H11 N3 O3 S2'
_chemical_formula_weight         273.33
_space_group_crystal_system      triclinic
_space_group_IT_number           2
_space_group_name_Hall           '-P 1'
_space_group_name_H-M_alt        'P -1'
_atom_sites_solution_hydrogens   geom
_atom_sites_solution_primary     dual
_audit_creation_date             2020-09-29
_audit_creation_method
;
Olex2 1.3-ac4
(compiled 2019.10.09 svn.r3662 for Rigaku Oxford Diffraction, GUI svn.r5959)
;
_audit_update_record
;
2020-11-05 deposited with the CCDC.	2021-04-06 downloaded from the CCDC.
;
_cell_angle_alpha                83.542(3)
_cell_angle_beta                 88.913(2)
_cell_angle_gamma                82.753(2)
_cell_formula_units_Z            2
_cell_length_a                   5.49570(10)
_cell_length_b                   5.8614(2)
_cell_length_c                   18.6487(6)
_cell_measurement_reflns_used    5028
_cell_measurement_temperature    99.98(10)
_cell_measurement_theta_max      74.5980
_cell_measurement_theta_min      2.3880
_cell_volume                     592.13(3)
_computing_cell_refinement       'CrysAlisPro 1.171.40.63a (Rigaku OD, 2019)'
_computing_data_collection       'CrysAlisPro 1.171.40.63a (Rigaku OD, 2019)'
_computing_data_reduction        'CrysAlisPro 1.171.40.63a (Rigaku OD, 2019)'
_computing_molecular_graphics    'Olex2 1.3-ac4 (Dolomanov et al., 2009)'
_computing_publication_material  'Olex2 1.3-ac4 (Dolomanov et al., 2009)'
_computing_structure_refinement  'ShelXL 2018/3 (Sheldrick, 2015)'
_computing_structure_solution    'SHELXT 2018/2 (Sheldrick, 2018)'
_diffrn_ambient_environment      N~2~
_diffrn_ambient_temperature      99.98(10)
_diffrn_detector                 'Hybrid Pixel Array Detector'
_diffrn_detector_area_resol_mean 10.0000
_diffrn_detector_type            HyPix
_diffrn_measured_fraction_theta_full 0.997
_diffrn_measured_fraction_theta_max 0.946
_diffrn_measurement_details
;
List of Runs (angles in degrees, time in seconds):

  # Type    Start    End  Width  t~exp~   \w     \q     \k     \f   Frames
#--------------------------------------------------------------------------
  1  \w   -119.00 -73.00   0.50    0.05    --  -46.62-125.00 143.00   92
  2  \w   -101.00 -23.00   0.50    0.05    --  -46.62 145.00  28.00  156
  3  \w   -119.00 -60.00   0.50    0.05    --  -46.62-145.00 -22.00  118
  4  \w    -86.00 -13.00   0.50    0.05    --  -46.62 125.00-137.00  146
  5  \w     45.00 107.00   0.50    0.05    --   46.62-145.00 -22.00  124
  6  \w     34.00  95.00   0.50    0.05    --   46.62-125.00 143.00  122
  7  \w   -160.00 -73.00   0.50    0.14    --  -88.50-125.00 143.00  174
  8  \w   -152.00 -60.00   0.50    0.14    --  -88.50-145.00 -22.00  184
  9  \w    -86.00 -15.00   0.50    0.14    --  -88.50 125.00-137.00  142
 10  \w   -101.00 -23.00   0.50    0.14    --  -88.50 145.00  28.00  156
 11  \w     34.00 111.00   0.50    0.14    --  106.69-125.00 143.00  154
 12  \w     95.00 178.00   0.50    0.14    --  106.69 125.00-137.00  166
 13  \w     45.00 126.00   0.50    0.14    --  106.69-145.00 -22.00  162
 14  \w     81.00 170.00   0.50    0.14    --  106.69 145.00  28.00  178
 15  \w   -119.00 -83.00   0.50    0.05    --  -46.62 -57.00-120.00   72
 16  \w   -119.00 -83.00   0.50    0.05    --  -46.62 -57.00-150.00   72
 17  \w    -30.00  29.00   0.50    0.05    --  -46.62  19.00   0.00  118
 18  \w   -119.00 -83.00   0.50    0.05    --  -46.62 -57.00 -90.00   72
 19  \w    -30.00  29.00   0.50    0.05    --  -46.62  19.00 150.00  118
 20  \w   -160.00-101.00   0.50    0.14    --  -88.50 -77.00-180.00  118
 21  \w   -160.00-101.00   0.50    0.14    --  -88.50 -77.00 150.00  118
 22  \w   -160.00 -91.00   0.50    0.14    --  -88.50 -61.00 150.00  138
 23  \w    -51.00 -16.00   0.50    0.14    --  -88.50  45.00  60.00   70
 24  \w   -163.00 -73.00   0.50    0.14    --  -88.50 -30.00-180.00  180
 25  \w    -51.00 -16.00   0.50    0.14    --  -88.50  45.00  90.00   70
 26  \w    -51.00 -16.00   0.50    0.14    --  -88.50  45.00   0.00   70
 27  \w     34.00 105.00   0.50    0.14    --  106.69 -94.00 -30.00  142
 28  \w     34.00  71.00   0.50    0.14    --  106.69 -61.00  30.00   74
 29  \w     34.00 101.00   0.50    0.14    --  106.69 -77.00 120.00  134
 30  \w     34.00  71.00   0.50    0.14    --  106.69 -61.00 -90.00   74
 31  \w     89.00 178.00   0.50    0.14    --  106.69  15.00-120.00  178
 32  \w     95.00 178.00   0.50    0.14    --  106.69 125.00 150.00  166
 33  \w     34.00  71.00   0.50    0.14    --  106.69 -61.00-150.00   74
 34  \w     34.00 111.00   0.50    0.14    --  106.69-125.00-120.00  154
 35  \w     89.00 178.00   0.50    0.14    --  106.69  15.00   0.00  178
 36  \w     34.00 101.00   0.50    0.14    --  106.69 -77.00 -30.00  134
 37  \w     34.00  71.00   0.50    0.14    --  106.69 -61.00 120.00   74
 38  \w     34.00  71.00   0.50    0.14    --  106.69 -61.00-180.00   74
 39  \w     32.00 121.00   0.50    0.05    --   46.62  37.00 120.00  178
 40  \w     32.00 121.00   0.50    0.05    --   46.62  37.00 -60.00  178
 41  \w     32.00 121.00   0.50    0.05    --   46.62  37.00-150.00  178
 42  \w     32.00 121.00   0.50    0.05    --   46.62  37.00  30.00  178
;
_diffrn_measurement_device       'four-circle diffractometer'
_diffrn_measurement_device_type  'XtaLAB Synergy, Dualflex, HyPix'
_diffrn_measurement_method       '\w scans'
_diffrn_orient_matrix_type
'CrysAlisPro convention (1999,Acta A55,543-557)'
_diffrn_orient_matrix_UB_11      -0.0087525000
_diffrn_orient_matrix_UB_12      -0.0507449000
_diffrn_orient_matrix_UB_13      0.0828138000
_diffrn_orient_matrix_UB_21      0.2693399000
_diffrn_orient_matrix_UB_22      0.0448547000
_diffrn_orient_matrix_UB_23      0.0041722000
_diffrn_orient_matrix_UB_31      -0.0850459000
_diffrn_orient_matrix_UB_32      0.2578511000
_diffrn_orient_matrix_UB_33      0.0060321000
_diffrn_radiation_monochromator  mirror
_diffrn_radiation_probe          x-ray
_diffrn_radiation_type           'Cu K\a'
_diffrn_radiation_wavelength     1.54184
_diffrn_reflns_av_R_equivalents  0.0479
_diffrn_reflns_av_unetI/netI     0.0327
_diffrn_reflns_Laue_measured_fraction_full 0.997
_diffrn_reflns_Laue_measured_fraction_max 0.946
_diffrn_reflns_limit_h_max       6
_diffrn_reflns_limit_h_min       -6
_diffrn_reflns_limit_k_max       7
_diffrn_reflns_limit_k_min       -5
_diffrn_reflns_limit_l_max       23
_diffrn_reflns_limit_l_min       -23
_diffrn_reflns_number            11016
_diffrn_reflns_point_group_measured_fraction_full 0.997
_diffrn_reflns_point_group_measured_fraction_max 0.946
_diffrn_reflns_theta_full        67.684
_diffrn_reflns_theta_max         76.591
_diffrn_reflns_theta_min         4.773
_diffrn_source                   'micro-focus sealed X-ray tube'
_diffrn_source_type              'PhotonJet (Cu) X-ray Source'
_exptl_absorpt_coefficient_mu    4.116
_exptl_absorpt_correction_T_max  1.000
_exptl_absorpt_correction_T_min  0.568
_exptl_absorpt_correction_type   gaussian
_exptl_absorpt_process_details
;
CrysAlisPro 1.171.40.63a (Rigaku Oxford Diffraction, 2019)
Numerical absorption correction based on gaussian integration over
			a multifaceted crystal model
Empirical absorption correction using spherical harmonics,
 implemented in SCALE3 ABSPACK scaling algorithm.
;
_exptl_crystal_colour            'clear colourless'
_exptl_crystal_colour_lustre     clear
_exptl_crystal_colour_primary    colourless
_exptl_crystal_density_diffrn    1.533
_exptl_crystal_description       plate
_exptl_crystal_F_000             284
_exptl_crystal_size_max          0.159
_exptl_crystal_size_mid          0.104
_exptl_crystal_size_min          0.022
_refine_diff_density_max         0.634
_refine_diff_density_min         -0.495
_refine_diff_density_rms         0.072
_refine_ls_extinction_method     none
_refine_ls_goodness_of_fit_ref   1.080
_refine_ls_hydrogen_treatment    constr
_refine_ls_matrix_type           full
_refine_ls_number_parameters     155
_refine_ls_number_reflns         2363
_refine_ls_number_restraints     0
_refine_ls_restrained_S_all      1.080
_refine_ls_R_factor_all          0.0396
_refine_ls_R_factor_gt           0.0375
_refine_ls_shift/su_max          0.000
_refine_ls_shift/su_mean         0.000
_refine_ls_structure_factor_coef Fsqd
_refine_ls_weighting_details
'w=1/[\s^2^(Fo^2^)+(0.0550P)^2^+0.3000P] where P=(Fo^2^+2Fc^2^)/3'
_refine_ls_weighting_scheme      calc
_refine_ls_wR_factor_gt          0.0985
_refine_ls_wR_factor_ref         0.1002
_reflns_Friedel_coverage         0.000
_reflns_number_gt                2181
_reflns_number_total             2363
_reflns_threshold_expression     'I > 2\s(I)'
_cod_data_source_file            d1sc01389k2.cif
_cod_data_source_block           hpd223b
_cod_database_code               1561706
_shelx_shelxl_version_number     2018/3
_chemical_oxdiff_formula         'C H N O S'
_chemical_oxdiff_usercomment     thiophene
_shelx_space_group_comment
;
The symmetry employed for this shelxl refinement is uniquely defined
by the following loop, which should always be used as a source of
symmetry information in preference to the above space-group names.
They are only intended as comments.
;
_reflns_odcompleteness_completeness 100.00
_reflns_odcompleteness_iscentric 1
_reflns_odcompleteness_theta     66.97
_olex2_refinement_description
;
1. Fixed Uiso
 At 1.2 times of:
  All C(H) groups, All C(H,H) groups
 At 1.5 times of:
  All C(H,H,H) groups
2.a Secondary CH2 refined with riding coordinates:
 C1(H1A,H1B), C2(H2A,H2B), C3(H3A,H3B)
2.b Aromatic/amide H refined with riding coordinates:
 C6(H6), C7(H7)
2.c Idealised Me refined as rotating group:
 C9(H9A,H9B,H9C)
;
_shelx_res_file
;
TITL hpd223b_a.res in P-1
    hpd223b.res
    created by SHELXL-2018/3 at 14:15:11 on 29-Sep-2020
REM Old TITL hpd223b in P1
REM SHELXT solution in P-1: R1 0.082, Rweak 0.003, Alpha 0.022
REM <I/s> 0.000 for 0 systematic absences, Orientation as input
REM Formula found by SHELXT: C10 N2 O3 S2
CELL 1.54184 5.4957 5.8614 18.6487 83.542 88.913 82.753
ZERR 2 0.0001 0.0002 0.0006 0.003 0.002 0.002
LATT 1
SFAC C H N O S
UNIT 18 22 6 6 4

L.S. 6
PLAN  1
CONF
BOND
list 4
fmap 2 53
ACTA
MORE -1
BOND $H
OMIT 0 0 1
REM <olex2.extras>
REM <HklSrc "%.\\hpd223b.hkl">
REM </olex2.extras>

WGHT    0.055000    0.300000
FVAR       0.88514
S1    5    0.509534   -0.205125    0.394803    11.00000    0.01699    0.02064 =
         0.02266   -0.00185    0.00181   -0.00010
S2    5    0.351353    0.787488    0.115898    11.00000    0.01884    0.02592 =
         0.02693   -0.00313    0.00338   -0.00318
O2    4    0.670583   -0.199979    0.454152    11.00000    0.01884    0.02739 =
         0.02721   -0.00074   -0.00202   -0.00105
O3    4    0.462593    0.334474    0.206461    11.00000    0.02017    0.02893 =
         0.02926   -0.00481    0.00260    0.00302
O1    4    0.589741   -0.334466    0.336417    11.00000    0.02880    0.02666 =
         0.02757   -0.00451    0.00420    0.00396
N2    3    0.198026   -0.283759    0.489156    11.00000    0.01675    0.01955 =
         0.02788   -0.00025   -0.00054   -0.00380
N3    3    0.128821   -0.257796    0.544999    11.00000    0.02165    0.02842 =
         0.02930   -0.00254    0.00252   -0.00401
N1    3    0.259293   -0.329059    0.426477    11.00000    0.02479    0.02593 =
         0.02419   -0.00406    0.00282   -0.00646
C1    1    0.389519    0.081323    0.361575    11.00000    0.01886    0.01898 =
         0.02514   -0.00256   -0.00041   -0.00107
AFIX  23
H1A   2    0.325066    0.163600    0.401528    11.00000   -1.20000
H1B   2    0.520387    0.161004    0.339057    11.00000   -1.20000
AFIX   0
C6    1   -0.057492    0.788058    0.184065    11.00000    0.01726    0.02515 =
         0.02299   -0.00497   -0.00029   -0.00167
AFIX  43
H6    2   -0.183454    0.744478    0.214562    11.00000   -1.20000
AFIX   0
C5    1    0.164184    0.653183    0.178174    11.00000    0.01751    0.02513 =
         0.02181   -0.00546    0.00011   -0.00299
C2    1    0.186325    0.084341    0.306749    11.00000    0.01983    0.02246 =
         0.02618   -0.00248   -0.00189   -0.00180
AFIX  23
H2A   2    0.052525    0.010639    0.329976    11.00000   -1.20000
H2B   2    0.248991   -0.004523    0.268040    11.00000   -1.20000
AFIX   0
C7    1   -0.073637    0.999159    0.139041    11.00000    0.02165    0.02507 =
         0.02683   -0.00451   -0.00273    0.00119
AFIX  43
H7    2   -0.211150    1.109782    0.136968    11.00000   -1.20000
AFIX   0
C3    1    0.088920    0.329693    0.274937    11.00000    0.01761    0.02421 =
         0.02443   -0.00207   -0.00026    0.00021
AFIX  23
H3A   2   -0.070184    0.327771    0.253523    11.00000   -1.20000
H3B   2    0.066283    0.428319    0.313571    11.00000   -1.20000
AFIX   0
C4    1    0.257001    0.431694    0.218412    11.00000    0.01892    0.02418 =
         0.02327   -0.00733   -0.00192   -0.00107
C8    1    0.132721    1.024667    0.098860    11.00000    0.02518    0.02341 =
         0.02420   -0.00427   -0.00298   -0.00282
C9    1    0.181535    1.224408    0.045216    11.00000    0.03823    0.02778 =
         0.02762   -0.00017   -0.00008   -0.00846
AFIX 137
H9A   2    0.340238    1.267449    0.054023    11.00000   -1.50000
H9B   2    0.058400    1.353420    0.050015    11.00000   -1.50000
H9C   2    0.177214    1.180216   -0.002731    11.00000   -1.50000
AFIX   0
HKLF 4




REM  hpd223b_a.res in P-1
REM wR2 = 0.1002, GooF = S = 1.080, Restrained GooF = 1.080 for all data
REM R1 = 0.0375 for 2181 Fo > 4sig(Fo) and 0.0396 for all 2363 data
REM 155 parameters refined using 0 restraints

END

WGHT      0.0681      0.1756

REM Highest difference peak  0.634,  deepest hole -0.495,  1-sigma level  0.072
Q1    1   0.4477 -0.0605  0.3767  11.00000  0.05    0.63
;
_shelx_res_checksum              44423
_shelx_hkl_file
;
  -6  -4  -5    5.99    1.04
  -6  -4  -4   91.64    5.58
  -6  -4   1   52.53    3.68
  -6  -4   2    0.57    0.53
  -6  -3  -7   22.11    2.07
  -6  -3  -6  130.99    7.67
  -6  -3  -5   32.82    3.00
  -6  -3  -5   32.06    3.02
  -6  -3  -5   28.46    2.89
  -6  -3  -4  180.41   10.23
  -6  -3  -4  169.56   10.19
  -6  -3  -4  171.97   10.24
  -6  -3  -3   64.85    5.03
  -6  -3  -3   60.47    4.94
  -6  -3  -2    1.79    1.15
  -6  -3  -2    1.76    1.07
  -6  -3  -1   70.96    5.79
  -6  -3  -1   87.75    6.08
  -6  -3   1   20.12    2.63
  -6  -3   1   25.58    2.83
  -6  -3   2   64.08    4.87
  -6  -3   2   74.08    5.24
  -6  -3   2   68.57    5.02
  -6  -3   3    1.36    0.94
  -6  -3   3    2.72    1.14
  -6  -3   3    1.27    0.84
  -6  -3   4  171.81    9.44
  -6  -3   5    8.12    1.17
  -6  -2  -7   64.96    4.43
  -6  -2  -7   60.21    4.40
  -6  -2  -6   47.81    3.89
  -6  -2  -6   48.80    3.97
  -6  -2  -6   49.41    3.98
  -6  -2  -5   20.45    2.53
  -6  -2  -5   20.28    2.56
  -6  -2  -5   22.08    2.63
  -6  -2  -4    6.11    1.69
  -6  -2  -4    5.04    1.58
  -6  -2  -4    8.62    1.86
  -6  -2  -3  774.35   37.58
  -6  -2  -3  719.49   37.54
  -6  -2  -3  745.68   37.59
  -6  -2  -2   22.19    3.07
  -6  -2  -2   21.87    3.03
  -6  -2  -1   29.01    3.45
  -6  -2  -1   28.86    3.53
  -6  -2  -1   33.27    3.67
  -6  -2   0  257.03   14.15
  -6  -2   0  226.90   14.05
  -6  -2   1    7.82    1.78
  -6  -2   1    7.05    1.84
  -6  -2   1    4.81    1.17
  -6  -2   2    1.64    1.34
  -6  -2   2    4.41    1.39
  -6  -2   2    2.11    0.92
  -6  -2   2    2.28    0.91
  -6  -2   3  296.83   15.66
  -6  -2   3  312.65   16.11
  -6  -2   3  288.07   16.18
  -6  -2   3  290.19   16.07
  -6  -2   3  294.22   15.83
  -6  -2   4   38.42    3.35
  -6  -2   4   39.93    3.46
  -6  -2   4   37.14    3.44
  -6  -2   4   39.27    3.50
  -6  -2   4   39.99    3.64
  -6  -2   5   12.61    1.72
  -6  -2   5   10.41    1.75
  -6  -2   5   12.18    1.74
  -6  -2   5   14.95    1.92
  -6  -2   5   12.95    1.90
  -6  -2   6   48.72    4.13
  -6  -2   6   54.82    3.78
  -6  -2   6   61.86    4.31
  -6  -2   7  143.85    8.60
  -6  -2   7  215.14    9.93
  -6  -1  -7  145.96    8.81
  -6  -1  -7  159.56    8.82
  -6  -1  -6  163.83    9.59
  -6  -1  -6  172.83    9.82
  -6  -1  -6  169.82    9.86
  -6  -1  -6  173.48    9.95
  -6  -1  -5   16.47    2.29
  -6  -1  -5   18.91    2.47
  -6  -1  -5   20.86    2.56
  -6  -1  -4   67.80    5.27
  -6  -1  -4   65.22    5.25
  -6  -1  -4   67.61    5.34
  -6  -1  -3   79.62    5.97
  -6  -1  -3   74.07    5.93
  -6  -1  -3   72.89    5.91
  -6  -1  -2   17.42    2.73
  -6  -1  -2   15.08    2.60
  -6  -1  -1   14.86    2.55
  -6  -1  -1   14.59    2.61
  -6  -1  -1   15.89    1.99
  -6  -1  -1   15.17    2.61
  -6  -1   0  170.58   10.13
  -6  -1   0  147.69    8.97
  -6  -1   0  141.77    9.91
  -6  -1   1   47.90    4.34
  -6  -1   1   36.22    3.45
  -6  -1   2    5.16    1.66
  -6  -1   2    5.69    1.75
  -6  -1   2    9.74    2.05
  -6  -1   2    3.82    1.50
  -6  -1   2    8.61    1.58
  -6  -1   3  140.05    8.63
  -6  -1   3  144.61    9.14
  -6  -1   3  130.18    8.60
  -6  -1   3  146.31    9.04
  -6  -1   3  142.45    8.83
  -6  -1   4    0.25    0.97
  -6  -1   4    0.46    0.86
  -6  -1   4    1.22    0.92
  -6  -1   4    0.94    0.97
  -6  -1   4    1.76    1.21
  -6  -1   5    5.50    1.45
  -6  -1   5    5.76    1.40
  -6  -1   5    5.61    1.50
  -6  -1   5    8.10    1.54
  -6  -1   5    7.70    1.48
  -6  -1   6   11.30    1.54
  -6  -1   6   10.96    1.71
  -6  -1   6   11.96    1.62
  -6  -1   6   11.05    1.78
  -6  -1   6    8.85    1.56
  -6  -1   6   14.90    2.10
  -6  -1   6   13.97    2.03
  -6  -1   7  142.81    8.31
  -6  -1   7  133.74    8.24
  -6  -1   7  124.16    7.42
  -6  -1   8   26.60    2.79
  -6  -1   8   33.24    2.97
  -6   0  -6    0.31    0.73
  -6   0  -6    0.55    0.76
  -6   0  -6    0.35    0.73
  -6   0  -6   -0.17    0.77
  -6   0  -5    0.91    0.89
  -6   0  -5   -0.21    0.94
  -6   0  -5    1.02    0.91
  -6   0  -5    0.40    0.80
  -6   0  -4  144.27    8.59
  -6   0  -4  139.89    8.83
  -6   0  -4  139.67    8.77
  -6   0  -4  142.52    8.71
  -6   0  -3  179.12   10.34
  -6   0  -3  165.74   10.49
  -6   0  -3  165.58   10.46
  -6   0  -3  182.70   10.53
  -6   0  -2  211.49   11.94
  -6   0  -2  194.65   12.09
  -6   0  -2  198.95   12.11
  -6   0  -1   10.45    2.21
  -6   0  -1    9.53    2.12
  -6   0   0  120.24    8.48
  -6   0   0  115.01    8.40
  -6   0   0  126.79    7.73
  -6   0   0  128.22    8.48
  -6   0   1    1.42    1.29
  -6   0   1   -0.22    0.99
  -6   0   1    1.15    1.34
  -6   0   2   11.91    2.24
  -6   0   2   12.40    2.20
  -6   0   2   14.12    2.37
  -6   0   2   12.41    1.95
  -6   0   3   41.00    3.97
  -6   0   3   43.43    4.17
  -6   0   3   46.74    4.08
  -6   0   3   39.89    3.97
  -6   0   3   45.43    3.95
  -6   0   4   53.26    4.34
  -6   0   4   52.24    4.50
  -6   0   4   47.03    4.13
  -6   0   4   52.12    4.38
  -6   0   4   52.98    4.42
  -6   0   5    0.20    0.82
  -6   0   5    0.58    0.77
  -6   0   5    0.67    0.92
  -6   0   5    0.21    0.82
  -6   0   5    0.24    0.94
  -6   0   6  151.10    8.22
  -6   0   6  134.42    7.96
  -6   0   6  154.42    8.70
  -6   0   6  133.70    8.19
  -6   0   6  126.69    8.01
  -6   0   6  134.02    7.89
  -6   0   6  123.97    8.36
  -6   0   7    2.15    0.85
  -6   0   7    2.09    0.90
  -6   0   7    4.51    1.25
  -6   0   7    3.57    1.15
  -6   0   7    3.44    1.07
  -6   0   8   28.24    2.47
  -6   0   9    9.12    1.19
  -6   1  -7  104.79    5.81
  -6   1  -6    1.21    0.57
  -6   1  -5   12.11    1.44
  -6   1  -5   14.75    1.79
  -6   1  -5   13.98    1.65
  -6   1  -5   13.56    1.78
  -6   1  -4   79.91    5.17
  -6   1  -4   72.41    5.11
  -6   1  -4   73.28    4.94
  -6   1  -4   69.49    5.12
  -6   1  -3    1.83    1.05
  -6   1  -3    2.12    1.08
  -6   1  -3    1.48    0.96
  -6   1  -3    1.32    0.96
  -6   1  -2    8.84    1.74
  -6   1  -2   11.21    1.97
  -6   1  -2    9.61    1.70
  -6   1  -2    9.33    1.91
  -6   1  -1  284.20   15.68
  -6   1  -1  278.69   15.31
  -6   1  -1  279.32   15.69
  -6   1   0    1.93    1.23
  -6   1   0    0.25    1.22
  -6   1   0    1.93    1.26
  -6   1   1   61.70    4.78
  -6   1   1   58.11    4.64
  -6   1   2   23.85    2.82
  -6   1   2   22.04    2.68
  -6   1   2   19.77    2.68
  -6   1   3  269.53   14.39
  -6   1   3  252.10   14.58
  -6   1   3  269.16   14.41
  -6   1   3  257.78   14.52
  -6   1   4    0.77    0.86
  -6   1   4    1.49    1.06
  -6   1   4    1.11    1.04
  -6   1   4    2.75    1.10
  -6   1   5    2.23    0.92
  -6   1   5    1.00    0.87
  -6   1   5    1.57    0.91
  -6   1   5    0.18    0.88
  -6   1   5   -0.19    0.79
  -6   1   5   -0.41    0.78
  -6   1   6    4.35    1.22
  -6   1   6    2.32    0.85
  -6   1   6    2.10    0.85
  -6   1   6    2.88    0.94
  -6   1   7  113.30    6.12
  -6   1   7  120.84    6.74
  -6   1   7  100.29    6.61
  -6   1   7  106.37    6.18
  -6   1   7  103.41    6.40
  -6   1   8   43.25    3.09
  -6   1   8   38.29    3.08
  -6   1   9   14.17    1.44
  -6   1   9   10.00    1.31
  -6   1  10   29.15    2.13
  -6   2  -4  168.50    9.09
  -6   2  -4  185.01    9.34
  -6   2  -3    9.32    1.39
  -6   2  -3    9.32    1.29
  -6   2  -2    0.47    0.72
  -6   2  -2   -0.14    0.64
  -6   2  -1    3.96    1.08
  -6   2  -1    1.93    1.02
  -6   2  -1    2.38    0.93
  -6   2   0  144.78    8.73
  -6   2   0  140.07    8.71
  -6   2   0  150.34    8.35
  -6   2   1    1.78    0.99
  -6   2   1    1.67    1.04
  -6   2   1    2.22    1.06
  -6   2   1    3.51    1.15
  -6   2   2  290.84   14.57
  -6   2   2  285.09   14.73
  -6   2   2  251.19   14.74
  -6   2   2  281.87   14.67
  -6   2   3   29.41    2.71
  -6   2   3   27.71    2.63
  -6   2   3   36.38    2.92
  -6   2   4  150.83    8.45
  -6   2   4  144.09    8.47
  -6   2   4  162.49    8.56
  -6   2   5   18.07    1.74
  -6   2   5   15.70    1.70
  -6   2   6  183.10    9.46
  -6   2   7   18.61    1.80
  -6   2   8   85.36    4.89
  -5  -5  -5   13.50    1.91
  -5  -5  -4   19.73    2.42
  -5  -5  -3  112.89    7.41
  -5  -5  -2   21.84    2.68
  -5  -5   0  171.88   10.20
  -5  -5   1   50.74    4.11
  -5  -4  -8   92.22    6.23
  -5  -4  -7   96.04    6.65
  -5  -4  -6   16.20    2.43
  -5  -4  -5   27.96    3.39
  -5  -4  -4   43.36    4.49
  -5  -4  -3   73.40    6.27
  -5  -4  -2   15.90    2.79
  -5  -4   1   27.77    3.45
  -5  -4   2    1.73    1.43
  -5  -4   3  223.74   13.01
  -5  -4   4    0.61    0.76
  -5  -4   4    1.18    1.00
  -5  -4   5   20.30    2.35
  -5  -4   5   18.73    2.33
  -5  -4   6   26.13    2.72
  -5  -4   7   83.32    5.64
  -5  -3  -8  118.81    8.01
  -5  -3  -7    2.27    1.33
  -5  -3  -6   38.68    4.11
  -5  -3  -5    2.02    1.61
  -5  -3  -4  380.79   21.33
  -5  -3  -3    0.78    1.52
  -5  -3  -2   14.97    3.03
  -5  -3  -1  143.66   10.35
  -5  -3   1    8.87    1.80
  -5  -3   1   14.30    2.79
  -5  -3   2   55.66    4.74
  -5  -3   2   53.39    5.29
  -5  -3   3    0.99    1.00
  -5  -3   3    0.84    1.02
  -5  -3   3    1.95    1.38
  -5  -3   4  175.97   11.15
  -5  -3   4  173.24   11.15
  -5  -3   4  191.16   11.06
  -5  -3   5   -0.80    1.30
  -5  -3   5    1.80    1.28
  -5  -3   5    1.10    1.17
  -5  -3   6   51.95    4.76
  -5  -3   6   44.73    4.23
  -5  -3   6   55.12    4.64
  -5  -3   7    1.87    1.14
  -5  -3   7    2.03    1.26
  -5  -3   8    9.20    1.83
  -5  -3   8    6.44    1.67
  -5  -3   9    0.48    0.84
  -5  -3   9   -0.47    0.91
  -5  -3  10  187.74   10.69
  -5  -3  10  181.87   10.66
  -5  -3  11   12.50    1.75
  -5  -3  11   12.82    1.73
  -5  -2  -9   11.03    2.01
  -5  -2  -8   79.86    6.22
  -5  -2  -8   81.40    6.21
  -5  -2  -7   23.23    3.15
  -5  -2  -6   90.45    6.99
  -5  -2  -5  559.77   29.51
  -5  -2  -4   -0.37    1.56
  -5  -2  -3    0.39    1.49
  -5  -2  -3    1.26    2.45
  -5  -2  -2   41.79    4.98
  -5  -2  -2   40.90    8.06
  -5  -2  -2   43.72    7.71
  -5  -2  -1  924.80   47.81
  -5  -2  -1  837.61   55.16
  -5  -2  -1  979.71   46.36
  -5  -2  -1  857.58   53.50
  -5  -2  -1  941.54   46.31
  -5  -2   0  101.36    7.13
  -5  -2   0  100.59    7.15
  -5  -2   0   95.41   11.66
  -5  -2   1   37.29    7.42
  -5  -2   1   37.28    3.93
  -5  -2   1   39.85    3.97
  -5  -2   1   46.30    7.66
  -5  -2   2   41.25    4.15
  -5  -2   2   42.90    4.83
  -5  -2   2   46.67    4.47
  -5  -2   3  123.54    8.33
  -5  -2   3  121.71    8.70
  -5  -2   3  115.35    8.33
  -5  -2   4   23.79    3.17
  -5  -2   4   25.62    3.34
  -5  -2   4   22.84    3.27
  -5  -2   5   15.95    2.78
  -5  -2   5   13.24    2.50
  -5  -2   5   12.66    2.34
  -5  -2   6    9.97    2.18
  -5  -2   6    5.64    1.92
  -5  -2   6    8.86    1.96
  -5  -2   7   90.81    6.64
  -5  -2   7   94.24    6.91
  -5  -2   7  102.75    7.48
  -5  -2   7   90.61    6.54
  -5  -2   7   95.26    7.44
  -5  -2   8   10.53    2.26
  -5  -2   8    7.86    1.99
  -5  -2   8    9.24    1.75
  -5  -2   9   29.93    3.56
  -5  -2   9   35.11    3.79
  -5  -2  10   10.35    1.99
  -5  -2  10   12.28    2.25
  -5  -2  11  365.61   19.47
  -5  -2  12   45.84    3.81
  -5  -2  12   42.43    3.62
  -5  -1  -9    1.92    1.05
  -5  -1  -8  443.56   23.53
  -5  -1  -8  451.54   23.60
  -5  -1  -8  445.87   23.57
  -5  -1  -7   14.97    2.49
  -5  -1  -7   14.84    2.50
  -5  -1  -7   19.11    2.73
  -5  -1  -6   92.66    6.93
  -5  -1  -6   84.18    6.68
  -5  -1  -6   83.46    6.70
  -5  -1  -5    0.33    1.36
  -5  -1  -5    0.33    1.32
  -5  -1  -4  273.26   22.31
  -5  -1  -4  276.47   22.50
  -5  -1  -4  292.63   17.08
  -5  -1  -4  305.01   17.14
  -5  -1  -3   29.40    3.88
  -5  -1  -3   28.75    6.51
  -5  -1  -3   24.41    6.01
  -5  -1  -3   26.52    3.13
  -5  -1  -3   22.70    5.28
  -5  -1  -2  297.42   17.14
  -5  -1  -2  258.50   22.66
  -5  -1  -2  288.91   15.99
  -5  -1  -2  280.02   15.88
  -5  -1  -2  259.95   20.86
  -5  -1  -1    4.17    2.12
  -5  -1  -1    3.98    2.89
  -5  -1  -1    7.62    3.22
  -5  -1  -1    3.21    1.31
  -5  -1  -1    4.44    1.59
  -5  -1   0  395.43   20.62
  -5  -1   0  369.48   20.38
  -5  -1   0  339.40   25.46
  -5  -1   1  217.09   20.32
  -5  -1   1  255.92   14.03
  -5  -1   1  228.78   13.70
  -5  -1   1  200.51   18.06
  -5  -1   2  122.75    8.92
  -5  -1   2  107.94   13.08
  -5  -1   2   91.46   12.31
  -5  -1   2  112.86    8.09
  -5  -1   2  127.79    8.38
  -5  -1   2  115.48   12.38
  -5  -1   3  570.46   29.31
  -5  -1   3  574.64   28.86
  -5  -1   3  502.50   35.42
  -5  -1   3  490.76   35.44
  -5  -1   3  555.53   28.85
  -5  -1   3  494.30   34.47
  -5  -1   4  145.38    9.67
  -5  -1   4  154.44    9.69
  -5  -1   4  133.70    9.63
  -5  -1   4  121.61   13.46
  -5  -1   4  125.16   13.59
  -5  -1   4  119.44   13.46
  -5  -1   4  150.74    9.76
  -5  -1   5    0.32    1.26
  -5  -1   5    1.69    1.51
  -5  -1   5   -0.31    1.22
  -5  -1   5   -0.34    1.19
  -5  -1   5    1.08    1.21
  -5  -1   6  100.97    7.38
  -5  -1   6   87.85    6.86
  -5  -1   6   91.06    6.80
  -5  -1   6   80.13    6.53
  -5  -1   6   79.78    6.22
  -5  -1   6   94.37    7.32
  -5  -1   7    8.62    2.02
  -5  -1   7   11.17    2.11
  -5  -1   7    9.30    1.89
  -5  -1   7   10.43    1.96
  -5  -1   7   12.98    2.62
  -5  -1   7    8.47    2.26
  -5  -1   8   12.85    2.60
  -5  -1   8   14.43    2.33
  -5  -1   8   12.39    2.51
  -5  -1   8   13.30    2.20
  -5  -1   8   12.02    2.03
  -5  -1   8   10.48    2.03
  -5  -1   9   29.67    3.69
  -5  -1   9   26.95    3.23
  -5  -1  10  325.51   17.01
  -5  -1  10  276.53   16.42
  -5  -1  11    1.76    1.07
  -5  -1  11    2.57    1.25
  -5  -1  12   14.91    2.10
  -5  -1  12   17.29    2.34
  -5  -1  12   18.10    2.32
  -5  -1  13  110.62    6.82
  -5  -1  13  102.14    6.62
  -5  -1  13  103.99    6.61
  -5   0 -13    2.66    0.81
  -5   0 -12   44.33    3.62
  -5   0 -11   30.11    3.03
  -5   0 -10   17.68    2.35
  -5   0  -9   24.44    2.63
  -5   0  -9   19.32    2.57
  -5   0  -8    0.50    1.01
  -5   0  -8    1.55    1.13
  -5   0  -8    1.51    1.07
  -5   0  -8    2.28    1.09
  -5   0  -7  327.82   18.60
  -5   0  -7  353.91   19.02
  -5   0  -7  354.32   18.99
  -5   0  -7  367.28   19.14
  -5   0  -7  341.25   18.74
  -5   0  -6   98.31    7.23
  -5   0  -6  102.29    7.33
  -5   0  -6   96.09    6.86
  -5   0  -6   96.66    7.17
  -5   0  -5  898.74   44.20
  -5   0  -5  895.63   44.15
  -5   0  -5  873.42   44.14
  -5   0  -5  852.17   43.42
  -5   0  -4  236.51   14.15
  -5   0  -4  261.90   15.07
  -5   0  -4  224.59   19.74
  -5   0  -4  224.32   19.62
  -5   0  -4  265.17   15.09
  -5   0  -4  263.40   15.11
  -5   0  -4  252.86   14.13
  -5   0  -3  243.48   14.29
  -5   0  -3  253.65   15.12
  -5   0  -3  223.14   20.06
  -5   0  -3  228.85   20.01
  -5   0  -3  255.34   15.11
  -5   0  -3  247.71   13.97
  -5   0  -3  266.65   15.27
  -5   0  -2  179.65   11.45
  -5   0  -2  132.63   15.13
  -5   0  -2  140.18   15.30
  -5   0  -2  173.02   11.27
  -5   0  -2  166.96   10.44
  -5   0  -2  161.14    9.89
  -5   0  -1  233.50   14.20
  -5   0  -1  217.70   13.09
  -5   0  -1  229.60   20.22
  -5   0  -1  183.40   18.85
  -5   0  -1  199.95   13.77
  -5   0  -1  223.53   12.45
  -5   0  -1  221.84   13.04
  -5   0   0   70.79    5.95
  -5   0   0   77.21    7.01
  -5   0   0   78.70   11.21
  -5   0   0   56.63    9.57
  -5   0   0   79.40    6.92
  -5   0   0   76.49    6.94
  -5   0   0   81.72    6.27
  -5   0   0   78.86    5.54
  -5   0   1   13.09    2.72
  -5   0   1    8.35    1.65
  -5   0   1   12.97    2.30
  -5   0   1   11.55    2.27
  -5   0   2  269.43   16.09
  -5   0   2  256.30   15.23
  -5   0   2  252.68   21.84
  -5   0   2  265.43   22.40
  -5   0   2  270.91   15.37
  -5   0   2  265.02   15.97
  -5   0   3   74.15    6.32
  -5   0   3   63.58    5.66
  -5   0   3   72.62    6.49
  -5   0   3   61.95    9.41
  -5   0   3   63.90    9.79
  -5   0   3   69.59    5.86
  -5   0   3   73.55    6.27
  -5   0   4    7.36    2.09
  -5   0   4    1.13    4.95
  -5   0   4   10.06    3.80
  -5   0   4    4.05    1.95
  -5   0   4   13.97    2.57
  -5   0   4   14.60    2.49
  -5   0   4   13.28    2.50
  -5   0   5   31.22    3.75
  -5   0   5   25.44    3.16
  -5   0   5   30.60    3.82
  -5   0   5   32.11    3.88
  -5   0   5   31.68    3.70
  -5   0   5   27.32    3.50
  -5   0   6  474.55   24.26
  -5   0   6  453.30   23.84
  -5   0   6  425.37   23.55
  -5   0   6  441.24   23.50
  -5   0   6  437.09   24.18
  -5   0   6  428.63   23.37
  -5   0   7    8.13    1.85
  -5   0   7    6.96    1.91
  -5   0   7    8.54    1.84
  -5   0   7    3.79    1.40
  -5   0   7    4.60    1.58
  -5   0   8   52.41    4.87
  -5   0   8   46.44    4.87
  -5   0   8   49.98    4.49
  -5   0   8   45.96    4.19
  -5   0   8   45.26    4.23
  -5   0   8   46.75    4.11
  -5   0   9   14.05    2.12
  -5   0   9   11.34    2.04
  -5   0   9   11.13    2.33
  -5   0   9   13.80    2.49
  -5   0   9   12.52    2.35
  -5   0  10   65.49    5.43
  -5   0  10   56.43    4.62
  -5   0  10   51.62    4.98
  -5   0  10   64.54    5.29
  -5   0  11   93.85    6.64
  -5   0  11   91.58    6.70
  -5   0  11  104.87    6.70
  -5   0  12    3.24    1.33
  -5   0  12    1.59    1.11
  -5   0  12    1.92    0.93
  -5   0  13  256.87   14.48
  -5   0  13  289.29   15.05
  -5   0  13  287.08   14.79
  -5   0  14  159.31    9.10
  -5   0  15    0.81    0.56
  -5   1 -14    0.10    0.38
  -5   1 -13   49.23    3.61
  -5   1 -12  216.26   11.90
  -5   1 -11  122.02    7.76
  -5   1 -10  139.33    8.81
  -5   1  -9   -0.80    0.90
  -5   1  -8  113.01    7.86
  -5   1  -8  119.17    7.47
  -5   1  -7  234.30   12.90
  -5   1  -7  227.24   12.64
  -5   1  -7  214.21   13.01
  -5   1  -7  223.56   12.95
  -5   1  -7  219.07   12.82
  -5   1  -6   61.98    5.19
  -5   1  -6   70.28    5.29
  -5   1  -6   56.66    5.09
  -5   1  -6   66.42    5.38
  -5   1  -6   65.41    5.35
  -5   1  -5   10.14    2.14
  -5   1  -5    9.74    1.97
  -5   1  -5   11.52    2.05
  -5   1  -5   11.18    2.22
  -5   1  -5   13.42    2.36
  -5   1  -4   88.70    6.72
  -5   1  -4   82.49    6.48
  -5   1  -4   79.97    6.17
  -5   1  -4   85.18    6.73
  -5   1  -4   89.61    6.84
  -5   1  -3   74.25    6.20
  -5   1  -3   65.35    6.04
  -5   1  -3   75.53    6.12
  -5   1  -3   78.47    5.80
  -5   1  -3   68.97    6.23
  -5   1  -2  231.45   13.97
  -5   1  -2  206.52   13.04
  -5   1  -2  234.52   14.09
  -5   1  -2  232.05   13.78
  -5   1  -2  219.23   12.98
  -5   1  -2  233.73   14.13
  -5   1  -1  381.61   21.10
  -5   1  -1  392.59   19.85
  -5   1  -1  353.23   20.81
  -5   1  -1  338.36   19.81
  -5   1   0  190.58   12.02
  -5   1   0  212.57   13.38
  -5   1   0  213.64   11.95
  -5   1   0  197.74   13.14
  -5   1   0  189.97   12.86
  -5   1   1    7.84    2.34
  -5   1   1    5.13    1.64
  -5   1   1    9.76    2.88
  -5   1   1    5.61    2.05
  -5   1   1    7.86    1.63
  -5   1   2   36.40    4.30
  -5   1   2   31.37    3.68
  -5   1   2   32.22    3.33
  -5   1   2   33.09    3.79
  -5   1   2   32.01    4.16
  -5   1   3  468.05   25.08
  -5   1   3  470.28   25.35
  -5   1   3  448.13   24.56
  -5   1   3  453.57   25.15
  -5   1   3  464.95   24.98
  -5   1   4    0.68    1.36
  -5   1   4    0.37    1.64
  -5   1   4   -0.33    1.33
  -5   1   4    0.71    1.54
  -5   1   4    0.33    1.22
  -5   1   5    1.25    1.39
  -5   1   5    1.03    1.49
  -5   1   5    0.33    1.32
  -5   1   5    2.16    1.47
  -5   1   6   54.66    4.94
  -5   1   6   56.49    5.23
  -5   1   6   56.93    5.14
  -5   1   6   50.98    4.86
  -5   1   6   55.67    4.89
  -5   1   7  141.29    9.04
  -5   1   7  138.71    9.63
  -5   1   7  151.26    9.47
  -5   1   7  145.85    9.08
  -5   1   7  136.36    9.16
  -5   1   7  138.66    9.67
  -5   1   8    8.31    2.01
  -5   1   8   10.99    1.89
  -5   1   8   10.31    2.17
  -5   1   8    7.87    1.97
  -5   1   8    8.45    1.83
  -5   1   8   10.75    1.91
  -5   1   8    9.31    1.71
  -5   1   9  107.08    7.84
  -5   1   9  115.67    7.92
  -5   1   9  102.61    7.17
  -5   1   9  120.24    7.69
  -5   1   9  115.84    7.14
  -5   1  10   30.15    3.24
  -5   1  10   31.79    3.35
  -5   1  10   31.97    3.41
  -5   1  11   49.23    4.27
  -5   1  11   56.26    4.40
  -5   1  11   57.78    4.50
  -5   1  12    2.36    0.87
  -5   1  12    4.56    1.19
  -5   1  12    2.85    1.13
  -5   1  13   45.10    3.49
  -5   1  13   56.32    3.99
  -5   1  14   48.79    3.55
  -5   1  15   28.06    2.27
  -5   1  15   26.70    2.12
  -5   2 -13   -0.08    0.30
  -5   2 -12   26.40    2.27
  -5   2 -11    2.34    0.88
  -5   2 -10    0.61    0.71
  -5   2  -9   14.44    2.11
  -5   2  -8   23.01    2.81
  -5   2  -7  255.48   13.59
  -5   2  -7  280.55   14.46
  -5   2  -6  114.77    7.40
  -5   2  -6  112.47    7.60
  -5   2  -6  126.73    7.48
  -5   2  -6  103.89    7.31
  -5   2  -6  107.76    7.04
  -5   2  -5  120.14    8.24
  -5   2  -5  133.44    8.46
  -5   2  -5  127.32    8.25
  -5   2  -5  136.41    8.53
  -5   2  -5  127.54    8.05
  -5   2  -4  211.41   12.70
  -5   2  -4  233.67   12.73
  -5   2  -4  204.99   12.50
  -5   2  -4  220.50   12.86
  -5   2  -4  212.55   12.38
  -5   2  -3   22.54    3.03
  -5   2  -3   19.27    2.65
  -5   2  -3   22.04    2.99
  -5   2  -3   24.70    3.28
  -5   2  -3   23.11    2.90
  -5   2  -2  122.61    8.79
  -5   2  -2  123.90    8.13
  -5   2  -2  124.64    8.64
  -5   2  -2  130.19    8.53
  -5   2  -2  120.32    8.72
  -5   2  -1    8.40    2.38
  -5   2  -1    7.98    1.75
  -5   2  -1    6.11    2.04
  -5   2  -1    5.71    1.91
  -5   2   0   21.47    3.50
  -5   2   0   27.43    3.78
  -5   2   0   26.39    2.93
  -5   2   1  261.08   14.83
  -5   2   1  252.76   13.70
  -5   2   1  230.66   14.74
  -5   2   1  218.36   14.30
  -5   2   2  496.22   25.54
  -5   2   2  458.64   24.29
  -5   2   2  465.34   25.27
  -5   2   3   23.79    2.77
  -5   2   3   28.89    3.85
  -5   2   3   27.72    3.70
  -5   2   3   30.56    3.69
  -5   2   3   29.09    3.72
  -5   2   4   75.69    5.95
  -5   2   4   84.81    6.44
  -5   2   4   85.81    6.80
  -5   2   4   89.48    6.83
  -5   2   4   86.48    6.59
  -5   2   4   83.09    6.51
  -5   2   5    5.41    1.55
  -5   2   5    6.08    1.64
  -5   2   5    4.07    1.69
  -5   2   5    3.03    1.43
  -5   2   5    4.70    1.63
  -5   2   5    4.99    1.64
  -5   2   6  173.46   11.25
  -5   2   6  179.78   11.47
  -5   2   6  189.95   11.55
  -5   2   6  184.68   11.40
  -5   2   6  191.47   11.20
  -5   2   6  211.52   11.41
  -5   2   7    2.20    1.31
  -5   2   7    0.27    1.05
  -5   2   7    1.13    1.17
  -5   2   7    1.03    1.10
  -5   2   7    1.50    1.14
  -5   2   7    0.67    0.90
  -5   2   7    2.25    1.14
  -5   2   8   37.59    3.63
  -5   2   8   27.77    3.14
  -5   2   8   23.83    2.94
  -5   2   8   26.54    2.92
  -5   2   8   25.27    2.80
  -5   2   8   25.86    2.71
  -5   2   8   25.70    2.69
  -5   2   9   18.10    2.52
  -5   2   9   22.64    2.69
  -5   2   9   23.45    2.29
  -5   2   9   22.09    2.83
  -5   2  10  197.99   10.90
  -5   2  10  179.49   10.90
  -5   2  11   13.49    1.89
  -5   2  11   15.27    2.11
  -5   2  11   13.82    1.83
  -5   2  12    1.61    0.99
  -5   2  12    0.84    0.73
  -5   2  13   28.84    2.43
  -5   2  13   29.98    2.45
  -5   2  13   25.42    2.23
  -5   2  14  165.37    8.68
  -5   3 -10   15.21    1.42
  -5   3  -9   -0.50    0.49
  -5   3  -8   86.55    5.46
  -5   3  -7   20.68    2.26
  -5   3  -6   19.45    2.26
  -5   3  -5   78.55    5.17
  -5   3  -5   81.22    5.02
  -5   3  -5   72.31    5.25
  -5   3  -5   89.00    5.60
  -5   3  -5   73.01    5.15
  -5   3  -4   72.58    5.15
  -5   3  -4   88.20    5.56
  -5   3  -4   74.81    5.57
  -5   3  -4   89.19    5.66
  -5   3  -4   74.14    5.45
  -5   3  -3    7.05    1.74
  -5   3  -3    8.53    1.57
  -5   3  -3    8.45    1.68
  -5   3  -3    6.91    1.66
  -5   3  -3    7.50    1.47
  -5   3  -2    5.07    1.59
  -5   3  -2    5.05    1.32
  -5   3  -2    2.59    1.23
  -5   3  -2    3.88    1.33
  -5   3  -2    5.26    1.59
  -5   3  -1  284.91   16.92
  -5   3  -1  309.31   16.18
  -5   3  -1  328.57   16.68
  -5   3  -1  289.04   16.87
  -5   3   0    8.01    2.06
  -5   3   0    5.61    1.48
  -5   3   0    8.44    1.97
  -5   3   0    6.94    1.46
  -5   3   1   24.90    3.18
  -5   3   1   25.36    3.39
  -5   3   1   23.88    3.27
  -5   3   1   31.14    3.11
  -5   3   2    4.82    1.65
  -5   3   2    9.18    1.80
  -5   3   2    4.43    1.66
  -5   3   3  170.48   10.32
  -5   3   3  173.34   10.39
  -5   3   3  162.86   10.60
  -5   3   3  166.63   10.01
  -5   3   4    2.49    1.46
  -5   3   4    3.07    1.37
  -5   3   4    4.77    1.51
  -5   3   4    1.64    1.28
  -5   3   4    2.71    1.32
  -5   3   5  160.29    9.18
  -5   3   5  158.67    9.17
  -5   3   5  149.03    9.41
  -5   3   5  146.18    9.07
  -5   3   5  138.35    9.29
  -5   3   6   88.29    5.73
  -5   3   6   98.92    5.90
  -5   3   6   76.37    5.77
  -5   3   6   82.30    5.84
  -5   3   6   75.89    5.82
  -5   3   7  289.06   15.96
  -5   3   7  320.56   16.23
  -5   3   7  286.49   15.91
  -5   3   7  321.20   15.77
  -5   3   7  351.83   15.92
  -5   3   7  257.90   15.53
  -5   3   8    8.25    1.56
  -5   3   8    5.60    1.03
  -5   3   8    8.67    1.28
  -5   3   8    6.67    1.34
  -5   3   9  149.05    8.17
  -5   3   9  127.88    7.78
  -5   3  10    8.59    1.32
  -5   3  11   18.24    1.74
  -5   4  -3    2.34    0.62
  -5   4  -3    4.26    0.82
  -5   4  -2  121.62    6.76
  -5   4  -2  123.45    6.89
  -5   4  -1    3.78    0.92
  -5   4  -1    2.24    0.84
  -5   4   0  169.58    9.31
  -5   4   1    0.82    0.83
  -5   4   2  127.59    7.54
  -5   4   2  128.02    7.46
  -5   4   3    2.38    0.96
  -5   4   3    4.10    1.07
  -5   4   4  102.50    6.00
  -5   4   4   97.62    5.95
  -5   4   5    9.94    1.28
  -5   4   5    6.61    1.04
  -5   4   6   68.27    4.06
  -4  -5   5   57.76    4.47
  -4  -5   6   25.53    2.70
  -4  -5   7   79.31    5.50
  -4  -4  -3  163.49   16.91
  -4  -4  -2    3.87    3.08
  -4  -4  -1  116.34   13.33
  -4  -4   0   30.33    6.62
  -4  -4   2  322.27   17.71
  -4  -4   5   34.27    3.60
  -4  -4   6  357.54   19.43
  -4  -4   7   60.72    5.10
  -4  -4   7   57.93    4.80
  -4  -4   8    0.27    0.99
  -4  -4   9  145.84    9.26
  -4  -4  10   43.97    4.00
  -4  -4  10   41.68    3.84
  -4  -4  11   31.94    3.16
  -4  -4  11   26.62    2.85
  -4  -4  12   14.35    1.91
  -4  -3  -9  205.99   19.92
  -4  -3  -9  178.98   11.41
  -4  -3  -8  209.78   20.51
  -4  -3  -7   98.99   13.17
  -4  -3  -3   31.15    6.96
  -4  -3  -2  750.27   46.42
  -4  -3  -1    3.72    2.96
  -4  -3   0   10.79    2.00
  -4  -3   0   19.31    5.29
  -4  -3   1   41.25    3.93
  -4  -3   1   40.13    7.40
  -4  -3   1   35.46    3.67
  -4  -3   2  371.20   19.65
  -4  -3   2  345.15   19.20
  -4  -3   2  358.26   26.38
  -4  -3   3  197.47   11.97
  -4  -3   3  204.33   18.25
  -4  -3   4   43.97    4.33
  -4  -3   4   36.70    7.16
  -4  -3   5   23.25    3.23
  -4  -3   5   18.55    5.15
  -4  -3   6  239.84   14.30
  -4  -3   6  219.55   20.16
  -4  -3   7  141.58    9.74
  -4  -3   7  128.68    8.88
  -4  -3   8    0.36    1.29
  -4  -3   9   32.15    3.99
  -4  -3  10  116.43    8.33
  -4  -3  11   10.94    1.89
  -4  -3  11   11.64    2.24
  -4  -3  12   57.63    4.81
  -4  -3  12   69.78    5.38
  -4  -3  13    3.36    1.20
  -4  -3  13    3.51    1.09
  -4  -3  13    2.32    1.22
  -4  -3  14  137.83    8.42
  -4  -3  14  147.38    8.59
  -4  -2 -10    1.45    1.99
  -4  -2  -9   54.25    9.47
  -4  -2  -9   48.74    4.72
  -4  -2  -8   23.46    5.31
  -4  -2  -8   34.43    7.28
  -4  -2  -8   25.09    3.30
  -4  -2  -7   78.85    9.68
  -4  -2  -7   68.15   10.22
  -4  -2  -7   76.53    6.26
  -4  -2  -6  168.39   16.69
  -4  -2  -5 1644.68   88.30
  -4  -2  -4  111.38   12.92
  -4  -2  -3   11.27    4.14
  -4  -2  -2   66.44    5.05
  -4  -2  -2   73.03    9.71
  -4  -2  -2   56.47    4.80
  -4  -2  -1  719.48   37.13
  -4  -2  -1  806.00   45.33
  -4  -2  -1  756.00   37.26
  -4  -2   0   26.16    3.03
  -4  -2   0   23.34    2.93
  -4  -2   1    1.35    1.08
  -4  -2   1    0.80    0.86
  -4  -2   1   -1.05    2.28
  -4  -2   2   23.03    2.90
  -4  -2   2   21.26    2.88
  -4  -2   3  143.02    9.33
  -4  -2   3  135.89    9.10
  -4  -2   4    0.33    1.12
  -4  -2   4    1.21    1.10
  -4  -2   5   43.90    4.49
  -4  -2   5   39.34    6.87
  -4  -2   5   42.59    7.03
  -4  -2   5   48.80    4.86
  -4  -2   5   40.35    4.41
  -4  -2   6   32.33    3.79
  -4  -2   6   30.58    3.88
  -4  -2   6   33.70    6.14
  -4  -2   6   32.28    6.26
  -4  -2   6   40.17    4.42
  -4  -2   6   34.64    3.59
  -4  -2   6   36.95    6.96
  -4  -2   7  539.03   27.64
  -4  -2   7  550.52   28.53
  -4  -2   7  504.61   33.02
  -4  -2   7  571.05   35.06
  -4  -2   7  522.27   27.44
  -4  -2   7  505.87   28.47
  -4  -2   7  505.34   34.43
  -4  -2   8    1.15    2.25
  -4  -2   8    1.15    1.30
  -4  -2   8    1.10    2.14
  -4  -2   8    2.75    1.43
  -4  -2   8    5.77    2.06
  -4  -2   8    3.26    1.35
  -4  -2   9  149.85    9.74
  -4  -2   9  121.52    8.66
  -4  -2   9  130.40   13.73
  -4  -2   9  144.70    9.58
  -4  -2   9   94.49   12.53
  -4  -2   9   87.51   11.05
  -4  -2  10   44.18    4.76
  -4  -2  10   37.60    4.16
  -4  -2  11    5.21    1.97
  -4  -2  11    6.16    1.78
  -4  -2  11    7.79    1.94
  -4  -2  12    4.95    1.64
  -4  -2  12    9.22    2.01
  -4  -2  13  108.13    7.48
  -4  -2  13  107.26    7.47
  -4  -2  14   12.37    2.09
  -4  -2  14   10.88    1.87
  -4  -2  14   12.65    2.01
  -4  -2  15   37.33    3.40
  -4  -2  15   37.02    3.37
  -4  -2  15   36.55    3.28
  -4  -2  16    0.17    0.74
  -4  -1 -10   45.15    8.10
  -4  -1  -9    6.04    3.33
  -4  -1  -9    4.58    1.46
  -4  -1  -8  444.92   23.33
  -4  -1  -8  431.83   30.85
  -4  -1  -8  427.09   28.32
  -4  -1  -7   -0.29    1.16
  -4  -1  -7    3.24    2.35
  -4  -1  -7    1.77    2.28
  -4  -1  -6   -0.29    1.11
  -4  -1  -6   -1.03    1.42
  -4  -1  -6   -0.90    2.15
  -4  -1  -5   98.38    7.22
  -4  -1  -5   85.12   10.29
  -4  -1  -5  110.60   11.87
  -4  -1  -4  222.87   12.91
  -4  -1  -4  235.26   13.75
  -4  -1  -4  234.77   12.91
  -4  -1  -4  219.95   18.26
  -4  -1  -4  219.90   18.35
  -4  -1  -3  891.71   44.48
  -4  -1  -3  899.69   45.41
  -4  -1  -3  903.36   44.45
  -4  -1  -3  907.37   51.87
  -4  -1  -3  940.29   51.40
  -4  -1  -2 1328.38   65.03
  -4  -1  -2 1332.43   66.00
  -4  -1  -2 1337.00   64.97
  -4  -1  -2 1374.88   73.17
  -4  -1  -2 1388.81   71.85
  -4  -1  -1   82.43    6.16
  -4  -1  -1   80.33    6.79
  -4  -1  -1   85.69    6.11
  -4  -1  -1   84.92    9.98
  -4  -1  -1   74.64   10.15
  -4  -1   0    9.17    3.38
  -4  -1   0   10.90    2.08
  -4  -1   0    9.87    1.82
  -4  -1   1    0.91    1.99
  -4  -1   1    0.83    1.20
  -4  -1   1    1.05    0.99
  -4  -1   2  771.07   38.62
  -4  -1   2  796.11   39.39
  -4  -1   2  756.08   38.51
  -4  -1   2  756.69   45.58
  -4  -1   2  743.82   44.25
  -4  -1   3   43.31    4.29
  -4  -1   3   46.68    4.69
  -4  -1   3   44.39    4.29
  -4  -1   3   44.54    4.04
  -4  -1   3   41.93    7.00
  -4  -1   4   86.94   10.24
  -4  -1   4   72.35    5.90
  -4  -1   4   73.93    6.14
  -4  -1   4   76.81    9.72
  -4  -1   4   73.54    5.64
  -4  -1   4   83.46    6.26
  -4  -1   4   73.73    9.48
  -4  -1   5   30.75    6.00
  -4  -1   5   26.99    3.28
  -4  -1   5   34.62    3.80
  -4  -1   5   35.01    3.85
  -4  -1   5   40.17    6.79
  -4  -1   5   34.57    3.49
  -4  -1   5   36.28    4.10
  -4  -1   5   35.11    6.32
  -4  -1   6   95.33   11.01
  -4  -1   6   81.76    6.14
  -4  -1   6   77.48    6.48
  -4  -1   6   93.28   10.95
  -4  -1   6   77.83    6.65
  -4  -1   6   81.33    6.21
  -4  -1   6   68.81    9.07
  -4  -1   6   84.76    6.41
  -4  -1   7    7.53    3.35
  -4  -1   7   10.84    4.11
  -4  -1   7    8.42    1.91
  -4  -1   7   11.60    2.22
  -4  -1   7   10.86    3.66
  -4  -1   7   11.41    2.25
  -4  -1   7    9.36    2.29
  -4  -1   7    9.07    2.23
  -4  -1   8  208.24   18.35
  -4  -1   8  184.96   11.64
  -4  -1   8  198.59   11.98
  -4  -1   8  209.36   12.79
  -4  -1   8  211.41   12.44
  -4  -1   8  174.32   17.10
  -4  -1   8  189.96   11.88
  -4  -1   8  198.97   16.56
  -4  -1   8  176.39   15.51
  -4  -1   9    0.37    1.26
  -4  -1   9    0.36    1.30
  -4  -1   9    2.40    1.19
  -4  -1   9    1.21    2.37
  -4  -1   9    3.07    1.43
  -4  -1  10  202.92   19.13
  -4  -1  10  198.20   12.71
  -4  -1  10  204.22   13.20
  -4  -1  10  245.26   13.70
  -4  -1  11   50.47    5.04
  -4  -1  11   39.55    4.43
  -4  -1  11   51.81    5.12
  -4  -1  11   57.25    5.15
  -4  -1  12  117.06    8.29
  -4  -1  12   92.00    7.52
  -4  -1  12  117.55    8.29
  -4  -1  12  115.88    8.02
  -4  -1  13    7.67    1.87
  -4  -1  13    7.05    1.91
  -4  -1  13    7.33    1.89
  -4  -1  13    5.13    1.63
  -4  -1  14  226.34   12.43
  -4  -1  14  184.97   11.80
  -4  -1  14  237.02   12.69
  -4  -1  14  190.31   11.91
  -4  -1  15    8.27    1.73
  -4  -1  15    9.16    1.75
  -4  -1  15    6.63    1.40
  -4  -1  16   99.78    6.84
  -4  -1  16  125.51    7.40
  -4  -1  17   11.73    1.70
  -4   0  -9  290.60   16.09
  -4   0  -8   13.37    2.24
  -4   0  -8   15.76    2.46
  -4   0  -8   12.77    2.26
  -4   0  -7  213.95   17.50
  -4   0  -7  202.73   17.14
  -4   0  -7  243.57   13.54
  -4   0  -7  227.04   13.39
  -4   0  -7  227.58   13.37
  -4   0  -6   21.32    4.60
  -4   0  -6   19.42    4.52
  -4   0  -6   12.36    2.03
  -4   0  -6   15.85    2.58
  -4   0  -6   14.30    2.49
  -4   0  -6   16.48    2.60
  -4   0  -5 1271.77   66.24
  -4   0  -5 1179.68   65.40
  -4   0  -5 1248.03   59.52
  -4   0  -5 1234.28   60.10
  -4   0  -5 1290.15   60.22
  -4   0  -5 1185.57   60.00
  -4   0  -5 1174.47   59.36
  -4   0  -4   37.91    4.13
  -4   0  -4   41.02    3.74
  -4   0  -4   40.48    6.20
  -4   0  -4   38.07    4.11
  -4   0  -4   41.02    6.84
  -4   0  -4   48.05    7.35
  -4   0  -4   40.83    3.93
  -4   0  -4   39.02    3.75
  -4   0  -3    0.32    1.26
  -4   0  -3   -0.72    1.57
  -4   0  -3    1.30    1.45
  -4   0  -3    0.26    0.94
  -4   0  -3    1.27    0.99
  -4   0  -3   -0.99    1.93
  -4   0  -3   -0.96    2.47
  -4   0  -3    0.50    0.69
  -4   0  -2   10.92    2.44
  -4   0  -2   10.16    4.12
  -4   0  -2   13.56    4.58
  -4   0  -2   11.45    3.32
  -4   0  -2   12.56    2.16
  -4   0  -2   15.50    2.30
  -4   0  -2   10.77    1.92
  -4   0  -1  136.85    9.45
  -4   0  -1  136.56    8.71
  -4   0  -1  120.94   13.24
  -4   0  -1  131.41   13.69
  -4   0  -1  121.36   11.44
  -4   0  -1  147.26    8.80
  -4   0  -1  122.21    8.21
  -4   0   0   37.17    4.34
  -4   0   0   33.76    3.69
  -4   0   0   32.31    6.54
  -4   0   0   40.14    5.96
  -4   0   0   41.12    3.89
  -4   0   0   31.62    3.31
  -4   0   1  338.23   23.01
  -4   0   1  367.55   19.28
  -4   0   1  355.12   18.97
  -4   0   1  343.09   18.71
  -4   0   1  365.45   19.35
  -4   0   2   70.26    5.96
  -4   0   2   72.35    5.58
  -4   0   2   61.81    9.04
  -4   0   2   84.99    9.01
  -4   0   2   71.16    5.38
  -4   0   2   63.06    5.24
  -4   0   2   56.69    4.81
  -4   0   3  122.39    8.31
  -4   0   3  110.56   12.31
  -4   0   3  111.34   12.19
  -4   0   3  113.27    7.74
  -4   0   3   98.88   10.68
  -4   0   3  120.32    7.72
  -4   0   3  112.24    7.72
  -4   0   3  101.36    7.07
  -4   0   4  318.71   23.81
  -4   0   4  320.31   23.76
  -4   0   4  321.85   18.29
  -4   0   4  342.35   18.52
  -4   0   4  334.43   18.67
  -4   0   4  353.41   18.99
  -4   0   4  349.99   18.68
  -4   0   4  328.87   18.24
  -4   0   4  317.02   23.01
  -4   0   5  604.68   37.54
  -4   0   5  603.54   31.87
  -4   0   5  616.70   37.80
  -4   0   5  605.22   37.57
  -4   0   5  611.93   31.79
  -4   0   5  616.82   31.98
  -4   0   5  584.29   31.61
  -4   0   5  656.00   32.34
  -4   0   5  647.76   32.27
  -4   0   5  649.61   32.11
  -4   0   6  168.21   11.06
  -4   0   6  186.29   11.27
  -4   0   6  198.79   11.57
  -4   0   6  172.81   15.44
  -4   0   6  171.94   15.51
  -4   0   6  180.24   11.18
  -4   0   6  162.06   15.78
  -4   0   6  182.97   11.25
  -4   0   7  553.64   31.06
  -4   0   7  611.42   37.12
  -4   0   7  581.78   36.57
  -4   0   7  633.10   31.62
  -4   0   7  600.94   31.54
  -4   0   7  611.65   32.17
  -4   0   7  632.30   31.78
  -4   0   7  566.62   37.86
  -4   0   7  670.33   31.63
  -4   0   8    6.37    2.01
  -4   0   8    8.70    2.95
  -4   0   8   10.72    3.70
  -4   0   8    5.98    1.84
  -4   0   8    6.75    1.74
  -4   0   8    4.89    1.66
  -4   0   8    7.57    2.23
  -4   0   8    6.70    1.98
  -4   0   9  260.60   16.47
  -4   0   9  300.26   16.65
  -4   0   9  280.87   15.82
  -4   0   9  267.03   15.52
  -4   0   9  284.03   16.68
  -4   0   9  300.82   16.85
  -4   0  10  466.61   25.82
  -4   0  10  486.20   25.21
  -4   0  10  467.51   26.04
  -4   0  10  515.07   26.09
  -4   0  10  456.49   25.91
  -4   0  11  231.12   14.34
  -4   0  11  217.86   13.47
  -4   0  11  223.57   14.37
  -4   0  11  249.11   14.17
  -4   0  11  246.53   14.46
  -4   0  12   72.11    6.59
  -4   0  12   74.48    5.97
  -4   0  12   78.78    6.77
  -4   0  12   89.17    6.50
  -4   0  12   79.66    6.52
  -4   0  13  247.54   14.34
  -4   0  13  222.76   13.39
  -4   0  13  236.46   14.13
  -4   0  13  230.74   13.71
  -4   0  14    2.70    1.57
  -4   0  14    3.16    1.41
  -4   0  14    0.63    1.10
  -4   0  14    1.44    1.00
  -4   0  15   43.92    4.16
  -4   0  15   47.61    4.23
  -4   0  15   38.37    3.65
  -4   0  16   12.54    1.75
  -4   0  16   13.40    2.00
  -4   0  16   17.52    2.33
  -4   0  18    5.81    1.00
  -4   1 -14   16.33    2.00
  -4   1 -13    6.28    1.43
  -4   1 -12  279.32   15.63
  -4   1 -11   50.41    4.71
  -4   1 -10   55.28    5.04
  -4   1  -9  148.77    9.83
  -4   1  -8  416.25   21.82
  -4   1  -8  396.15   21.68
  -4   1  -8  405.51   22.15
  -4   1  -8  419.77   21.58
  -4   1  -7  158.22    9.65
  -4   1  -7  146.81   13.02
  -4   1  -7  133.98   13.07
  -4   1  -7  152.73    9.75
  -4   1  -7  142.36    9.60
  -4   1  -7  167.19   10.08
  -4   1  -7  146.07    9.66
  -4   1  -6   38.81    4.00
  -4   1  -6   36.62    6.39
  -4   1  -6   38.80    6.47
  -4   1  -6   37.72    6.08
  -4   1  -6   38.05    4.05
  -4   1  -6   38.68    4.04
  -4   1  -6   43.44    4.15
  -4   1  -6   38.04    3.98
  -4   1  -5   39.14    4.12
  -4   1  -5   48.04    4.52
  -4   1  -5   44.17    6.98
  -4   1  -5   47.15    6.94
  -4   1  -5   55.96    7.81
  -4   1  -5   40.01    4.23
  -4   1  -5   43.38    4.30
  -4   1  -5   41.30    4.15
  -4   1  -4  671.22   36.64
  -4   1  -4  702.83   36.38
  -4   1  -4  776.63   37.11
  -4   1  -4  663.90   42.20
  -4   1  -4  702.08   42.38
  -4   1  -4  760.07   37.11
  -4   1  -4  739.26   36.97
  -4   1  -4  733.09   36.55
  -4   1  -3  170.97   10.76
  -4   1  -3  168.44   10.57
  -4   1  -3  180.47   11.21
  -4   1  -3  162.45   15.33
  -4   1  -3  160.29   15.33
  -4   1  -3  176.02   11.17
  -4   1  -3  163.01   10.94
  -4   1  -3  180.36   10.68
  -4   1  -2  636.63   33.13
  -4   1  -2  653.54   33.81
  -4   1  -2  650.35   33.12
  -4   1  -2  644.17   33.77
  -4   1  -2  658.65   40.05
  -4   1  -2  661.87   40.23
  -4   1  -2  651.18   33.00
  -4   1  -2  658.67   33.77
  -4   1  -1   68.07    6.15
  -4   1  -1   71.34    5.55
  -4   1  -1   67.03    9.40
  -4   1  -1   58.93    9.07
  -4   1  -1   59.81    5.80
  -4   1  -1   69.12    5.49
  -4   1  -1   66.58    5.47
  -4   1   0  165.14    9.91
  -4   1   0  159.09   10.54
  -4   1   0  128.68   14.20
  -4   1   0  149.45   15.00
  -4   1   0  154.90   10.42
  -4   1   0  147.42    9.66
  -4   1   0  137.40   10.12
  -4   1   0  153.72    9.58
  -4   1   1  335.22   20.11
  -4   1   1  378.59   19.72
  -4   1   1  345.79   20.32
  -4   1   1  368.59   19.68
  -4   1   1  310.83   25.32
  -4   1   1  378.92   19.51
  -4   1   2  318.41   24.44
  -4   1   2  347.91   19.05
  -4   1   2  315.90   17.89
  -4   1   2  339.67   18.39
  -4   1   3   16.93    2.73
  -4   1   3   14.80    2.52
  -4   1   3   22.27    3.23
  -4   1   3   20.39    5.19
  -4   1   3   15.11    4.66
  -4   1   3   17.59    2.86
  -4   1   3   18.91    2.98
  -4   1   3   21.61    2.67
  -4   1   4    0.59    1.20
  -4   1   4    3.50    1.74
  -4   1   4    4.16    2.86
  -4   1   4    4.12    2.84
  -4   1   4    3.62    1.47
  -4   1   4    3.03    1.54
  -4   1   4    1.74    0.97
  -4   1   5  160.05   10.29
  -4   1   5  149.50   10.05
  -4   1   5  162.19   10.24
  -4   1   5  148.87   14.46
  -4   1   5  134.30   13.93
  -4   1   5  160.93   10.41
  -4   1   5  160.43   10.14
  -4   1   5  164.12   10.39
  -4   1   5  148.81   10.07
  -4   1   6  564.84   30.20
  -4   1   6  534.55   30.01
  -4   1   6  570.76   30.35
  -4   1   6  667.55   30.96
  -4   1   6  606.21   30.61
  -4   1   6  572.52   30.34
  -4   1   6  604.19   30.87
  -4   1   6  566.69   35.96
  -4   1   6  580.27   36.23
  -4   1   6  540.43   35.07
  -4   1   6  611.16   30.54
  -4   1   7   10.30    2.06
  -4   1   7    9.98    3.78
  -4   1   7    5.31    1.71
  -4   1   7    8.59    2.17
  -4   1   7   14.29    4.06
  -4   1   7    1.88    1.87
  -4   1   7   12.14    3.79
  -4   1   7    8.62    2.05
  -4   1   7   10.44    2.17
  -4   1   7    6.28    1.96
  -4   1   7    9.70    2.19
  -4   1   7    8.92    2.17
  -4   1   8   78.06    9.97
  -4   1   8   67.43    5.62
  -4   1   8   69.07    5.67
  -4   1   8   80.13    6.47
  -4   1   8   78.45    6.43
  -4   1   8   72.91    9.14
  -4   1   8   77.13    8.99
  -4   1   8   67.34    5.77
  -4   1   8   64.65    6.04
  -4   1   8   61.64    6.04
  -4   1   8   73.32    5.85
  -4   1   9  624.49   39.36
  -4   1   9  602.40   31.63
  -4   1   9  625.83   32.32
  -4   1   9  575.64   32.06
  -4   1   9  659.60   32.45
  -4   1   9  620.19   32.45
  -4   1   9  627.71   31.53
  -4   1   9  603.97   31.29
  -4   1   9  603.78   31.20
  -4   1  10  360.44   20.57
  -4   1  10  351.84   27.03
  -4   1  10  352.33   20.82
  -4   1  10  386.46   20.54
  -4   1  10  366.46   20.11
  -4   1  10  374.58   20.92
  -4   1  11  107.44    8.97
  -4   1  11  138.36    8.82
  -4   1  11  134.95    9.06
  -4   1  11  130.01    9.27
  -4   1  11  113.74    8.38
  -4   1  12    1.53    1.49
  -4   1  12    0.27    0.96
  -4   1  12    1.20    1.16
  -4   1  12    0.58    1.13
  -4   1  12   -1.51    1.68
  -4   1  13  171.13   10.50
  -4   1  13  189.11   10.94
  -4   1  13  177.56   10.84
  -4   1  13  172.92   11.52
  -4   1  14    1.15    1.10
  -4   1  14    0.63    0.71
  -4   1  14    1.87    1.42
  -4   1  15   20.22    2.41
  -4   1  15   26.24    3.05
  -4   1  15   21.46    2.61
  -4   1  16   62.71    4.90
  -4   1  16   65.42    4.59
  -4   1  16   64.94    4.93
  -4   1  17   30.56    2.85
  -4   1  17   32.14    2.87
  -4   1  17   30.45    2.44
  -4   1  18    0.59    0.65
  -4   2 -16    1.78    0.64
  -4   2 -15    1.31    0.76
  -4   2 -15    0.23    0.43
  -4   2 -14    0.16    0.65
  -4   2 -13   85.87    5.92
  -4   2 -12    0.51    1.00
  -4   2 -11   20.53    2.86
  -4   2 -10    4.16    1.54
  -4   2  -9  602.80   31.43
  -4   2  -8    9.67    1.85
  -4   2  -8    5.72    1.92
  -4   2  -8    9.11    1.67
  -4   2  -7  166.50    9.79
  -4   2  -7  146.90    9.89
  -4   2  -7  158.55    9.90
  -4   2  -7  164.02   10.47
  -4   2  -7  154.18    9.92
  -4   2  -6  319.68   17.31
  -4   2  -6  307.21   16.74
  -4   2  -6  260.76   20.95
  -4   2  -6  263.92   20.52
  -4   2  -6  311.81   17.08
  -4   2  -6  296.37   17.40
  -4   2  -6  300.55   16.90
  -4   2  -6  309.32   17.01
  -4   2  -5  163.03   10.04
  -4   2  -5  154.79    9.75
  -4   2  -5  139.36   13.58
  -4   2  -5  140.66   13.27
  -4   2  -5  148.62    9.94
  -4   2  -5  142.33    9.95
  -4   2  -5  157.87   10.01
  -4   2  -5  145.11    9.81
  -4   2  -4  352.05   18.93
  -4   2  -4  348.41   18.84
  -4   2  -4  300.25   23.62
  -4   2  -4  323.19   23.45
  -4   2  -4  336.39   19.06
  -4   2  -4  341.51   19.15
  -4   2  -4  330.05   18.87
  -4   2  -4  355.22   19.16
  -4   2  -3   10.58    2.05
  -4   2  -3   11.67    2.41
  -4   2  -3    8.43    3.46
  -4   2  -3   13.32    4.27
  -4   2  -3   15.01    2.86
  -4   2  -3   12.38    2.38
  -4   2  -3   13.15    2.56
  -4   2  -3   12.03    2.48
  -4   2  -2   34.52    3.65
  -4   2  -2   29.75    3.65
  -4   2  -2   34.55    6.65
  -4   2  -2   23.62    5.46
  -4   2  -2   31.88    3.80
  -4   2  -2   41.32    4.42
  -4   2  -2   34.40    4.13
  -4   2  -2   26.57    3.63
  -4   2  -1   22.01    3.26
  -4   2  -1   22.68    5.75
  -4   2  -1   25.79    5.54
  -4   2  -1   29.71    3.93
  -4   2  -1   23.72    3.53
  -4   2  -1   27.18    3.44
  -4   2   0   24.70    5.89
  -4   2   0   13.35    2.46
  -4   2   0   21.36    3.43
  -4   2   0   18.51    2.75
  -4   2   0   16.55    3.20
  -4   2   1   83.53    6.85
  -4   2   1   63.51   10.01
  -4   2   1   92.08   11.08
  -4   2   1   83.98    6.46
  -4   2   1   70.06    6.82
  -4   2   1   90.97    6.55
  -4   2   1   81.96    6.92
  -4   2   2   99.92   11.83
  -4   2   2   99.28    7.76
  -4   2   2   97.60    7.01
  -4   2   2   89.17    7.42
  -4   2   3  275.80   15.85
  -4   2   3  286.98   16.65
  -4   2   3  289.37   22.97
  -4   2   3  278.77   16.15
  -4   2   3  283.73   16.86
  -4   2   3  269.78   21.86
  -4   2   3  284.31   16.75
  -4   2   3  287.77   16.62
  -4   2   4    4.32    1.45
  -4   2   4    6.14    2.04
  -4   2   4    5.12    3.01
  -4   2   4   10.05    4.08
  -4   2   4   10.30    2.26
  -4   2   4    9.30    2.34
  -4   2   4    4.14    1.83
  -4   2   4    7.84    1.88
  -4   2   4    6.66    1.75
  -4   2   5   33.06    3.87
  -4   2   5   28.38    3.64
  -4   2   5   39.55    7.04
  -4   2   5   27.35    5.63
  -4   2   5   34.44    4.02
  -4   2   5   27.79    3.55
  -4   2   5   22.21    3.27
  -4   2   5   31.59    3.77
  -4   2   6  895.56   51.67
  -4   2   6  918.32   46.14
  -4   2   6  909.92   45.87
  -4   2   6  960.24   46.19
  -4   2   6  815.94   51.81
  -4   2   6  955.04   46.30
  -4   2   6  912.28   45.88
  -4   2   6  898.56   46.22
  -4   2   7  168.21   14.78
  -4   2   7  168.57   10.84
  -4   2   7  173.95   10.67
  -4   2   7  178.42   11.04
  -4   2   7  155.64   15.00
  -4   2   7  165.73   10.86
  -4   2   7  183.75   11.20
  -4   2   7  149.51   10.78
  -4   2   7  171.20   10.69
  -4   2   8  111.25    7.62
  -4   2   8  105.52    8.01
  -4   2   8  112.80    7.69
  -4   2   8   96.13    7.69
  -4   2   8  116.57   11.95
  -4   2   8  117.06    7.99
  -4   2   8  109.40    7.81
  -4   2   8   96.81    7.89
  -4   2   8  112.09    8.09
  -4   2   9  349.64   18.25
  -4   2   9  338.57   18.76
  -4   2   9  335.48   18.71
  -4   2   9  332.88   18.50
  -4   2   9  351.54   19.08
  -4   2   9  312.84   18.23
  -4   2  10  550.34   29.98
  -4   2  10  622.83   31.08
  -4   2  10  615.19   30.57
  -4   2  10  597.44   30.42
  -4   2  11   32.54    3.34
  -4   2  11   31.00    3.25
  -4   2  11   27.29    3.60
  -4   2  11   32.18    3.75
  -4   2  12  141.62    9.85
  -4   2  12  137.24    9.36
  -4   2  12  156.58    9.60
  -4   2  13    6.07    1.80
  -4   2  13    5.89    1.79
  -4   2  13    8.61    1.88
  -4   2  14   18.58    2.69
  -4   2  14   22.19    2.76
  -4   2  14   26.05    2.89
  -4   2  15   17.66    2.26
  -4   2  15   18.08    2.18
  -4   2  16   32.10    2.79
  -4   2  17   -0.10    0.54
  -4   2  17    0.69    0.63
  -4   3 -14    3.30    0.67
  -4   3 -13   26.48    2.35
  -4   3 -13   24.57    2.24
  -4   3 -12  366.85   19.35
  -4   3 -12  384.75   19.28
  -4   3 -11   16.46    2.27
  -4   3 -11   19.37    2.39
  -4   3 -10   11.28    2.08
  -4   3 -10   14.49    2.27
  -4   3  -9   45.72    4.31
  -4   3  -8   75.68    6.02
  -4   3  -7    2.45    1.37
  -4   3  -7    0.66    0.89
  -4   3  -7    1.24    0.94
  -4   3  -7    3.56    1.11
  -4   3  -6   21.46    2.92
  -4   3  -6   15.93    2.40
  -4   3  -6   17.89    2.50
  -4   3  -6   16.00    2.54
  -4   3  -6   18.04    2.38
  -4   3  -5   17.00    2.62
  -4   3  -5   16.52    2.57
  -4   3  -5   13.05    2.30
  -4   3  -5   12.49    2.42
  -4   3  -5   10.82    2.03
  -4   3  -4  229.51   13.35
  -4   3  -4  224.68   13.46
  -4   3  -4  224.94   13.35
  -4   3  -4  234.59   13.18
  -4   3  -4  206.83   13.38
  -4   3  -3   27.27    3.64
  -4   3  -3   26.09    3.38
  -4   3  -3   31.54    3.48
  -4   3  -3   24.00    3.51
  -4   3  -2    6.00    2.08
  -4   3  -2    6.03    1.80
  -4   3  -2    3.96    1.80
  -4   3  -2    4.98    1.68
  -4   3  -1  348.29   19.22
  -4   3  -1  312.94   18.95
  -4   3  -1  328.06   18.53
  -4   3   0   32.38    4.22
  -4   3   0   27.23    3.99
  -4   3   1   70.80    6.56
  -4   3   1   74.45    6.36
  -4   3   1   63.35    6.33
  -4   3   2   23.73    3.43
  -4   3   2   22.91    3.33
  -4   3   2   18.10    2.35
  -4   3   3  102.06    7.82
  -4   3   3  104.37    7.53
  -4   3   3   95.10    6.90
  -4   3   3   92.92    7.19
  -4   3   4  129.26    8.65
  -4   3   4  124.73    9.50
  -4   3   4  148.89    9.56
  -4   3   4  120.96    9.37
  -4   3   4  138.92    9.13
  -4   3   4  141.89    9.37
  -4   3   5   32.60    3.62
  -4   3   5   28.93    3.76
  -4   3   5   33.45    3.75
  -4   3   5   23.97    3.49
  -4   3   5   32.89    3.73
  -4   3   5   27.08    3.51
  -4   3   6  204.49   13.62
  -4   3   6  230.66   14.11
  -4   3   6  254.24   14.00
  -4   3   6  219.34   13.99
  -4   3   6  258.19   13.97
  -4   3   6  250.95   14.16
  -4   3   7   77.90    6.28
  -4   3   7   71.17    6.03
  -4   3   7   61.60    5.38
  -4   3   7   70.78    6.06
  -4   3   7   87.24    6.10
  -4   3   7   73.81    6.05
  -4   3   7   82.88    5.99
  -4   3   8   10.52    2.27
  -4   3   8    8.54    2.07
  -4   3   8    7.81    1.84
  -4   3   8   10.80    2.14
  -4   3   8    6.27    1.60
  -4   3   8    7.46    1.90
  -4   3   8   10.37    1.92
  -4   3   9  309.57   16.71
  -4   3   9  279.03   16.30
  -4   3   9  314.64   16.06
  -4   3   9  303.22   15.98
  -4   3   9  272.21   16.19
  -4   3   9  315.04   16.95
  -4   3   9  273.55   16.15
  -4   3  10    1.32    1.23
  -4   3  10    0.54    1.14
  -4   3  11  144.55    9.11
  -4   3  12   45.20    4.09
  -4   3  12   52.79    4.49
  -4   3  13  205.61   11.26
  -4   3  13  210.00   11.11
  -4   3  14    7.79    1.38
  -4   3  14    5.37    1.25
  -4   3  15   26.65    2.35
  -4   3  15   21.76    2.19
  -4   3  16    3.83    0.78
  -4   3  16    4.14    0.83
  -4   4 -10    3.34    0.70
  -4   4  -9  247.24   12.89
  -4   4  -8  345.78   17.83
  -4   4  -7   12.96    1.86
  -4   4  -6   82.23    5.74
  -4   4  -5    3.85    1.17
  -4   4  -5    5.39    1.47
  -4   4  -5    4.49    1.14
  -4   4  -5    5.10    1.25
  -4   4  -4   24.92    2.86
  -4   4  -4   28.89    2.95
  -4   4  -4   25.44    2.98
  -4   4  -4   24.65    2.64
  -4   4  -4   26.43    2.82
  -4   4  -3   31.46    3.44
  -4   4  -3   36.93    3.43
  -4   4  -3   30.25    3.45
  -4   4  -3   35.59    3.42
  -4   4  -3   29.03    3.07
  -4   4  -2   67.72    5.79
  -4   4  -2   84.53    5.67
  -4   4  -2   64.34    5.83
  -4   4  -2   77.40    5.65
  -4   4  -2   81.71    5.91
  -4   4  -1   27.78    3.30
  -4   4  -1   22.94    3.18
  -4   4  -1   22.88    2.68
  -4   4  -1   24.21    3.31
  -4   4  -1   20.75    2.84
  -4   4   0    6.16    2.04
  -4   4   0    6.20    1.51
  -4   4   0    3.63    1.78
  -4   4   1    0.92    1.27
  -4   4   1    1.41    1.37
  -4   4   1   -0.22    0.85
  -4   4   1    1.72    1.30
  -4   4   2  145.85   10.44
  -4   4   2  165.41   10.35
  -4   4   2  164.45   10.22
  -4   4   3   32.57    3.57
  -4   4   3   24.79    3.34
  -4   4   4   -0.28    1.14
  -4   4   4   -1.28    1.29
  -4   4   4    0.27    1.14
  -4   4   4    0.93    1.04
  -4   4   4    0.32    1.29
  -4   4   5   15.02    2.42
  -4   4   5   17.80    2.73
  -4   4   5   20.93    2.60
  -4   4   5   15.60    2.30
  -4   4   5   17.22    2.72
  -4   4   6  173.70    9.52
  -4   4   6  166.24    9.53
  -4   4   6  156.46    9.78
  -4   4   6  141.98    9.59
  -4   4   6  141.37    9.20
  -4   4   6  143.03    8.98
  -4   4   7   18.05    2.27
  -4   4   7   15.29    2.11
  -4   4   7   13.43    2.21
  -4   4   7   14.72    2.17
  -4   4   7   15.50    2.19
  -4   4   8   -0.21    0.88
  -4   4   8    0.71    0.80
  -4   4   8   -0.21    0.95
  -4   4   8    0.18    0.79
  -4   4   8    0.21    0.93
  -4   4   9  207.58   11.45
  -4   4   9  220.79   12.06
  -4   4   9  220.80   12.05
  -4   4  10  131.66    7.59
  -4   4  10  114.51    7.38
  -4   4  11    0.65    0.84
  -4   4  12  277.23   14.30
  -4   5  -3   11.77    1.38
  -4   5  -3   12.09    1.27
  -4   5  -2    4.95    0.96
  -4   5  -2    4.32    1.02
  -4   5  -1  225.50   12.00
  -4   5  -1  223.31   11.82
  -4   5   0    1.24    0.85
  -4   5   2   32.98    2.98
  -4   5   2   28.94    2.77
  -4   5   3  126.40    7.65
  -4   5   3  129.69    7.60
  -4   5   4    2.49    1.02
  -4   5   4    2.87    1.01
  -4   5   5   91.96    5.85
  -4   5   5  104.19    5.97
  -4   5   6   10.38    1.31
  -4   5   6    9.65    1.27
  -4   5   7   63.87    3.84
  -3  -5   8   46.43    4.01
  -3  -5   9  215.26   12.12
  -3  -5  10   -0.38    0.78
  -3  -4 -10   35.63    8.21
  -3  -4  -9   61.92   10.77
  -3  -4  -8   86.35   12.58
  -3  -4  -7   14.85    5.06
  -3  -4  -6  554.99   38.23
  -3  -4  -5    2.74    2.67
  -3  -4  -4  114.53   13.77
  -3  -4  -3  126.12   14.21
  -3  -4  -2  735.34   45.30
  -3  -4  -1  277.93   22.47
  -3  -4   0  252.91   20.84
  -3  -4   1   74.54    9.98
  -3  -4   2   69.16    9.46
  -3  -4   3    2.05    2.23
  -3  -4   4   23.72    3.03
  -3  -4   4   29.27    6.01
  -3  -4   5   11.85    2.18
  -3  -4   5    5.00    2.79
  -3  -4   6   67.06    5.88
  -3  -4   7   82.41    6.84
  -3  -4   7  103.42   11.95
  -3  -4   8  231.77   14.14
  -3  -4   9   47.30    4.75
  -3  -4  10   96.20    7.33
  -3  -4  11   -0.30    1.04
  -3  -4  12  195.10   10.61
  -3  -4  12  147.51    9.53
  -3  -4  13    1.90    1.03
  -3  -4  13    1.07    0.74
  -3  -4  14   75.31    5.34
  -3  -3  -9  662.73   44.05
  -3  -3  -8   68.54   10.94
  -3  -3  -7   34.66    7.63
  -3  -3  -6   15.27    5.01
  -3  -3  -5  129.31   14.54
  -3  -3  -4   55.09    8.92
  -3  -3  -3  677.49   41.89
  -3  -3  -2  684.23   41.89
  -3  -3  -1  320.92   23.83
  -3  -3   0  168.85   15.44
  -3  -3   1   57.55    4.61
  -3  -3   1   69.87    9.18
  -3  -3   2  257.05   14.39
  -3  -3   2  279.23   20.58
  -3  -3   3  181.06   10.98
  -3  -3   3  202.26   16.74
  -3  -3   4    0.27    1.00
  -3  -3   4    1.00    2.38
  -3  -3   5  697.11   35.88
  -3  -3   5  716.69   42.45
  -3  -3   6   17.17    2.88
  -3  -3   6   18.03    4.91
  -3  -3   7   12.14    4.31
  -3  -3   7    7.38    2.19
  -3  -3   7    6.90    1.69
  -3  -3   8   79.53   10.78
  -3  -3   8   72.46    6.49
  -3  -3   8   68.09    5.79
  -3  -3   9  285.75   16.03
  -3  -3   9  290.05   16.79
  -3  -3   9  251.42   22.05
  -3  -3   9  240.89   22.39
  -3  -3  10    8.23    1.91
  -3  -3  10    2.78    1.49
  -3  -3  10    5.04    1.87
  -3  -3  10    1.22    2.93
  -3  -3  11   77.92    6.48
  -3  -3  11   87.53    6.35
  -3  -3  12  578.29   29.51
  -3  -3  12  511.61   28.75
  -3  -3  12  587.29   29.06
  -3  -3  13    7.62    1.94
  -3  -3  13    9.63    2.12
  -3  -3  13    9.16    1.97
  -3  -3  14    1.48    1.00
  -3  -3  15    1.10    0.94
  -3  -3  16   93.86    5.92
  -3  -3  16   87.91    5.68
  -3  -2 -17   33.46    3.75
  -3  -2 -16  159.91   10.64
  -3  -2 -15   38.48    4.37
  -3  -2 -14    2.99    3.58
  -3  -2 -14    8.48    2.40
  -3  -2 -14   12.01    4.70
  -3  -2 -13   24.22    6.69
  -3  -2 -13   27.08    3.77
  -3  -2 -13   19.98    5.77
  -3  -2 -12   91.75    7.44
  -3  -2 -12   83.29   12.27
  -3  -2 -12   74.77   10.89
  -3  -2 -11   53.39    5.29
  -3  -2 -11   49.78    9.17
  -3  -2 -11   40.03    7.91
  -3  -2 -10  125.29   14.79
  -3  -2 -10  126.29    9.20
  -3  -2 -10  148.49   14.51
  -3  -2  -9  255.62   21.38
  -3  -2  -9  223.53   13.87
  -3  -2  -8   45.84    8.26
  -3  -2  -8   54.69    5.05
  -3  -2  -7    2.14    2.55
  -3  -2  -6  424.57   29.03
  -3  -2  -2 1313.73   63.01
  -3  -2  -1  432.12   21.98
  -3  -2   0  267.24   14.40
  -3  -2   0  273.51   19.43
  -3  -2   1  850.16   41.66
  -3  -2   1  852.39   47.24
  -3  -2   2  883.62   44.44
  -3  -2   2  779.51   39.54
  -3  -2   2  814.71   45.13
  -3  -2   3  518.34   29.59
  -3  -2   3  475.91   24.98
  -3  -2   3  509.06   30.27
  -3  -2   4    5.30    1.40
  -3  -2   4    3.23    1.13
  -3  -2   4    2.20    2.15
  -3  -2   4    3.27    2.26
  -3  -2   5  351.24   18.91
  -3  -2   5  353.95   18.73
  -3  -2   5  339.51   18.28
  -3  -2   5  368.11   23.54
  -3  -2   5  330.40   23.43
  -3  -2   6  620.76   31.22
  -3  -2   6  636.94   31.84
  -3  -2   6  592.34   31.01
  -3  -2   6  611.91   36.41
  -3  -2   6  586.56   36.89
  -3  -2   7   32.05    3.85
  -3  -2   7   30.30    3.48
  -3  -2   7   29.90    3.41
  -3  -2   7   30.44    5.69
  -3  -2   7   23.41    5.39
  -3  -2   8    4.92    1.87
  -3  -2   8    0.70    1.52
  -3  -2   8    2.10    1.35
  -3  -2   8    5.82    2.99
  -3  -2   8    3.15    2.89
  -3  -2   9  582.60   28.63
  -3  -2   9  512.65   28.91
  -3  -2   9  534.54   35.65
  -3  -2   9  535.29   28.42
  -3  -2   9  502.73   34.22
  -3  -2  10   33.08    4.15
  -3  -2  10   36.21    4.12
  -3  -2  10   35.94    7.43
  -3  -2  10   28.40    3.79
  -3  -2  10   24.33    5.74
  -3  -2  10   31.06    6.28
  -3  -2  11  276.13   14.70
  -3  -2  11  183.32   18.62
  -3  -2  11  169.10   18.00
  -3  -2  11  257.35   14.76
  -3  -2  12    0.32    1.25
  -3  -2  12    3.56    3.27
  -3  -2  12    0.73    1.55
  -3  -2  12    1.10    2.13
  -3  -2  13   97.28    7.34
  -3  -2  13   96.45    7.61
  -3  -2  14   11.02    2.19
  -3  -2  14    9.32    2.07
  -3  -2  14   10.92    2.38
  -3  -2  15  235.75   13.58
  -3  -2  15  238.32   13.97
  -3  -2  15  225.40   13.57
  -3  -2  16    0.51    0.99
  -3  -2  16    0.23    0.71
  -3  -2  16    0.84    1.25
  -3  -2  16    1.03    1.00
  -3  -2  17  163.38    9.48
  -3  -2  17  160.83    9.65
  -3  -2  17  143.63    9.19
  -3  -2  18    4.07    1.10
  -3  -1 -19    3.25    1.45
  -3  -1 -18    5.11    1.80
  -3  -1 -17   80.48    6.70
  -3  -1 -16    7.70    2.34
  -3  -1 -15  187.04   12.53
  -3  -1 -14   39.37    4.70
  -3  -1 -14   21.03    5.78
  -3  -1 -14   36.19    7.58
  -3  -1 -13  211.52   13.74
  -3  -1 -13  241.05   21.07
  -3  -1 -12    6.29    2.28
  -3  -1 -12    1.31    2.22
  -3  -1 -12    2.70    2.94
  -3  -1 -11   56.60    5.65
  -3  -1 -11   41.10    8.16
  -3  -1 -11   61.75    9.52
  -3  -1 -10   11.90    2.58
  -3  -1 -10    3.44    2.76
  -3  -1 -10    4.58    3.17
  -3  -1  -9  300.84   16.83
  -3  -1  -9  251.59   21.77
  -3  -1  -9  282.08   21.81
  -3  -1  -8    9.53    2.08
  -3  -1  -8    4.75    2.94
  -3  -1  -8    5.81    1.47
  -3  -1  -8    5.76    2.35
  -3  -1  -7  281.04   20.30
  -3  -1  -7  270.48   15.38
  -3  -1  -7  262.36   14.59
  -3  -1  -7  265.71   18.18
  -3  -1  -6 1074.40   58.21
  -3  -1  -5   18.05    4.20
  -3  -1  -4   51.80    6.95
  -3  -1  -4   39.90    3.31
  -3  -1  -3  369.34   19.19
  -3  -1  -3  376.61   19.30
  -3  -1  -2 1720.09   79.98
  -3  -1  -2 1552.89   73.71
  -3  -1  -2 1502.51   73.69
  -3  -1  -1  496.81   28.37
  -3  -1  -1  469.31   23.33
  -3  -1  -1  447.65   23.33
  -3  -1   0  263.58   18.22
  -3  -1   0  273.32   14.32
  -3  -1   0  265.77   14.38
  -3  -1   1   37.67    5.66
  -3  -1   1   41.80    3.51
  -3  -1   1   50.72    6.25
  -3  -1   1   47.91    3.76
  -3  -1   2  710.61   33.94
  -3  -1   2  752.37   38.77
  -3  -1   2  705.28   38.38
  -3  -1   2  641.86   33.42
  -3  -1   2  690.22   33.68
  -3  -1   3  225.35   12.42
  -3  -1   3  267.56   17.08
  -3  -1   3  237.31   16.32
  -3  -1   3  208.88   11.99
  -3  -1   3  227.80   12.32
  -3  -1   4    0.18    0.74
  -3  -1   4    1.19    0.93
  -3  -1   4    2.14    2.69
  -3  -1   4    0.64    0.91
  -3  -1   4    1.90    1.27
  -3  -1   5  196.16   11.73
  -3  -1   5  221.20   12.08
  -3  -1   5  239.57   16.72
  -3  -1   5  217.61   12.25
  -3  -1   5  217.02   12.31
  -3  -1   6 1072.46   51.70
  -3  -1   6 1111.90   52.25
  -3  -1   6 1022.32   51.91
  -3  -1   6 1043.97   51.71
  -3  -1   6 1032.18   51.66
  -3  -1   6 1068.12   57.23
  -3  -1   6 1140.65   56.52
  -3  -1   7  107.87    7.52
  -3  -1   7  127.24    8.18
  -3  -1   7  117.32    8.23
  -3  -1   7  125.95    7.96
  -3  -1   7  127.18    8.02
  -3  -1   7  145.18   12.75
  -3  -1   7   98.38   10.12
  -3  -1   8  198.33   11.75
  -3  -1   8  218.72   12.47
  -3  -1   8  223.80   12.68
  -3  -1   8  213.82   17.30
  -3  -1   8  199.77   12.35
  -3  -1   8  191.75   15.00
  -3  -1   9   30.82    3.49
  -3  -1   9   33.28    3.84
  -3  -1   9   28.78    6.23
  -3  -1   9   26.12    3.38
  -3  -1   9   18.95    4.37
  -3  -1   9   27.01    5.75
  -3  -1  10  489.92   24.29
  -3  -1  10  446.98   24.00
  -3  -1  10  440.58   30.38
  -3  -1  10  451.49   23.86
  -3  -1  10  445.88   23.66
  -3  -1  11    0.38    1.64
  -3  -1  11   -0.35    1.22
  -3  -1  11    1.19    2.32
  -3  -1  11   -0.34    1.33
  -3  -1  11    2.99    1.71
  -3  -1  11    2.57    2.21
  -3  -1  12  749.33   34.86
  -3  -1  12  685.55   34.87
  -3  -1  12  724.29   34.74
  -3  -1  12  652.23   34.42
  -3  -1  13  280.90   16.74
  -3  -1  13  322.69   17.58
  -3  -1  13  267.42   16.76
  -3  -1  13  230.30   22.25
  -3  -1  13  298.93   16.69
  -3  -1  13  320.45   17.22
  -3  -1  14    0.33    1.29
  -3  -1  14    2.22    1.76
  -3  -1  14   -0.32    1.07
  -3  -1  14    0.98    1.27
  -3  -1  14    0.89    0.92
  -3  -1  15   67.01    5.98
  -3  -1  15   82.22    6.24
  -3  -1  15   81.33    6.61
  -3  -1  15   69.46    5.77
  -3  -1  15   83.22    6.47
  -3  -1  16   49.22    4.63
  -3  -1  16   48.76    4.52
  -3  -1  16   38.24    3.99
  -3  -1  17   19.64    2.54
  -3  -1  17   19.42    2.82
  -3  -1  17   18.03    2.47
  -3  -1  18    0.49    0.99
  -3  -1  18   -0.19    0.88
  -3  -1  19   19.89    2.39
  -3   0 -19   30.61    3.25
  -3   0 -19   21.80    2.16
  -3   0 -18   -0.58    1.26
  -3   0 -17  118.63    8.56
  -3   0 -16  121.01    8.98
  -3   0 -15    8.32    2.46
  -3   0 -14   22.76    3.67
  -3   0 -13   71.49    6.93
  -3   0 -12  270.85   16.73
  -3   0 -11    1.25    1.52
  -3   0 -10   80.48    9.88
  -3   0  -9  610.13   36.81
  -3   0  -8   63.23    7.94
  -3   0  -8   60.61    7.01
  -3   0  -8   64.94    7.19
  -3   0  -7  630.31   34.54
  -3   0  -7  597.57   29.36
  -3   0  -7  581.37   33.08
  -3   0  -7  562.14   32.87
  -3   0  -7  565.26   29.26
  -3   0  -6    0.67    1.30
  -3   0  -6    0.17    0.71
  -3   0  -6    1.25    1.49
  -3   0  -6   -0.60    1.66
  -3   0  -6    1.48    0.99
  -3   0  -5  377.01   22.70
  -3   0  -5  351.62   18.74
  -3   0  -5  352.76   22.39
  -3   0  -5  356.23   18.41
  -3   0  -4  430.06   23.12
  -3   0  -4  493.80   27.35
  -3   0  -4  466.34   23.11
  -3   0  -4  497.98   27.88
  -3   0  -4  452.99   23.49
  -3   0  -3   11.14    2.94
  -3   0  -3    8.64    1.69
  -3   0  -3    6.69    2.64
  -3   0  -3    7.19    1.41
  -3   0  -3   10.87    1.60
  -3   0  -2  113.40    7.07
  -3   0  -2   97.62    9.38
  -3   0  -2  113.22    7.53
  -3   0  -2  121.87   10.89
  -3   0  -2  120.19    7.10
  -3   0  -1  522.81   25.62
  -3   0  -1  549.27   29.41
  -3   0  -1  516.41   26.16
  -3   0  -1  488.07   30.22
  -3   0  -1  480.39   25.19
  -3   0  -1  515.69   25.54
  -3   0   0  314.47   16.06
  -3   0   0  329.30   19.50
  -3   0   0  278.90   16.37
  -3   0   0  287.62   15.68
  -3   0   0  320.21   16.01
  -3   0   0  298.10   20.63
  -3   0   1   70.89    7.29
  -3   0   1   63.16    4.62
  -3   0   1   69.80    4.76
  -3   0   1   61.65    4.70
  -3   0   1   65.81    4.75
  -3   0   2  184.98   14.17
  -3   0   2  174.43   10.05
  -3   0   2  184.26   10.19
  -3   0   2  169.36   10.39
  -3   0   2  166.14    9.93
  -3   0   2  177.03   10.03
  -3   0   2  183.26   13.20
  -3   0   3  217.47   15.97
  -3   0   3  205.20   11.92
  -3   0   3  230.19   12.41
  -3   0   3  223.59   15.40
  -3   0   3  206.52   11.86
  -3   0   3  221.06   12.06
  -3   0   3  217.47   12.15
  -3   0   4   14.66    3.49
  -3   0   4   12.09    2.04
  -3   0   4   15.08    2.16
  -3   0   4   13.99    1.99
  -3   0   4   14.84    3.45
  -3   0   5  564.34   32.11
  -3   0   5  561.24   28.27
  -3   0   5  547.84   28.09
  -3   0   5  577.65   28.05
  -3   0   5  518.07   27.77
  -3   0   5  577.67   32.73
  -3   0   6   -0.65    1.80
  -3   0   6    0.49    1.22
  -3   0   6    1.02    1.17
  -3   0   6    0.22    0.85
  -3   0   6    0.91    0.83
  -3   0   6    0.53    0.89
  -3   0   6   -0.76    1.66
  -3   0   7   13.71    3.29
  -3   0   7   12.68    3.48
  -3   0   7   13.93    2.04
  -3   0   7   11.31    2.18
  -3   0   7   10.32    2.08
  -3   0   7   11.34    2.04
  -3   0   7    9.69    1.82
  -3   0   7   12.51    3.76
  -3   0   7   11.36    2.02
  -3   0   7   11.03    2.11
  -3   0   8   26.45    4.80
  -3   0   8   27.57    4.58
  -3   0   8   22.86    2.75
  -3   0   8   28.47    3.41
  -3   0   8   32.64    3.59
  -3   0   8   26.09    2.95
  -3   0   8   25.22    3.31
  -3   0   8   28.80    3.35
  -3   0   8   31.10    5.77
  -3   0   8   21.97    3.88
  -3   0   9  760.82   44.15
  -3   0   9  812.68   44.82
  -3   0   9  821.74   41.98
  -3   0   9  829.24   42.04
  -3   0   9  883.32   42.15
  -3   0   9  846.38   42.09
  -3   0  10  489.77   25.88
  -3   0  10  470.62   26.43
  -3   0  10  537.10   26.99
  -3   0  10  566.38   26.77
  -3   0  10  446.48   26.35
  -3   0  11  308.47   17.75
  -3   0  11  319.53   18.38
  -3   0  11  302.89   18.56
  -3   0  11  359.75   18.40
  -3   0  11  331.03   18.64
  -3   0  12    7.11    1.87
  -3   0  12   10.19    2.54
  -3   0  12   11.72    2.14
  -3   0  12   10.01    2.69
  -3   0  12   10.05    2.19
  -3   0  13  327.71   18.30
  -3   0  13  327.86   19.36
  -3   0  13  344.80   18.78
  -3   0  14   27.20    3.25
  -3   0  14   28.82    4.03
  -3   0  14   34.32    3.72
  -3   0  15   34.50    3.55
  -3   0  15   39.41    4.58
  -3   0  15   42.77    4.08
  -3   0  16   14.30    2.27
  -3   0  16   16.06    2.76
  -3   0  17  101.11    7.39
  -3   0  17  108.84    7.57
  -3   0  18    2.48    1.20
  -3   0  18    4.14    1.42
  -3   0  18    7.05    1.74
  -3   0  19   40.99    3.53
  -3   0  19   44.45    3.67
  -3   0  19   37.21    3.07
  -3   1 -19    5.79    0.96
  -3   1 -18    1.09    0.77
  -3   1 -18    0.23    1.02
  -3   1 -17    1.95    0.91
  -3   1 -17    2.25    1.34
  -3   1 -17    0.78    0.78
  -3   1 -16  157.59    9.41
  -3   1 -16  158.61   10.29
  -3   1 -16  145.41    9.34
  -3   1 -15   99.56    6.96
  -3   1 -15   85.76    6.81
  -3   1 -15  107.46    8.01
  -3   1 -14   37.17    4.08
  -3   1 -14   45.00    5.01
  -3   1 -14   36.24    4.08
  -3   1 -13    0.44    1.49
  -3   1 -13    0.71    0.97
  -3   1 -12  234.51   14.92
  -3   1 -12  224.02   14.03
  -3   1 -11   38.33    4.69
  -3   1 -11   31.45    4.03
  -3   1 -10  424.77   22.57
  -3   1 -10  369.99   21.67
  -3   1  -9   77.43    6.65
  -3   1  -9   71.54    5.74
  -3   1  -9   74.97    6.28
  -3   1  -8  706.70   36.03
  -3   1  -8  728.48   36.42
  -3   1  -8  670.94   38.32
  -3   1  -7  198.46   15.23
  -3   1  -7  209.74   15.61
  -3   1  -7  196.47   14.97
  -3   1  -7  213.54   12.20
  -3   1  -7  222.80   12.29
  -3   1  -7  208.00   12.24
  -3   1  -7  227.54   12.79
  -3   1  -7  217.49   13.00
  -3   1  -6  969.94   47.11
  -3   1  -6  945.55   47.35
  -3   1  -6  965.58   47.71
  -3   1  -6  984.86   47.19
  -3   1  -6  934.59   50.66
  -3   1  -6  964.58   51.28
  -3   1  -6  917.09   51.21
  -3   1  -5    2.56    1.20
  -3   1  -5    0.69    1.89
  -3   1  -5    1.98    1.71
  -3   1  -5    1.39    1.04
  -3   1  -5    2.22    0.99
  -3   1  -5    2.48    1.32
  -3   1  -4   15.50    3.67
  -3   1  -4   18.16    4.03
  -3   1  -4   15.41    2.14
  -3   1  -4   15.16    2.35
  -3   1  -4   15.35    2.21
  -3   1  -3  301.65   19.43
  -3   1  -3  283.64   19.29
  -3   1  -3  271.74   15.23
  -3   1  -3  274.34   14.97
  -3   1  -3  272.20   15.20
  -3   1  -2  608.47   32.93
  -3   1  -2  633.65   31.87
  -3   1  -2  653.61   36.76
  -3   1  -2  666.41   37.09
  -3   1  -2  632.06   32.23
  -3   1  -2  628.69   31.84
  -3   1  -2  665.91   32.32
  -3   1  -1  364.62   21.33
  -3   1  -1  413.22   20.28
  -3   1  -1  382.91   24.70
  -3   1  -1  379.24   24.76
  -3   1  -1  363.82   20.47
  -3   1  -1  415.66   20.29
  -3   1  -1  370.11   20.45
  -3   1   0  334.10   19.16
  -3   1   0  363.42   17.74
  -3   1   0  316.21   17.92
  -3   1   0  365.73   17.72
  -3   1   0  286.14   17.66
  -3   1   0  308.04   21.81
  -3   1   0  324.50   22.03
  -3   1   1    2.94    1.34
  -3   1   1    4.44    1.25
  -3   1   1    5.93    1.95
  -3   1   2   74.93    5.47
  -3   1   2   78.79    5.80
  -3   1   2   75.53    5.45
  -3   1   2   67.46    6.82
  -3   1   3    6.03    2.46
  -3   1   3    5.24    1.43
  -3   1   3    6.98    1.75
  -3   1   3    9.63    3.16
  -3   1   3    5.96    2.92
  -3   1   3    9.66    1.88
  -3   1   3    8.30    2.28
  -3   1   3    4.76    1.32
  -3   1   3    7.14    1.48
  -3   1   4   47.68    6.67
  -3   1   4   56.67    4.52
  -3   1   4   57.04    4.62
  -3   1   4   56.24    4.33
  -3   1   4   51.04    6.87
  -3   1   4   46.99    6.67
  -3   1   4   43.58    4.24
  -3   1   4   40.40    5.66
  -3   1   4   56.35    4.42
  -3   1   4   52.09    4.31
  -3   1   5  330.25   17.44
  -3   1   5  314.67   17.56
  -3   1   5  321.79   17.35
  -3   1   5  305.80   21.13
  -3   1   5  293.66   21.02
  -3   1   5  334.94   17.58
  -3   1   5  348.55   17.64
  -3   1   5  305.26   17.31
  -3   1   5  333.35   21.59
  -3   1   6   91.48    6.41
  -3   1   6   94.47    6.66
  -3   1   6   98.00    6.58
  -3   1   6   88.59    6.42
  -3   1   6   92.95    9.58
  -3   1   6   86.44    6.41
  -3   1   6   92.29    6.61
  -3   1   6   93.09    9.48
  -3   1   6   81.04    8.96
  -3   1   7    4.72    1.38
  -3   1   7    6.81    1.74
  -3   1   7    1.40    1.69
  -3   1   7    2.84    2.20
  -3   1   7    5.92    1.64
  -3   1   7    5.97    1.58
  -3   1   7    3.86    1.44
  -3   1   7    6.29    1.71
  -3   1   7    4.86    2.62
  -3   1   8 1250.13   61.40
  -3   1   8 1222.35   62.09
  -3   1   8 1344.61   62.22
  -3   1   8 1276.52   62.08
  -3   1   8 1288.34   66.16
  -3   1   8 1182.93   65.52
  -3   1   8 1254.10   65.48
  -3   1   8 1295.75   61.60
  -3   1   8 1331.06   62.27
  -3   1   8 1193.16   61.94
  -3   1   8 1284.72   67.88
  -3   1   9   12.67    4.05
  -3   1   9    6.77    1.76
  -3   1   9    6.74    2.21
  -3   1   9    8.14    2.26
  -3   1   9   17.07    3.84
  -3   1   9    9.00    1.73
  -3   1   9    6.62    1.84
  -3   1   9   11.04    2.09
  -3   1   9    9.97    1.76
  -3   1  10  326.47   20.22
  -3   1  10  423.96   21.22
  -3   1  10  350.48   20.11
  -3   1  10  382.35   26.99
  -3   1  10  406.19   21.28
  -3   1  10  377.69   20.35
  -3   1  11   34.42    4.28
  -3   1  11   29.98    3.61
  -3   1  11   34.35    7.06
  -3   1  11   32.20    4.25
  -3   1  11   26.31    3.48
  -3   1  11   29.91    3.43
  -3   1  12  854.96   39.45
  -3   1  12  747.18   39.87
  -3   1  12  750.64   39.20
  -3   1  12  698.93   46.77
  -3   1  12  755.25   40.17
  -3   1  12  771.71   38.74
  -3   1  13  683.85   35.99
  -3   1  13  713.82   35.02
  -3   1  13  666.80   35.21
  -3   1  13  620.21   43.07
  -3   1  13  715.53   36.46
  -3   1  13  760.83   36.28
  -3   1  13  641.75   34.37
  -3   1  14   50.54    4.52
  -3   1  14   51.98    5.44
  -3   1  14   54.36    5.69
  -3   1  14   60.23    5.54
  -3   1  14   48.55    4.85
  -3   1  15    8.35    2.45
  -3   1  15    7.74    1.85
  -3   1  15   10.12    2.52
  -3   1  15   15.78    2.72
  -3   1  15   12.66    2.28
  -3   1  16  143.49    9.47
  -3   1  16  138.27    9.21
  -3   1  16  137.38    9.53
  -3   1  16  128.01    8.48
  -3   1  17    9.33    1.86
  -3   1  17    6.89    1.40
  -3   1  17    6.50    1.88
  -3   1  18    6.13    1.51
  -3   1  18    4.64    1.40
  -3   1  18    7.29    1.75
  -3   1  19    1.74    0.86
  -3   1  19    2.16    0.92
  -3   1  19    2.45    1.07
  -3   1  20   66.05    4.03
  -3   2 -18    4.60    0.79
  -3   2 -18    5.78    0.92
  -3   2 -17   58.01    4.06
  -3   2 -17   59.71    4.25
  -3   2 -16   22.60    2.43
  -3   2 -16   20.13    2.45
  -3   2 -15  129.37    8.30
  -3   2 -15  133.02    8.71
  -3   2 -15  137.41    8.71
  -3   2 -14    9.09    1.85
  -3   2 -14    7.01    1.93
  -3   2 -14    9.63    2.07
  -3   2 -13   48.66    4.62
  -3   2 -13   43.81    4.82
  -3   2 -13   48.08    4.93
  -3   2 -12   36.87    4.39
  -3   2 -12   47.44    5.08
  -3   2 -12   46.48    5.02
  -3   2 -11    0.68    1.15
  -3   2 -11   -0.40    1.62
  -3   2 -11    2.03    1.58
  -3   2 -10   36.61    4.01
  -3   2 -10   29.67    4.05
  -3   2 -10   28.81    4.07
  -3   2  -9  549.93   29.13
  -3   2  -9  561.43   29.71
  -3   2  -9  565.63   30.03
  -3   2  -8  139.65    9.57
  -3   2  -8  144.22    9.78
  -3   2  -8  133.55    8.61
  -3   2  -8  134.68    9.06
  -3   2  -7  768.96   43.02
  -3   2  -7  803.80   39.20
  -3   2  -7  759.50   38.81
  -3   2  -7  738.80   43.38
  -3   2  -7  762.92   39.15
  -3   2  -7  827.31   40.25
  -3   2  -7  779.41   39.08
  -3   2  -7  812.30   39.19
  -3   2  -6  117.97    7.66
  -3   2  -6  116.90    7.98
  -3   2  -6  103.26    7.25
  -3   2  -6  110.86   10.82
  -3   2  -6  103.74    7.28
  -3   2  -6  107.20    7.86
  -3   2  -6  109.03    7.46
  -3   2  -6  118.80   10.69
  -3   2  -6  115.01    7.64
  -3   2  -5  679.60   33.52
  -3   2  -5  655.61   33.72
  -3   2  -5  661.05   37.52
  -3   2  -5  693.88   33.59
  -3   2  -5  693.59   38.45
  -3   2  -5  663.85   33.27
  -3   2  -5  614.60   32.82
  -3   2  -5  657.37   33.37
  -3   2  -5  653.85   33.69
  -3   2  -4    1.09    0.92
  -3   2  -4    0.79    1.72
  -3   2  -4    3.62    2.44
  -3   2  -4    0.55    1.10
  -3   2  -4    2.04    1.08
  -3   2  -4    0.28    1.08
  -3   2  -4    1.72    1.05
  -3   2  -3   18.18    2.61
  -3   2  -3   17.08    3.90
  -3   2  -3   14.64    4.03
  -3   2  -3   14.13    2.44
  -3   2  -3   17.60    2.47
  -3   2  -3   16.53    2.64
  -3   2  -3   15.74    2.34
  -3   2  -2   11.52    2.10
  -3   2  -2   20.47    2.91
  -3   2  -2   10.07    3.42
  -3   2  -2   14.55    3.92
  -3   2  -2   10.31    2.09
  -3   2  -2    9.67    2.18
  -3   2  -2   14.17    2.18
  -3   2  -1  200.38   12.47
  -3   2  -1  207.33   12.16
  -3   2  -1  213.42   12.55
  -3   2  -1  209.22   16.33
  -3   2  -1  222.10   17.17
  -3   2  -1  221.58   12.80
  -3   2  -1  217.43   12.33
  -3   2  -1  203.19   12.62
  -3   2   0   24.89    5.48
  -3   2   0   28.26    3.48
  -3   2   0   25.69    3.34
  -3   2   1  141.06    9.63
  -3   2   1  144.04   13.55
  -3   2   1  138.63   12.92
  -3   2   1  143.27    9.44
  -3   2   1  156.67    9.71
  -3   2   2   27.77    3.14
  -3   2   2   24.83    5.17
  -3   2   2   32.38    3.30
  -3   2   2   34.11    3.64
  -3   2   2   31.38    3.49
  -3   2   3  178.30   11.67
  -3   2   3  205.15   11.95
  -3   2   3  200.96   11.68
  -3   2   3  199.66   11.46
  -3   2   3  218.50   16.27
  -3   2   3  196.61   16.34
  -3   2   3  185.84   11.90
  -3   2   3  201.78   11.99
  -3   2   3  193.10   11.48
  -3   2   4   58.83    4.95
  -3   2   4   54.05    4.81
  -3   2   4   58.73    4.89
  -3   2   4   48.02    4.37
  -3   2   4   62.97    7.79
  -3   2   4   47.72    7.47
  -3   2   4   58.67    5.09
  -3   2   4   50.32    4.76
  -3   2   4   54.56    4.73
  -3   2   4   57.60    4.76
  -3   2   5  916.49   46.63
  -3   2   5  944.25   46.74
  -3   2   5  909.67   46.72
  -3   2   5  941.86   46.51
  -3   2   5  962.64   52.35
  -3   2   5  964.48   46.99
  -3   2   5  993.00   51.90
  -3   2   5  959.62   46.87
  -3   2   5  950.73   46.77
  -3   2   6  126.91   11.93
  -3   2   6  137.33    9.01
  -3   2   6  135.51    8.95
  -3   2   6  130.84    9.03
  -3   2   6  154.53    9.15
  -3   2   6  150.47    9.32
  -3   2   6  137.07    9.08
  -3   2   6  153.11   13.32
  -3   2   6  148.75   12.76
  -3   2   6  137.68    9.11
  -3   2   7   11.83    2.05
  -3   2   7   11.38    2.27
  -3   2   7    7.41    3.14
  -3   2   7   12.68    3.52
  -3   2   7   10.88    2.03
  -3   2   7   13.67    3.58
  -3   2   7   12.66    2.31
  -3   2   7    7.45    1.83
  -3   2   7    7.92    1.93
  -3   2   7   11.76    2.12
  -3   2   8   12.04    2.07
  -3   2   8    4.90    2.68
  -3   2   8    7.04    1.64
  -3   2   8   12.85    2.33
  -3   2   8   13.65    2.57
  -3   2   8   11.36    3.39
  -3   2   8   10.25    3.14
  -3   2   8    9.94    2.10
  -3   2   8   10.02    1.89
  -3   2   8   11.53    2.38
  -3   2   8    9.47    1.97
  -3   2   8   11.71    2.15
  -3   2   9  760.95   43.14
  -3   2   9  744.26   37.59
  -3   2   9  788.77   37.93
  -3   2   9  669.60   36.93
  -3   2   9  767.25   37.06
  -3   2   9  797.55   38.14
  -3   2   9  708.26   37.05
  -3   2   9  685.56   41.51
  -3   2   9  719.94   36.79
  -3   2  10    1.35    1.40
  -3   2  10    3.34    2.17
  -3   2  10    2.47    1.16
  -3   2  10    1.95    2.52
  -3   2  10    4.21    2.11
  -3   2  10    1.92    1.17
  -3   2  10    2.56    1.24
  -3   2  11  135.81    9.23
  -3   2  11  108.49    8.22
  -3   2  11  102.80    7.55
  -3   2  11  114.81    8.70
  -3   2  11  113.75    7.60
  -3   2  11  106.55   12.17
  -3   2  12  118.73    8.74
  -3   2  12  102.87    8.59
  -3   2  12  111.60    8.18
  -3   2  12   98.13   11.90
  -3   2  13  685.00   34.91
  -3   2  13  613.94   35.43
  -3   2  13  706.80   34.96
  -3   2  13  696.09   35.43
  -3   2  14    6.78    1.96
  -3   2  14    3.31    1.60
  -3   2  14    7.45    2.37
  -3   2  14    4.56    1.76
  -3   2  15   17.61    2.70
  -3   2  15   20.77    2.99
  -3   2  15   12.48    2.76
  -3   2  15   18.42    2.65
  -3   2  16  329.06   18.42
  -3   2  16  353.36   18.99
  -3   2  16  339.03   18.12
  -3   2  17    6.77    1.56
  -3   2  17    6.43    1.70
  -3   2  17    7.88    1.86
  -3   2  17    7.76    1.48
  -3   2  18    0.40    0.94
  -3   2  18    1.93    1.06
  -3   2  18    0.39    0.63
  -3   2  19   51.40    3.77
  -3   3 -16   67.09    4.63
  -3   3 -16   76.83    4.53
  -3   3 -15    1.25    0.78
  -3   3 -15    1.67    0.72
  -3   3 -14   25.05    2.84
  -3   3 -14   25.71    2.62
  -3   3 -13    4.14    1.32
  -3   3 -13    1.59    1.09
  -3   3 -12  145.31    9.90
  -3   3 -12  151.65    9.53
  -3   3 -11  149.81   10.29
  -3   3 -11  148.62    9.68
  -3   3 -10   48.40    5.18
  -3   3 -10   53.38    4.96
  -3   3  -9   20.50    3.32
  -3   3  -9   18.98    2.89
  -3   3  -8   30.07    3.47
  -3   3  -8   28.63    3.06
  -3   3  -8   27.11    3.82
  -3   3  -7   85.23    6.73
  -3   3  -7   86.00    6.53
  -3   3  -7   95.22    6.56
  -3   3  -7   94.98    6.80
  -3   3  -7   92.37    6.88
  -3   3  -7  104.52    7.48
  -3   3  -6  524.41   32.29
  -3   3  -6  530.89   27.98
  -3   3  -6  463.49   32.19
  -3   3  -6  541.19   27.58
  -3   3  -6  544.55   27.81
  -3   3  -6  513.06   27.76
  -3   3  -6  539.78   27.77
  -3   3  -6  592.40   28.72
  -3   3  -5    7.05    1.65
  -3   3  -5    3.58    2.63
  -3   3  -5    5.65    2.85
  -3   3  -5    7.85    1.88
  -3   3  -5    5.48    1.73
  -3   3  -5    6.51    1.84
  -3   3  -5    6.05    1.59
  -3   3  -4   88.63    6.51
  -3   3  -4   87.05   10.17
  -3   3  -4   93.14    6.79
  -3   3  -4  102.66    7.12
  -3   3  -4   80.31    9.35
  -3   3  -4   83.08    6.70
  -3   3  -4   87.56    6.84
  -3   3  -4   75.79    6.05
  -3   3  -3 1021.13   50.77
  -3   3  -3 1061.73   51.70
  -3   3  -3 1037.17   51.59
  -3   3  -3 1012.75   51.24
  -3   3  -3 1014.91   57.47
  -3   3  -3 1068.03   51.64
  -3   3  -3 1039.32   51.67
  -3   3  -3 1047.48   56.86
  -3   3  -3 1041.45   51.78
  -3   3  -3 1030.69   51.54
  -3   3  -2  326.77   17.76
  -3   3  -2  295.30   16.75
  -3   3  -2  331.28   17.63
  -3   3  -2  302.26   22.17
  -3   3  -2  320.42   18.01
  -3   3  -2  286.69   22.74
  -3   3  -2  308.82   17.53
  -3   3  -2  330.12   18.03
  -3   3  -2  303.44   17.72
  -3   3  -2  310.41   17.51
  -3   3  -1   37.40    4.03
  -3   3  -1   40.57    4.58
  -3   3  -1   39.47    6.94
  -3   3  -1   27.16    5.83
  -3   3  -1   42.45    4.21
  -3   3  -1   39.43    4.44
  -3   3  -1   39.56    4.33
  -3   3  -1   39.00    4.19
  -3   3  -1   36.14    3.51
  -3   3   0   57.91    8.89
  -3   3   0   78.05    5.88
  -3   3   0   74.50    6.31
  -3   3   0   59.88    5.92
  -3   3   0   66.38    5.08
  -3   3   0   72.20    5.88
  -3   3   1   76.49    5.39
  -3   3   1   76.99    6.00
  -3   3   1   78.72    6.32
  -3   3   1   64.62    5.16
  -3   3   1   67.73    9.59
  -3   3   1   78.01    5.90
  -3   3   1   73.26    6.41
  -3   3   1   71.78    6.22
  -3   3   1   76.10    9.66
  -3   3   1   73.74    6.43
  -3   3   2   21.88    5.27
  -3   3   2   14.10    2.15
  -3   3   2   19.83    3.08
  -3   3   2   15.07    2.58
  -3   3   2   15.01    2.12
  -3   3   2   16.83    2.74
  -3   3   3   53.03    4.99
  -3   3   3   48.26    4.41
  -3   3   3   46.51    7.73
  -3   3   3   56.02    8.12
  -3   3   3   51.39    4.98
  -3   3   3   50.66    5.12
  -3   3   3   48.40    4.03
  -3   3   3   48.99    4.53
  -3   3   4  140.24    9.13
  -3   3   4  141.34    8.59
  -3   3   4  146.13    9.45
  -3   3   4  152.37    9.77
  -3   3   4  141.78    9.34
  -3   3   4  149.58   14.63
  -3   3   4  148.26    9.98
  -3   3   4  142.45   13.76
  -3   3   4  138.83    9.79
  -3   3   4  139.13    9.58
  -3   3   5  124.36   12.20
  -3   3   5  109.19    8.05
  -3   3   5  102.42    7.32
  -3   3   5  101.85    6.86
  -3   3   5  124.24    8.12
  -3   3   5  105.89    7.81
  -3   3   5  108.92   12.03
  -3   3   5  103.74    7.39
  -3   3   5  119.01    8.27
  -3   3   5  110.56    7.92
  -3   3   5  110.45    7.84
  -3   3   6  149.71    9.82
  -3   3   6  139.28    9.70
  -3   3   6  159.49   14.56
  -3   3   6  147.88   13.73
  -3   3   6  147.56    9.82
  -3   3   6  156.31   10.01
  -3   3   6  152.50    9.70
  -3   3   6  133.11    9.38
  -3   3   7    7.68    2.15
  -3   3   7    5.89    1.74
  -3   3   7    8.52    2.07
  -3   3   7    0.96    1.89
  -3   3   7    5.12    2.51
  -3   3   7    6.98    1.97
  -3   3   7    7.06    2.07
  -3   3   7    7.82    1.93
  -3   3   7    5.94    1.74
  -3   3   8  333.69   18.27
  -3   3   8  338.31   18.35
  -3   3   8  338.22   17.92
  -3   3   8  285.16   22.34
  -3   3   8  279.46   21.42
  -3   3   8  310.42   17.81
  -3   3   8  314.73   17.83
  -3   3   8  296.30   17.39
  -3   3   8  328.24   17.52
  -3   3   9  505.11   27.69
  -3   3   9  564.99   27.74
  -3   3   9  517.57   27.26
  -3   3   9  454.10   31.72
  -3   3   9  531.78   26.97
  -3   3   9  523.69   26.88
  -3   3   9  514.35   27.26
  -3   3  10  426.43   23.10
  -3   3  10  397.31   22.90
  -3   3  11   13.75    2.66
  -3   3  11   14.30    2.65
  -3   3  11   17.46    2.97
  -3   3  12  127.64    8.78
  -3   3  12  128.18    9.20
  -3   3  12  129.20    8.93
  -3   3  13  209.48   14.08
  -3   3  13  246.97   13.93
  -3   3  13  254.15   14.32
  -3   3  13  245.15   14.16
  -3   3  14    5.31    1.76
  -3   3  14   11.29    2.14
  -3   3  14    8.94    2.12
  -3   3  14    8.77    2.24
  -3   3  15  141.66    8.53
  -3   3  15  124.25    8.63
  -3   3  16   19.39    2.41
  -3   3  16   24.29    2.70
  -3   3  17   33.37    3.10
  -3   3  17   29.70    2.83
  -3   3  17   31.89    2.77
  -3   3  18   22.62    2.23
  -3   3  18   20.55    1.81
  -3   3  19   44.73    3.02
  -3   4 -13  262.26   13.29
  -3   4 -12   29.62    2.61
  -3   4 -11   -0.38    0.64
  -3   4 -11   -0.37    0.79
  -3   4 -10   11.64    1.92
  -3   4 -10   13.50    2.01
  -3   4 -10   12.40    2.20
  -3   4  -9  646.95   31.43
  -3   4  -9  594.03   31.42
  -3   4  -9  616.12   31.85
  -3   4  -8   18.67    2.56
  -3   4  -8   16.70    2.49
  -3   4  -8   16.05    2.62
  -3   4  -7   86.35    6.59
  -3   4  -7   79.61    5.75
  -3   4  -7   76.35    5.51
  -3   4  -7   79.01    6.27
  -3   4  -7   89.68    6.26
  -3   4  -6   50.94    4.82
  -3   4  -6   54.75    5.19
  -3   4  -6   67.27    4.96
  -3   4  -6   65.46    5.06
  -3   4  -6   60.13    4.99
  -3   4  -6   66.21    5.42
  -3   4  -5   43.80    4.40
  -3   4  -5   48.85    4.41
  -3   4  -5   44.98    4.43
  -3   4  -5   44.42    4.47
  -3   4  -5   50.49    4.36
  -3   4  -5   50.57    4.44
  -3   4  -5   44.54    4.55
  -3   4  -4   19.54    2.81
  -3   4  -4   20.48    2.74
  -3   4  -4   25.25    3.31
  -3   4  -4   28.22    3.31
  -3   4  -4   22.10    3.05
  -3   4  -4   27.27    3.14
  -3   4  -4   20.62    3.14
  -3   4  -3   26.61    3.09
  -3   4  -3   29.06    3.36
  -3   4  -3   28.55    3.71
  -3   4  -3   27.52    3.34
  -3   4  -3   27.91    3.35
  -3   4  -3   27.93    3.45
  -3   4  -3   28.90    3.82
  -3   4  -2   26.91    3.06
  -3   4  -2   33.20    3.53
  -3   4  -2   22.71    3.07
  -3   4  -2   27.08    3.70
  -3   4  -2   26.01    3.44
  -3   4  -2   32.67    3.70
  -3   4  -2   27.33    3.85
  -3   4  -1   68.49    5.52
  -3   4  -1   65.04    5.17
  -3   4  -1   42.58    7.77
  -3   4  -1   65.94    5.53
  -3   4  -1   63.01    6.00
  -3   4  -1   69.31    6.01
  -3   4  -1   75.30    5.94
  -3   4  -1   59.55    6.00
  -3   4  -1   64.65    8.81
  -3   4   0  159.36   11.25
  -3   4   0  156.69   11.33
  -3   4   0  166.11   15.52
  -3   4   0  141.64   15.30
  -3   4   0  183.87   10.61
  -3   4   0  168.74   10.12
  -3   4   1   51.76    8.86
  -3   4   1   78.41    6.77
  -3   4   1   66.85    6.13
  -3   4   1   58.98    6.25
  -3   4   1   63.57    5.17
  -3   4   1   77.47    5.64
  -3   4   2  586.38   31.75
  -3   4   2  652.96   33.48
  -3   4   2  624.63   33.17
  -3   4   2  599.68   33.56
  -3   4   2  610.21   39.35
  -3   4   2  664.23   32.25
  -3   4   2  725.00   32.85
  -3   4   3   42.70    3.99
  -3   4   3   46.92    7.71
  -3   4   3   52.73    5.05
  -3   4   3   45.23    4.82
  -3   4   3   49.66    4.35
  -3   4   3   45.04    4.07
  -3   4   3   38.89    4.12
  -3   4   4    0.68    0.91
  -3   4   4    0.89    1.22
  -3   4   4    1.31    1.11
  -3   4   4   -1.16    2.26
  -3   4   4    1.03    2.25
  -3   4   4    1.03    1.46
  -3   4   4   -0.39    1.55
  -3   4   4    2.70    1.64
  -3   4   4    1.66    1.45
  -3   4   5   72.42    5.67
  -3   4   5   73.41    6.33
  -3   4   5   67.08    5.07
  -3   4   5   62.75    6.04
  -3   4   5   65.53    5.60
  -3   4   5   69.58    5.85
  -3   4   5   62.03    5.63
  -3   4   6  192.46   12.08
  -3   4   6  195.00   11.66
  -3   4   6  206.36   11.74
  -3   4   6  174.56   11.91
  -3   4   6  198.61   11.71
  -3   4   6  162.84   11.28
  -3   4   7   81.24    6.34
  -3   4   7   72.84    6.29
  -3   4   7   83.60    6.16
  -3   4   7   84.34    6.29
  -3   4   7   72.81    5.75
  -3   4   7   76.06    6.44
  -3   4   7   76.55    6.19
  -3   4   8   46.61    4.34
  -3   4   8   48.91    4.35
  -3   4   8   47.87    4.27
  -3   4   8   46.73    4.59
  -3   4   8   42.81    4.36
  -3   4   8   46.81    4.54
  -3   4   9    2.75    1.44
  -3   4   9    3.97    1.40
  -3   4   9    5.02    1.43
  -3   4   9    6.43    1.69
  -3   4   9    6.06    1.51
  -3   4   9    6.38    1.64
  -3   4  10    7.02    1.94
  -3   4  10    9.10    2.03
  -3   4  10    5.49    1.72
  -3   4  10    8.31    1.54
  -3   4  11    4.81    1.61
  -3   4  11    6.58    1.71
  -3   4  12  222.69   12.86
  -3   4  13   21.10    2.61
  -3   4  13   23.00    2.71
  -3   4  14  103.60    6.66
  -3   4  14  103.64    6.75
  -3   4  15    3.57    1.11
  -3   4  15    4.69    1.22
  -3   4  16   97.06    5.63
  -3   4  16   88.43    5.58
  -3   4  17    6.92    0.97
  -3   5  -9   75.00    4.53
  -3   5  -8   18.74    1.95
  -3   5  -7    0.49    0.69
  -3   5  -6  381.39   19.56
  -3   5  -5  257.73   12.83
  -3   5  -5  212.19   12.41
  -3   5  -4    6.56    1.48
  -3   5  -4    4.19    1.16
  -3   5  -4    6.81    1.45
  -3   5  -3  363.35   18.53
  -3   5  -3  352.59   18.60
  -3   5  -3  348.40   18.75
  -3   5  -2   14.26    1.96
  -3   5  -2   17.23    2.40
  -3   5  -2   16.17    2.27
  -3   5  -1  109.39    6.65
  -3   5  -1   97.99    7.12
  -3   5  -1   96.25    6.89
  -3   5   0   16.07    2.09
  -3   5   0   18.14    2.65
  -3   5   1   43.17    3.64
  -3   5   2   52.49    4.27
  -3   5   2   68.54    5.31
  -3   5   2   56.45    5.07
  -3   5   3   22.59    2.57
  -3   5   3   28.78    3.35
  -3   5   3   31.27    3.52
  -3   5   4   76.45    5.72
  -3   5   4   64.83    5.53
  -3   5   5  206.58   12.22
  -3   5   5  212.21   12.15
  -3   5   6   21.47    2.47
  -3   5   6   24.73    2.83
  -3   5   6   21.23    2.61
  -3   5   7   10.95    1.81
  -3   5   7   11.58    1.88
  -3   5   7   10.92    1.87
  -3   5   8    4.59    1.30
  -3   5   8    5.00    1.25
  -3   5   8    4.61    1.21
  -3   5   9   42.90    3.72
  -3   5   9   44.81    3.39
  -3   5   9   40.96    3.31
  -3   5  10    8.45    1.66
  -3   5  11   19.09    2.15
  -3   5  12    3.81    1.04
  -3   6  -1   17.68    1.68
  -3   6   0    0.24    0.66
  -3   6   3    3.44    1.06
  -3   6   4   27.14    2.34
  -3   6   5   60.57    3.92
  -2  -5   3   30.06    6.52
  -2  -5  10    3.91    1.60
  -2  -5  11  103.66    7.04
  -2  -5  12    6.52    1.46
  -2  -4 -12  106.39   14.36
  -2  -4 -11   79.93   12.30
  -2  -4 -10  163.68   17.94
  -2  -4  -9  114.31   14.39
  -2  -4  -8   15.04    5.20
  -2  -4  -7   91.52   12.01
  -2  -4  -6  638.51   40.76
  -2  -4  -5   31.05    6.60
  -2  -4  -4   33.75    6.72
  -2  -4  -3   70.02    9.38
  -2  -4  -2  112.10   12.02
  -2  -4  -1    0.92    1.79
  -2  -4   0  224.86   17.74
  -2  -4   1   84.03    9.61
  -2  -4   2  255.66   18.93
  -2  -4   7   83.71   10.95
  -2  -4   8  183.89   17.41
  -2  -4   9   44.80    8.01
  -2  -4  14   46.69    4.31
  -2  -4  15   85.93    6.08
  -2  -4  15   86.32    5.88
  -2  -4  16   71.17    4.96
  -2  -3 -14  212.73   18.92
  -2  -3 -13 1019.32   58.45
  -2  -3 -12  410.66   28.68
  -2  -3 -11    8.94    3.51
  -2  -3 -10    2.71    2.33
  -2  -3  -9  586.25   35.21
  -2  -3  -8   -0.71    1.70
  -2  -3  -7   26.57    6.10
  -2  -3  -7   16.19    3.79
  -2  -3  -6   -1.00    1.95
  -2  -3  -6   -0.54    1.40
  -2  -3  -5   65.36    8.75
  -2  -3  -4  355.84   24.41
  -2  -3  -3  175.26   14.91
  -2  -3  -2  504.83   31.24
  -2  -3  -1  707.50   40.51
  -2  -3   0    5.47    2.75
  -2  -3   1 2964.62  145.75
  -2  -3   2  311.89   21.04
  -2  -3   3   73.70    8.40
  -2  -3   4    3.67    2.27
  -2  -3   5  759.11   42.58
  -2  -3   6  164.78   14.25
  -2  -3   7  307.20   21.59
  -2  -3   8  233.17   18.71
  -2  -3   8  252.75   19.82
  -2  -3   9  117.25    7.90
  -2  -3  10  144.54    9.42
  -2  -3  11   29.56    3.49
  -2  -3  12   22.86    5.75
  -2  -3  12   19.65    2.87
  -2  -3  13    7.78    1.86
  -2  -3  14    7.16    1.84
  -2  -3  15   69.71    5.55
  -2  -3  16    0.23    0.98
  -2  -3  16    1.07    1.04
  -2  -3  16    1.82    1.19
  -2  -3  17    2.01    1.05
  -2  -3  17    0.44    0.99
  -2  -3  18   32.04    2.88
  -2  -3  18   32.58    2.95
  -2  -2 -21    3.99    1.02
  -2  -2 -20  196.34   11.31
  -2  -2 -19    3.73    1.52
  -2  -2 -18  138.22    9.29
  -2  -2 -17    2.69    1.70
  -2  -2 -16  113.18    8.43
  -2  -2 -15   -2.51    2.99
  -2  -2 -14  105.71   12.80
  -2  -2 -14  107.59    8.15
  -2  -2 -13    1.18    2.30
  -2  -2 -13    0.68    1.33
  -2  -2 -12  266.54   20.81
  -2  -2 -12  236.87   14.43
  -2  -2 -11    1.01    1.98
  -2  -2 -11    0.30    1.02
  -2  -2 -10 1612.86   84.20
  -2  -2  -9    0.80    2.21
  -2  -2  -8 1121.50   59.15
  -2  -2  -7  598.71   33.76
  -2  -2  -6  348.66   21.27
  -2  -2  -5  131.12   10.22
  -2  -2  -4    4.91    1.86
  -2  -2  -4    3.40    2.49
  -2  -2  -3   56.99    7.00
  -2  -2  -2    3.16    1.95
  -2  -2  -1    1.84    2.15
  -2  -2   0  593.28   33.42
  -2  -2   1  357.61   20.68
  -2  -2   1  368.64   22.38
  -2  -2   2 3659.37  175.69
  -2  -2   2 3701.39  177.38
  -2  -2   3    2.76    1.62
  -2  -2   3    0.60    1.56
  -2  -2   4  684.05   37.67
  -2  -2   4  735.41   39.15
  -2  -2   5  471.53   26.58
  -2  -2   5  444.51   23.00
  -2  -2   5  498.03   27.97
  -2  -2   6  578.57   32.97
  -2  -2   6  576.86   29.02
  -2  -2   6  613.28   34.32
  -2  -2   7   -0.65    1.26
  -2  -2   7    0.21    0.90
  -2  -2   7   -1.49    1.62
  -2  -2   8  456.22   29.18
  -2  -2   8  484.32   24.90
  -2  -2   8  514.86   30.87
  -2  -2   9   26.29    3.13
  -2  -2   9   34.01    6.16
  -2  -2   9   21.13    4.97
  -2  -2   9   25.11    5.45
  -2  -2  10   73.81    9.30
  -2  -2  10   73.91    5.94
  -2  -2  10   76.81    9.78
  -2  -2  11  108.90   12.32
  -2  -2  11  136.91    8.95
  -2  -2  11  118.68   13.10
  -2  -2  12  107.85   12.43
  -2  -2  12  129.98    8.88
  -2  -2  12  131.32   13.96
  -2  -2  13    8.73    4.04
  -2  -2  13   17.70    2.89
  -2  -2  13   18.96    5.34
  -2  -2  14  304.83   23.77
  -2  -2  14  313.90   16.97
  -2  -2  15  331.17   18.58
  -2  -2  15  328.43   18.50
  -2  -2  16   27.77    3.45
  -2  -2  16   26.45    3.33
  -2  -2  16   25.51    3.45
  -2  -2  17    6.48    1.65
  -2  -2  17    6.29    1.72
  -2  -2  17    7.62    1.83
  -2  -2  18    5.54    1.39
  -2  -2  18    6.77    1.68
  -2  -2  19  100.66    6.65
  -2  -1 -22    0.59    0.79
  -2  -1 -21    5.30    1.55
  -2  -1 -20   21.56    3.01
  -2  -1 -19   81.93    6.62
  -2  -1 -18   98.76    7.69
  -2  -1 -17  249.84   15.24
  -2  -1 -16    1.24    2.42
  -2  -1 -16   -2.30    1.87
  -2  -1 -15    2.48    2.42
  -2  -1 -15    1.93    1.69
  -2  -1 -14    1.22    2.38
  -2  -1 -14    0.38    1.16
  -2  -1 -13  621.19   38.04
  -2  -1 -13  561.77   30.26
  -2  -1 -12   17.72    5.11
  -2  -1 -12   15.52    2.61
  -2  -1 -11    6.11    3.33
  -2  -1 -11   13.05    2.36
  -2  -1 -10  417.37   27.51
  -2  -1  -9   25.46    5.04
  -2  -1  -8  180.49   14.26
  -2  -1  -7  703.51   38.58
  -2  -1  -6 1424.84   71.60
  -2  -1  -5    0.47    1.45
  -2  -1  -4  252.35   16.44
  -2  -1  -4  297.01   17.80
  -2  -1  -3   27.35    4.30
  -2  -1   0  197.67   12.62
  -2  -1   1 4245.21  201.80
  -2  -1   2 1012.54   53.24
  -2  -1   2 1087.59   53.27
  -2  -1   3  483.30   26.99
  -2  -1   3  483.77   26.78
  -2  -1   4   11.55    2.82
  -2  -1   4   10.72    2.77
  -2  -1   5 3603.38  165.35
  -2  -1   5 3356.08  161.20
  -2  -1   5 3522.28  165.01
  -2  -1   6  139.30   11.33
  -2  -1   6  144.10    8.43
  -2  -1   6  154.99   11.52
  -2  -1   7   15.85    3.64
  -2  -1   7   17.05    2.22
  -2  -1   7   20.96    4.16
  -2  -1   8 1020.82   52.47
  -2  -1   8  928.88   48.68
  -2  -1   8  966.72   51.95
  -2  -1   8  962.27   47.11
  -2  -1   9  103.20   10.87
  -2  -1   9  107.45   11.19
  -2  -1   9  108.60   10.34
  -2  -1   9  113.14    7.53
  -2  -1  10   26.05    5.50
  -2  -1  10   20.38    4.48
  -2  -1  10   32.68    3.58
  -2  -1  11    0.95    2.08
  -2  -1  11    2.51    2.00
  -2  -1  11    3.04    1.75
  -2  -1  12  483.08   32.88
  -2  -1  12  451.42   31.58
  -2  -1  12  551.15   27.35
  -2  -1  13   68.65    9.64
  -2  -1  13   74.45    9.43
  -2  -1  13   76.75    6.16
  -2  -1  13   59.55    5.59
  -2  -1  14   96.81   11.34
  -2  -1  14  121.78    8.29
  -2  -1  14  120.25    8.06
  -2  -1  15  102.69   12.97
  -2  -1  15  134.28    9.05
  -2  -1  15  137.85    9.22
  -2  -1  15  128.65   13.22
  -2  -1  16  270.96   14.79
  -2  -1  16  223.57   14.07
  -2  -1  17    2.17    1.32
  -2  -1  17    0.63    1.31
  -2  -1  17    1.37    1.07
  -2  -1  18  176.55   10.28
  -2  -1  18  176.82   10.39
  -2  -1  19   96.32    6.67
  -2  -1  19   94.33    6.79
  -2  -1  20  132.51    8.12
  -2  -1  20  138.05    8.44
  -2   0 -22    2.98    0.72
  -2   0 -22    4.80    1.12
  -2   0 -21    5.07    1.49
  -2   0 -20  288.07   16.17
  -2   0 -19   78.03    6.37
  -2   0 -18   67.16    6.04
  -2   0 -17    0.74    1.44
  -2   0 -16   86.95   11.39
  -2   0 -16   97.84    7.81
  -2   0 -15  150.37   16.18
  -2   0 -15  196.66   12.34
  -2   0 -14  145.17   15.63
  -2   0 -14  177.34   11.57
  -2   0 -13   29.45    6.58
  -2   0 -13   34.93    4.19
  -2   0 -12   51.47    8.21
  -2   0 -12   35.91    4.22
  -2   0 -11  136.78   13.44
  -2   0 -11  104.99    8.00
  -2   0 -10  448.11   23.83
  -2   0  -8    4.63    1.61
  -2   0  -8    5.28    1.69
  -2   0  -7  783.20   40.95
  -2   0  -7  817.13   41.07
  -2   0  -6    5.69    1.90
  -2   0  -5  152.59   10.53
  -2   0  -4 2097.19  103.14
  -2   0  -4 2107.57  102.55
  -2   0  -4 2136.17  103.00
  -2   0  -3  961.27   50.00
  -2   0  -3 1013.22   50.06
  -2   0  -2   27.58    3.84
  -2   0  -2   31.64    4.02
  -2   0  -1    2.95    1.71
  -2   0  -1    7.66    2.02
  -2   0   0    1.44    1.16
  -2   0   0    0.43    1.44
  -2   0   0    1.10    1.38
  -2   0   1   36.86    4.20
  -2   0   1   36.72    4.30
  -2   0   2 2577.12  126.11
  -2   0   2 2660.91  126.76
  -2   0   2 2651.10  126.61
  -2   0   3   19.95    3.37
  -2   0   3   25.75    3.64
  -2   0   4    9.16    2.37
  -2   0   4   10.60    2.52
  -2   0   5 1680.07   79.13
  -2   0   5 1526.43   79.75
  -2   0   6   19.81    2.27
  -2   0   6   22.54    3.38
  -2   0   6   20.67    2.23
  -2   0   6   24.80    4.10
  -2   0   7  247.12   13.22
  -2   0   7  233.32   14.71
  -2   0   7  239.54   13.17
  -2   0   8  199.76   11.45
  -2   0   8  215.65   11.55
  -2   0   8  181.32   13.14
  -2   0   8  191.60   12.43
  -2   0   8  186.28   12.60
  -2   0   9  634.60   32.31
  -2   0   9  594.84   34.45
  -2   0   9  684.13   33.41
  -2   0   9  627.34   32.79
  -2   0  10    3.50    2.13
  -2   0  10    2.34    1.22
  -2   0  11  155.17   12.60
  -2   0  11  156.25    9.87
  -2   0  12   30.50    5.24
  -2   0  12   36.81    3.85
  -2   0  13  359.10   25.82
  -2   0  13  409.43   22.25
  -2   0  13  408.08   21.86
  -2   0  14   21.54    2.81
  -2   0  14   19.17    2.51
  -2   0  14   25.35    3.31
  -2   0  15  609.07   33.57
  -2   0  15  751.64   34.70
  -2   0  16    4.21    1.38
  -2   0  16   10.01    2.24
  -2   0  17  214.25   13.01
  -2   0  17  211.93   12.90
  -2   0  18    6.06    1.82
  -2   0  18    7.30    1.80
  -2   0  19  186.25   11.12
  -2   0  19  174.49   10.83
  -2   0  20    8.74    1.73
  -2   0  20    8.86    1.67
  -2   0  20    6.47    1.62
  -2   0  21    2.42    1.05
  -2   1 -21   28.14    2.50
  -2   1 -21   36.88    3.00
  -2   1 -20    2.27    1.31
  -2   1 -20    1.83    0.87
  -2   1 -20    0.87    0.68
  -2   1 -19  121.57    8.23
  -2   1 -18    0.31    1.21
  -2   1 -17  405.52   22.25
  -2   1 -16   21.82    3.38
  -2   1 -15    6.69    3.29
  -2   1 -15   12.19    2.59
  -2   1 -14   78.33   10.73
  -2   1 -14  102.69    7.94
  -2   1 -13  541.52   38.19
  -2   1 -13  632.69   32.35
  -2   1 -12  171.69   16.75
  -2   1 -12  183.40   11.97
  -2   1 -11  290.36   23.44
  -2   1 -11  323.05   18.22
  -2   1 -10  267.72   20.39
  -2   1 -10  246.73   13.88
  -2   1 -10  259.25   15.03
  -2   1  -9   85.32    6.58
  -2   1  -9   94.25   10.44
  -2   1  -8   25.86    3.48
  -2   1  -8   24.82    3.51
  -2   1  -8   30.50    5.44
  -2   1  -7  381.16   23.96
  -2   1  -7  440.61   24.61
  -2   1  -7  473.53   24.43
  -2   1  -7  469.64   24.67
  -2   1  -7  476.01   27.21
  -2   1  -6 1324.03   64.71
  -2   1  -6 1365.66   64.38
  -2   1  -6 1320.04   64.50
  -2   1  -6 1200.45   63.51
  -2   1  -5   40.48    4.77
  -2   1  -5   34.68    4.42
  -2   1  -5   34.76    3.80
  -2   1  -4  798.50   40.28
  -2   1  -4  878.44   43.31
  -2   1  -4  871.35   43.45
  -2   1  -4  851.23   41.44
  -2   1  -3  130.73    9.65
  -2   1  -3  133.09    9.75
  -2   1  -3  113.70    7.70
  -2   1  -2  107.84    8.55
  -2   1  -2   99.27    8.27
  -2   1  -2   97.56    6.55
  -2   1  -1 1841.39   90.40
  -2   1  -1 1835.78   90.30
  -2   1  -1 1831.86   87.53
  -2   1   0    2.36    2.01
  -2   1   0    2.87    2.19
  -2   1   0    1.10    0.88
  -2   1   1  826.84   41.55
  -2   1   1  797.47   40.24
  -2   1   2  553.62   28.50
  -2   1   2  501.39   27.18
  -2   1   3    5.51    1.67
  -2   1   3    9.66    2.68
  -2   1   3    3.75    2.16
  -2   1   3    7.45    2.62
  -2   1   4  121.84    9.39
  -2   1   4  118.19    6.96
  -2   1   4  107.42    8.65
  -2   1   4  113.51    9.21
  -2   1   4  121.70    9.43
  -2   1   5    2.19    0.95
  -2   1   5    1.86    0.83
  -2   1   5    2.75    0.89
  -2   1   5    3.16    1.87
  -2   1   5    2.67    1.50
  -2   1   5    3.37    1.94
  -2   1   6    8.86    1.52
  -2   1   6    7.43    2.24
  -2   1   6    7.57    2.24
  -2   1   6    7.68    1.37
  -2   1   6    8.43    1.46
  -2   1   6    8.05    2.71
  -2   1   7   11.21    1.77
  -2   1   7   11.34    1.79
  -2   1   7    7.32    2.24
  -2   1   7    9.64    2.40
  -2   1   7   14.54    2.83
  -2   1   7   10.77    1.57
  -2   1   7   12.35    1.82
  -2   1   7   12.61    3.06
  -2   1   8 1048.10   49.44
  -2   1   8 1026.21   49.35
  -2   1   8 1042.65   51.30
  -2   1   8 1037.79   51.64
  -2   1   8  976.47   48.71
  -2   1   8 1013.43   53.83
  -2   1   8  964.17   49.18
  -2   1   8 1050.55   49.60
  -2   1   9  312.27   18.47
  -2   1   9  385.30   18.97
  -2   1   9  330.68   18.44
  -2   1   9  372.71   19.12
  -2   1   9  358.17   20.52
  -2   1   9  392.06   23.69
  -2   1   9  379.11   20.36
  -2   1  10   88.39    9.78
  -2   1  10   85.08    6.17
  -2   1  10   65.25    5.53
  -2   1  10   74.38    5.78
  -2   1  10   80.91    5.69
  -2   1  10   89.39    6.40
  -2   1  11   12.16    3.99
  -2   1  11   10.22    2.14
  -2   1  11    6.78    1.61
  -2   1  11   12.39    2.19
  -2   1  11    9.69    2.15
  -2   1  11    9.03    1.60
  -2   1  12  547.40   36.33
  -2   1  12  593.41   29.98
  -2   1  12  563.02   30.55
  -2   1  12  564.48   30.29
  -2   1  12  662.54   31.13
  -2   1  13    2.16    2.10
  -2   1  13    1.02    1.52
  -2   1  13    1.23    0.96
  -2   1  13    0.30    1.14
  -2   1  13   -0.34    1.31
  -2   1  14   46.90    4.70
  -2   1  14   45.30    4.38
  -2   1  14   41.63    4.49
  -2   1  15  145.02    9.96
  -2   1  15  142.14    9.29
  -2   1  15  145.74   14.74
  -2   1  15  158.62   10.08
  -2   1  16  297.06   17.05
  -2   1  16  296.82   16.93
  -2   1  17   17.94    2.95
  -2   1  17   22.63    3.08
  -2   1  18   68.57    5.73
  -2   1  18   68.07    5.41
  -2   1  18   68.83    5.60
  -2   1  19   19.00    2.45
  -2   1  19   16.42    2.47
  -2   1  19   19.46    2.78
  -2   1  19   14.67    2.14
  -2   1  20  172.60   10.48
  -2   1  20  174.74    9.86
  -2   1  20  196.11   10.92
  -2   1  21   46.14    3.79
  -2   2 -20   36.61    2.74
  -2   2 -20   35.75    2.59
  -2   2 -19    9.05    1.50
  -2   2 -19    7.11    1.37
  -2   2 -19   10.18    1.55
  -2   2 -18    7.20    1.57
  -2   2 -18   11.65    1.89
  -2   2 -18    8.42    1.67
  -2   2 -17   24.31    2.94
  -2   2 -17   27.07    3.14
  -2   2 -16  174.58   10.69
  -2   2 -16  159.14   10.46
  -2   2 -15    2.25    1.43
  -2   2 -15    1.00    1.42
  -2   2 -14    7.96    2.15
  -2   2 -13  452.64   24.82
  -2   2 -13  450.75   23.65
  -2   2 -12    5.83    2.04
  -2   2 -12   11.11    2.11
  -2   2 -11  468.92   23.31
  -2   2 -11  401.66   23.85
  -2   2 -10  103.68    6.95
  -2   2 -10   82.91    7.15
  -2   2  -9 1302.68   61.21
  -2   2  -9 1200.08   61.56
  -2   2  -8   42.74    4.04
  -2   2  -8   45.02    4.34
  -2   2  -8   47.10    5.26
  -2   2  -7  252.80   13.31
  -2   2  -7  221.07   15.35
  -2   2  -7  253.68   13.49
  -2   2  -7  214.21   14.81
  -2   2  -7  209.67   12.45
  -2   2  -6  433.07   25.48
  -2   2  -6  437.02   22.34
  -2   2  -6  452.24   25.27
  -2   2  -6  437.40   22.38
  -2   2  -5  690.38   37.85
  -2   2  -5  703.49   34.57
  -2   2  -5  719.79   37.61
  -2   2  -5  692.51   34.55
  -2   2  -4  104.50    9.24
  -2   2  -4  114.08    7.03
  -2   2  -4  114.48    9.23
  -2   2  -4  107.47    6.98
  -2   2  -3  903.99   47.01
  -2   2  -3  889.45   43.40
  -2   2  -3  890.07   43.39
  -2   2  -3  860.84   46.29
  -2   2  -2    6.29    2.63
  -2   2  -2    6.78    2.29
  -2   2  -2    7.58    1.60
  -2   2  -2    6.60    1.46
  -2   2  -1   -0.59    1.81
  -2   2  -1    0.63    1.01
  -2   2  -1    1.90    1.18
  -2   2   0  103.46    9.39
  -2   2   0   93.67    6.47
  -2   2   0   97.08    6.50
  -2   2   1 1230.98   63.62
  -2   2   1 1403.17   63.38
  -2   2   1 1231.46   67.34
  -2   2   1 1273.44   66.97
  -2   2   1 1358.31   63.27
  -2   2   2  573.16   29.50
  -2   2   2  591.18   33.33
  -2   2   2  638.49   29.76
  -2   2   2  594.22   29.70
  -2   2   3   31.15    3.11
  -2   2   3   37.21    3.07
  -2   2   3   37.29    5.28
  -2   2   3   40.56    5.55
  -2   2   3   38.42    3.49
  -2   2   3   35.59    3.06
  -2   2   3   30.41    3.16
  -2   2   4  153.18    9.22
  -2   2   4  145.95   11.62
  -2   2   4  156.18    9.18
  -2   2   4  151.15    8.83
  -2   2   4  161.30   12.41
  -2   2   4  157.60    9.29
  -2   2   4  159.52    9.21
  -2   2   4  156.02    8.98
  -2   2   4  168.37   11.43
  -2   2   5  692.93   37.69
  -2   2   5  678.51   34.42
  -2   2   5  724.64   34.63
  -2   2   5  676.00   34.09
  -2   2   5  740.54   38.48
  -2   2   5  670.54   34.43
  -2   2   5  696.55   34.52
  -2   2   5  701.06   34.33
  -2   2   5  744.59   37.53
  -2   2   6  161.74   11.71
  -2   2   6  148.00    9.00
  -2   2   6  163.91    9.36
  -2   2   6  159.17    8.92
  -2   2   6  139.50   11.61
  -2   2   6  148.84    9.03
  -2   2   6  145.67    9.14
  -2   2   6  153.44    8.99
  -2   2   6  150.85   11.56
  -2   2   7  192.55   13.60
  -2   2   7  183.38   10.85
  -2   2   7  193.29   11.25
  -2   2   7  189.30   10.81
  -2   2   7  200.00   14.08
  -2   2   7  198.30   11.02
  -2   2   7  203.93   11.34
  -2   2   7  187.28   10.90
  -2   2   7  202.92   14.14
  -2   2   8   -0.19    0.78
  -2   2   8    2.01    1.25
  -2   2   8    0.22    0.95
  -2   2   8    1.03    1.23
  -2   2   8    0.57    1.25
  -2   2   8    0.80    0.87
  -2   2   8    1.38    0.94
  -2   2   8    0.26    1.00
  -2   2   8    0.83    0.78
  -2   2   8    1.86    1.71
  -2   2   9    3.48    2.46
  -2   2   9    6.57    1.70
  -2   2   9    6.94    1.71
  -2   2   9    5.56    1.58
  -2   2   9    7.01    2.25
  -2   2   9    3.91    1.98
  -2   2   9    5.10    1.23
  -2   2   9    6.54    1.36
  -2   2   9    7.91    1.90
  -2   2   9    2.89    1.05
  -2   2   9    5.86    1.30
  -2   2  10    5.15    1.66
  -2   2  10    4.00    2.59
  -2   2  10    4.26    1.88
  -2   2  10    4.96    1.80
  -2   2  10    4.41    1.61
  -2   2  11  225.06   18.29
  -2   2  11  236.59   13.85
  -2   2  11  232.97   13.97
  -2   2  11  228.43   13.72
  -2   2  12   50.03    4.96
  -2   2  12   54.92    5.11
  -2   2  12   43.31    7.41
  -2   2  12   55.85    4.93
  -2   2  12   50.20    5.06
  -2   2  13   70.15    6.35
  -2   2  13   77.22    6.48
  -2   2  13   72.54    9.87
  -2   2  13   78.29    6.21
  -2   2  13   91.46    6.91
  -2   2  14    8.64    2.16
  -2   2  14    8.23    2.20
  -2   2  14    4.32    2.80
  -2   2  14    7.83    1.91
  -2   2  14    7.16    1.94
  -2   2  15  503.10   26.36
  -2   2  15  516.51   27.07
  -2   2  15  490.38   25.74
  -2   2  15  517.46   26.32
  -2   2  16   37.44    3.94
  -2   2  16   35.91    4.01
  -2   2  16   36.31    3.67
  -2   2  16   38.73    4.56
  -2   2  16   38.84    4.26
  -2   2  17   64.92    5.38
  -2   2  17   67.25    5.07
  -2   2  17   67.16    5.96
  -2   2  17   71.99    5.79
  -2   2  17   66.88    5.47
  -2   2  18    0.59    1.36
  -2   2  18    0.26    1.68
  -2   2  19   65.39    5.18
  -2   2  19   57.74    4.65
  -2   2  20    1.47    1.03
  -2   2  20    0.61    0.75
  -2   3 -18    0.36    0.50
  -2   3 -18    0.85    0.62
  -2   3 -17  100.23    6.25
  -2   3 -17   98.01    6.41
  -2   3 -16   64.04    4.73
  -2   3 -16   53.09    4.67
  -2   3 -15    0.26    1.06
  -2   3 -15    0.84    0.94
  -2   3 -14  121.42    8.42
  -2   3 -13   32.16    3.99
  -2   3 -13   32.92    3.48
  -2   3 -12  279.65   17.37
  -2   3 -12  308.71   16.65
  -2   3 -11   -0.29    0.95
  -2   3 -11   -0.40    1.24
  -2   3 -10  274.10   17.00
  -2   3 -10  294.23   16.30
  -2   3  -9  133.05    9.61
  -2   3  -9  135.07    9.07
  -2   3  -8   20.46    3.22
  -2   3  -8   29.27    3.48
  -2   3  -7    3.23    1.19
  -2   3  -7    0.31    1.08
  -2   3  -7    1.22    1.09
  -2   3  -7    0.93    0.88
  -2   3  -7    1.25    1.82
  -2   3  -7   -0.25    1.02
  -2   3  -7    1.30    1.09
  -2   3  -6  682.31   31.96
  -2   3  -6  594.69   31.16
  -2   3  -6  603.70   34.73
  -2   3  -6  573.44   30.97
  -2   3  -6  612.14   31.96
  -2   3  -6  584.89   35.21
  -2   3  -6  618.77   30.83
  -2   3  -6  594.95   30.93
  -2   3  -6  664.90   31.84
  -2   3  -5   21.91    3.00
  -2   3  -5   28.30    3.21
  -2   3  -5   33.06    3.67
  -2   3  -5   39.85    5.61
  -2   3  -5   34.85    5.51
  -2   3  -5   34.21    3.22
  -2   3  -5   31.35    3.29
  -2   3  -5   26.70    3.24
  -2   3  -4   55.31    4.73
  -2   3  -4   57.07    6.97
  -2   3  -4   59.44    4.94
  -2   3  -4   65.44    5.01
  -2   3  -4   56.66    4.97
  -2   3  -4   52.32    7.04
  -2   3  -4   54.33    4.62
  -2   3  -4   49.23    4.36
  -2   3  -4   55.69    4.79
  -2   3  -3    9.89    1.81
  -2   3  -3   12.55    1.96
  -2   3  -3   11.38    2.03
  -2   3  -3   12.89    2.09
  -2   3  -3   11.07    2.06
  -2   3  -3    8.25    1.82
  -2   3  -3    7.53    3.06
  -2   3  -3   16.27    3.94
  -2   3  -3    7.19    1.84
  -2   3  -3   10.93    1.90
  -2   3  -2  317.06   17.25
  -2   3  -2  325.62   17.43
  -2   3  -2  357.11   17.94
  -2   3  -2  317.86   17.29
  -2   3  -2  319.69   17.62
  -2   3  -2  314.64   17.49
  -2   3  -2  338.97   22.08
  -2   3  -2  312.66   21.01
  -2   3  -2  299.23   17.59
  -2   3  -2  310.95   17.42
  -2   3  -1  167.65   10.20
  -2   3  -1  144.04    9.60
  -2   3  -1  184.67   10.15
  -2   3  -1  186.38   10.64
  -2   3  -1  171.42   10.17
  -2   3  -1  168.57   10.42
  -2   3  -1  166.27   10.11
  -2   3  -1  145.61   13.40
  -2   3  -1  153.84   13.27
  -2   3  -1  152.47   10.27
  -2   3  -1  170.87   10.30
  -2   3   0   23.81    2.68
  -2   3   0   27.78    3.35
  -2   3   0   25.67    3.26
  -2   3   0   25.14    2.86
  -2   3   0   28.56    5.40
  -2   3   0   22.74    2.65
  -2   3   0   23.26    3.08
  -2   3   0   28.86    3.27
  -2   3   1   74.28    5.62
  -2   3   1   69.81    5.33
  -2   3   1   77.19    8.48
  -2   3   1   52.24    5.16
  -2   3   1   63.71    5.43
  -2   3   1   57.16    7.99
  -2   3   1   61.49    4.90
  -2   3   1   64.65    4.82
  -2   3   1   69.43    5.18
  -2   3   1   64.34    5.27
  -2   3   2  171.16    9.97
  -2   3   2  172.11   10.27
  -2   3   2  169.21   10.63
  -2   3   2  182.78   14.37
  -2   3   2  178.75   10.63
  -2   3   3  100.13    7.04
  -2   3   3  110.91    7.38
  -2   3   3   95.41    6.70
  -2   3   3  113.53    7.47
  -2   3   3  100.32    7.11
  -2   3   3  104.20   10.25
  -2   3   3   96.25    7.20
  -2   3   3   93.73    6.42
  -2   3   3  111.14    6.98
  -2   3   4 1186.10   59.30
  -2   3   4 1266.12   59.59
  -2   3   4 1212.74   59.57
  -2   3   4 1228.86   59.76
  -2   3   4 1256.45   60.04
  -2   3   4 1239.51   60.18
  -2   3   4 1221.43   59.87
  -2   3   4 1250.19   59.58
  -2   3   4 1238.83   60.31
  -2   3   4 1264.72   65.69
  -2   3   4 1315.76   65.21
  -2   3   4 1197.81   60.26
  -2   3   4 1220.94   60.06
  -2   3   5  419.23   25.23
  -2   3   5  378.79   20.84
  -2   3   5  405.46   20.39
  -2   3   5  378.92   20.33
  -2   3   5  388.98   20.20
  -2   3   5  397.41   20.72
  -2   3   5  393.76   20.45
  -2   3   5  371.94   20.75
  -2   3   5  410.69   21.09
  -2   3   5  375.04   20.56
  -2   3   5  396.55   25.62
  -2   3   5  392.24   20.71
  -2   3   5  422.47   21.03
  -2   3   5  370.33   20.61
  -2   3   6  138.46    9.22
  -2   3   6  149.64    9.44
  -2   3   6  159.45    9.29
  -2   3   6  139.56    9.46
  -2   3   6  157.50    9.58
  -2   3   6  147.88    8.99
  -2   3   6  137.19    8.73
  -2   3   6  169.60   13.71
  -2   3   6  167.03   13.08
  -2   3   6  144.25    9.38
  -2   3   6  169.47    9.61
  -2   3   6  137.21    9.09
  -2   3   7    4.38    1.38
  -2   3   7    3.79    1.22
  -2   3   7    7.55    1.52
  -2   3   7    5.40    1.65
  -2   3   7    4.81    1.50
  -2   3   7    6.89    1.86
  -2   3   7    4.29    1.61
  -2   3   7    4.14    2.43
  -2   3   7    7.74    3.21
  -2   3   7    5.91    1.44
  -2   3   7    3.48    1.35
  -2   3   8  783.70   42.24
  -2   3   8  862.73   41.83
  -2   3   8  898.54   42.34
  -2   3   8  831.08   42.07
  -2   3   8  915.16   42.52
  -2   3   8  803.66   46.66
  -2   3   8  834.90   41.82
  -2   3   8  815.87   41.69
  -2   3   8  853.68   42.20
  -2   3   8  856.49   46.14
  -2   3   9  212.67   11.81
  -2   3   9  187.91   11.60
  -2   3   9  179.82   11.06
  -2   3   9  198.23   11.57
  -2   3   9  159.67   14.14
  -2   3   9  181.20   11.56
  -2   3   9  185.49   11.04
  -2   3   9  170.92   10.96
  -2   3   9  174.13   13.98
  -2   3  10    9.38    2.10
  -2   3  10    7.72    1.68
  -2   3  10   10.86    2.32
  -2   3  10   10.05    2.24
  -2   3  10    8.90    2.01
  -2   3  10    4.42    1.38
  -2   3  11   27.91    3.59
  -2   3  11   30.85    3.41
  -2   3  11   33.30    4.08
  -2   3  11   38.32    4.33
  -2   3  11   34.21    3.85
  -2   3  12   63.58    5.32
  -2   3  12   64.10    5.69
  -2   3  12   73.57    5.89
  -2   3  12   59.46    5.93
  -2   3  13  159.58   10.41
  -2   3  13  190.70   11.46
  -2   3  13  179.08   11.13
  -2   3  13  188.13   11.07
  -2   3  13  148.09   11.32
  -2   3  14   14.93    2.38
  -2   3  14    8.08    2.23
  -2   3  14    9.19    1.74
  -2   3  14   11.70    2.24
  -2   3  14    6.15    2.23
  -2   3  14   13.72    2.59
  -2   3  15   24.66    3.55
  -2   3  15   24.98    3.09
  -2   3  15   21.29    2.73
  -2   3  15   26.83    3.46
  -2   3  16  428.01   23.16
  -2   3  16  427.81   22.41
  -2   3  16  433.16   23.01
  -2   3  17   66.98    5.51
  -2   3  17   68.92    5.10
  -2   3  17   75.15    5.73
  -2   3  18   28.82    2.65
  -2   3  18   25.99    2.93
  -2   3  19  262.87   14.05
  -2   3  20  101.06    5.93
  -2   4 -16   -0.19    0.40
  -2   4 -15    0.92    0.67
  -2   4 -15    0.27    0.53
  -2   4 -14   52.68    4.17
  -2   4 -14   52.26    4.06
  -2   4 -13  322.91   18.01
  -2   4 -13  347.79   17.97
  -2   4 -12    0.46    0.93
  -2   4 -12   -0.27    0.99
  -2   4 -12    1.80    1.24
  -2   4 -11   63.45    5.48
  -2   4 -11   61.56    5.66
  -2   4 -11   64.46    5.17
  -2   4 -10    4.40    1.45
  -2   4 -10    3.74    1.53
  -2   4 -10    1.89    1.48
  -2   4  -9  221.13   13.76
  -2   4  -9  215.35   14.04
  -2   4  -9  238.23   13.44
  -2   4  -8    6.20    1.80
  -2   4  -8    4.18    1.57
  -2   4  -8    4.69    1.76
  -2   4  -7   20.63    3.05
  -2   4  -7   21.86    3.28
  -2   4  -7   23.01    2.79
  -2   4  -7   21.63    2.63
  -2   4  -7   24.37    3.38
  -2   4  -6   13.76    2.18
  -2   4  -6   12.64    3.51
  -2   4  -6   14.34    2.55
  -2   4  -6    8.84    1.92
  -2   4  -6   11.17    2.09
  -2   4  -6   10.42    2.22
  -2   4  -5   47.07    7.28
  -2   4  -5   51.40    7.00
  -2   4  -5   49.99    4.98
  -2   4  -5   55.86    5.03
  -2   4  -5   55.47    4.79
  -2   4  -5   47.06    4.42
  -2   4  -5   50.20    4.72
  -2   4  -5   55.39    4.99
  -2   4  -4  144.76   10.10
  -2   4  -4  138.85    9.84
  -2   4  -4  152.40   13.36
  -2   4  -4  127.92   13.22
  -2   4  -4  161.13   10.15
  -2   4  -4  148.72    9.97
  -2   4  -4  161.93    9.71
  -2   4  -4  151.71    9.76
  -2   4  -4  164.01    9.99
  -2   4  -4  146.19    9.62
  -2   4  -3  133.78    8.71
  -2   4  -3  133.60    8.63
  -2   4  -3  119.63    8.78
  -2   4  -3  127.56    9.09
  -2   4  -3  119.72   11.93
  -2   4  -3  104.76   11.90
  -2   4  -3  130.51    8.80
  -2   4  -3  131.57    9.03
  -2   4  -3  135.70    8.88
  -2   4  -3  130.12    8.64
  -2   4  -3  124.32    8.81
  -2   4  -2    3.82    1.39
  -2   4  -2    0.87    1.10
  -2   4  -2    3.55    1.32
  -2   4  -2    4.10    1.63
  -2   4  -2    0.63    0.93
  -2   4  -2    4.39    2.57
  -2   4  -2    0.99    2.16
  -2   4  -2    1.20    0.98
  -2   4  -2    3.75    1.79
  -2   4  -2    3.88    1.85
  -2   4  -2    3.50    1.39
  -2   4  -1   76.87    5.81
  -2   4  -1   72.11    5.65
  -2   4  -1   71.46    5.75
  -2   4  -1   77.37    6.31
  -2   4  -1   56.71    8.67
  -2   4  -1   64.71    5.54
  -2   4  -1   57.07    5.81
  -2   4  -1   72.04    6.31
  -2   4  -1   78.31    9.32
  -2   4  -1   71.60    6.13
  -2   4  -1   70.26    5.79
  -2   4   0   75.84    6.20
  -2   4   0   91.65    7.26
  -2   4   0   91.67   11.09
  -2   4   0   81.88    6.37
  -2   4   0   87.96    7.20
  -2   4   0   82.07    7.10
  -2   4   0   99.48    6.55
  -2   4   0   89.50    6.50
  -2   4   1  765.85   44.38
  -2   4   1  955.32   43.63
  -2   4   1  922.58   43.31
  -2   4   1  878.05   43.19
  -2   4   1  856.32   42.88
  -2   4   1  750.61   49.71
  -2   4   1  925.68   43.52
  -2   4   1  813.05   44.25
  -2   4   1  841.66   44.10
  -2   4   1  888.42   44.48
  -2   4   2    3.91    2.87
  -2   4   2    6.29    1.61
  -2   4   2    7.46    1.57
  -2   4   2    5.17    2.01
  -2   4   2    9.01    1.83
  -2   4   2    4.80    1.65
  -2   4   2    6.88    2.02
  -2   4   3   -0.55    0.85
  -2   4   3    1.09    0.93
  -2   4   3    2.85    1.26
  -2   4   3    1.94    2.99
  -2   4   3    1.02    1.28
  -2   4   3    1.80    1.44
  -2   4   3    0.33    1.42
  -2   4   3    0.26    1.10
  -2   4   3   -2.11    1.64
  -2   4   4  352.27   18.52
  -2   4   4  371.90   18.84
  -2   4   4  297.93   18.45
  -2   4   4  367.27   19.52
  -2   4   4  340.29   18.72
  -2   4   4  313.52   24.64
  -2   4   4  337.49   19.54
  -2   4   4  333.08   19.64
  -2   4   4  342.53   24.34
  -2   4   4  334.55   19.18
  -2   4   4  375.76   19.34
  -2   4   5  121.42    9.21
  -2   4   5  144.26   13.32
  -2   4   5  136.06    8.69
  -2   4   5  136.86    8.48
  -2   4   5  124.30    8.75
  -2   4   5  128.60    8.86
  -2   4   5  116.29   13.08
  -2   4   5  126.67    8.53
  -2   4   5  134.86    9.47
  -2   4   5  153.74    9.43
  -2   4   5  141.43    9.10
  -2   4   5  126.32    8.98
  -2   4   6  284.15   17.11
  -2   4   6  307.35   21.80
  -2   4   6  325.78   16.68
  -2   4   6  300.75   16.28
  -2   4   6  286.59   16.72
  -2   4   6  308.20   17.05
  -2   4   6  248.16   21.36
  -2   4   6  298.21   16.67
  -2   4   6  272.63   16.96
  -2   4   6  301.68   16.96
  -2   4   6  312.33   16.97
  -2   4   6  296.61   16.74
  -2   4   7  412.85   20.38
  -2   4   7  356.71   19.80
  -2   4   7  366.09   20.45
  -2   4   7  374.68   20.73
  -2   4   7  324.11   25.24
  -2   4   7  369.35   20.49
  -2   4   7  361.76   20.62
  -2   4   7  372.07   25.12
  -2   4   7  391.94   20.46
  -2   4   7  384.30   20.28
  -2   4   8  225.49   12.86
  -2   4   8  212.30   13.05
  -2   4   8  221.56   13.38
  -2   4   8  191.72   17.12
  -2   4   8  218.03   13.35
  -2   4   8  221.95   12.72
  -2   4   8  222.20   12.88
  -2   4   8  206.30   13.01
  -2   4   8  208.28   16.65
  -2   4   9   40.24    4.42
  -2   4   9   39.47    3.91
  -2   4   9   40.33    3.89
  -2   4   9   37.01    4.16
  -2   4  10    7.54    1.80
  -2   4  10    6.27    1.90
  -2   4  10    2.12    1.80
  -2   4  11   73.83    6.40
  -2   4  11   76.24    6.21
  -2   4  11   65.79    5.71
  -2   4  11   87.71    6.48
  -2   4  12   62.66    5.21
  -2   4  12   66.45    5.62
  -2   4  12   64.24    5.76
  -2   4  13  241.29   13.26
  -2   4  13  246.06   13.61
  -2   4  14   58.31    4.98
  -2   4  14   64.80    5.40
  -2   4  15   34.03    3.43
  -2   4  16  103.81    6.71
  -2   4  17    2.15    0.93
  -2   4  17    6.00    1.43
  -2   4  18   85.29    5.21
  -2   4  18  105.50    5.95
  -2   4  19   95.14    5.48
  -2   5 -13   15.29    1.35
  -2   5 -12   42.95    2.79
  -2   5 -12   27.54    2.31
  -2   5 -11   27.93    2.56
  -2   5 -11   27.91    2.47
  -2   5 -10  335.52   16.15
  -2   5 -10  275.47   15.69
  -2   5  -9   13.52    2.01
  -2   5  -9   10.13    1.77
  -2   5  -9    8.60    1.65
  -2   5  -8    0.25    0.98
  -2   5  -8   -0.46    1.04
  -2   5  -8    1.19    0.98
  -2   5  -7    9.49    1.93
  -2   5  -7   11.23    1.94
  -2   5  -6  170.41   10.54
  -2   5  -6  166.41   10.24
  -2   5  -6  181.89   10.24
  -2   5  -6  187.05   10.85
  -2   5  -5   19.33    2.65
  -2   5  -5   13.43    2.18
  -2   5  -5   14.83    2.17
  -2   5  -5   14.45    2.23
  -2   5  -5   20.40    2.81
  -2   5  -4   34.93    3.58
  -2   5  -4   28.95    3.06
  -2   5  -4   26.42    3.21
  -2   5  -4   26.10    3.05
  -2   5  -4   21.46    3.11
  -2   5  -3    3.01    1.34
  -2   5  -3    2.60    1.07
  -2   5  -3    2.68    1.41
  -2   5  -3    4.32    1.57
  -2   5  -3    3.43    1.43
  -2   5  -2   80.54    6.12
  -2   5  -2   84.07    6.80
  -2   5  -2   98.17    6.85
  -2   5  -2   85.71    6.68
  -2   5  -2  105.86    6.83
  -2   5  -1    8.17    2.07
  -2   5  -1   11.57    2.07
  -2   5  -1    6.07    1.79
  -2   5  -1    7.17    1.76
  -2   5   0  202.68   11.69
  -2   5   0  185.13   11.40
  -2   5   1    4.97    1.41
  -2   5   1    2.76    1.41
  -2   5   2  110.76    7.62
  -2   5   2  102.16    7.61
  -2   5   2   79.23    6.02
  -2   5   2  101.19    6.80
  -2   5   2   85.49    6.18
  -2   5   3    0.70    1.45
  -2   5   3    0.33    1.42
  -2   5   3    1.34    1.20
  -2   5   3    2.15    1.21
  -2   5   4  628.09   30.99
  -2   5   4  550.86   30.60
  -2   5   4  636.65   31.79
  -2   5   4  633.16   31.65
  -2   5   5  361.53   19.25
  -2   5   5  352.17   19.36
  -2   5   5  365.92   19.92
  -2   5   5  355.53   19.72
  -2   5   6  254.66   14.07
  -2   5   6  253.01   14.54
  -2   5   6  248.29   14.38
  -2   5   6  242.41   14.35
  -2   5   7   45.78    4.06
  -2   5   7   32.96    3.37
  -2   5   7   35.15    3.87
  -2   5   7   34.58    3.76
  -2   5   7   36.30    3.72
  -2   5   8    8.16    1.78
  -2   5   8    6.36    1.66
  -2   5   8    6.25    1.79
  -2   5   8    6.03    1.62
  -2   5   8    7.30    1.64
  -2   5   9  235.90   12.57
  -2   5   9  195.04   11.92
  -2   5   9  217.45   12.01
  -2   5   9  219.70   12.71
  -2   5   9  191.39   12.12
  -2   5  10   62.32    5.03
  -2   5  10   62.70    4.60
  -2   5  10   71.84    5.52
  -2   5  10   54.66    4.95
  -2   5  11  132.67    8.11
  -2   5  11  122.86    8.28
  -2   5  12   23.89    2.85
  -2   5  13   12.54    1.88
  -2   5  13    8.41    1.69
  -2   5  14    8.28    1.47
  -2   5  14    8.07    1.51
  -2   5  15   55.78    3.87
  -2   5  15   52.35    3.87
  -2   5  16   37.05    2.66
  -2   5  16   36.98    2.73
  -2   6  -8    4.88    0.73
  -2   6  -7    1.50    0.58
  -2   6  -6   32.42    2.66
  -2   6  -5   37.45    3.04
  -2   6  -4    0.65    0.69
  -2   6  -3  143.71    8.59
  -2   6  -3  164.02    8.85
  -2   6  -2   75.64    5.11
  -2   6  -2   71.10    4.94
  -2   6  -1    1.39    1.10
  -2   6  -1   -0.17    0.92
  -2   6   0  212.33   11.50
  -2   6   0  190.18   10.95
  -2   6   1  322.25   16.77
  -2   6   2  236.75   13.09
  -2   6   2  233.81   12.92
  -2   6   2  216.24   12.21
  -2   6   3   18.89    2.52
  -2   6   3   15.06    2.43
  -2   6   3   18.26    2.14
  -2   6   4   43.83    3.96
  -2   6   5  122.76    7.68
  -2   6   6   49.83    3.99
  -2   6   7   47.73    3.73
  -2   6   7   53.94    3.91
  -2   6   8  103.46    6.35
  -2   6   9   24.94    2.38
  -2   6  10    0.83    0.74
  -2   6  11    8.30    1.21
  -2   6  12   30.96    2.27
  -1  -4  -8   76.89   10.38
  -1  -4  -7  183.43   16.70
  -1  -4  -6  349.00   25.23
  -1  -4  -5  251.80   19.67
  -1  -4  -4   18.51    4.42
  -1  -4  -3    5.37    2.49
  -1  -4  -2   15.17    3.69
  -1  -4   4 1885.76   97.21
  -1  -4   5  134.63   13.60
  -1  -4   6    1.09    2.59
  -1  -4   7   -1.16    1.96
  -1  -4   8  447.05   31.67
  -1  -4   9    5.12    3.53
  -1  -4  10   59.89    9.81
  -1  -3 -15    6.81    3.68
  -1  -3 -14  314.98   24.17
  -1  -3 -13    4.13    2.85
  -1  -3 -12   33.39    6.22
  -1  -3 -11  211.04   17.00
  -1  -3 -10   63.17    8.00
  -1  -3  -9   60.70    7.38
  -1  -3  -8   28.17    4.71
  -1  -3  -7    3.06    1.93
  -1  -3  -6  205.01   13.84
  -1  -3  -4    2.61    2.02
  -1  -3  -3  690.14   38.25
  -1  -3  -2  180.74   13.52
  -1  -3  -1   52.31    6.38
  -1  -3   0    1.59    1.63
  -1  -3   1   50.33    5.82
  -1  -3   2  231.14   15.00
  -1  -3   3  367.39   21.43
  -1  -3   4  431.99   24.57
  -1  -3   5  487.73   27.54
  -1  -3   6  278.21   18.12
  -1  -3   7 1410.43   71.15
  -1  -3   7 1273.23   67.59
  -1  -3   8   51.74    8.06
  -1  -3   9 1073.65   60.00
  -1  -3   9 1060.44   51.96
  -1  -3  10  163.28   16.22
  -1  -3  10  162.76   10.14
  -1  -3  11  116.68   13.59
  -1  -3  11  106.50    7.64
  -1  -3  12   29.64    6.91
  -1  -3  12   30.58    3.52
  -1  -3  13   94.00   12.19
  -1  -3  13   89.21    6.83
  -1  -3  14   14.96    2.59
  -1  -3  15  313.92   17.40
  -1  -3  16   37.95    3.75
  -1  -3  17   60.72    4.76
  -1  -3  18   12.59    1.89
  -1  -2 -21   62.86    4.64
  -1  -2 -20    1.94    1.21
  -1  -2 -19   30.98    3.53
  -1  -2 -18   98.64    7.35
  -1  -2 -17   35.32    4.08
  -1  -2 -16  559.75   29.35
  -1  -2 -16  555.29   37.01
  -1  -2 -15  519.12   27.42
  -1  -2 -15  517.77   34.53
  -1  -2 -14  620.14   32.10
  -1  -2 -14  628.05   38.89
  -1  -2 -13    1.72    1.25
  -1  -2 -13    0.98    1.91
  -1  -2 -12    1.06    1.00
  -1  -2 -12   -0.89    2.12
  -1  -2 -11 1177.62   62.68
  -1  -2 -10  599.73   34.74
  -1  -2  -9 1079.21   56.54
  -1  -2  -8 1664.62   83.12
  -1  -2  -7   18.25    3.40
  -1  -2  -6  679.57   35.65
  -1  -2  -5  435.30   23.61
  -1  -2  -4  111.89    7.79
  -1  -2  -3   19.00    2.57
  -1  -2  -2   28.29    3.84
  -1  -2  -2   12.43    2.09
  -1  -2  -1  179.80   12.06
  -1  -2   0  341.82   19.89
  -1  -2   1  753.20   38.48
  -1  -2   1  860.46   40.99
  -1  -2   2  749.27   39.13
  -1  -2   2  884.05   41.30
  -1  -2   3   22.14    2.86
  -1  -2   3   22.06    3.36
  -1  -2   4 3918.36  185.73
  -1  -2   4 3882.16  187.09
  -1  -2   4 4104.09  188.14
  -1  -2   5   18.17    2.95
  -1  -2   5   13.78    2.25
  -1  -2   5   12.86    2.76
  -1  -2   6   67.10    6.42
  -1  -2   6   55.19    5.16
  -1  -2   6   64.25    6.64
  -1  -2   7    1.01    0.90
  -1  -2   7   -0.35    1.19
  -1  -2   7    0.55    1.19
  -1  -2   7    1.95    2.29
  -1  -2   8  265.88   18.88
  -1  -2   8  255.83   14.29
  -1  -2   8  280.36   16.47
  -1  -2   9    9.52    1.75
  -1  -2   9    9.02    2.40
  -1  -2  10  152.08    9.37
  -1  -2  11   62.79    5.13
  -1  -2  11   53.34    7.70
  -1  -2  12  380.67   27.85
  -1  -2  12  435.66   21.60
  -1  -2  13    3.53    2.81
  -1  -2  13    1.22    1.30
  -1  -2  13    0.98    2.35
  -1  -2  14   36.82    7.34
  -1  -2  14   41.68    4.21
  -1  -2  15  137.42   14.81
  -1  -2  15  150.96    9.42
  -1  -2  16   36.93    4.10
  -1  -2  17  147.38    9.74
  -1  -2  18  361.09   18.73
  -1  -2  18  323.10   18.15
  -1  -2  19  149.22    8.67
  -1  -2  19  146.51    8.51
  -1  -2  20   21.01    2.40
  -1  -2  20   19.57    2.21
  -1  -1 -22    6.36    1.46
  -1  -1 -21   84.71    6.28
  -1  -1 -20   36.15    3.98
  -1  -1 -19    8.77    2.19
  -1  -1 -18   95.72    7.63
  -1  -1 -17  505.98   27.20
  -1  -1 -16    9.35    2.39
  -1  -1 -15  139.89    9.71
  -1  -1 -15  138.53   14.24
  -1  -1 -14   21.06    3.12
  -1  -1 -14   31.31    6.08
  -1  -1 -13  668.47   34.32
  -1  -1 -13  682.83   40.06
  -1  -1 -12  112.25    7.87
  -1  -1 -12  132.03   12.16
  -1  -1 -11  477.04   29.27
  -1  -1 -10   34.23    5.39
  -1  -1  -9   67.54    7.54
  -1  -1  -8   19.68    3.95
  -1  -1  -7 1607.28   79.48
  -1  -1  -6 1196.48   59.64
  -1  -1  -5  341.88   18.96
  -1  -1  -4 4350.50  205.31
  -1  -1  -3 9999.00  468.03
  -1  -1  -2 2641.57  125.01
  -1  -1  -1   16.00    2.08
  -1  -1   0   59.54    4.38
  -1  -1   1 1488.27   70.75
  -1  -1   1 1434.19   69.70
  -1  -1   2  975.02   47.36
  -1  -1   2  939.92   46.56
  -1  -1   3   30.80    3.57
  -1  -1   3   36.28    3.54
  -1  -1   4  881.48   43.82
  -1  -1   4  880.36   44.23
  -1  -1   5  797.29   38.63
  -1  -1   5  741.06   39.66
  -1  -1   6  536.49   28.63
  -1  -1   6  576.04   30.12
  -1  -1   7  388.63   21.98
  -1  -1   7  369.26   21.95
  -1  -1   7  361.05   20.74
  -1  -1   8  135.22   11.26
  -1  -1   8  149.53    8.73
  -1  -1   8  169.00   11.04
  -1  -1   9  683.22   33.37
  -1  -1   9  720.81   36.37
  -1  -1  10  281.89   14.91
  -1  -1  10  245.82   18.37
  -1  -1  11   33.89    3.42
  -1  -1  11   23.97    5.19
  -1  -1  12    2.04    1.34
  -1  -1  12    0.89    1.94
  -1  -1  13    1.94    1.24
  -1  -1  13    0.97    2.50
  -1  -1  14    1.04    1.43
  -1  -1  14   -0.30    1.37
  -1  -1  14    0.97    2.12
  -1  -1  15  473.72   32.74
  -1  -1  15  535.73   26.68
  -1  -1  15  425.49   31.56
  -1  -1  16  191.74   17.26
  -1  -1  16  198.29   11.85
  -1  -1  17  256.72   14.02
  -1  -1  17  203.65   12.98
  -1  -1  18   52.34    4.63
  -1  -1  18   60.71    5.25
  -1  -1  19    8.88    2.09
  -1  -1  19   11.55    2.04
  -1  -1  20    7.62    1.74
  -1  -1  20    9.49    1.68
  -1  -1  21  110.55    7.05
  -1   0 -23    1.03    0.70
  -1   0 -22  318.63   16.89
  -1   0 -21   59.87    5.08
  -1   0 -20  149.43    9.87
  -1   0 -19   33.38    4.04
  -1   0 -18    8.42    2.29
  -1   0 -17   30.88    4.01
  -1   0 -17   26.09    6.16
  -1   0 -16  775.87   38.43
  -1   0 -16  652.16   44.26
  -1   0 -15  165.56   11.02
  -1   0 -15  176.68   16.18
  -1   0 -14  346.79   19.10
  -1   0 -14  319.89   24.11
  -1   0 -13    2.15    1.28
  -1   0 -13    4.61    2.38
  -1   0 -12    1.99    1.18
  -1   0 -12    2.54    2.18
  -1   0 -11   38.03    6.21
  -1   0 -10  640.55   36.58
  -1   0  -7 1188.83   55.94
  -1   0  -7 1159.83   56.10
  -1   0  -6  106.58    6.16
  -1   0  -6   90.91    5.91
  -1   0  -5  799.41   39.05
  -1   0  -4  502.72   25.29
  -1   0  -1  234.35   12.61
  -1   0   0  539.09   27.05
  -1   0   0  547.10   27.14
  -1   0   1 5916.93  281.77
  -1   0   1 6110.29  281.88
  -1   0   2  691.17   34.24
  -1   0   3  175.10   10.25
  -1   0   4 3189.59  151.05
  -1   0   4 3217.51  151.68
  -1   0   5  671.50   33.35
  -1   0   5  628.12   31.65
  -1   0   6  263.59   14.23
  -1   0   6  294.33   15.73
  -1   0   6  268.51   16.34
  -1   0   7    3.32    1.05
  -1   0   7    4.28    0.97
  -1   0   7    4.16    1.73
  -1   0   8  152.44    8.53
  -1   0   8  187.23   11.51
  -1   0   9  637.08   33.99
  -1   0   9  622.58   30.85
  -1   0  10   22.10    4.09
  -1   0  10   22.31    2.49
  -1   0  11  863.48   48.74
  -1   0  11  940.07   45.03
  -1   0  12  229.92   17.19
  -1   0  12  244.66   13.47
  -1   0  13    0.79    1.72
  -1   0  13    0.25    1.02
  -1   0  14   -0.86    2.06
  -1   0  15  205.26   11.34
  -1   0  15  156.16   14.82
  -1   0  15  191.08   11.10
  -1   0  15  144.07   10.07
  -1   0  16  359.69   18.69
  -1   0  16  277.03   22.66
  -1   0  16  300.79   17.64
  -1   0  16  370.61   18.84
  -1   0  17   10.77    1.89
  -1   0  17   16.28    2.82
  -1   0  17   18.10    2.81
  -1   0  18  476.41   23.06
  -1   0  18  434.57   22.48
  -1   0  19  211.79   12.06
  -1   0  19  178.48   11.38
  -1   0  20    1.32    1.18
  -1   0  20   -0.22    0.82
  -1   0  21  100.22    6.71
  -1   1 -22    1.26    0.63
  -1   1 -22    1.19    0.77
  -1   1 -21  130.21    8.16
  -1   1 -20   15.79    2.62
  -1   1 -19   71.33    5.98
  -1   1 -18    4.11    2.01
  -1   1 -17  914.05   46.22
  -1   1 -16    3.10    2.47
  -1   1 -16    6.48    2.06
  -1   1 -15    2.04    2.22
  -1   1 -15    4.23    1.66
  -1   1 -14   -0.98    1.66
  -1   1 -14    2.04    1.32
  -1   1 -13  185.88   16.00
  -1   1 -13  179.15   11.48
  -1   1 -12  185.29   15.69
  -1   1 -12  170.80   10.61
  -1   1 -12  193.26   11.51
  -1   1 -11   11.78    3.61
  -1   1 -11   11.99    2.22
  -1   1 -10   26.76    5.04
  -1   1  -9  174.11   13.86
  -1   1  -8   95.78    8.78
  -1   1  -8   82.31    5.40
  -1   1  -7  753.28   38.38
  -1   1  -7  771.20   38.23
  -1   1  -6   18.83    2.44
  -1   1  -6   20.01    3.49
  -1   1  -6   22.96    2.51
  -1   1  -5  629.20   31.28
  -1   1  -5  637.36   32.62
  -1   1  -5  605.31   31.01
  -1   1  -4    2.42    1.53
  -1   1  -4    0.24    0.94
  -1   1  -4    2.97    1.21
  -1   1  -4    1.39    1.04
  -1   1  -3 3634.71  165.34
  -1   1  -3 3520.83  164.93
  -1   1  -3 3389.78  164.56
  -1   1  -3 3436.71  164.82
  -1   1  -2 2340.21  109.50
  -1   1  -2 2348.23  109.78
  -1   1  -2 2396.75  109.86
  -1   1  -2 2263.35  107.69
  -1   1  -1 1469.87   71.05
  -1   1  -1 1470.00   71.08
  -1   1   0    2.55    1.61
  -1   1   0    4.93    1.56
  -1   1   0    5.85    0.91
  -1   1   1   10.56    1.85
  -1   1   2    2.09    1.06
  -1   1   3   85.64    5.97
  -1   1   3   75.83    6.01
  -1   1   3   84.42    6.06
  -1   1   4  940.29   44.59
  -1   1   4  941.49   44.51
  -1   1   4 1021.02   44.76
  -1   1   4  979.73   44.44
  -1   1   4  843.64   42.30
  -1   1   5   93.00    6.61
  -1   1   5   92.55    6.18
  -1   1   5   88.28    6.28
  -1   1   5   78.22    5.14
  -1   1   6  820.64   40.75
  -1   1   6  779.02   40.19
  -1   1   6  847.57   41.06
  -1   1   6  892.60   42.08
  -1   1   7    8.98    1.80
  -1   1   7    8.90    2.37
  -1   1   7   10.28    1.76
  -1   1   7    6.76    1.66
  -1   1   8 1319.35   68.52
  -1   1   8 1470.29   70.16
  -1   1   8 1559.71   68.80
  -1   1   8 1496.30   69.38
  -1   1   8 1381.27   68.97
  -1   1   9    8.18    1.54
  -1   1   9    7.45    2.08
  -1   1   9   10.13    1.66
  -1   1   9    4.55    1.31
  -1   1   9    6.36    1.48
  -1   1  10  274.33   15.79
  -1   1  10  280.82   17.72
  -1   1  10  329.94   16.00
  -1   1  10  291.03   15.85
  -1   1  11   85.07    6.06
  -1   1  11   81.13    7.61
  -1   1  11   80.45    5.98
  -1   1  11   83.57    5.88
  -1   1  12   83.38    6.48
  -1   1  12   96.30   10.17
  -1   1  12   87.75    8.44
  -1   1  12   98.72    6.76
  -1   1  12   93.90    6.73
  -1   1  12  101.67    6.69
  -1   1  13   79.59    5.89
  -1   1  13   74.06    5.86
  -1   1  13   62.72    7.26
  -1   1  13   79.92    5.93
  -1   1  13   75.77    5.86
  -1   1  13   73.04    5.69
  -1   1  13   58.12    8.16
  -1   1  14  151.05    9.68
  -1   1  14  146.19    9.48
  -1   1  14  160.43    9.89
  -1   1  14  161.05    9.81
  -1   1  15  216.34   13.04
  -1   1  15  215.27   18.22
  -1   1  15  211.76   12.81
  -1   1  15  213.42   13.12
  -1   1  15  255.34   13.50
  -1   1  16  583.93   30.66
  -1   1  16  587.98   37.42
  -1   1  16  596.34   30.46
  -1   1  16  618.93   31.05
  -1   1  17   45.26    4.38
  -1   1  17   39.00    3.97
  -1   1  17   34.73    3.80
  -1   1  17   34.22    3.56
  -1   1  17   42.74    7.39
  -1   1  18  240.31   14.31
  -1   1  18  276.85   14.94
  -1   1  18  250.87   14.23
  -1   1  18  247.49   14.01
  -1   1  19   39.14    3.35
  -1   1  19   44.68    4.12
  -1   1  20   98.41    6.94
  -1   1  21   15.72    2.16
  -1   2 -21   28.49    2.31
  -1   2 -20   58.33    4.31
  -1   2 -19    6.17    1.54
  -1   2 -18    1.35    1.15
  -1   2 -17   -0.60    1.39
  -1   2 -16   29.23    3.56
  -1   2 -15   24.36    3.28
  -1   2 -14  531.38   28.08
  -1   2 -13   95.11    7.01
  -1   2 -13   92.19    7.25
  -1   2 -12   43.96    6.92
  -1   2 -12   53.00    4.47
  -1   2 -12   54.44    4.83
  -1   2 -12   52.64    5.01
  -1   2 -11  138.85   13.76
  -1   2 -11  178.17   10.24
  -1   2 -11  171.33   10.50
  -1   2 -11  161.97   10.69
  -1   2 -10  380.03   27.08
  -1   2 -10  461.57   22.82
  -1   2 -10  472.77   23.27
  -1   2 -10  403.07   23.18
  -1   2  -9   28.70    3.12
  -1   2  -9   18.07    4.06
  -1   2  -8  230.65   13.63
  -1   2  -8  224.79   16.07
  -1   2  -7   70.71    5.83
  -1   2  -7   62.05    5.92
  -1   2  -7   66.65    6.95
  -1   2  -6   73.71    6.09
  -1   2  -6   66.48    6.17
  -1   2  -5   19.90    2.98
  -1   2  -5   20.53    3.18
  -1   2  -4 1723.70   82.58
  -1   2  -4 1637.42   82.90
  -1   2  -4 1724.26   82.92
  -1   2  -3  438.28   24.48
  -1   2  -3  446.58   24.12
  -1   2  -3  448.76   24.49
  -1   2  -2 2303.61  112.27
  -1   2  -2 2395.93  112.89
  -1   2  -2 2307.02  112.69
  -1   2  -1  175.40   11.44
  -1   2  -1  159.54   11.13
  -1   2   0 1478.33   73.81
  -1   2   0 1515.81   73.87
  -1   2   1  404.83   22.66
  -1   2   1  436.91   23.24
  -1   2   1  411.88   23.39
  -1   2   1  396.18   22.96
  -1   2   2  317.98   18.46
  -1   2   2  326.59   19.18
  -1   2   3  495.24   24.61
  -1   2   3  452.60   25.80
  -1   2   3  478.96   26.20
  -1   2   3  532.97   26.92
  -1   2   3  442.62   26.02
  -1   2   4  360.38   18.51
  -1   2   4  326.01   19.30
  -1   2   4  357.36   19.70
  -1   2   4  311.90   19.50
  -1   2   5   47.68    4.78
  -1   2   5   60.06    5.65
  -1   2   5   67.27    5.91
  -1   2   5   62.35    5.96
  -1   2   6   96.10    5.81
  -1   2   6   88.82    7.46
  -1   2   6   85.00    6.95
  -1   2   6   83.37    7.06
  -1   2   7 1111.78   55.06
  -1   2   7 1174.61   54.95
  -1   2   7 1128.64   57.26
  -1   2   7 1096.18   56.92
  -1   2   7 1197.11   57.08
  -1   2   8  185.18   11.26
  -1   2   8  228.38   11.37
  -1   2   8  189.96   12.97
  -1   2   8  184.23   13.25
  -1   2   8  209.32   12.79
  -1   2   9   11.76    2.49
  -1   2   9   12.38    2.40
  -1   2   9   16.66    3.33
  -1   2   9   12.10    1.79
  -1   2   9   14.23    2.19
  -1   2   9   14.62    2.04
  -1   2  10   20.01    3.98
  -1   2  10   13.68    2.06
  -1   2  10   12.10    2.11
  -1   2  10   15.12    2.18
  -1   2  11 1090.57   50.39
  -1   2  11  914.06   54.50
  -1   2  11  934.75   50.07
  -1   2  11 1162.25   50.97
  -1   2  11 1071.01   50.70
  -1   2  11  967.41   50.27
  -1   2  12   47.87    4.32
  -1   2  12   53.11    7.39
  -1   2  12   50.41    4.50
  -1   2  12   46.04    4.55
  -1   2  12   64.13    5.13
  -1   2  12   49.82    4.52
  -1   2  13   26.73    3.03
  -1   2  13   22.27    4.98
  -1   2  13   30.20    3.47
  -1   2  13   26.10    3.18
  -1   2  13   22.58    3.16
  -1   2  13   29.72    3.45
  -1   2  13   25.64    3.14
  -1   2  14   10.75    1.90
  -1   2  14    6.67    1.91
  -1   2  14   11.44    2.41
  -1   2  14    7.47    3.30
  -1   2  14    6.45    1.78
  -1   2  14    5.82    1.64
  -1   2  15  134.69    8.60
  -1   2  15  160.45    9.58
  -1   2  15  131.06    8.98
  -1   2  15  108.49   12.20
  -1   2  15  139.10    9.25
  -1   2  15  136.17    9.07
  -1   2  15  121.98    8.59
  -1   2  16   83.34    6.46
  -1   2  16   84.03    6.22
  -1   2  16   88.00    6.63
  -1   2  16  100.29    7.07
  -1   2  17    5.69    1.60
  -1   2  17    9.11    1.86
  -1   2  17   10.35    2.15
  -1   2  18    3.00    1.25
  -1   2  18    2.64    1.20
  -1   2  18    4.27    1.48
  -1   2  19  149.58    9.29
  -1   2  19  171.10    9.77
  -1   2  20   51.92    3.96
  -1   2  21  106.36    6.95
  -1   3 -19    1.70    0.79
  -1   3 -19    3.03    0.83
  -1   3 -14   86.05    5.96
  -1   3 -14   70.16    5.84
  -1   3 -13    1.47    1.07
  -1   3 -13   -0.66    1.12
  -1   3 -13   -0.27    1.07
  -1   3 -12   80.94    6.24
  -1   3 -12   79.03    6.56
  -1   3 -11   75.30    5.89
  -1   3 -11   70.62    6.05
  -1   3 -10  575.61   30.26
  -1   3 -10  607.60   30.78
  -1   3  -9    5.31    1.70
  -1   3  -9    1.36    1.13
  -1   3  -8  426.23   22.09
  -1   3  -8  396.43   22.11
  -1   3  -8  396.47   21.46
  -1   3  -7  274.32   14.54
  -1   3  -7  240.61   14.61
  -1   3  -7  244.78   16.42
  -1   3  -6  184.75   13.39
  -1   3  -6  187.33   13.83
  -1   3  -6  219.35   11.62
  -1   3  -6  170.11   10.76
  -1   3  -6  204.12   11.67
  -1   3  -5  883.37   41.41
  -1   3  -5  886.46   41.30
  -1   3  -5  792.62   44.13
  -1   3  -5  824.32   40.83
  -1   3  -5  868.56   44.01
  -1   3  -5  799.25   40.68
  -1   3  -5  767.49   41.17
  -1   3  -4    0.42    0.96
  -1   3  -4    2.07    1.43
  -1   3  -4    3.48    2.12
  -1   3  -4    1.77    1.52
  -1   3  -4    1.29    0.94
  -1   3  -3  869.93   43.13
  -1   3  -3  860.96   46.66
  -1   3  -3  871.35   43.20
  -1   3  -3  916.92   47.14
  -1   3  -3  910.08   46.36
  -1   3  -2  649.06   32.42
  -1   3  -2  626.12   35.80
  -1   3  -2  633.68   32.41
  -1   3  -2  689.58   36.50
  -1   3  -2  675.08   35.61
  -1   3  -1  423.50   22.20
  -1   3  -1  442.59   22.45
  -1   3  -1  478.44   27.04
  -1   3  -1  434.70   25.76
  -1   3  -1  400.12   22.20
  -1   3  -1  452.23   25.39
  -1   3  -1  446.97   26.08
  -1   3   0 1348.94   62.58
  -1   3   0 1335.05   66.52
  -1   3   0 1203.41   62.38
  -1   3   0 1369.04   66.93
  -1   3   1   24.97    2.86
  -1   3   1   25.74    2.90
  -1   3   1   26.31    4.26
  -1   3   1   29.43    4.84
  -1   3   1   22.68    4.64
  -1   3   1   22.52    2.80
  -1   3   1   25.17    2.91
  -1   3   1   25.86    4.58
  -1   3   2   78.05    5.72
  -1   3   2   91.12    9.01
  -1   3   2   70.17    7.47
  -1   3   2   80.82    5.68
  -1   3   3   98.85    6.82
  -1   3   3  100.88    6.83
  -1   3   3  112.19   10.07
  -1   3   3  104.09    6.93
  -1   3   3  114.72    9.53
  -1   3   3  104.66    9.43
  -1   3   4 1714.23   83.34
  -1   3   4 1814.01   87.67
  -1   3   4 1659.87   83.34
  -1   3   4 1868.75   87.17
  -1   3   4 1848.71   87.41
  -1   3   5   38.56    3.67
  -1   3   5   41.06    5.45
  -1   3   5   50.79    5.89
  -1   3   5   35.42    3.24
  -1   3   5   51.19    4.02
  -1   3   5   45.87    5.95
  -1   3   6  206.98   12.38
  -1   3   6  241.76   15.70
  -1   3   6  236.27   15.42
  -1   3   6  252.01   16.29
  -1   3   6  229.17   12.53
  -1   3   6  207.08   11.96
  -1   3   7   57.01    4.47
  -1   3   7   53.39    4.51
  -1   3   7   56.46    6.60
  -1   3   7   57.59    6.54
  -1   3   7   50.14    4.49
  -1   3   7   52.13    4.27
  -1   3   7   54.51    4.48
  -1   3   7   64.78    7.19
  -1   3   7   63.59    4.98
  -1   3   7   68.62    4.82
  -1   3   8 1085.38   52.58
  -1   3   8 1084.34   52.74
  -1   3   8 1063.33   56.66
  -1   3   8 1087.62   52.94
  -1   3   8 1095.25   53.13
  -1   3   8 1072.26   52.70
  -1   3   8 1089.97   53.12
  -1   3   8 1112.63   53.04
  -1   3   8 1171.18   56.36
  -1   3   8 1012.51   53.18
  -1   3   9   -0.26    0.77
  -1   3   9    0.27    1.00
  -1   3   9   -0.24    0.92
  -1   3   9    0.27    0.94
  -1   3   9    0.81    1.30
  -1   3   9   -0.53    1.36
  -1   3   9    0.43    0.79
  -1   3   9    0.66    0.80
  -1   3   9    1.18    1.18
  -1   3  10   31.19    3.65
  -1   3  10   34.79    3.38
  -1   3  10   30.31    3.55
  -1   3  10   33.18    3.61
  -1   3  10   30.97    3.49
  -1   3  10   27.43    3.32
  -1   3  11    0.62    1.35
  -1   3  11    0.98    1.38
  -1   3  11    0.24    0.82
  -1   3  11   -0.28    1.03
  -1   3  11    0.65    0.89
  -1   3  12   54.02    5.00
  -1   3  12   49.18    4.59
  -1   3  12   46.00    4.81
  -1   3  12   43.19    4.67
  -1   3  13   20.73    3.19
  -1   3  13   25.45    3.41
  -1   3  13   16.87    2.73
  -1   3  13   23.19    3.28
  -1   3  14   39.60    4.40
  -1   3  14   46.71    4.23
  -1   3  14   35.64    4.26
  -1   3  15   17.54    2.95
  -1   3  15   22.91    2.93
  -1   3  15   24.54    3.22
  -1   3  16   28.36    3.61
  -1   3  16   24.01    2.92
  -1   3  16   25.41    3.50
  -1   3  16   28.84    3.35
  -1   3  17   -0.87    1.71
  -1   3  17    0.21    0.83
  -1   3  17    0.90    1.27
  -1   3  17    0.77    0.93
  -1   3  18  164.84    9.58
  -1   3  18  142.50    9.45
  -1   3  18  143.53    8.97
  -1   3  19    5.07    1.45
  -1   3  19    6.73    1.57
  -1   3  20    0.31    0.77
  -1   4 -17   36.64    2.71
  -1   4 -17   39.39    2.90
  -1   4 -16    7.19    1.27
  -1   4 -16    8.34    1.42
  -1   4 -15   38.62    3.42
  -1   4 -15   35.06    3.39
  -1   4 -14  105.33    6.78
  -1   4 -14  105.70    7.20
  -1   4 -13  100.00    6.85
  -1   4 -12   18.67    2.63
  -1   4 -11  230.75   13.54
  -1   4 -11  216.50   13.12
  -1   4 -10   46.18    4.67
  -1   4 -10   43.50    4.35
  -1   4  -9   53.24    4.88
  -1   4  -8   11.95    2.36
  -1   4  -7  221.48   13.06
  -1   4  -7  208.85   12.76
  -1   4  -7  241.11   13.79
  -1   4  -6    7.15    2.02
  -1   4  -6    6.89    1.88
  -1   4  -6    3.81    1.38
  -1   4  -6    7.17    1.72
  -1   4  -6    6.68    1.57
  -1   4  -5   89.37    7.36
  -1   4  -5   97.26    7.34
  -1   4  -5   93.07    9.62
  -1   4  -5  110.11    7.19
  -1   4  -5  102.09    6.87
  -1   4  -5   94.73    7.06
  -1   4  -5   95.70    6.94
  -1   4  -4   59.27    4.98
  -1   4  -4   61.40    5.01
  -1   4  -4   52.34    5.08
  -1   4  -4   54.70    4.99
  -1   4  -4   54.49    5.05
  -1   4  -4   59.46    4.94
  -1   4  -4   59.19    4.76
  -1   4  -4   59.63    7.29
  -1   4  -3  230.46   13.44
  -1   4  -3  240.41   13.45
  -1   4  -3  229.21   13.58
  -1   4  -3  217.00   13.40
  -1   4  -3  230.38   13.39
  -1   4  -3  228.46   13.29
  -1   4  -3  232.91   13.16
  -1   4  -3  236.05   17.22
  -1   4  -3  198.96   16.99
  -1   4  -2  238.98   13.25
  -1   4  -2  228.87   13.13
  -1   4  -2  222.60   13.08
  -1   4  -2  191.58   16.76
  -1   4  -2  203.94   12.73
  -1   4  -2  210.86   12.71
  -1   4  -2  219.73   13.11
  -1   4  -2  217.99   12.93
  -1   4  -2  229.75   12.86
  -1   4  -2  212.96   16.55
  -1   4  -2  232.83   17.56
  -1   4  -1   31.42    3.61
  -1   4  -1   32.04    3.69
  -1   4  -1   32.55    3.51
  -1   4  -1   27.99    5.61
  -1   4  -1   35.22    5.75
  -1   4  -1   35.66    3.47
  -1   4  -1   34.39    3.40
  -1   4  -1   39.71    4.07
  -1   4  -1   31.02    5.83
  -1   4  -1   31.82    3.57
  -1   4  -1   35.32    3.59
  -1   4   0    6.02    1.75
  -1   4   0    5.33    1.79
  -1   4   0    4.59    1.28
  -1   4   0    4.01    1.23
  -1   4   0    1.78    2.61
  -1   4   0    2.45    1.01
  -1   4   0    1.25    1.43
  -1   4   0    2.12    1.25
  -1   4   0    6.55    3.03
  -1   4   1  311.90   16.52
  -1   4   1  310.97   16.41
  -1   4   1  256.42   21.00
  -1   4   1  323.00   22.51
  -1   4   1  299.32   17.32
  -1   4   1  333.99   16.89
  -1   4   1  263.61   16.89
  -1   4   1  318.88   17.42
  -1   4   2   24.77    5.07
  -1   4   2   27.42    3.32
  -1   4   2   24.06    3.07
  -1   4   2   27.45    2.82
  -1   4   2   26.02    2.92
  -1   4   2   23.91    2.94
  -1   4   2   28.45    3.30
  -1   4   3  720.25   36.48
  -1   4   3  783.93   36.94
  -1   4   3  717.42   37.12
  -1   4   3  731.91   36.52
  -1   4   3  715.39   36.31
  -1   4   3  745.18   41.83
  -1   4   3  726.32   37.01
  -1   4   3  722.96   36.86
  -1   4   4  103.39    6.92
  -1   4   4  105.64    7.19
  -1   4   4  104.07    7.41
  -1   4   4  101.12    7.35
  -1   4   4   95.91    6.93
  -1   4   4  104.75   11.12
  -1   4   4  101.30    6.96
  -1   4   4  102.18    7.54
  -1   4   4  100.12   10.48
  -1   4   4  107.85   11.00
  -1   4   4  106.66    7.41
  -1   4   4   94.16    7.03
  -1   4   5  400.42   25.60
  -1   4   5  436.33   26.55
  -1   4   5  406.83   20.75
  -1   4   5  401.22   20.99
  -1   4   5  345.22   20.46
  -1   4   5  390.30   21.00
  -1   4   5  374.28   26.16
  -1   4   5  390.10   21.39
  -1   4   5  385.94   20.86
  -1   4   5  383.94   21.06
  -1   4   5  394.25   20.99
  -1   4   5  420.74   21.32
  -1   4   5  412.99   21.26
  -1   4   6  225.32   17.30
  -1   4   6  240.37   17.40
  -1   4   6  227.37   13.24
  -1   4   6  232.98   12.85
  -1   4   6  223.11   13.17
  -1   4   6  228.90   13.15
  -1   4   6  200.03   12.79
  -1   4   6  223.04   13.11
  -1   4   6  232.51   13.11
  -1   4   6  221.52   13.07
  -1   4   6  228.26   13.19
  -1   4   7  661.35   38.41
  -1   4   7  653.44   33.91
  -1   4   7  696.92   34.13
  -1   4   7  640.32   34.15
  -1   4   7  685.14   33.77
  -1   4   7  707.47   34.47
  -1   4   7  685.56   34.02
  -1   4   7  665.67   33.91
  -1   4   7  653.31   33.74
  -1   4   7  647.22   33.87
  -1   4   8   10.99    3.30
  -1   4   8    7.59    1.95
  -1   4   8   10.02    2.09
  -1   4   8    8.10    1.98
  -1   4   8    6.07    1.58
  -1   4   8   10.54    2.00
  -1   4   8   10.64    2.00
  -1   4   8   11.30    1.99
  -1   4   9  250.60   14.62
  -1   4   9  228.98   13.84
  -1   4   9  249.19   13.87
  -1   4   9  259.59   14.96
  -1   4   9  256.89   14.57
  -1   4   9  239.93   14.00
  -1   4   9  236.99   17.56
  -1   4  10    8.33    2.20
  -1   4  10    6.57    1.81
  -1   4  10    5.79    1.51
  -1   4  10    9.30    2.12
  -1   4  11  611.39   31.10
  -1   4  11  586.90   30.76
  -1   4  11  571.48   31.08
  -1   4  12   99.21    7.21
  -1   4  12   86.39    7.18
  -1   4  13    6.33    1.87
  -1   4  13    3.85    1.54
  -1   4  14   33.63    3.87
  -1   4  14   32.05    3.59
  -1   4  14   34.40    4.04
  -1   4  15   53.59    4.87
  -1   4  15   56.39    4.76
  -1   4  15   58.06    5.22
  -1   4  16    3.58    1.24
  -1   4  16    2.24    1.22
  -1   4  16    3.87    1.62
  -1   4  17   53.68    4.30
  -1   4  17   57.88    4.31
  -1   4  17   62.71    4.87
  -1   4  18   11.50    1.48
  -1   4  18   12.74    1.95
  -1   4  19   62.92    4.38
  -1   5 -14  199.24   10.23
  -1   5 -13   10.88    1.46
  -1   5 -13   12.38    1.48
  -1   5 -12    0.17    0.66
  -1   5 -12    0.17    0.69
  -1   5 -11   21.43    2.55
  -1   5 -11   26.25    2.77
  -1   5 -10  226.90   11.92
  -1   5 -10  214.92   12.01
  -1   5  -9    0.83    1.11
  -1   5  -9    0.80    0.82
  -1   5  -9    0.25    1.00
  -1   5  -8  116.05    7.92
  -1   5  -8  124.04    7.83
  -1   5  -8   97.22    7.45
  -1   5  -7    0.83    0.85
  -1   5  -7   -0.30    1.14
  -1   5  -6   82.75    6.52
  -1   5  -6   89.51    6.64
  -1   5  -6   97.59    6.62
  -1   5  -5   82.67    6.44
  -1   5  -5   91.98    6.38
  -1   5  -5   96.69    6.98
  -1   5  -5   81.56    6.39
  -1   5  -5   77.10    6.04
  -1   5  -4   23.57    3.06
  -1   5  -4   26.69    3.12
  -1   5  -4   22.11    2.98
  -1   5  -4   20.98    3.11
  -1   5  -4   19.82    2.54
  -1   5  -3    1.37    1.25
  -1   5  -3    2.50    1.36
  -1   5  -3    2.57    1.47
  -1   5  -3    1.53    1.23
  -1   5  -2  251.37   14.53
  -1   5  -2  262.83   14.62
  -1   5  -2  229.22   14.28
  -1   5  -2  225.35   14.27
  -1   5  -2  243.28   14.16
  -1   5  -1  195.50   11.91
  -1   5  -1  189.41   11.79
  -1   5  -1  167.43   11.23
  -1   5  -1  192.72   11.79
  -1   5  -1  171.77   11.27
  -1   5   0   62.73    5.39
  -1   5   0   72.80    6.24
  -1   5   0   72.38    6.18
  -1   5   0   61.20    5.00
  -1   5   1   83.78    6.30
  -1   5   1   82.92    6.19
  -1   5   1   98.23    7.52
  -1   5   1   89.91    7.22
  -1   5   2    6.17    1.99
  -1   5   2    6.61    2.08
  -1   5   2    3.35    1.57
  -1   5   2    4.54    1.35
  -1   5   2    1.57    1.10
  -1   5   2    3.01    2.59
  -1   5   2    4.61    1.96
  -1   5   3    6.34    1.94
  -1   5   3    3.87    1.74
  -1   5   3    9.02    3.39
  -1   5   3    6.62    1.72
  -1   5   4  367.48   20.06
  -1   5   4  338.89   19.40
  -1   5   4  368.17   20.56
  -1   5   4  377.03   20.66
  -1   5   4  371.69   19.92
  -1   5   4  379.28   20.50
  -1   5   4  369.56   20.29
  -1   5   5    0.33    1.34
  -1   5   5   -0.61    1.07
  -1   5   5    0.27    1.09
  -1   5   5    1.73    1.39
  -1   5   5    0.34    1.42
  -1   5   5   -0.32    1.38
  -1   5   5    0.61    1.26
  -1   5   6   83.00    6.58
  -1   5   6   84.89    6.49
  -1   5   6   85.31    6.70
  -1   5   6   87.84    6.80
  -1   5   6   84.21    6.59
  -1   5   6   86.81    6.75
  -1   5   7  250.23   13.84
  -1   5   7  224.09   13.64
  -1   5   7  218.74   13.55
  -1   5   7  232.40   13.66
  -1   5   7  232.00   13.53
  -1   5   7  226.72   13.81
  -1   5   8  342.16   18.05
  -1   5   8  319.37   18.01
  -1   5   8  326.52   17.77
  -1   5   8  297.42   17.52
  -1   5   8  315.92   17.49
  -1   5   8  315.17   18.06
  -1   5   9   60.50    5.36
  -1   5   9   60.69    5.53
  -1   5   9   62.73    5.19
  -1   5   9   58.48    4.88
  -1   5  10   13.14    2.09
  -1   5  10   19.15    2.83
  -1   5  10   14.72    2.64
  -1   5  11    2.62    1.59
  -1   5  11    2.43    1.51
  -1   5  11   -0.31    1.06
  -1   5  12  118.45    8.19
  -1   5  12  126.05    8.04
  -1   5  12   97.84    7.67
  -1   5  13    2.86    1.50
  -1   5  13    1.08    1.02
  -1   5  13    1.51    1.15
  -1   5  14   48.27    4.16
  -1   5  14   49.61    4.20
  -1   5  15  127.76    8.06
  -1   5  15  148.38    8.33
  -1   5  16    6.30    1.14
  -1   5  16    7.52    1.30
  -1   5  17   23.06    2.07
  -1   5  17   33.05    2.66
  -1   5  18  114.71    6.37
  -1   6  -9   16.95    1.68
  -1   6  -9   18.85    1.81
  -1   6  -8    0.42    0.62
  -1   6  -7  108.40    6.61
  -1   6  -6    4.49    1.25
  -1   6  -6    5.39    1.24
  -1   6  -5   34.93    3.15
  -1   6  -5   27.71    2.98
  -1   6  -4   67.23    4.92
  -1   6  -4   63.94    5.12
  -1   6  -3  180.70    9.65
  -1   6  -3  138.52    9.47
  -1   6  -2    0.24    1.04
  -1   6  -2    1.26    1.07
  -1   6  -2    0.48    0.94
  -1   6  -2    0.87    0.95
  -1   6  -1   29.22    3.36
  -1   6  -1   34.56    3.64
  -1   6  -1   35.74    3.36
  -1   6  -1   29.48    3.13
  -1   6   0    1.83    1.45
  -1   6   0    1.36    1.27
  -1   6   0    0.89    1.08
  -1   6   0    0.62    0.83
  -1   6   1  180.89   10.97
  -1   6   1  157.85    9.76
  -1   6   2  112.30    7.91
  -1   6   2  119.29    8.32
  -1   6   2  109.88    7.27
  -1   6   3  138.62    8.76
  -1   6   3  168.98    9.98
  -1   6   4    3.41    1.24
  -1   6   4    2.20    1.50
  -1   6   4    3.38    1.68
  -1   6   5   18.48    2.40
  -1   6   5   18.50    2.65
  -1   6   5   16.64    2.54
  -1   6   6    1.88    1.17
  -1   6   6    0.25    1.08
  -1   6   6    0.80    1.10
  -1   6   7  173.30   10.35
  -1   6   7  172.18   10.22
  -1   6   8    3.60    1.27
  -1   6   8    3.83    1.35
  -1   6   9  176.35   10.87
  -1   6   9  201.16   11.11
  -1   6  10  124.18    7.35
  -1   6  10  116.91    7.27
  -1   6  11   57.25    4.34
  -1   6  11   52.25    4.08
  -1   6  12  233.27   11.55
  -1   6  12  192.20   11.28
  -1   6  13   -0.52    0.64
  -1   6  13    0.41    0.69
  -1   6  14   32.50    2.44
   0  -4   3    7.14    2.72
   0  -4   4  137.76   12.43
   0  -4   5  110.17   11.16
   0  -4   6  142.75   13.55
   0  -4   7  170.28   15.55
   0  -4   8  168.59   15.91
   0  -4   9   -1.14    2.48
   0  -4  10    1.19    1.64
   0  -3 -15    1.06    1.78
   0  -3 -14  456.38   30.36
   0  -3 -13  214.63   17.42
   0  -3 -12  265.93   19.49
   0  -3 -11  257.78   18.49
   0  -3 -10  159.60   12.85
   0  -3  -9   66.79    7.08
   0  -3  -8   22.89    3.75
   0  -3  -7  123.32    9.53
   0  -3  -6  218.53   13.78
   0  -3  -5   36.39    3.96
   0  -3  -2  209.32   13.33
   0  -3  -1  972.13   48.45
   0  -3   2  368.10   21.38
   0  -3   3   89.70    8.12
   0  -3   4   72.33    7.55
   0  -3   5  361.27   22.67
   0  -3   6   88.88    7.37
   0  -3   6   85.28    9.10
   0  -3   7  534.48   28.09
   0  -3   7  473.44   31.01
   0  -3   8  242.35   18.87
   0  -3   9   -1.00    2.40
   0  -3   9    0.82    1.02
   0  -3  10   16.57    4.84
   0  -3  10   11.43    1.98
   0  -3  11  534.19   34.43
   0  -3  11  486.27   25.50
   0  -3  12   98.83   12.16
   0  -3  12   71.54    5.78
   0  -3  13   19.65    5.62
   0  -3  13   17.08    2.68
   0  -3  14  200.34   12.10
   0  -3  15   61.16    5.28
   0  -3  16   34.58    3.62
   0  -3  17   56.09    4.53
   0  -3  18    9.25    1.57
   0  -2 -21   92.15    6.07
   0  -2 -20    3.55    1.31
   0  -2 -19  145.19    9.44
   0  -2 -18  153.95    9.98
   0  -2 -17  339.71   18.79
   0  -2 -17  325.08   25.60
   0  -2 -16   71.26    6.04
   0  -2 -16   91.01   11.18
   0  -2 -15  321.07   18.22
   0  -2 -15  362.03   25.00
   0  -2 -14  316.92   17.48
   0  -2 -14  310.02   22.81
   0  -2 -13   34.54    3.56
   0  -2 -13   38.40    6.30
   0  -2 -12   31.70    5.43
   0  -2 -11  573.95   32.92
   0  -2 -10  107.21    9.50
   0  -2  -9    1.51    1.38
   0  -2  -8    3.54    1.79
   0  -2  -7  763.94   39.45
   0  -2  -6  141.91    9.61
   0  -2  -5   51.65    4.77
   0  -2  -4  325.65   17.56
   0  -2  -3  175.66   10.01
   0  -2  -2   85.51    4.49
   0  -2  -2   57.20    3.33
   0  -2  -1 1064.39   50.35
   0  -2   0 5865.79  275.40
   0  -2   1  315.16   16.40
   0  -2   2 2125.76  100.62
   0  -2   3  536.03   25.72
   0  -2   3  529.83   26.60
   0  -2   4  455.96   22.92
   0  -2   4  474.34   23.96
   0  -2   4  508.65   26.04
   0  -2   5  719.92   34.29
   0  -2   5  654.36   37.11
   0  -2   6   29.64    4.74
   0  -2   7  256.12   17.65
   0  -2   7  282.32   15.90
   0  -2   7  261.05   13.73
   0  -2   8    2.75    2.01
   0  -2   8    2.82    1.57
   0  -2   8    1.06    0.85
   0  -2   9    9.41    3.06
   0  -2   9    5.43    1.94
   0  -2   9    4.98    1.22
   0  -2  10   65.54    8.73
   0  -2  10   62.97    6.63
   0  -2  10   65.86    4.79
   0  -2  11  434.46   28.84
   0  -2  11  425.94   25.32
   0  -2  11  424.87   22.09
   0  -2  12  210.76   18.26
   0  -2  12  193.38   14.84
   0  -2  12  205.26   11.83
   0  -2  13  251.73   21.19
   0  -2  13  258.39   14.48
   0  -2  13  241.91   17.85
   0  -2  14  610.88   30.13
   0  -2  14  510.98   33.86
   0  -2  15   25.88    3.42
   0  -2  15   25.80    5.08
   0  -2  16  270.16   15.66
   0  -2  17   39.25    4.18
   0  -2  18  510.48   26.62
   0  -2  19   34.96    3.53
   0  -2  20   33.88    3.14
   0  -2  20   31.89    2.93
   0  -2  21    3.37    1.12
   0  -1 -23    4.69    1.04
   0  -1 -22   14.75    2.09
   0  -1 -21   51.10    4.54
   0  -1 -20    2.15    1.37
   0  -1 -19  157.29   10.45
   0  -1 -18  123.18    9.01
   0  -1 -17    4.31    1.80
   0  -1 -16    3.44    1.65
   0  -1 -15  363.53   20.06
   0  -1 -14  456.18   24.53
   0  -1 -14  497.98   30.16
   0  -1 -13 1008.57   49.51
   0  -1 -13 1000.43   54.38
   0  -1 -12   36.18    5.48
   0  -1 -11  177.61   13.33
   0  -1 -10   46.66    5.66
   0  -1  -9   49.67    5.66
   0  -1  -8  352.46   20.28
   0  -1  -7   43.55    4.58
   0  -1  -6  378.30   20.59
   0  -1  -5 2691.49  127.98
   0  -1  -4 4496.80  211.54
   0  -1  -3 3507.24  164.96
   0  -1  -2   49.67    3.32
   0  -1   1  324.49   16.06
   0  -1   2  619.58   29.93
   0  -1   3 1924.48   90.48
   0  -1   3 1922.56   91.08
   0  -1   4   16.93    2.52
   0  -1   4   12.18    1.56
   0  -1   5   70.94    5.94
   0  -1   5   69.52    4.70
   0  -1   6  166.26   11.30
   0  -1   6  169.27   10.31
   0  -1   6  169.59    9.77
   0  -1   7  936.97   49.62
   0  -1   7 1013.78   48.36
   0  -1   7  950.39   47.37
   0  -1   8  186.78   10.18
   0  -1   8  206.80   12.41
   0  -1   9    8.00    1.35
   0  -1   9    5.14    1.96
   0  -1  10   10.80    1.62
   0  -1  10   10.85    2.62
   0  -1  11   77.69    5.54
   0  -1  11   94.09    8.21
   0  -1  12   53.45    7.75
   0  -1  12   47.92    4.18
   0  -1  12   63.90    6.85
   0  -1  13  277.95   21.78
   0  -1  13  294.47   16.15
   0  -1  13  316.71   20.24
   0  -1  14    8.62    3.81
   0  -1  14    9.54    1.97
   0  -1  14   12.22    3.60
   0  -1  15  161.88   16.85
   0  -1  15  202.85   11.89
   0  -1  15  188.10   15.80
   0  -1  16   35.41    7.10
   0  -1  16   36.09    4.06
   0  -1  17   42.69    4.51
   0  -1  18  389.35   21.24
   0  -1  19  252.15   13.38
   0  -1  19  198.66   12.49
   0  -1  20  165.06    9.63
   0  -1  20  153.44    9.65
   0  -1  21  106.18    6.88
   0  -1  22   55.70    4.16
   0   0 -23   17.17    1.89
   0   0 -22    1.26    1.08
   0   0 -21   59.48    5.04
   0   0 -20   31.33    3.74
   0   0 -19   36.34    4.25
   0   0 -18  306.09   17.86
   0   0 -17   10.44    2.51
   0   0 -17    3.53    2.83
   0   0 -16    0.36    1.39
   0   0 -16   -1.10    2.14
   0   0 -15   99.19    7.43
   0   0 -15   94.10   11.01
   0   0 -14  290.68   16.42
   0   0 -14  289.39   21.04
   0   0 -13  169.99   10.29
   0   0 -13  154.65   13.55
   0   0 -12  369.52   19.86
   0   0 -12  404.50   23.90
   0   0 -11    9.45    2.69
   0   0 -10  313.76   19.09
   0   0  -9  270.25   16.48
   0   0  -8    3.62    1.62
   0   0   1  494.05   23.41
   0   0   2    4.61    0.83
   0   0   2    4.06    0.72
   0   0   3  896.93   42.50
   0   0   3  872.91   42.37
   0   0   4 1266.95   60.03
   0   0   4 1236.80   59.79
   0   0   5    8.90    2.06
   0   0   5    8.57    1.93
   0   0   5   11.41    1.94
   0   0   6    9.04    2.11
   0   0   6    7.26    1.85
   0   0   7    0.37    1.41
   0   0   7    0.28    1.16
   0   0   8    3.06    1.95
   0   0   8    0.65    1.45
   0   0   9  300.77   18.17
   0   0   9  273.11   16.66
   0   0  10  318.89   19.62
   0   0  10  296.69   15.43
   0   0  10  302.43   18.14
   0   0  11   15.86    3.84
   0   0  11    9.66    1.58
   0   0  11   14.44    3.15
   0   0  12  406.28   25.57
   0   0  12  382.47   20.46
   0   0  12  402.13   20.46
   0   0  12  443.41   24.53
   0   0  13  164.82   14.38
   0   0  13  160.73    9.74
   0   0  13  167.27    9.75
   0   0  13  175.45   13.45
   0   0  14  273.00   21.00
   0   0  14  284.17   15.88
   0   0  14  301.91   15.83
   0   0  14  271.34   19.91
   0   0  15  100.77    7.14
   0   0  15   97.41    6.92
   0   0  15  101.07   11.58
   0   0  16    2.11    1.50
   0   0  16    0.26    1.17
   0   0  16   -1.03    2.01
   0   0  17    5.71    1.98
   0   0  17    5.97    1.72
   0   0  17    4.19    3.24
   0   0  17    9.37    2.00
   0   0  18  329.56   16.96
   0   0  18  262.73   15.96
   0   0  19   33.44    3.56
   0   0  19   27.22    3.07
   0   0  20   33.18    3.59
   0   0  20   32.89    3.27
   0   0  21   55.91    4.31
   0   0  21   42.22    3.58
   0   0  22    1.86    0.92
   0   0  22    0.35    0.76
   0   1 -22   62.34    4.25
   0   1 -22   51.41    3.81
   0   1 -21  106.45    7.07
   0   1 -19  234.52   14.09
   0   1 -18  392.65   21.77
   0   1 -17   48.27    5.04
   0   1 -16   30.24    6.03
   0   1 -16   37.60    4.31
   0   1 -15  152.87   14.78
   0   1 -15  186.25   11.52
   0   1 -14    3.46    2.25
   0   1 -14    9.95    2.12
   0   1 -13  270.39   19.56
   0   1 -13  280.28   15.71
   0   1 -12   47.43    6.37
   0   1 -12   47.43    4.21
   0   1 -11   87.12    8.47
   0   1 -10    9.31    2.65
   0   1  -9    5.44    2.04
   0   1  -8  213.33   13.58
   0   1  -7  975.57   49.03
   0   1  -6  165.17    9.74
   0   1  -6  140.38    8.13
   0   1  -6  143.40    8.05
   0   1  -5   63.56    5.09
   0   1  -5   71.56    4.64
   0   1  -5   69.75    4.48
   0   1  -4   18.52    2.11
   0   1  -4   12.53    1.59
   0   1  -4   13.60    1.76
   0   1  -4   14.04    1.70
   0   1  -3 2055.93   94.55
   0   1  -3 2038.93   94.79
   0   1  -3 1943.80   94.79
   0   1  -3 2005.99   94.73
   0   1  -3 1965.01   94.54
   0   1  -2  606.50   29.08
   0   1  -2  582.83   29.74
   0   1  -2  607.68   29.75
   0   1  -2  606.68   29.85
   0   1  -2  625.01   29.76
   0   1  -2  611.20   29.59
   0   1  -1  301.60   15.30
   0   1  -1  291.27   15.22
   0   1   0  327.67   15.97
   0   1   0  332.73   16.83
   0   1   1  980.91   45.18
   0   1   1  900.60   45.85
   0   1   1  983.94   46.14
   0   1   1  934.88   46.17
   0   1   2   51.00    3.58
   0   1   2   47.11    3.53
   0   1   2   54.97    3.77
   0   1   2   51.55    3.80
   0   1   3 3871.48  179.94
   0   1   3 3771.35  179.85
   0   1   3 3816.10  180.06
   0   1   3 3882.75  180.10
   0   1   3 3831.11  179.68
   0   1   4 4554.52  213.50
   0   1   4 4635.90  213.45
   0   1   4 4430.14  213.75
   0   1   4 4651.90  213.62
   0   1   4 4555.64  213.62
   0   1   4 4474.09  213.60
   0   1   5 2534.45  119.41
   0   1   5 2478.04  119.49
   0   1   5 2645.13  120.56
   0   1   5 2509.06  119.59
   0   1   5 2512.98  119.64
   0   1   5 2605.30  120.22
   0   1   6  350.76   16.98
   0   1   6  329.71   17.05
   0   1   6  334.37   18.44
   0   1   6  312.09   17.14
   0   1   6  380.48   18.59
   0   1   7   32.44    2.63
   0   1   7   33.87    3.95
   0   1   7   29.82    2.70
   0   1   7   40.94    4.33
   0   1   8  332.39   19.50
   0   1   8  346.94   19.61
   0   1   9   46.13    5.48
   0   1   9   54.22    5.79
   0   1   9   49.84    3.63
   0   1   9   49.36    3.62
   0   1  10   42.67    5.59
   0   1  10   44.64    5.53
   0   1  10   50.26    3.68
   0   1  10   39.97    3.31
   0   1  10   48.34    3.59
   0   1  11  160.48   12.40
   0   1  11  149.09    8.85
   0   1  11  156.24    8.96
   0   1  11  171.92   12.47
   0   1  12   29.10    3.01
   0   1  12   27.97    4.87
   0   1  12   36.24    3.20
   0   1  12   32.63    3.12
   0   1  13  961.52   48.38
   0   1  13 1055.33   53.88
   0   1  13  969.23   48.44
   0   1  13 1038.22   48.65
   0   1  14  400.30   22.52
   0   1  14  423.03   27.59
   0   1  14  486.94   23.17
   0   1  14  449.27   22.96
   0   1  15  330.12   23.37
   0   1  15  365.97   18.59
   0   1  15  378.95   18.68
   0   1  16    1.42    0.92
   0   1  16    0.88    1.40
   0   1  16    1.44    1.38
   0   1  16    1.25    1.14
   0   1  16    1.75    1.91
   0   1  17    4.90    1.79
   0   1  17    1.48    1.56
   0   1  17    3.13    1.37
   0   1  18  120.84    8.45
   0   1  18  122.70    8.39
   0   1  18  121.28    8.41
   0   1  19  139.52    9.71
   0   1  19  166.43    9.92
   0   1  20    2.30    1.22
   0   1  20    1.20    0.93
   0   1  20    0.77    0.87
   0   1  21   54.20    4.39
   0   1  21   59.03    4.37
   0   2 -21    3.37    0.86
   0   2 -21    3.62    0.94
   0   2 -20   27.37    2.85
   0   2 -20   33.17    3.03
   0   2 -19   35.66    3.60
   0   2 -18  450.32   23.85
   0   2 -17   32.55    3.74
   0   2 -16  215.92   12.99
   0   2 -16  235.91   13.75
   0   2 -15   22.08    2.93
   0   2 -15   23.62    3.18
   0   2 -14  533.99   27.87
   0   2 -14  535.43   28.08
   0   2 -13  232.50   13.29
   0   2 -13  213.85   13.14
   0   2 -12  182.45   10.96
   0   2 -12  172.79   10.84
   0   2 -11  359.96   23.71
   0   2 -11  393.84   20.19
   0   2 -11  367.32   20.01
   0   2 -10   43.80    5.96
   0   2 -10   53.18    4.33
   0   2  -9    7.26    2.52
   0   2  -8    2.37    1.60
   0   2  -7  224.87   14.40
   0   2  -7  242.00   13.76
   0   2  -7  226.45   13.85
   0   2  -6   30.74    3.59
   0   2  -6   27.72    3.40
   0   2  -6   26.07    3.52
   0   2  -5  635.71   34.26
   0   2  -5  764.23   35.24
   0   2  -5  685.58   35.28
   0   2  -5  715.22   35.60
   0   2  -4  516.00   25.34
   0   2  -4  502.15   24.70
   0   2  -4  520.89   25.08
   0   2  -3  549.32   28.93
   0   2  -3  546.61   28.90
   0   2  -3  583.03   28.88
   0   2  -3  533.64   28.32
   0   2  -2 2008.50   99.23
   0   2  -2 2124.74   99.57
   0   2  -2 2079.35   99.23
   0   2  -2 2039.71   98.76
   0   2  -1  283.32   15.65
   0   2  -1  283.67   15.65
   0   2  -1  256.17   13.82
   0   2   0 4357.63  211.66
   0   2   0 4411.19  211.72
   0   2   0 4530.14  209.43
   0   2   1  913.61   46.48
   0   2   1  910.29   46.12
   0   2   1  938.13   46.60
   0   2   1  965.08   46.96
   0   2   2   93.72    6.93
   0   2   2   99.45    7.50
   0   2   3  189.69   11.72
   0   2   3  189.86   11.52
   0   2   3  190.67   11.83
   0   2   3  192.43   11.98
   0   2   4  293.78   16.15
   0   2   4  351.18   18.41
   0   2   4  345.62   18.42
   0   2   4  346.75   18.14
   0   2   4  352.86   18.10
   0   2   5   38.76    4.45
   0   2   5   50.17    4.76
   0   2   5   50.81    4.55
   0   2   5   51.97    4.57
   0   2   6  117.20    8.31
   0   2   6  129.84    8.27
   0   2   6  116.39    8.13
   0   2   7  635.42   31.41
   0   2   7  674.96   33.27
   0   2   7  618.61   31.29
   0   2   7  653.91   32.72
   0   2   7  678.21   33.01
   0   2   8    3.48    1.35
   0   2   8    2.63    1.14
   0   2   8    2.71    0.92
   0   2   8    2.01    0.96
   0   2   9    3.41    1.28
   0   2   9    3.71    1.45
   0   2   9    3.79    1.53
   0   2   9    2.20    1.03
   0   2  10  104.14    8.40
   0   2  10   89.71    5.97
   0   2  11  474.08   28.68
   0   2  11  553.85   26.23
   0   2  11  496.64   25.93
   0   2  11  517.66   26.75
   0   2  12   35.44    3.43
   0   2  12   35.06    3.53
   0   2  12   36.47    5.18
   0   2  12   42.49    3.88
   0   2  12   38.73    4.00
   0   2  13   34.71    3.51
   0   2  13   29.40    3.18
   0   2  13   26.34    3.22
   0   2  13   32.00    3.68
   0   2  14  360.91   18.21
   0   2  14  299.76   17.63
   0   2  14  318.10   18.00
   0   2  14  349.26   18.67
   0   2  15  363.58   18.62
   0   2  15  299.67   17.87
   0   2  15  320.77   18.29
   0   2  15  365.03   18.96
   0   2  16   90.17    6.65
   0   2  16   85.16    6.54
   0   2  16   66.52    5.69
   0   2  16   75.24    6.07
   0   2  16   75.63    9.31
   0   2  17  411.88   20.73
   0   2  17  380.20   20.11
   0   2  17  399.82   20.64
   0   2  18  183.37   10.97
   0   2  18  150.21   10.04
   0   2  18  170.92   10.26
   0   2  18  179.14   10.80
   0   2  19  164.95   10.24
   0   2  19  164.52   10.37
   0   2  20    4.52    1.35
   0   2  21  116.98    7.24
   0   3 -19   82.89    5.19
   0   3 -18   11.32    1.76
   0   3 -17   55.56    4.69
   0   3 -16   26.65    3.20
   0   3 -16   27.98    3.01
   0   3 -16   32.66    3.61
   0   3 -15   58.48    5.14
   0   3 -15   51.86    4.64
   0   3 -14  213.91   12.36
   0   3 -14  222.95   12.71
   0   3 -13   18.35    2.92
   0   3 -13   16.39    2.94
   0   3 -13   16.23    2.47
   0   3 -13   15.29    2.34
   0   3 -12   80.34    6.33
   0   3 -12   85.83    6.93
   0   3 -12   82.83    6.05
   0   3 -11  491.68   25.39
   0   3 -11  452.99   25.62
   0   3 -11  475.49   24.90
   0   3 -10    8.63    1.96
   0   3 -10    6.72    1.93
   0   3 -10    9.49    1.87
   0   3  -9    0.28    0.94
   0   3  -9   -0.33    0.96
   0   3  -9   -1.28    1.06
   0   3  -8  259.72   14.74
   0   3  -8  279.29   15.30
   0   3  -8  252.88   14.50
   0   3  -7  497.62   24.74
   0   3  -7  436.49   23.59
   0   3  -7  452.26   26.66
   0   3  -7  507.20   24.30
   0   3  -7  491.81   24.41
   0   3  -7  450.88   23.70
   0   3  -7  460.25   27.20
   0   3  -6   82.00    8.04
   0   3  -6   82.37    5.62
   0   3  -6   82.43    7.73
   0   3  -6   89.89    5.76
   0   3  -5  369.42   21.66
   0   3  -5  375.77   18.23
   0   3  -5  373.27   21.30
   0   3  -5  359.84   18.21
   0   3  -4   75.45    7.33
   0   3  -4   77.51    6.82
   0   3  -4   65.32    6.59
   0   3  -4   68.96    4.81
   0   3  -4   69.20    4.76
   0   3  -3   98.48    8.95
   0   3  -3  101.02    6.41
   0   3  -3   90.04    6.28
   0   3  -3  103.97    8.67
   0   3  -2  417.51   23.37
   0   3  -2  367.33   19.54
   0   3  -2  373.02   19.57
   0   3  -2  391.73   22.14
   0   3  -2  395.80   22.78
   0   3  -1 1001.33   49.00
   0   3  -1  884.98   44.70
   0   3  -1  912.21   44.73
   0   3  -1  915.92   47.39
   0   3  -1  965.39   48.44
   0   3   0   75.63    7.52
   0   3   1  796.55   41.71
   0   3   1  772.45   41.93
   0   3   1  755.84   38.02
   0   3   1  732.68   38.06
   0   3   1  800.15   38.14
   0   3   1  834.52   41.09
   0   3   1  802.11   41.73
   0   3   2  203.65   14.03
   0   3   2  180.08   10.62
   0   3   2  183.64   10.54
   0   3   2  203.16   13.18
   0   3   3  294.14   18.49
   0   3   3  273.00   15.07
   0   3   3  284.78   15.02
   0   3   3  302.23   17.77
   0   3   3  275.54   17.83
   0   3   4  374.58   21.18
   0   3   4  333.23   19.91
   0   3   4  331.59   20.20
   0   3   4  335.96   17.28
   0   3   4  316.13   17.26
   0   3   5   36.90    2.99
   0   3   5   42.46    3.46
   0   3   5   39.89    3.32
   0   3   5   34.66    4.98
   0   3   5   36.61    3.05
   0   3   5   34.18    4.63
   0   3   5   51.49    5.49
   0   3   6  226.57   12.46
   0   3   6  235.61   12.66
   0   3   6  248.97   15.84
   0   3   6  227.35   12.43
   0   3   6  260.76   15.51
   0   3   6  228.04   12.55
   0   3   6  236.84   15.30
   0   3   7  108.46    7.60
   0   3   7  126.51    7.73
   0   3   7  136.30   10.55
   0   3   7  137.58    7.82
   0   3   7  136.67    7.89
   0   3   7  135.58   10.24
   0   3   7  156.10   10.51
   0   3   8   28.62    4.31
   0   3   8   25.81    2.57
   0   3   8   22.46    2.48
   0   3   8   25.00    3.95
   0   3   8   25.86    2.65
   0   3   8   21.23    2.59
   0   3   9   74.48    5.12
   0   3   9   62.37    5.04
   0   3   9   61.09    5.25
   0   3   9   74.58    7.23
   0   3   9   70.28    5.29
   0   3   9   70.34    6.89
   0   3  10  187.71   10.29
   0   3  10  178.39   10.36
   0   3  10  182.98   10.92
   0   3  10  163.41   10.57
   0   3  10  165.46   10.30
   0   3  10  143.71   11.69
   0   3  11  271.40   15.75
   0   3  11  286.41   15.22
   0   3  11  261.27   15.03
   0   3  11  262.44   15.47
   0   3  12  278.72   17.31
   0   3  12  334.59   17.01
   0   3  12  300.59   16.66
   0   3  12  295.79   17.14
   0   3  13  228.07   14.52
   0   3  13  249.95   14.00
   0   3  13  231.30   13.64
   0   3  13  244.73   14.32
   0   3  14  543.09   28.52
   0   3  14  553.52   27.87
   0   3  14  516.22   27.91
   0   3  14  515.41   27.26
   0   3  15    1.46    1.18
   0   3  15    1.61    1.48
   0   3  15    1.49    1.11
   0   3  16   -0.34    1.16
   0   3  16   -0.31    1.13
   0   3  17   60.61    5.38
   0   3  17   57.33    5.08
   0   3  18  145.97    9.75
   0   3  18  155.35    9.64
   0   3  18  167.36   10.24
   0   3  19    1.24    1.08
   0   3  19    0.62    0.92
   0   3  20   71.64    5.16
   0   3  21    8.93    1.36
   0   4 -17   27.09    2.22
   0   4 -16   50.74    3.77
   0   4 -15   90.29    6.12
   0   4 -14   93.35    6.68
   0   4 -14  107.30    7.29
   0   4 -13    0.29    0.95
   0   4 -13   -0.30    1.22
   0   4 -13    0.50    1.01
   0   4 -12   37.80    3.85
   0   4 -12   35.11    4.02
   0   4 -12   35.83    4.06
   0   4 -11  283.15   15.95
   0   4 -11  264.00   16.26
   0   4 -11  291.11   16.28
   0   4 -10    0.92    1.27
   0   4 -10    1.09    1.27
   0   4 -10    1.64    1.28
   0   4  -9    0.92    1.07
   0   4  -9    1.43    1.35
   0   4  -8  174.56   10.80
   0   4  -8  169.33   11.14
   0   4  -7  169.30   10.57
   0   4  -7  172.38   10.87
   0   4  -7  158.52    9.95
   0   4  -7  174.44   10.91
   0   4  -6  157.42    9.71
   0   4  -6  143.23    9.05
   0   4  -6  135.82    9.03
   0   4  -6  146.48    9.41
   0   4  -6  145.37    9.30
   0   4  -6  156.77   13.56
   0   4  -6  137.26    9.57
   0   4  -6  146.45    9.16
   0   4  -6  157.94   13.00
   0   4  -6  145.06    9.01
   0   4  -5  109.99    7.54
   0   4  -5  105.93    7.49
   0   4  -5  121.92    7.78
   0   4  -5  100.18   10.46
   0   4  -5  124.98    7.92
   0   4  -5  124.47   11.79
   0   4  -5  118.39    8.21
   0   4  -5  111.77    7.66
   0   4  -5  113.56    7.55
   0   4  -5  120.87    7.98
   0   4  -4  137.92    9.19
   0   4  -4  139.04    9.25
   0   4  -4  151.94    9.36
   0   4  -4  135.10   12.21
   0   4  -4  161.82    9.57
   0   4  -4  144.61   13.03
   0   4  -4  157.64   10.01
   0   4  -4  157.79    9.59
   0   4  -4  158.48    9.41
   0   4  -4  165.23    9.80
   0   4  -3   11.39    1.95
   0   4  -3   12.01    2.03
   0   4  -3   12.70    2.02
   0   4  -3    8.60    1.78
   0   4  -3    5.96    1.72
   0   4  -3   11.27    1.94
   0   4  -3    8.05    2.97
   0   4  -3    6.95    1.70
   0   4  -3    9.53    1.96
   0   4  -3    6.65    2.91
   0   4  -3   11.54    1.97
   0   4  -2  247.23   13.77
   0   4  -2  249.05   13.93
   0   4  -2  241.41   13.83
   0   4  -2  242.63   14.06
   0   4  -2  259.38   14.14
   0   4  -2  263.82   18.91
   0   4  -2  211.66   13.68
   0   4  -2  271.74   14.21
   0   4  -2  233.86   17.61
   0   4  -2  237.80   13.84
   0   4  -2  242.49   13.74
   0   4  -1  459.50   23.16
   0   4  -1  456.41   22.97
   0   4  -1  446.64   23.28
   0   4  -1  429.90   23.19
   0   4  -1  383.88   22.89
   0   4  -1  450.15   22.66
   0   4  -1  465.36   23.47
   0   4  -1  410.20   22.78
   0   4  -1  426.64   23.08
   0   4  -1  432.92   22.95
   0   4  -1  469.83   23.46
   0   4  -1  494.36   28.54
   0   4  -1  501.05   29.26
   0   4   0  278.75   15.48
   0   4   0  275.93   15.34
   0   4   0  294.08   15.00
   0   4   0  259.98   14.93
   0   4   0  301.28   20.27
   0   4   0  249.83   14.91
   0   4   0  259.71   14.63
   0   4   1  236.75   13.85
   0   4   1  205.62   13.47
   0   4   1  240.68   13.37
   0   4   1  238.25   13.18
   0   4   1  237.88   17.06
   0   4   1  224.05   17.77
   0   4   1  245.23   13.50
   0   4   1  255.09   13.32
   0   4   2  300.14   15.44
   0   4   2  284.16   15.99
   0   4   2  269.04   20.53
   0   4   2  271.23   15.58
   0   4   2  263.74   15.41
   0   4   2  271.33   19.14
   0   4   2  271.16   15.85
   0   4   2  285.16   15.25
   0   4   2  292.40   15.57
   0   4   3  788.25   38.12
   0   4   3  770.36   38.41
   0   4   3  733.45   38.65
   0   4   3  753.33   38.59
   0   4   3  777.17   38.26
   0   4   3  801.04   38.97
   0   4   3  842.13   45.11
   0   4   3  757.95   38.23
   0   4   3  762.85   38.77
   0   4   3  807.10   43.19
   0   4   3  774.78   38.58
   0   4   3  750.14   38.35
   0   4   4   23.19    2.94
   0   4   4   30.91    5.35
   0   4   4   21.48    2.59
   0   4   4   25.17    2.96
   0   4   4   19.78    2.65
   0   4   4   25.96    3.17
   0   4   4   21.62    4.74
   0   4   4   23.98    2.83
   0   4   4   25.05    3.00
   0   4   4   22.12    2.80
   0   4   4   21.72    2.81
   0   4   4   25.02    2.89
   0   4   5   15.00    2.39
   0   4   5   12.25    3.72
   0   4   5   14.16    2.03
   0   4   5   13.82    2.26
   0   4   5   17.70    2.46
   0   4   5   14.85    2.46
   0   4   5   20.01    4.51
   0   4   5   18.08    2.45
   0   4   5   15.97    2.31
   0   4   5   17.42    2.41
   0   4   5   11.95    2.22
   0   4   5   15.54    2.36
   0   4   6    1.54    1.12
   0   4   6   -2.23    3.32
   0   4   6    1.93    1.20
   0   4   6    1.13    0.82
   0   4   6    0.55    0.80
   0   4   6    0.63    0.77
   0   4   6    0.53    1.07
   0   4   6   -0.81    1.76
   0   4   6    0.74    1.02
   0   4   6    1.01    1.01
   0   4   6    0.51    1.25
   0   4   6    2.61    1.27
   0   4   7  603.94   29.11
   0   4   7  549.81   33.13
   0   4   7  599.99   29.51
   0   4   7  575.98   28.83
   0   4   7  584.82   29.39
   0   4   7  567.83   29.28
   0   4   7  533.94   28.53
   0   4   7  512.38   28.35
   0   4   7  607.89   29.20
   0   4   7  562.29   33.81
   0   4   7  571.05   29.06
   0   4   7  586.23   28.95
   0   4   7  560.66   28.91
   0   4   7  549.01   28.93
   0   4   8   82.78    5.94
   0   4   8   80.94    5.70
   0   4   8   76.52    5.79
   0   4   8   69.63    5.71
   0   4   8   72.10    5.94
   0   4   8   67.38    5.44
   0   4   8   68.22    5.50
   0   4   8   77.69    5.89
   0   4   8   62.50    8.27
   0   4   8   87.57    6.42
   0   4   8   71.13    5.75
   0   4   8   78.77    8.72
   0   4   9    7.28    1.93
   0   4   9    4.12    1.58
   0   4   9    7.70    1.77
   0   4   9    1.57    2.04
   0   4   9    4.66    1.35
   0   4   9    7.61    1.64
   0   4   9    4.18    1.27
   0   4   9    5.07    2.24
   0   4  10   54.87    7.81
   0   4  10   66.44    5.86
   0   4  11  663.29   34.84
   0   4  11  727.10   35.16
   0   4  11  660.72   35.35
   0   4  12  117.03    8.46
   0   4  12  113.36    8.88
   0   4  12  133.78    8.66
   0   4  12  123.84    8.94
   0   4  13    0.31    1.36
   0   4  13   -0.39    1.22
   0   4  13    0.30    1.12
   0   4  13   -0.35    1.29
   0   4  14   97.06    7.55
   0   4  14  101.20    8.07
   0   4  14  106.95    7.40
   0   4  14  106.86    7.90
   0   4  15  324.57   18.30
   0   4  15  337.99   18.63
   0   4  15  343.93   18.92
   0   4  15  321.92   17.89
   0   4  16   32.97    3.75
   0   4  16   36.83    4.01
   0   4  16   35.80    3.43
   0   4  17   76.70    5.68
   0   4  17   71.60    5.63
   0   4  17   67.42    4.91
   0   4  18   17.01    2.24
   0   4  18   12.15    1.94
   0   4  19    0.33    0.76
   0   4  19    1.57    0.83
   0   4  20   -0.10    0.54
   0   4  20   -0.12    0.48
   0   5 -14   71.73    4.34
   0   5 -13    3.40    0.96
   0   5 -13    3.17    0.86
   0   5 -12   67.30    4.96
   0   5 -12   63.79    4.67
   0   5 -12   56.21    4.40
   0   5 -11  147.62    8.89
   0   5 -11  139.35    8.72
   0   5 -10   96.75    6.74
   0   5 -10   93.85    6.72
   0   5  -9    0.29    1.10
   0   5  -9    1.08    1.15
   0   5  -9    0.28    0.85
   0   5  -8   44.10    4.37
   0   5  -8   40.09    4.05
   0   5  -8   37.26    4.01
   0   5  -7  236.93   14.46
   0   5  -7  251.52   14.33
   0   5  -7  247.58   14.31
   0   5  -6  114.95    7.82
   0   5  -6  108.60    7.69
   0   5  -6  115.02    7.96
   0   5  -6  121.38    8.57
   0   5  -5   27.25    3.60
   0   5  -5   27.44    5.42
   0   5  -5   33.64    3.64
   0   5  -5   29.32    3.50
   0   5  -5   29.71    3.39
   0   5  -4  312.33   16.36
   0   5  -4  282.98   16.12
   0   5  -4  276.25   16.11
   0   5  -4  294.24   16.60
   0   5  -4  264.89   16.44
   0   5  -4  260.78   20.60
   0   5  -4  301.16   16.26
   0   5  -3   11.06    2.21
   0   5  -3   14.98    2.43
   0   5  -3   17.01    2.56
   0   5  -3   17.09    2.78
   0   5  -3   13.29    4.39
   0   5  -3   13.37    2.48
   0   5  -3   12.50    2.52
   0   5  -3   13.28    2.26
   0   5  -3   11.19    3.69
   0   5  -2    0.30    1.18
   0   5  -2    0.95    1.54
   0   5  -2    0.32    1.17
   0   5  -2    0.68    1.20
   0   5  -2   -5.32    3.74
   0   5  -2   -0.31    1.12
   0   5  -2   -1.00    1.69
   0   5  -2   -1.95    3.92
   0   5  -2   -0.33    1.57
   0   5  -2    0.28    0.82
   0   5  -1   95.66    6.72
   0   5  -1   96.91    7.23
   0   5  -1   87.15    7.01
   0   5  -1   87.94    6.94
   0   5  -1   87.05    6.42
   0   5  -1   83.03   11.07
   0   5  -1   77.66    6.35
   0   5  -1   95.08    7.32
   0   5  -1   98.35    7.34
   0   5  -1   89.66    6.83
   0   5  -1   97.96    7.42
   0   5  -1   81.47   10.41
   0   5   0  314.76   18.20
   0   5   0  326.88   18.31
   0   5   0  329.31   24.96
   0   5   0  314.98   17.79
   0   5   0  304.50   17.30
   0   5   0  334.62   17.57
   0   5   0  287.97   23.29
   0   5   1   33.58    4.17
   0   5   1   36.70    4.28
   0   5   1   33.76    3.68
   0   5   1   36.77    3.75
   0   5   1   40.37    3.76
   0   5   1   28.33    6.17
   0   5   1   37.55    3.84
   0   5   1   33.54    3.93
   0   5   2  176.29   10.06
   0   5   2  173.70   10.42
   0   5   2  138.94   10.32
   0   5   2  158.38   10.70
   0   5   2  154.24    9.68
   0   5   2  163.98   10.01
   0   5   2  155.58   16.23
   0   5   2  164.14    9.94
   0   5   2  152.55   10.82
   0   5   2  164.80   10.59
   0   5   2  136.30    9.97
   0   5   2  151.56   10.63
   0   5   2  126.83   14.51
   0   5   3  144.37    9.81
   0   5   3  122.82    8.34
   0   5   3  131.68    8.91
   0   5   3  109.24   13.64
   0   5   3  139.95    9.01
   0   5   3  130.00    9.66
   0   5   3  142.86    9.59
   0   5   3  143.29    9.42
   0   5   3  138.19    8.77
   0   5   3  151.35    9.40
   0   5   4  441.28   23.65
   0   5   4  425.31   23.11
   0   5   4  447.99   24.04
   0   5   4  442.20   24.11
   0   5   4  439.01   23.52
   0   5   4  431.86   30.70
   0   5   4  438.11   23.45
   0   5   4  456.52   24.45
   0   5   4  452.56   24.29
   0   5   4  420.04   29.71
   0   5   4  446.35   23.99
   0   5   4  450.03   23.81
   0   5   5   15.54    2.37
   0   5   5   16.64    2.70
   0   5   5   17.01    2.69
   0   5   5   13.51    4.59
   0   5   5   16.25    2.61
   0   5   5   18.29    3.13
   0   5   5   18.91    3.06
   0   5   5   18.58    4.89
   0   5   5   14.62    2.65
   0   5   5   18.99    2.85
   0   5   5   20.78    3.05
   0   5   6  207.87   12.32
   0   5   6  201.53   11.79
   0   5   6  197.30   12.24
   0   5   6  197.06   12.28
   0   5   6  210.98   12.47
   0   5   6  185.98   17.16
   0   5   6  192.72   12.16
   0   5   6  181.42   16.48
   0   5   6  192.17   12.11
   0   5   6  209.20   12.59
   0   5   7   11.27    3.58
   0   5   7   10.23    2.19
   0   5   7   12.49    2.42
   0   5   7    8.52    2.05
   0   5   7   13.64    2.36
   0   5   7    9.25    2.03
   0   5   8  216.27   13.24
   0   5   8  211.84   12.66
   0   5   8  219.90   13.09
   0   5   8  170.41   16.04
   0   5   8  223.79   12.88
   0   5   8  216.85   12.79
   0   5   9    6.03    1.92
   0   5   9    3.67    1.70
   0   5   9    3.65    1.59
   0   5   9    6.17    1.63
   0   5   9    4.59    1.80
   0   5  10   39.89    3.95
   0   5  10   33.37    3.74
   0   5  10   43.90    4.47
   0   5  10   42.44    4.59
   0   5  11   28.28    3.51
   0   5  11   23.52    3.56
   0   5  12  148.57    9.68
   0   5  13    1.34    1.30
   0   5  14  671.58   32.36
   0   5  14  614.55   31.65
   0   5  14  605.81   32.10
   0   5  15   66.20    5.20
   0   5  15   59.80    4.72
   0   5  15   68.02    5.22
   0   5  16    4.47    1.29
   0   5  16    4.31    1.29
   0   5  16    3.73    1.09
   0   5  17   31.25    2.82
   0   5  17   24.34    2.15
   0   5  17   28.04    2.60
   0   5  18   93.55    5.77
   0   5  18  109.33    6.06
   0   6 -11   48.68    3.16
   0   6 -10   -0.13    0.55
   0   6  -9    2.16    0.86
   0   6  -8   15.52    1.77
   0   6  -7  187.34   10.39
   0   6  -6    0.17    0.68
   0   6  -6   -0.19    0.76
   0   6  -6    0.22    0.97
   0   6  -5   57.90    4.71
   0   6  -5   54.19    4.33
   0   6  -5   52.94    4.26
   0   6  -4   35.33    3.63
   0   6  -4   35.80    3.36
   0   6  -4   32.70    3.34
   0   6  -3  177.66   11.01
   0   6  -3  170.22   10.68
   0   6  -3  183.62   10.86
   0   6  -3  190.80   10.62
   0   6  -2    2.73    1.44
   0   6  -2    3.03    1.50
   0   6  -2    1.56    1.07
   0   6  -2    2.26    1.17
   0   6  -1  136.61    9.31
   0   6  -1  154.41    9.77
   0   6  -1  158.68    9.79
   0   6  -1  148.45    9.01
   0   6   0   21.51    3.07
   0   6   0   21.40    3.13
   0   6   0   13.00    2.14
   0   6   0   17.91    2.45
   0   6   1  190.78   10.82
   0   6   1  210.22   12.12
   0   6   1  210.37   12.20
   0   6   2   27.40    3.03
   0   6   2   28.62    3.72
   0   6   2   25.84    3.58
   0   6   3   72.97    5.63
   0   6   3   78.42    5.59
   0   6   4  119.22    8.32
   0   6   4  149.17    9.03
   0   6   4  152.28    9.76
   0   6   4  146.21    8.66
   0   6   5    4.28    1.57
   0   6   5    7.12    1.82
   0   6   5    8.13    2.13
   0   6   5    7.29    2.02
   0   6   5    6.98    1.68
   0   6   6    4.12    1.48
   0   6   6    3.91    1.36
   0   6   6    4.09    1.47
   0   6   6    4.06    1.56
   0   6   6    7.03    1.77
   0   6   7   45.97    4.15
   0   6   7   48.35    4.40
   0   6   7   41.17    4.12
   0   6   7   42.11    4.11
   0   6   7   45.50    4.24
   0   6   8    1.93    1.37
   0   6   8    0.78    1.04
   0   6   8   -0.24    0.86
   0   6   8    1.34    1.05
   0   6   9    6.77    1.66
   0   6   9    8.69    1.62
   0   6   9    7.37    1.76
   0   6  10    5.09    1.53
   0   6  10    5.61    1.61
   0   6  11  150.58    9.62
   0   6  11  150.15    9.54
   0   6  11  177.18    9.79
   0   6  12   27.28    2.97
   0   6  12   29.00    2.93
   0   6  13    3.60    1.23
   0   6  13    5.67    1.26
   0   6  14    5.27    1.18
   0   6  14    4.63    1.02
   0   6  15   25.46    2.11
   0   7   0  309.88   16.07
   0   7   1   20.07    2.30
   0   7   2   50.29    4.03
   0   7   5   31.12    2.82
   1  -3 -15   15.09    4.33
   1  -3 -14   46.07    7.32
   1  -3 -13   13.52    3.98
   1  -3 -12   46.92    7.03
   1  -3 -11   -5.41    4.13
   1  -3 -10   36.67    5.63
   1  -3  -9    1.92    1.65
   1  -3  -8 1172.99   60.46
   1  -3  -7   70.45    7.10
   1  -3  -6  232.28   15.08
   1  -3  -5   38.03    4.50
   1  -3  -4 1840.79   89.38
   1  -3  -1   29.44    3.76
   1  -3   2  640.69   33.96
   1  -3   3  826.03   43.55
   1  -3   4    1.18    1.62
   1  -3   5  861.41   46.62
   1  -3   6  193.61   15.10
   1  -3   7  284.46   20.77
   1  -3   7  304.36   15.87
   1  -3   8  395.28   27.09
   1  -3   8  424.48   21.53
   1  -3   9    2.83    2.60
   1  -3   9    5.61    1.47
   1  -3   9    3.99    2.35
   1  -3  10  620.85   38.08
   1  -3  10  617.48   30.73
   1  -3  10  582.51   35.03
   1  -3  11   62.37    9.33
   1  -3  11   76.18    5.54
   1  -3  11   68.13    8.00
   1  -3  12   79.60    5.97
   1  -3  12   86.71   11.12
   1  -3  13    1.76    1.23
   1  -3  14   91.40    6.60
   1  -3  15    3.95    1.53
   1  -3  16    6.64    1.59
   1  -3  17  102.17    6.75
   1  -3  17  107.38    7.54
   1  -3  18   23.59    2.77
   1  -3  19    2.75    0.87
   1  -2 -20   48.99    4.05
   1  -2 -19  153.74    9.61
   1  -2 -18    2.25    1.23
   1  -2 -17    9.13    2.09
   1  -2 -16   85.97    6.59
   1  -2 -16   87.50   10.88
   1  -2 -15  134.74    8.99
   1  -2 -15  144.58   14.13
   1  -2 -14   10.22    1.93
   1  -2 -14    8.77    3.58
   1  -2 -13   24.63    2.89
   1  -2 -13   28.07    5.56
   1  -2 -12   53.89    7.56
   1  -2 -11 1270.76   66.72
   1  -2 -10   19.71    4.08
   1  -2  -9   22.47    4.23
   1  -2  -8  205.15   14.25
   1  -2  -7 1225.42   61.85
   1  -2  -6   91.40    6.02
   1  -2  -5   55.53    4.22
   1  -2  -4  364.25   19.01
   1  -2  -3  485.10   24.94
   1  -2  -2  354.78   18.96
   1  -2  -1  480.88   22.41
   1  -2  -1  402.60   20.06
   1  -2   0 1626.24   77.34
   1  -2   1  183.48   10.76
   1  -2   2 2368.53  113.48
   1  -2   3  431.02   23.74
   1  -2   4 1675.87   80.02
   1  -2   4 1737.29   83.41
   1  -2   5   20.67    3.67
   1  -2   6   73.95    7.62
   1  -2   6   71.62    5.90
   1  -2   7   69.37    7.85
   1  -2   7   78.79    6.41
   1  -2   8  284.57   18.48
   1  -2   8  250.13   13.59
   1  -2   8  235.28   15.18
   1  -2   9   22.92    4.82
   1  -2   9   32.85    3.12
   1  -2   9   29.33    4.05
   1  -2  10  530.98   32.24
   1  -2  10  543.17   26.28
   1  -2  10  499.31   29.81
   1  -2  10  457.82   28.06
   1  -2  11  171.99   16.02
   1  -2  11  186.26   11.02
   1  -2  11  209.35   15.16
   1  -2  12   55.01    8.67
   1  -2  12   62.67    5.07
   1  -2  12   64.85    7.80
   1  -2  13  103.43   12.19
   1  -2  13  100.69    7.22
   1  -2  13  117.37   10.94
   1  -2  14  546.67   37.82
   1  -2  14  619.53   30.29
   1  -2  14  533.95   34.52
   1  -2  15   25.89    6.31
   1  -2  15   27.61    5.23
   1  -2  15   37.46    3.87
   1  -2  16   40.95    4.15
   1  -2  17   -0.28    1.53
   1  -2  18    0.52    1.28
   1  -2  19    5.84    1.52
   1  -2  19    5.59    1.81
   1  -2  20   65.08    4.67
   1  -2  20   64.52    5.06
   1  -2  21   31.90    2.77
   1  -1 -22  129.17    7.77
   1  -1 -21   21.55    2.77
   1  -1 -20  109.28    7.75
   1  -1 -19   46.12    4.66
   1  -1 -18  298.95   17.23
   1  -1 -17   44.85    4.72
   1  -1 -16  611.71   31.81
   1  -1 -15  223.20   13.40
   1  -1 -14  150.66    9.76
   1  -1 -13   84.43    6.33
   1  -1 -13   92.98   10.08
   1  -1 -12   99.13    6.93
   1  -1 -12  114.11   10.70
   1  -1 -11   75.61    8.41
   1  -1 -10  343.28   21.58
   1  -1  -9   10.77    2.96
   1  -1  -8 1603.31   75.73
   1  -1  -8 1456.09   73.94
   1  -1  -7   12.90    2.23
   1  -1  -6  893.18   44.07
   1  -1  -5   98.22    6.45
   1  -1  -4 1056.72   51.30
   1  -1  -3   81.41    5.62
   1  -1  -2    1.87    1.05
   1  -1  -1    8.44    1.14
   1  -1  -1   10.77    1.85
   1  -1   0    4.67    0.71
   1  -1   0    3.85    0.86
   1  -1   1 1605.89   76.39
   1  -1   2 2660.19  126.08
   1  -1   3 3669.08  173.72
   1  -1   4   -0.32    0.63
   1  -1   4    1.33    1.21
   1  -1   5  628.68   31.39
   1  -1   5  655.89   33.70
   1  -1   6   20.00    2.39
   1  -1   6   26.57    4.05
   1  -1   6   18.23    2.66
   1  -1   7  900.40   46.18
   1  -1   7  856.48   43.78
   1  -1   8  108.58    9.55
   1  -1   8   90.50    7.49
   1  -1   9  205.22   14.69
   1  -1   9  176.43   12.11
   1  -1   9  175.06   10.07
   1  -1  10   18.99    4.33
   1  -1  10   19.96    3.83
   1  -1  10   13.17    3.01
   1  -1  10   19.40    2.39
   1  -1  11   10.18    3.46
   1  -1  11   14.21    3.40
   1  -1  11   10.32    2.86
   1  -1  11   14.10    2.11
   1  -1  12  224.90   17.60
   1  -1  12  191.06   15.28
   1  -1  12  213.40   12.06
   1  -1  13  203.08   17.55
   1  -1  13  225.94   16.13
   1  -1  13  195.06   11.73
   1  -1  14    3.08    2.37
   1  -1  14    0.52    1.24
   1  -1  15    3.26    2.52
   1  -1  15    4.64    1.73
   1  -1  16    9.72    4.29
   1  -1  16   12.20    2.39
   1  -1  16    6.81    2.79
   1  -1  17  973.22   48.34
   1  -1  18    7.39    1.99
   1  -1  19   59.02    5.05
   1  -1  20   15.61    2.30
   1  -1  21  132.55    7.70
   1  -1  22   -0.19    0.50
   1   0 -23   10.79    1.38
   1   0 -22   64.98    4.80
   1   0 -21   97.50    6.84
   1   0 -20    0.30    1.58
   1   0 -19  205.78   12.78
   1   0 -18  461.11   24.97
   1   0 -17   12.81    4.10
   1   0 -17   18.06    2.98
   1   0 -16  274.34   23.21
   1   0 -16  352.63   18.94
   1   0 -15  123.06   13.55
   1   0 -15  179.92   10.80
   1   0 -14   -0.87    1.90
   1   0 -14    0.60    0.97
   1   0 -13    1.58    1.89
   1   0 -13   -0.27    0.96
   1   0 -12  224.88   16.57
   1   0 -12  221.04   12.74
   1   0 -11  957.94   50.93
   1   0 -10   19.63    3.82
   1   0  -9  597.74   32.73
   1   0  -8  117.33    6.74
   1   0  -8  138.68    7.30
   1   0  -7    6.79    1.92
   1   0  -7    4.72    1.82
   1   0  -6  300.23   16.89
   1   0  -5  728.91   36.45
   1   0  -4 3240.73  153.08
   1   0  -3  178.09   10.12
   1   0   0  514.29   25.60
   1   0   1  213.48   11.03
   1   0   1  194.37   10.87
   1   0   2 1061.73   49.74
   1   0   2  998.96   49.35
   1   0   3  983.68   47.54
   1   0   4  518.32   25.39
   1   0   4  461.47   24.24
   1   0   5  809.69   39.62
   1   0   5  774.19   39.81
   1   0   5  846.15   40.98
   1   0   6  112.03    7.50
   1   0   6  103.56    8.18
   1   0   7 1314.37   64.48
   1   0   8  388.27   21.74
   1   0   9    1.26    1.36
   1   0  10  594.26   29.14
   1   0  10  627.22   32.38
   1   0  10  573.03   28.83
   1   0  11   34.25    5.72
   1   0  11   31.42    2.98
   1   0  11   28.24    2.65
   1   0  11   28.68    4.47
   1   0  12    0.84    1.84
   1   0  12    4.27    1.37
   1   0  13    0.93    2.21
   1   0  13    3.66    1.33
   1   0  13    0.44    0.99
   1   0  14  311.54   23.53
   1   0  14  325.43   17.01
   1   0  14  308.83   17.17
   1   0  15  163.57   16.16
   1   0  15  170.98   10.56
   1   0  15  194.13   10.99
   1   0  16  820.24   47.33
   1   0  16  817.60   39.00
   1   0  16  731.98   38.36
   1   0  17   35.25    6.92
   1   0  17   21.16    2.77
   1   0  17   29.12    3.51
   1   0  18    7.66    2.01
   1   0  19   44.27    4.28
   1   0  20  146.77    9.77
   1   0  20  155.45    9.24
   1   0  20  139.16    9.13
   1   0  21   50.75    4.52
   1   0  21   55.25    4.16
   1   0  21   49.33    4.14
   1   0  22  281.45   15.29
   1   0  22  297.57   14.94
   1   1 -16  142.94   13.89
   1   1 -15  380.43   28.88
   1   1 -15  516.47   25.56
   1   1 -14   -0.81    1.58
   1   1 -14   -0.31    1.09
   1   1 -13    3.63    2.23
   1   1 -13    0.86    1.15
   1   1 -12    2.56    1.76
   1   1 -12    1.04    1.01
   1   1 -11   34.96    4.83
   1   1 -11   28.12    3.09
   1   1 -10  285.15   17.96
   1   1  -9  665.76   35.31
   1   1  -8  107.27    6.98
   1   1  -8  121.01    7.33
   1   1  -7  364.31   18.05
   1   1  -7  340.54   17.97
   1   1  -7  347.66   17.75
   1   1  -7  319.11   19.17
   1   1  -6  507.56   25.58
   1   1  -6  507.32   25.49
   1   1  -6  523.37   26.43
   1   1  -6  471.97   27.03
   1   1  -5  688.14   33.99
   1   1  -5  678.65   33.87
   1   1  -4  778.20   38.89
   1   1  -4  796.88   38.81
   1   1  -3   32.21    3.21
   1   1  -2  815.55   40.07
   1   1  -2  806.99   39.57
   1   1  -1 1214.90   58.20
   1   1   0   46.22    3.48
   1   1   0   41.33    4.02
   1   1   0   54.83    3.66
   1   1   1   21.21    2.17
   1   1   1   20.98    2.72
   1   1   1   20.72    2.12
   1   1   2 2463.76  113.69
   1   1   2 2453.22  114.38
   1   1   2 2293.93  113.36
   1   1   2 2438.26  113.33
   1   1   3 8845.23  419.63
   1   1   3 8952.89  419.00
   1   1   3 9063.54  419.12
   1   1   4 3921.87  185.42
   1   1   4 3946.83  185.40
   1   1   5  283.67   16.16
   1   1   5  298.97   15.76
   1   1   5  326.35   17.01
   1   1   5  283.89   16.14
   1   1   6 1067.96   54.01
   1   1   6 1079.74   53.67
   1   1   6 1232.85   55.87
   1   1   6 1137.40   54.58
   1   1   7 1452.17   72.05
   1   1   7 1448.06   71.72
   1   1   7 1677.26   74.77
   1   1   7 1574.80   73.35
   1   1   8   21.03    2.11
   1   1   8   30.48    3.70
   1   1   8   27.93    4.17
   1   1   8   18.76    2.10
   1   1   8   23.46    2.49
   1   1   8   20.00    2.18
   1   1   9   51.25    6.30
   1   1   9   56.91    5.55
   1   1   9   56.15    3.81
   1   1   9   50.86    3.84
   1   1  10   31.40    4.94
   1   1  10   24.92    3.86
   1   1  10   28.97    2.62
   1   1  10   29.28    2.77
   1   1  11  435.09   26.37
   1   1  11  447.18   24.75
   1   1  11  407.86   21.23
   1   1  11  421.69   21.51
   1   1  12  114.76   11.44
   1   1  12  111.80   10.10
   1   1  12  122.30    7.36
   1   1  12  118.32    7.51
   1   1  13  641.34   36.72
   1   1  13  656.40   32.39
   1   1  13  636.00   32.56
   1   1  13  692.31   39.02
   1   1  14   21.45    4.75
   1   1  14   22.79    2.72
   1   1  14   19.07    2.61
   1   1  14   15.07    4.50
   1   1  15  154.18   14.24
   1   1  15  167.97   10.08
   1   1  15  163.39    9.97
   1   1  15  146.76   14.65
   1   1  16    9.16    2.13
   1   1  16    9.70    2.05
   1   1  16    8.16    3.47
   1   1  17  484.85   25.04
   1   1  17  492.36   25.19
   1   1  17  412.12   30.60
   1   1  18  104.78    7.56
   1   1  18  115.62    7.87
   1   1  18  119.40    8.28
   1   1  18  101.10    8.12
   1   1  19    8.36    1.86
   1   1  19    4.04    1.60
   1   1  19    5.57    1.85
   1   1  19    5.74    1.76
   1   1  20   38.15    3.68
   1   1  20   36.77    3.55
   1   1  20   30.54    3.62
   1   1  21   74.37    5.22
   1   1  21   67.99    5.27
   1   1  21   82.83    5.52
   1   1  22    7.16    1.34
   1   1  23    1.02    0.46
   1   2 -21    0.47    0.58
   1   2 -20   23.31    2.51
   1   2 -19  155.29    8.97
   1   2 -19  130.01    8.24
   1   2 -18  369.79   19.96
   1   2 -17  122.37    8.52
   1   2 -16   33.58    3.90
   1   2 -15  140.80    9.22
   1   2 -15  142.82    9.61
   1   2 -14   30.33    3.44
   1   2 -14   31.63    3.76
   1   2 -13    0.86    0.92
   1   2 -13    2.03    1.41
   1   2 -12  340.95   18.30
   1   2 -12  325.27   18.08
   1   2 -11   44.47    5.64
   1   2 -11   55.07    4.49
   1   2 -10  113.69    9.35
   1   2 -10  122.65    7.69
   1   2  -9    6.42    1.94
   1   2  -8  246.83   14.83
   1   2  -8  250.31   14.97
   1   2  -7   -0.33    1.02
   1   2  -7    1.03    1.21
   1   2  -7    1.87    0.96
   1   2  -7    2.02    1.12
   1   2  -6   57.60    5.25
   1   2  -6   60.06    5.48
   1   2  -6   53.90    5.02
   1   2  -6   54.23    4.60
   1   2  -5   15.59    2.63
   1   2  -5   13.55    2.56
   1   2  -5   14.56    2.43
   1   2  -5    9.76    1.63
   1   2  -4 3796.36  175.49
   1   2  -4 3673.09  175.26
   1   2  -4 3870.77  175.17
   1   2  -4 3583.69  173.19
   1   2  -3   17.55    2.88
   1   2  -3   20.97    3.12
   1   2  -3   19.74    1.68
   1   2  -2  731.53   37.41
   1   2  -2  701.71   37.10
   1   2  -2  736.51   37.26
   1   2  -1  703.24   33.47
   1   2  -1  604.45   32.37
   1   2   0  283.15   15.06
   1   2   0  245.23   13.98
   1   2   1  142.82    8.76
   1   2   1  134.69    9.76
   1   2   1  129.04    9.62
   1   2   1  130.68    7.77
   1   2   2   17.62    2.49
   1   2   2   20.02    3.34
   1   2   2   21.74    3.41
   1   2   2   17.71    1.84
   1   2   3   17.97    2.48
   1   2   3   13.61    1.37
   1   2   3   20.98    3.17
   1   2   3   17.97    3.06
   1   2   4  114.83    8.35
   1   2   4  102.60    7.95
   1   2   5  386.22   20.65
   1   2   5  344.15   20.23
   1   2   6  632.48   31.78
   1   2   6  551.79   31.32
   1   2   6  631.17   31.48
   1   2   6  602.69   30.73
   1   2   7   17.40    2.71
   1   2   7   14.86    2.67
   1   2   7   14.97    2.48
   1   2   7   15.73    2.71
   1   2   8 1573.85   75.97
   1   2   8 1587.46   76.28
   1   2   8 1438.20   76.55
   1   2   8 1628.66   76.01
   1   2   9  969.20   46.77
   1   2   9 1095.36   51.19
   1   2   9  902.69   48.02
   1   2   9  969.54   49.63
   1   2   9  949.40   47.87
   1   2  10  512.94   30.73
   1   2  10  557.94   30.22
   1   2  10  527.68   26.79
   1   2  11  977.10   49.77
   1   2  11 1090.27   51.42
   1   2  11 1095.83   50.75
   1   2  11 1059.35   55.66
   1   2  12   -0.95    0.98
   1   2  12    2.70    1.24
   1   2  12    2.63    1.34
   1   2  12    0.67    0.79
   1   2  12    3.97    2.32
   1   2  13    1.22    0.98
   1   2  13    1.54    1.20
   1   2  13    1.89    1.23
   1   2  13    2.56    2.75
   1   2  13    0.51    1.06
   1   2  13    1.27    1.33
   1   2  13    0.57    0.83
   1   2  14  681.20   33.28
   1   2  14  581.82   32.76
   1   2  14  576.33   37.67
   1   2  14  669.38   32.63
   1   2  14  685.62   32.67
   1   2  14  613.26   31.82
   1   2  15  484.61   27.48
   1   2  15  506.05   26.69
   1   2  16  522.15   29.53
   1   2  16  546.21   28.90
   1   2  17   41.01    4.28
   1   2  17   51.39    4.65
   1   2  17   42.19    4.07
   1   2  18   99.09    7.34
   1   2  18  116.04    7.74
   1   2  19   45.50    4.28
   1   2  19   36.62    3.86
   1   2  20    2.06    1.15
   1   2  20    1.37    1.18
   1   2  21   81.33    5.68
   1   2  22   56.65    4.03
   1   3 -17   64.01    4.70
   1   3 -16   44.25    3.97
   1   3 -16   37.52    3.66
   1   3 -16   44.71    3.90
   1   3 -15  326.84   17.01
   1   3 -15  269.86   16.34
   1   3 -15  317.82   16.81
   1   3 -14   23.51    3.08
   1   3 -14   22.75    2.98
   1   3 -14   15.77    2.44
   1   3 -13   78.85    6.21
   1   3 -13   90.27    6.96
   1   3 -13   79.16    6.15
   1   3 -12   30.76    3.69
   1   3 -12   28.99    3.22
   1   3 -12   24.51    3.47
   1   3 -12   28.17    3.22
   1   3 -11  118.51    8.09
   1   3 -11   94.50    7.05
   1   3 -11  103.80    7.95
   1   3 -11  123.72    7.89
   1   3 -10  170.05   11.03
   1   3 -10  175.20   10.68
   1   3  -9 1138.61   55.52
   1   3  -9 1117.18   55.19
   1   3  -8   51.51    4.60
   1   3  -8   53.03    4.51
   1   3  -8   54.67    6.22
   1   3  -7 1216.86   57.54
   1   3  -7 1197.55   60.79
   1   3  -7 1141.01   56.93
   1   3  -7 1192.46   57.07
   1   3  -7 1198.01   60.31
   1   3  -6  255.18   13.76
   1   3  -6  257.22   13.84
   1   3  -6  261.78   17.01
   1   3  -6  252.18   17.58
   1   3  -6  260.78   16.59
   1   3  -5  434.09   22.24
   1   3  -5  435.65   22.31
   1   3  -5  457.84   25.79
   1   3  -5  453.33   26.06
   1   3  -5  435.20   25.21
   1   3  -4  343.48   18.15
   1   3  -4  344.17   18.22
   1   3  -4  370.45   21.44
   1   3  -4  376.44   21.70
   1   3  -4  369.27   21.46
   1   3  -4  345.00   20.92
   1   3  -3  312.04   16.47
   1   3  -3  304.11   16.39
   1   3  -3  326.64   19.64
   1   3  -3  337.07   19.89
   1   3  -3  319.40   19.11
   1   3  -3  304.33   19.06
   1   3  -2  203.70   11.92
   1   3  -2  213.91   11.96
   1   3  -2  230.21   15.17
   1   3  -2  231.80   15.29
   1   3  -2  244.14   14.36
   1   3  -2  209.92   14.42
   1   3  -1   54.86    4.26
   1   3  -1   50.93    4.22
   1   3  -1   46.96    6.04
   1   3  -1   57.71    6.60
   1   3  -1   55.95    5.50
   1   3  -1   60.08    6.46
   1   3   0    1.64    1.68
   1   3   1   39.39    3.54
   1   3   1   38.56    3.58
   1   3   1   45.72    5.94
   1   3   1   41.77    5.76
   1   3   1   42.96    4.53
   1   3   1   37.64    5.26
   1   3   2  138.78    9.01
   1   3   2  111.71    7.76
   1   3   2  134.01    7.91
   1   3   2  122.78   10.50
   1   3   2  138.11   11.27
   1   3   3  516.04   29.61
   1   3   3  500.27   26.37
   1   3   3  529.33   26.30
   1   3   3  551.02   29.92
   1   3   3  537.69   30.29
   1   3   4    0.37    0.94
   1   3   4   -0.52    1.25
   1   3   4   -0.20    1.06
   1   3   4    1.59    2.00
   1   3   4    1.74    1.96
   1   3   5   32.49    2.96
   1   3   5   27.54    2.77
   1   3   5   25.28    4.10
   1   3   5   24.71    4.19
   1   3   5   33.47    4.61
   1   3   5   25.78    2.51
   1   3   6  194.12   11.18
   1   3   6  200.04   11.08
   1   3   6  222.21   14.34
   1   3   6  196.68   14.18
   1   3   6  211.85   14.08
   1   3   6  195.04   10.96
   1   3   7    2.72    1.68
   1   3   7    3.94    1.15
   1   3   7    7.05    1.36
   1   3   7    1.49    1.46
   1   3   7    2.61    1.10
   1   3   8   28.92    4.53
   1   3   8   27.15    2.81
   1   3   8   25.64    2.70
   1   3   8   23.88    2.63
   1   3   9   58.65    4.60
   1   3   9   56.64    4.55
   1   3   9   52.07    6.16
   1   3   9   49.75    5.83
   1   3   9   56.27    4.78
   1   3   9   54.73    4.82
   1   3  10   83.30    5.95
   1   3  10   75.89    5.82
   1   3  10   88.02    6.54
   1   3  10   84.52    7.56
   1   3  10   79.63    6.20
   1   3  11  228.89   12.88
   1   3  11  237.69   13.67
   1   3  11  216.53   13.22
   1   3  11  219.29   12.82
   1   3  12   44.54    3.97
   1   3  12   43.21    4.31
   1   3  12   39.27    4.45
   1   3  12   40.76    4.04
   1   3  13   16.36    2.66
   1   3  13   13.11    2.72
   1   3  13   14.60    2.52
   1   3  14  373.90   20.50
   1   3  14  355.71   20.89
   1   3  14  390.49   20.47
   1   3  15   10.08    2.11
   1   3  15    9.78    2.31
   1   3  16    1.67    1.24
   1   3  17  193.24   11.48
   1   3  18  212.39   12.66
   1   3  19   59.86    4.94
   1   3  20   92.74    6.30
   1   3  21   92.41    5.91
   1   3  22    0.97    0.56
   1   4 -16   93.21    6.01
   1   4 -15    8.70    1.77
   1   4 -14   21.45    2.43
   1   4 -14   27.78    3.15
   1   4 -13   29.07    3.48
   1   4 -13   29.90    3.14
   1   4 -13   27.39    3.05
   1   4 -12  161.83    9.93
   1   4 -12  141.66    9.22
   1   4 -12  135.55    9.10
   1   4 -11   63.49    5.52
   1   4 -11   59.95    5.21
   1   4 -11   55.51    5.01
   1   4 -10   62.15    5.54
   1   4 -10   66.65    5.55
   1   4 -10   54.36    5.14
   1   4  -9    2.57    1.34
   1   4  -9    5.06    1.52
   1   4  -9    4.94    1.66
   1   4  -8  431.30   23.06
   1   4  -8  435.19   23.18
   1   4  -7    3.27    1.32
   1   4  -7   -0.78    1.32
   1   4  -7    0.58    1.21
   1   4  -7    1.37    1.00
   1   4  -7    2.70    1.26
   1   4  -6    0.95    1.41
   1   4  -6    2.45    1.15
   1   4  -6   -0.77    2.04
   1   4  -6    2.24    1.39
   1   4  -6    2.29    1.03
   1   4  -6    0.74    1.35
   1   4  -6    3.61    2.23
   1   4  -5  120.22    8.20
   1   4  -5  120.85    8.09
   1   4  -5  130.38    8.38
   1   4  -5  127.40    8.25
   1   4  -5  129.74   12.22
   1   4  -5  135.64    8.55
   1   4  -5  136.80    8.34
   1   4  -5  120.86   11.43
   1   4  -4 1669.27   75.90
   1   4  -4 1621.53   75.89
   1   4  -4 1548.04   80.89
   1   4  -4 1530.81   80.21
   1   4  -4 1590.57   75.49
   1   4  -4 1496.71   75.58
   1   4  -4 1516.73   75.54
   1   4  -3  565.46   29.23
   1   4  -3  572.57   29.22
   1   4  -3  567.05   29.36
   1   4  -3  589.07   29.43
   1   4  -3  579.75   29.34
   1   4  -3  570.58   34.13
   1   4  -3  575.27   28.90
   1   4  -3  567.46   33.57
   1   4  -2  442.36   23.62
   1   4  -2  454.85   23.61
   1   4  -2  426.67   23.57
   1   4  -2  457.88   23.69
   1   4  -2  455.00   23.70
   1   4  -2  481.52   28.85
   1   4  -2  465.50   23.62
   1   4  -2  454.90   28.05
   1   4  -2  448.93   23.06
   1   4  -1  416.00   22.39
   1   4  -1  412.17   21.97
   1   4  -1  443.84   22.84
   1   4  -1  437.44   22.76
   1   4  -1  406.75   22.66
   1   4  -1  419.96   22.36
   1   4  -1  442.64   22.46
   1   4  -1  458.22   23.03
   1   4  -1  425.46   22.84
   1   4  -1  430.40   22.50
   1   4  -1  462.00   22.79
   1   4  -1  446.12   27.96
   1   4  -1  433.21   27.31
   1   4   0   26.44    3.19
   1   4   0   30.04    3.37
   1   4   0   31.22    3.17
   1   4   0   33.67    5.64
   1   4   0   29.25    3.08
   1   4   0   26.30    2.93
   1   4   0   28.52    3.11
   1   4   1    0.23    0.72
   1   4   1   -0.47    0.94
   1   4   1   -0.23    0.82
   1   4   1    0.49    0.89
   1   4   1    1.69    2.18
   1   4   1   -0.29    0.99
   1   4   1    0.57    1.07
   1   4   2   12.39    1.96
   1   4   2   10.16    1.83
   1   4   2   13.02    2.03
   1   4   2   10.71    1.86
   1   4   2    7.44    2.08
   1   4   2    8.35    3.53
   1   4   2    9.67    1.87
   1   4   2   10.21    2.07
   1   4   2    9.69    2.14
   1   4   3    6.85    1.34
   1   4   3    7.09    1.56
   1   4   3    6.79    1.62
   1   4   3    5.86    1.45
   1   4   3    6.07    1.90
   1   4   3    8.18    3.45
   1   4   3    8.36    1.67
   1   4   3    7.23    1.70
   1   4   3    8.35    1.78
   1   4   3    8.52    1.96
   1   4   3    8.86    2.13
   1   4   4   19.26    2.28
   1   4   4   16.91    2.39
   1   4   4   17.53    2.18
   1   4   4   18.07    2.51
   1   4   4   19.67    2.77
   1   4   4   19.35    4.62
   1   4   4   22.18    2.78
   1   4   4   16.83    2.59
   1   4   4   20.68    2.68
   1   4   4   21.28    2.80
   1   4   4   22.30    2.94
   1   4   4   21.76    4.60
   1   4   5  243.37   17.93
   1   4   5  244.35   13.22
   1   4   5  238.12   13.73
   1   4   5  203.23   12.99
   1   4   5  241.57   13.76
   1   4   5  251.57   13.88
   1   4   5  247.63   14.01
   1   4   5  246.76   13.88
   1   4   5  271.88   19.10
   1   4   5  263.60   14.09
   1   4   5  240.87   13.93
   1   4   5  242.11   13.77
   1   4   5  252.33   13.86
   1   4   6  345.00   17.75
   1   4   6  332.74   17.22
   1   4   6  318.79   17.73
   1   4   6  295.06   17.06
   1   4   6  328.15   17.80
   1   4   6  336.91   17.89
   1   4   6  327.50   17.81
   1   4   6  331.61   17.71
   1   4   6  306.89   22.02
   1   4   6  309.46   21.70
   1   4   6  333.29   17.77
   1   4   6  316.13   17.57
   1   4   7  182.79   10.62
   1   4   7  160.40    9.77
   1   4   7  179.92   10.52
   1   4   7  128.53    9.37
   1   4   7  179.77   10.23
   1   4   7  168.95   10.16
   1   4   7  171.33   14.34
   1   4   7  170.11   10.11
   1   4   7  171.43   10.14
   1   4   7  150.65   13.34
   1   4   8   80.84    8.99
   1   4   8   86.42    6.57
   1   4   8   81.33    6.02
   1   4   8   87.24    6.53
   1   4   8   78.92    5.98
   1   4   8  102.55    7.07
   1   4   8   78.52    9.09
   1   4   8   76.85    6.10
   1   4   8   74.46    5.93
   1   4   8   90.72    6.43
   1   4   8   89.51    6.28
   1   4   9    9.40    1.95
   1   4   9    6.52    2.67
   1   4   9    9.42    2.07
   1   4   9    8.64    2.07
   1   4   9    9.07    1.91
   1   4   9    8.02    1.79
   1   4   9    9.22    2.26
   1   4   9    7.06    2.89
   1   4   9   13.09    2.14
   1   4   9    6.06    1.58
   1   4   9    8.93    1.69
   1   4  10  278.26   15.97
   1   4  10  243.42   18.89
   1   4  10  289.43   16.05
   1   4  10  309.57   16.53
   1   4  10  308.90   16.97
   1   4  10  283.12   16.70
   1   4  11  134.33    8.42
   1   4  11  119.54    8.21
   1   4  11  116.34    8.23
   1   4  11  121.63    8.91
   1   4  11  113.11    8.60
   1   4  12   22.16    2.97
   1   4  12   18.17    2.78
   1   4  12   20.44    2.93
   1   4  12   19.68    3.24
   1   4  12   22.34    3.31
   1   4  13    0.29    1.30
   1   4  13   -0.55    0.97
   1   4  13    0.39    1.47
   1   4  13    1.37    1.34
   1   4  14  235.76   13.72
   1   4  14  229.54   13.35
   1   4  14  224.06   14.31
   1   4  14  245.05   14.19
   1   4  15   53.56    4.92
   1   4  15   52.74    4.38
   1   4  15   44.48    4.90
   1   4  15   60.27    5.14
   1   4  16   23.04    3.30
   1   4  16   30.81    3.45
   1   4  16   22.69    2.99
   1   4  17  119.24    7.99
   1   4  17  114.45    7.84
   1   4  17  116.23    7.66
   1   4  18    1.87    1.37
   1   4  18    0.95    0.89
   1   4  19   18.55    1.87
   1   5 -14   30.25    2.36
   1   5 -14   40.89    3.07
   1   5 -13   16.56    1.92
   1   5 -13   19.93    2.31
   1   5 -12   15.76    2.10
   1   5 -12   16.86    2.38
   1   5 -11  259.88   14.20
   1   5 -11  251.07   14.34
   1   5 -10    1.02    1.19
   1   5  -9   28.61    2.95
   1   5  -9   30.49    3.40
   1   5  -8   54.58    4.48
   1   5  -8   50.18    4.76
   1   5  -8   55.59    4.98
   1   5  -7  241.14   13.67
   1   5  -7  243.62   14.26
   1   5  -7  250.37   14.47
   1   5  -6  103.82    7.85
   1   5  -6  142.02    8.81
   1   5  -6  118.63    7.75
   1   5  -6  113.00    7.89
   1   5  -6  117.92    7.83
   1   5  -6  115.75    7.84
   1   5  -5   92.85    7.06
   1   5  -5   93.11   10.60
   1   5  -5   98.95    7.44
   1   5  -5  105.81    6.84
   1   5  -5   94.64    7.01
   1   5  -5   89.08    9.93
   1   5  -5   95.88    6.91
   1   5  -5   92.40    6.86
   1   5  -4   62.68    5.32
   1   5  -4   57.12    5.20
   1   5  -4   78.13    5.97
   1   5  -4   70.07    5.96
   1   5  -4   71.86    9.14
   1   5  -4   59.64    4.98
   1   5  -4   69.14    5.60
   1   5  -4   61.13    8.12
   1   5  -4   70.16    5.71
   1   5  -3   21.11    2.98
   1   5  -3   27.58    3.30
   1   5  -3   30.00    3.55
   1   5  -3   21.39    3.19
   1   5  -3   31.15    6.06
   1   5  -3   26.14    2.92
   1   5  -3   23.91    3.25
   1   5  -3   23.00    4.96
   1   5  -3   21.76    3.16
   1   5  -2  211.59   13.05
   1   5  -2  212.04   13.02
   1   5  -2  221.82   13.33
   1   5  -2  188.14   12.83
   1   5  -2  189.12   17.52
   1   5  -2  232.27   12.49
   1   5  -2  232.46   13.36
   1   5  -2  219.25   17.92
   1   5  -2  227.53   13.30
   1   5  -1  113.83    8.03
   1   5  -1  112.36    8.01
   1   5  -1  100.38    7.74
   1   5  -1  101.33    7.51
   1   5  -1   85.37   11.42
   1   5  -1  109.83    7.11
   1   5  -1   87.86   10.92
   1   5  -1  105.31    8.04
   1   5  -1  112.97    8.18
   1   5   0  126.08    9.11
   1   5   0  118.36    8.52
   1   5   0  150.24    8.62
   1   5   0  151.70   14.83
   1   5   0  120.64   14.22
   1   5   0  139.74    9.53
   1   5   0  144.04    9.64
   1   5   1   10.58    2.16
   1   5   1   11.86    2.27
   1   5   1   10.67    2.25
   1   5   1   10.75    2.23
   1   5   1    9.28    1.87
   1   5   1    9.08    3.86
   1   5   1   12.57    2.67
   1   5   1    9.80    2.51
   1   5   2  504.23   28.28
   1   5   2  519.94   28.23
   1   5   2  520.82   27.43
   1   5   2  582.76   27.54
   1   5   2  550.07   27.66
   1   5   2  536.53   27.65
   1   5   2  539.72   27.60
   1   5   2  544.39   26.94
   1   5   2  475.83   34.14
   1   5   2  503.61   28.40
   1   5   2  527.48   28.41
   1   5   3  124.27    8.24
   1   5   3  127.09    8.25
   1   5   3  113.17    7.40
   1   5   3  110.93   13.47
   1   5   3  105.38    7.53
   1   5   3  120.99    7.88
   1   5   3  107.28    7.92
   1   5   3  113.37    8.76
   1   5   3  112.41    8.56
   1   5   4   36.94    4.18
   1   5   4   28.23    3.69
   1   5   4   28.10    3.34
   1   5   4   32.97    3.71
   1   5   4   31.49    3.71
   1   5   4   21.38    6.61
   1   5   4   31.54    3.66
   1   5   4   32.34    3.23
   1   5   4   32.53    4.04
   1   5   4   30.53    6.71
   1   5   4   39.11    4.51
   1   5   5   53.74    5.37
   1   5   5   59.40    5.48
   1   5   5   51.83    4.83
   1   5   5   62.80    5.46
   1   5   5   51.92    8.47
   1   5   5   65.62    5.45
   1   5   5   59.31    4.72
   1   5   5   63.40    5.68
   1   5   5   61.23    8.72
   1   5   5   64.95    5.84
   1   5   6  206.79   12.61
   1   5   6  203.09   12.47
   1   5   6  203.37   12.11
   1   5   6  209.32   12.67
   1   5   6  169.95   16.93
   1   5   6  204.00   12.41
   1   5   6  230.82   13.04
   1   5   6  203.67   12.62
   1   5   6  166.57   16.12
   1   5   7   42.07    4.22
   1   5   7   34.76    6.26
   1   5   7   35.13    3.82
   1   5   7   39.59    4.26
   1   5   7   39.09    4.33
   1   5   7   37.70    4.11
   1   5   7   32.64    6.30
   1   5   7   42.09    4.39
   1   5   7   39.09    4.08
   1   5   7   37.50    3.94
   1   5   8    8.40    2.12
   1   5   8   11.71    3.63
   1   5   8    5.65    1.97
   1   5   8    6.85    1.73
   1   5   8    7.33    2.07
   1   5   8    3.91    2.54
   1   5   8    8.37    2.01
   1   5   8    9.01    2.08
   1   5   8    6.11    1.78
   1   5   8   10.67    2.11
   1   5   9   97.56    7.06
   1   5   9   97.77    7.08
   1   5   9   93.84    7.32
   1   5   9  100.27    7.41
   1   5   9   90.87    6.84
   1   5   9   99.56    7.05
   1   5   9   95.80    7.07
   1   5  10  440.41   24.77
   1   5  10  519.79   25.48
   1   5  10  471.48   24.73
   1   5  10  537.41   25.80
   1   5  10  463.38   24.52
   1   5  10  439.16   24.45
   1   5  11   37.51    4.31
   1   5  11   35.75    4.11
   1   5  11   27.42    3.45
   1   5  11   38.26    4.00
   1   5  12    1.00    1.45
   1   5  12   -0.50    1.11
   1   5  12    1.34    1.46
   1   5  12    1.14    1.21
   1   5  12    1.12    1.10
   1   5  13   43.74    4.38
   1   5  13   33.87    3.53
   1   5  13   35.90    4.09
   1   5  13   31.55    3.51
   1   5  13   48.90    4.12
   1   5  14  171.68    9.49
   1   5  14  114.63    8.18
   1   5  14  114.50    8.23
   1   5  14  157.93    8.75
   1   5  14  148.27    9.23
   1   5  15   92.46    6.38
   1   5  15  106.96    7.17
   1   5  15  108.47    7.11
   1   5  16   16.14    2.20
   1   5  16   15.74    2.21
   1   5  17   35.65    3.15
   1   5  17   38.70    3.19
   1   5  18   58.01    4.08
   1   5  18   65.81    4.03
   1   6 -11   54.98    3.47
   1   6 -10    0.13    0.58
   1   6 -10   -0.14    0.59
   1   6  -9   -0.16    0.89
   1   6  -9    0.66    0.86
   1   6  -8  244.37   12.85
   1   6  -8  226.41   12.76
   1   6  -7   47.69    4.01
   1   6  -6   18.74    2.11
   1   6  -6   16.51    2.02
   1   6  -6   20.05    2.50
   1   6  -5    5.43    1.37
   1   6  -5    5.93    1.37
   1   6  -5    7.83    1.72
   1   6  -5    3.19    1.42
   1   6  -4  262.20   13.79
   1   6  -4  248.48   13.74
   1   6  -4  267.93   14.25
   1   6  -3  171.93    9.66
   1   6  -3  148.56    9.40
   1   6  -3  168.71    9.92
   1   6  -2  111.02    7.78
   1   6  -2  108.61    7.48
   1   6  -2  109.63    7.51
   1   6  -2   94.14    6.49
   1   6  -2  114.41    7.77
   1   6  -2  116.16    7.75
   1   6  -1  282.32   16.10
   1   6  -1  284.51   15.88
   1   6  -1  281.37   15.91
   1   6  -1  283.79   14.74
   1   6  -1  296.62   16.20
   1   6  -1  242.47   15.46
   1   6   0    4.19    1.87
   1   6   0    2.60    1.52
   1   6   0    4.90    1.83
   1   6   0    3.11    1.62
   1   6   0    3.58    1.45
   1   6   0    2.52    0.97
   1   6   1   49.03    3.89
   1   6   1   52.00    5.00
   1   6   1   51.39    4.99
   1   6   1   46.32    4.24
   1   6   2   13.89    2.90
   1   6   2   15.22    2.82
   1   6   2   14.02    2.76
   1   6   2   11.16    1.80
   1   6   2   13.87    2.01
   1   6   2   12.43    2.67
   1   6   3  359.07   19.89
   1   6   3  336.63   19.80
   1   6   4   14.55    2.81
   1   6   4   13.33    2.25
   1   6   4   17.78    2.99
   1   6   5   71.55    6.11
   1   6   5   63.23    5.31
   1   6   5   63.80    5.31
   1   6   5   69.05    5.88
   1   6   5   71.61    5.87
   1   6   5   68.19    5.74
   1   6   6    3.03    1.45
   1   6   6    2.85    1.39
   1   6   6    3.68    1.39
   1   6   6    2.89    1.57
   1   6   6    2.66    1.44
   1   6   6    2.89    1.60
   1   6   7  421.06   22.52
   1   6   7  408.25   22.29
   1   6   7  417.02   22.40
   1   6   7  449.23   22.48
   1   6   8   29.40    3.39
   1   6   8   28.64    3.09
   1   6   8   25.24    3.01
   1   6   8   24.70    3.09
   1   6   9   37.91    3.74
   1   6   9   27.11    3.40
   1   6   9   29.30    3.09
   1   6   9   30.56    3.12
   1   6   9   34.52    3.51
   1   6  10    7.97    1.87
   1   6  10    7.19    1.71
   1   6  10    7.82    1.87
   1   6  11   36.30    3.60
   1   6  11   36.36    3.44
   1   6  11   29.60    3.25
   1   6  12    6.24    1.46
   1   6  13  147.11    8.67
   1   6  14   12.44    1.72
   1   6  14   15.65    1.93
   1   6  15    4.61    0.95
   1   6  15    6.45    1.10
   1   7  -2   21.27    2.02
   1   7  -1   32.76    2.77
   1   7   0  128.77    7.65
   1   7   1    6.91    1.43
   1   7   1    6.01    1.33
   1   7   2  160.87    9.21
   1   7   2  150.74    9.10
   1   7   5    1.74    0.95
   1   7   6   68.41    4.59
   1   7   7   13.22    1.55
   2  -3 -13  174.79   15.68
   2  -3 -12   70.72    9.25
   2  -3 -11   29.73    5.82
   2  -3 -10    8.80    3.66
   2  -3  -9  174.35   14.78
   2  -3  -8  846.44   46.80
   2  -3  -7    3.39    2.09
   2  -3  -1   66.50    7.28
   2  -3   0   22.93    4.34
   2  -3   1  158.46   13.04
   2  -3   2  305.10   20.74
   2  -3   8   27.02    3.12
   2  -3   9  131.48    8.50
   2  -3  10  315.19   17.16
   2  -3  11   -0.72    1.45
   2  -3  11   -1.69    1.42
   2  -3  11    1.45    1.18
   2  -3  12  273.43   14.52
   2  -3  12  237.91   15.34
   2  -3  13   24.94    2.91
   2  -3  13   29.96    3.68
   2  -3  14  109.22    7.26
   2  -3  14  116.37    8.14
   2  -3  15    0.40    0.88
   2  -3  15    0.27    1.04
   2  -3  16   49.48    4.03
   2  -3  16   56.64    4.51
   2  -3  17   87.57    5.70
   2  -2 -18    0.47    1.05
   2  -2 -17   67.00    5.42
   2  -2 -16   38.40    3.87
   2  -2 -15  468.46   32.61
   2  -2 -15  500.96   25.83
   2  -2 -14    1.09    2.63
   2  -2 -14   11.37    2.14
   2  -2 -13   76.66   10.27
   2  -2 -13   81.44    6.07
   2  -2 -12   41.73    7.24
   2  -2 -12   51.17    4.43
   2  -2 -11  254.89   19.90
   2  -2 -10    7.00    3.09
   2  -2  -9    2.37    2.56
   2  -2  -7  201.94   13.14
   2  -2  -6  170.81   11.69
   2  -2  -5  818.41   42.52
   2  -2  -4  183.93   12.68
   2  -2  -3   37.57    4.80
   2  -2  -2  698.34   37.01
   2  -2  -1 1503.04   74.82
   2  -2   0  104.42    8.83
   2  -2   1    1.65    1.51
   2  -2   2    4.94    1.55
   2  -2   3  839.93   42.91
   2  -2   4  116.58    8.80
   2  -2   4  118.07    9.35
   2  -2   5  778.09   37.97
   2  -2   5  681.72   39.45
   2  -2   6  466.30   27.82
   2  -2   7  239.18   17.50
   2  -2   8   56.49    7.44
   2  -2   8   42.92    5.70
   2  -2   9 1333.48   71.90
   2  -2   9 1362.22   68.98
   2  -2  10   94.67   11.22
   2  -2  10  100.05    9.72
   2  -2  10  116.01    7.59
   2  -2  11  453.21   32.39
   2  -2  11  465.89   29.79
   2  -2  11  542.26   26.56
   2  -2  12    6.50    3.18
   2  -2  12    7.11    3.26
   2  -2  12    8.10    2.01
   2  -2  13  480.60   30.73
   2  -2  13  501.60   25.19
   2  -2  14    9.55    2.02
   2  -2  15    1.85    1.26
   2  -2  15    0.74    1.36
   2  -2  16  166.23   10.13
   2  -2  16  161.32   10.88
   2  -2  17   30.37    3.25
   2  -2  17   30.60    3.77
   2  -2  18    8.12    1.65
   2  -2  18   10.41    2.01
   2  -2  19    6.39    1.57
   2  -2  19   16.03    2.15
   2  -2  20   43.40    3.31
   2  -1 -21   46.80    3.76
   2  -1 -20  195.69   11.46
   2  -1 -19   15.47    2.71
   2  -1 -18   72.70    6.04
   2  -1 -17   15.59    2.71
   2  -1 -16  276.59   16.06
   2  -1 -15  164.42   10.67
   2  -1 -14   47.24    4.64
   2  -1 -13    0.30    1.25
   2  -1 -12  622.74   37.64
   2  -1 -11   16.20    4.14
   2  -1 -10   84.40    9.53
   2  -1 -10   98.45    9.11
   2  -1  -9  370.02   22.43
   2  -1  -8 1087.96   55.59
   2  -1  -7   12.63    2.69
   2  -1  -6    7.37    2.10
   2  -1  -5    2.10    1.42
   2  -1  -4  146.17   10.53
   2  -1  -3    8.06    2.04
   2  -1  -3    5.12    1.93
   2  -1  -2  533.04   27.75
   2  -1  -2  541.42   28.96
   2  -1  -1  792.20   39.95
   2  -1  -1  841.96   41.76
   2  -1   0   -0.41    1.13
   2  -1   0    1.20    1.40
   2  -1   1 1859.41   89.31
   2  -1   1 1951.13   91.73
   2  -1   1 1844.82   89.86
   2  -1   2   98.83    7.16
   2  -1   3  136.75    9.40
   2  -1   4  921.50   47.23
   2  -1   4  955.22   47.84
   2  -1   5   44.10    4.63
   2  -1   5   48.03    5.50
   2  -1   6 1347.87   67.27
   2  -1   6 1406.68   69.60
   2  -1   7  470.11   25.65
   2  -1   7  484.89   28.25
   2  -1   8   24.64    3.64
   2  -1   8   28.34    5.06
   2  -1   8   29.84    4.30
   2  -1   9  104.91   10.71
   2  -1   9  104.55    9.13
   2  -1  10  306.10   21.36
   2  -1  10  273.01   18.60
   2  -1  11  415.66   26.82
   2  -1  11  356.38   23.47
   2  -1  12  220.18   18.30
   2  -1  12  184.41   15.63
   2  -1  12  178.48   14.99
   2  -1  12  212.54   12.08
   2  -1  13  615.57   39.32
   2  -1  13  620.79   37.18
   2  -1  13  559.36   35.76
   2  -1  13  666.91   32.30
   2  -1  14   92.14   11.79
   2  -1  14  106.78   10.90
   2  -1  14  106.04    7.47
   2  -1  15   14.14    4.47
   2  -1  15    8.53    3.26
   2  -1  15   11.18    2.24
   2  -1  16   28.89    3.38
   2  -1  16   22.99    3.76
   2  -1  17  466.48   24.24
   2  -1  17  456.50   25.31
   2  -1  18    1.26    1.33
   2  -1  18    0.69    1.43
   2  -1  19  130.87    9.07
   2  -1  20    1.98    1.18
   2  -1  21   32.78    2.98
   2   0 -22    0.40    0.64
   2   0 -21    2.00    1.09
   2   0 -20    8.54    1.91
   2   0 -19  208.21   12.50
   2   0 -18    9.39    2.46
   2   0 -17  216.29   13.20
   2   0 -16    1.95    2.33
   2   0 -16    6.69    2.15
   2   0 -15  622.11   39.99
   2   0 -15  691.14   34.78
   2   0 -14   16.88    4.68
   2   0 -14   23.68    3.24
   2   0 -13  415.86   27.79
   2   0 -13  425.68   22.86
   2   0 -12   37.81    6.27
   2   0 -11  125.04   11.84
   2   0 -10    5.85    2.29
   2   0 -10    0.69    1.51
   2   0  -9  656.84   36.87
   2   0  -8  233.65   15.55
   2   0  -7  210.34   13.93
   2   0  -6   24.17    3.55
   2   0  -5 1572.52   77.26
   2   0  -4   12.41    2.58
   2   0  -3   30.80    3.92
   2   0  -2 2704.02  123.48
   2   0  -2 2429.99  123.23
   2   0  -1   41.49    4.36
   2   0  -1   32.40    4.03
   2   0   0    1.07    1.20
   2   0   0    0.63    1.16
   2   0   1    6.59    1.68
   2   0   2   23.51    3.17
   2   0   2   28.35    3.29
   2   0   3  916.25   45.15
   2   0   3  870.17   44.61
   2   0   4 2009.73   95.52
   2   0   4 1921.23   94.77
   2   0   5  149.27   10.79
   2   0   5  151.59   10.00
   2   0   6    8.61    2.71
   2   0   6    3.81    1.63
   2   0   7  851.23   43.00
   2   0   7  743.57   40.33
   2   0   7  801.56   40.87
   2   0   8    3.94    2.13
   2   0   8    3.25    1.59
   2   0   8    7.81    2.33
   2   0   9   50.70    6.02
   2   0   9   60.72    7.61
   2   0   9   51.44    3.81
   2   0  10  504.42   28.60
   2   0  10  552.54   31.36
   2   0  10  475.00   24.40
   2   0  11  131.38   12.74
   2   0  11  122.03   10.96
   2   0  11  115.04   10.68
   2   0  12   41.24    3.86
   2   0  12   37.91    6.78
   2   0  12   42.17    6.13
   2   0  12   35.47    5.69
   2   0  13   29.47    3.32
   2   0  13   31.67    5.43
   2   0  13   24.22    4.87
   2   0  14  166.63   10.31
   2   0  14  175.32   14.52
   2   0  15  160.44   10.45
   2   0  15  200.75   11.05
   2   0  15  178.01   15.12
   2   0  16   91.83    6.59
   2   0  16   97.68    6.97
   2   0  16  120.51   13.15
   2   0  16  104.31   10.71
   2   0  17    0.26    1.18
   2   0  18   63.13    5.81
   2   0  18   51.18    4.63
   2   0  19   78.90    6.57
   2   0  19   79.46    5.84
   2   0  20  298.70   15.47
   2   0  20  284.86   15.98
   2   0  20  270.31   15.27
   2   0  21    5.89    1.47
   2   0  22    5.35    1.08
   2   1 -15   98.30   10.68
   2   1 -14   76.00    9.21
   2   1 -13   55.77    7.40
   2   1 -12  528.03   27.13
   2   1 -12  493.30   30.94
   2   1 -11    3.46    2.03
   2   1 -10   23.55    4.52
   2   1  -9  100.29    7.96
   2   1  -9  117.61    9.95
   2   1  -9  120.02   10.76
   2   1  -8  899.10   45.53
   2   1  -8  878.43   45.32
   2   1  -8  921.77   47.96
   2   1  -7   21.07    3.17
   2   1  -7   17.99    3.59
   2   1  -6  145.38   10.15
   2   1  -6  148.44   10.82
   2   1  -5 3428.68  163.70
   2   1  -3  473.01   26.75
   2   1  -2 1025.26   51.19
   2   1  -2 1023.87   52.36
   2   1  -1 4000.69  189.83
   2   1  -1 3999.68  190.69
   2   1   0  172.29   11.04
   2   1   0  170.84   11.50
   2   1   1 1464.68   71.74
   2   1   1 1469.81   72.29
   2   1   2    1.97    1.11
   2   1   2    2.28    1.53
   2   1   3   19.10    3.06
   2   1   3   19.68    3.16
   2   1   4  239.16   14.65
   2   1   4  240.35   14.90
   2   1   5    0.36    1.33
   2   1   5    3.71    1.58
   2   1   5    5.92    2.08
   2   1   5    6.22    1.79
   2   1   5    1.81    1.58
   2   1   6 1410.94   69.00
   2   1   6 1416.71   68.88
   2   1   6 1360.76   69.90
   2   1   6 1377.94   68.55
   2   1   7  649.49   33.78
   2   1   7  604.20   32.69
   2   1   7  637.30   33.69
   2   1   8  153.18   10.35
   2   1   9   12.99    3.17
   2   1  10  442.24   27.14
   2   1  10  442.50   25.09
   2   1  10  403.43   21.33
   2   1  11    7.09    2.89
   2   1  11    6.67    1.57
   2   1  11   10.99    1.83
   2   1  11    9.96    2.19
   2   1  12   13.55    4.28
   2   1  12   16.93    2.36
   2   1  12   15.08    2.22
   2   1  12   16.55    2.77
   2   1  12   13.47    3.72
   2   1  13  588.74   30.19
   2   1  13  623.75   35.15
   2   1  13  563.21   31.54
   2   1  13  596.93   37.29
   2   1  13  614.08   30.23
   2   1  14   -1.59    2.19
   2   1  14    0.40    1.47
   2   1  14   -1.10    1.85
   2   1  14   -0.51    0.99
   2   1  14   -1.19    1.49
   2   1  15    0.85    1.66
   2   1  15   -0.83    1.45
   2   1  15   -2.25    5.03
   2   1  15   -0.26    1.67
   2   1  15   -0.24    1.14
   2   1  16   -0.89    1.95
   2   1  16    2.25    2.45
   2   1  16    2.92    1.37
   2   1  16    0.25    1.39
   2   1  16   -0.41    1.38
   2   1  17  251.87   14.54
   2   1  17  252.96   14.43
   2   1  17  273.90   15.91
   2   1  18   86.75    6.51
   2   1  18   89.36    6.50
   2   1  18   90.08    7.31
   2   1  18  109.23    7.36
   2   1  19   75.36    5.67
   2   1  19   74.82    5.76
   2   1  19   75.52    6.34
   2   1  20   21.92    2.40
   2   1  20   18.86    2.51
   2   1  20   15.73    2.44
   2   1  21    7.81    1.40
   2   1  21    4.93    1.27
   2   1  22    0.91    0.62
   2   2 -20   56.52    3.95
   2   2 -19  105.82    6.81
   2   2 -18    8.02    1.74
   2   2 -17    3.46    1.41
   2   2 -16   23.47    3.06
   2   2 -15  312.73   17.49
   2   2 -14  292.75   16.34
   2   2 -14  281.32   16.01
   2   2 -13   14.85    2.48
   2   2 -12  136.61    9.07
   2   2 -11  139.83    9.15
   2   2 -10   72.57    5.70
   2   2  -9   17.84    3.16
   2   2  -8  463.36   25.42
   2   2  -8  439.13   25.21
   2   2  -8  434.42   24.80
   2   2  -7    0.34    0.73
   2   2  -7    0.46    1.28
   2   2  -7   -0.48    1.14
   2   2  -7    0.33    0.66
   2   2  -7    1.13    0.90
   2   2  -6  523.16   28.57
   2   2  -6  548.62   30.58
   2   2  -6  556.09   30.04
   2   2  -6  561.88   29.88
   2   2  -6  521.43   26.87
   2   2  -6  550.24   26.87
   2   2  -5  435.92   27.30
   2   2  -5  480.40   26.05
   2   2  -5  445.85   25.76
   2   2  -5  468.71   25.72
   2   2  -5  455.28   22.87
   2   2  -5  439.57   22.71
   2   2  -4  600.00   30.72
   2   2  -4  620.46   34.18
   2   2  -4  607.70   32.25
   2   2  -4  598.23   32.82
   2   2  -4  646.73   32.85
   2   2  -4  607.33   29.66
   2   2  -4  565.05   29.63
   2   2  -3    2.60    1.13
   2   2  -3    0.38    1.12
   2   2  -3    1.14    1.67
   2   2  -3    1.37    1.00
   2   2  -3    2.56    1.80
   2   2  -3    5.76    2.09
   2   2  -3    3.16    1.10
   2   2  -2 3058.31  145.82
   2   2  -2 3020.50  147.45
   2   2  -2 3129.22  146.82
   2   2  -2 3210.77  149.77
   2   2  -2 3202.25  149.70
   2   2  -2 3219.38  149.31
   2   2  -2 3014.11  145.94
   2   2  -1  299.27   15.38
   2   2  -1  292.56   16.45
   2   2  -1  288.88   16.13
   2   2  -1  322.11   18.49
   2   2  -1  280.25   15.39
   2   2  -1  276.97   14.65
   2   2   0  487.74   25.18
   2   2   0  465.70   26.64
   2   2   0  472.65   25.05
   2   2   0  478.63   23.89
   2   2   1    3.68    1.35
   2   2   1    1.28    1.12
   2   2   1    0.82    1.00
   2   2   1    1.81    1.18
   2   2   1    1.80    1.31
   2   2   1    0.20    0.99
   2   2   1    0.58    1.88
   2   2   1    5.25    2.61
   2   2   2    1.70    1.07
   2   2   2    2.12    1.29
   2   2   2    3.81    1.43
   2   2   2    2.57    1.26
   2   2   2    3.08    1.72
   2   2   2    2.63    1.24
   2   2   2    3.48    2.26
   2   2   2    2.56    2.06
   2   2   3   50.85    4.06
   2   2   3   46.29    3.78
   2   2   3   39.70    3.05
   2   2   3   40.05    4.21
   2   2   3   43.02    4.66
   2   2   3   49.14    5.25
   2   2   3   50.46    4.46
   2   2   3   44.68    5.84
   2   2   3   56.04    5.91
   2   2   4    0.55    1.69
   2   2   4    0.96    1.55
   2   2   4    3.40    1.23
   2   2   4    2.29    1.11
   2   2   4    2.65    1.56
   2   2   4    0.88    1.22
   2   2   4    0.56    0.77
   2   2   4    1.17    0.85
   2   2   4    2.58    1.47
   2   2   5  114.41    8.15
   2   2   5  128.93    7.37
   2   2   5  117.76    7.46
   2   2   5  135.96   10.39
   2   2   5  113.68    9.40
   2   2   5  125.50    7.76
   2   2   5  100.71    8.52
   2   2   6  306.27   17.06
   2   2   6  296.57   16.00
   2   2   6  289.54   15.77
   2   2   6  322.91   19.32
   2   2   6  334.69   18.90
   2   2   6  321.61   16.95
   2   2   6  292.74   17.91
   2   2   7  543.41   28.95
   2   2   7  557.07   27.83
   2   2   7  528.88   27.53
   2   2   7  579.38   31.13
   2   2   7  583.64   30.61
   2   2   7  579.16   29.22
   2   2   7  576.86   30.59
   2   2   8  871.72   47.83
   2   2   8  979.23   49.96
   2   2   8 1060.86   49.73
   2   2   8  937.96   48.39
   2   2   8 1027.39   50.18
   2   2   9    3.85    1.67
   2   2   9    1.96    1.66
   2   2   9    2.94    1.59
   2   2   9    2.21    1.94
   2   2   9    2.04    0.85
   2   2  10 1568.28   72.62
   2   2  10 1522.15   75.14
   2   2  10 1477.54   71.85
   2   2  10 1542.48   73.07
   2   2  10 1522.84   73.27
   2   2  10 1406.41   74.04
   2   2  11   -1.09    1.50
   2   2  11   -0.30    0.91
   2   2  11    0.32    0.94
   2   2  11    0.97    1.10
   2   2  11    0.51    0.82
   2   2  12  266.25   18.19
   2   2  12  246.62   15.74
   2   2  12  288.54   15.81
   2   2  12  273.35   15.12
   2   2  12  270.49   14.46
   2   2  13    2.06    1.77
   2   2  13    2.96    1.43
   2   2  13    1.10    1.24
   2   2  13    2.16    1.34
   2   2  13   -0.19    1.36
   2   2  14  114.67   11.11
   2   2  14  129.20    8.34
   2   2  14  101.90    7.40
   2   2  14  132.46    9.23
   2   2  14  144.14    9.05
   2   2  15   -0.28    1.17
   2   2  15   -0.65    0.88
   2   2  15   -0.34    1.22
   2   2  15   -0.37    1.20
   2   2  16  125.36    8.29
   2   2  16  124.49    8.26
   2   2  16  126.79    8.87
   2   2  16  140.39    8.92
   2   2  17    3.22    1.58
   2   2  17    5.04    1.58
   2   2  17    5.51    1.71
   2   2  18  154.84    9.57
   2   2  18  175.00   10.10
   2   2  19    5.71    1.58
   2   2  19    5.48    1.53
   2   2  20  194.16   11.99
   2   2  20  252.19   12.61
   2   2  21    7.02    1.34
   2   2  22    6.38    1.04
   2   3 -16   -0.42    0.83
   2   3 -15   70.95    5.36
   2   3 -15   71.45    5.49
   2   3 -14    8.11    1.82
   2   3 -14   13.39    2.24
   2   3 -13    6.55    1.63
   2   3 -13    5.40    1.68
   2   3 -12   18.01    5.46
   2   3 -12   22.00    2.74
   2   3 -12   23.22    2.79
   2   3 -11   20.27    5.45
   2   3 -11   27.58    3.20
   2   3 -11   25.63    2.96
   2   3 -10  155.50   15.63
   2   3 -10  162.35    9.94
   2   3 -10  151.38    9.51
   2   3  -9  121.91   13.59
   2   3  -9  126.12    7.97
   2   3  -8  204.28   18.22
   2   3  -8  221.30   15.58
   2   3  -7  262.24   14.57
   2   3  -7  282.34   14.62
   2   3  -7  268.30   17.64
   2   3  -7  237.01   19.84
   2   3  -7  244.55   17.70
   2   3  -7  272.35   18.37
   2   3  -6  166.72    9.65
   2   3  -6  162.75    9.53
   2   3  -6  150.69   12.19
   2   3  -6  151.08   14.03
   2   3  -6  159.52   12.63
   2   3  -6  149.70   12.51
   2   3  -5  651.41   31.15
   2   3  -5  614.63   31.12
   2   3  -5  538.83   33.83
   2   3  -5  621.96   36.46
   2   3  -5  592.16   34.92
   2   3  -5  679.77   35.46
   2   3  -4    5.82    1.50
   2   3  -4    7.53    1.59
   2   3  -4   11.00    2.89
   2   3  -4   10.02    2.94
   2   3  -4    6.50    2.63
   2   3  -4    7.95    3.00
   2   3  -3   56.67    4.81
   2   3  -3   66.41    4.91
   2   3  -3   61.91    7.43
   2   3  -3   74.64    7.80
   2   3  -3   50.60    6.89
   2   3  -2  274.73   15.36
   2   3  -2  291.24   15.40
   2   3  -2  250.56   18.69
   2   3  -2  266.92   18.85
   2   3  -2  300.86   18.93
   2   3  -1 2279.72  108.81
   2   3  -1 2222.29  108.66
   2   3  -1 2301.83  113.78
   2   3  -1 2410.02  112.57
   2   3   0    2.84    1.92
   2   3   1  464.78   25.19
   2   3   1  462.39   24.97
   2   3   1  487.17   29.97
   2   3   1  500.39   29.53
   2   3   1  559.17   28.40
   2   3   2  374.93   20.58
   2   3   2  382.33   20.40
   2   3   2  375.65   24.91
   2   3   2  381.71   24.39
   2   3   2  412.69   23.22
   2   3   3  153.50    9.96
   2   3   3  164.38    9.80
   2   3   3  153.74   13.54
   2   3   3  167.29   13.39
   2   3   3  158.90   11.96
   2   3   4  280.06   16.01
   2   3   4  289.39   15.81
   2   3   4  309.88   20.41
   2   3   4  291.81   19.50
   2   3   5   48.82    4.14
   2   3   5   43.12    4.12
   2   3   5   47.63    6.52
   2   3   5   49.28    6.48
   2   3   6    0.72    1.15
   2   3   6    0.87    0.87
   2   3   6   -0.61    1.34
   2   3   6    0.63    1.72
   2   3   6    0.69    2.01
   2   3   6    2.15    1.12
   2   3   7   17.45    2.41
   2   3   7   25.57    4.38
   2   3   7   21.59    2.66
   2   3   7   22.29    2.58
   2   3   7   17.98    3.94
   2   3   7   24.36    4.57
   2   3   7   19.38    2.57
   2   3   8   -0.27    0.90
   2   3   8   -0.25    0.76
   2   3   8   -1.21    1.00
   2   3   8   -0.24    1.20
   2   3   8   -0.23    0.93
   2   3   8    1.85    1.59
   2   3   8   -0.67    1.85
   2   3   8   -0.42    0.95
   2   3   8    1.21    1.32
   2   3   8    0.64    0.83
   2   3   9  571.56   33.17
   2   3   9  597.86   30.26
   2   3   9  584.58   29.75
   2   3   9  598.73   30.37
   2   3   9  604.72   33.67
   2   3   9  525.13   33.26
   2   3   9  612.27   30.07
   2   3  10    1.49    1.20
   2   3  10    0.57    1.25
   2   3  10    0.96    0.97
   2   3  10   -1.16    1.10
   2   3  11    7.11    1.82
   2   3  11    4.55    1.67
   2   3  12  594.55   30.18
   2   3  12  610.21   30.30
   2   3  12  544.07   30.44
   2   3  13 1243.97   59.24
   2   3  13 1198.06   59.05
   2   3  13 1168.07   59.66
   2   3  14  280.95   15.73
   2   3  14  290.91   16.39
   2   3  14  259.48   15.35
   2   3  15   70.94    6.10
   2   3  15   67.42    5.65
   2   3  16   31.37    3.75
   2   3  16   32.32    3.66
   2   3  17  208.04   12.74
   2   3  17  220.30   12.70
   2   3  18   32.62    3.51
   2   3  18   31.77    3.40
   2   3  19    9.43    1.80
   2   3  19    9.42    1.76
   2   3  20    2.06    0.93
   2   3  20    1.06    0.88
   2   3  21   18.34    1.91
   2   4 -16   54.24    3.80
   2   4 -15   84.07    5.66
   2   4 -14   44.88    3.99
   2   4 -13    1.33    1.07
   2   4 -13    2.26    1.02
   2   4 -12   84.41    6.38
   2   4 -12   78.79    5.92
   2   4 -11    0.93    1.29
   2   4 -11    2.98    1.35
   2   4 -10    9.89    2.09
   2   4  -9   41.72    4.29
   2   4  -8  200.92   12.30
   2   4  -7   76.53    5.77
   2   4  -7   79.32    5.80
   2   4  -7   73.42    6.08
   2   4  -6  928.62   53.36
   2   4  -6 1005.94   48.07
   2   4  -6  998.18   47.99
   2   4  -6  886.16   52.10
   2   4  -6  959.86   53.34
   2   4  -6  944.66   47.80
   2   4  -6  991.38   47.82
   2   4  -5  222.06   17.66
   2   4  -5  244.47   13.78
   2   4  -5  246.32   13.90
   2   4  -5  230.81   17.60
   2   4  -5  263.03   18.87
   2   4  -5  230.76   13.62
   2   4  -5  240.69   13.64
   2   4  -4  915.17   48.98
   2   4  -4  934.28   44.58
   2   4  -4  915.32   44.46
   2   4  -4  838.06   48.75
   2   4  -4  905.03   49.79
   2   4  -4  907.38   50.07
   2   4  -4  838.09   44.20
   2   4  -4  897.47   44.23
   2   4  -3   -0.69    0.96
   2   4  -3   -0.87    1.20
   2   4  -3    1.41    1.37
   2   4  -3    0.80    1.55
   2   4  -3   -0.85    2.03
   2   4  -3    0.88    1.92
   2   4  -3    0.79    0.99
   2   4  -3    0.54    1.21
   2   4  -2  282.53   19.31
   2   4  -2  311.75   16.52
   2   4  -2  284.93   16.20
   2   4  -2  288.51   20.46
   2   4  -2  283.81   20.97
   2   4  -2  244.22   20.30
   2   4  -2  273.78   15.99
   2   4  -2  293.32   16.07
   2   4  -1   75.28    8.24
   2   4  -1   77.35    6.31
   2   4  -1   88.83    6.59
   2   4  -1   93.58   10.06
   2   4  -1   91.96   10.38
   2   4  -1   91.83   10.36
   2   4  -1   81.44    6.34
   2   4  -1   65.61    5.90
   2   4   0  197.04   16.39
   2   4   0  199.34   14.83
   2   4   0  183.65   11.92
   2   4   0  205.16   12.12
   2   4   1    1.95    1.30
   2   4   1   -3.66    4.40
   2   4   1    1.55    1.32
   2   4   1    3.22    1.44
   2   4   1    2.97    2.89
   2   4   1    1.66    1.41
   2   4   1    0.94    1.83
   2   4   2   99.74    7.48
   2   4   2   79.28    6.91
   2   4   2  105.98   11.59
   2   4   2   93.78   11.25
   2   4   2  102.28    7.07
   2   4   3   50.63    4.65
   2   4   3   57.64    5.27
   2   4   3   45.69    4.72
   2   4   3   52.30    4.77
   2   4   3   48.57    7.51
   2   4   3   51.60    8.08
   2   4   3   50.67    4.52
   2   4   4   20.35    2.82
   2   4   4   28.32    5.47
   2   4   4   17.94    4.80
   2   4   4   22.76    2.72
   2   4   4   26.98    3.38
   2   4   4   27.67    3.54
   2   4   4   32.34    5.98
   2   4   4   29.64    3.44
   2   4   4   28.38    3.28
   2   4   5   22.85    2.94
   2   4   5   13.81    4.04
   2   4   5   21.36    2.66
   2   4   5   23.54    2.96
   2   4   5   19.90    2.84
   2   4   5   18.78    2.77
   2   4   5   15.17    2.23
   2   4   5   19.49    2.93
   2   4   5   13.13    4.18
   2   4   5   17.20    4.55
   2   4   5   18.07    2.58
   2   4   5   19.26    2.77
   2   4   6  549.11   34.02
   2   4   6  549.39   28.79
   2   4   6  560.66   29.36
   2   4   6  602.12   29.44
   2   4   6  591.93   29.57
   2   4   6  546.47   28.86
   2   4   6  586.26   29.53
   2   4   6  560.35   29.16
   2   4   6  533.74   34.02
   2   4   6  573.53   34.92
   2   4   6  541.17   29.16
   2   4   6  576.49   29.12
   2   4   7   51.22    7.29
   2   4   7   58.10    5.01
   2   4   7   59.55    5.31
   2   4   7   63.63    5.12
   2   4   7   61.72    5.28
   2   4   7   65.41    5.58
   2   4   7   58.58    5.07
   2   4   7   65.67    5.38
   2   4   7   62.86    5.18
   2   4   7   56.26    4.91
   2   4   7   57.80    8.15
   2   4   8   10.82    2.07
   2   4   8   11.20    3.34
   2   4   8   10.22    1.99
   2   4   8   13.04    2.45
   2   4   8   10.54    2.15
   2   4   8   11.76    2.17
   2   4   8    9.59    3.33
   2   4   8    9.31    2.16
   2   4   8   10.67    1.93
   2   4   8   10.37    2.03
   2   4   9   79.33    9.26
   2   4   9   98.32    7.13
   2   4   9  101.36    7.45
   2   4   9   94.70    6.97
   2   4   9  100.32    7.13
   2   4   9   99.22    6.98
   2   4   9   93.26    6.73
   2   4   9   94.35    6.78
   2   4   9   91.86    6.62
   2   4  10  157.56   10.08
   2   4  10  168.29   10.15
   2   4  10  141.36   10.16
   2   4  10  158.42   10.30
   2   4  10  159.51    9.68
   2   4  10  147.26    9.44
   2   4  11  103.73    7.24
   2   4  11   96.87    7.37
   2   4  11   94.35    7.10
   2   4  11  102.45    7.76
   2   4  11  104.85    7.78
   2   4  12  119.48    8.26
   2   4  12  127.78    8.22
   2   4  12  120.85    8.49
   2   4  12  113.71    8.71
   2   4  12  127.50    8.80
   2   4  13  128.24    8.48
   2   4  13  137.16    8.82
   2   4  13  106.76    8.59
   2   4  13  122.96    8.64
   2   4  14   14.63    2.71
   2   4  14   18.27    2.76
   2   4  14   19.04    2.75
   2   4  15   70.34    6.15
   2   4  15   78.01    6.00
   2   4  15   78.63    5.88
   2   4  16   12.94    2.26
   2   4  16   11.54    2.17
   2   4  16   12.36    2.02
   2   4  17  146.93    8.90
   2   4  17  148.36    8.87
   2   4  17  127.93    8.08
   2   4  18  101.44    6.58
   2   4  18   94.63    6.40
   2   4  19    4.76    1.07
   2   4  19    3.50    1.02
   2   4  20   10.79    1.23
   2   4  20   11.59    1.33
   2   5 -14   51.89    3.58
   2   5 -13   93.69    5.82
   2   5 -13   87.49    5.29
   2   5 -12    7.89    1.59
   2   5 -12    4.89    1.18
   2   5 -11  109.34    7.15
   2   5 -11  104.18    6.82
   2   5 -10    4.92    1.41
   2   5  -9  121.98    8.09
   2   5  -8    3.13    1.42
   2   5  -8    1.38    1.32
   2   5  -7   54.53    4.64
   2   5  -7   59.80    4.80
   2   5  -7   63.88    5.35
   2   5  -7   65.61    5.32
   2   5  -6    0.61    1.29
   2   5  -6   -0.26    0.99
   2   5  -6    1.97    1.17
   2   5  -6    1.50    1.01
   2   5  -6   -0.30    1.19
   2   5  -6   -0.27    0.94
   2   5  -5  174.28   10.69
   2   5  -5  159.35   10.44
   2   5  -5  165.25   10.43
   2   5  -5  163.78   10.33
   2   5  -5  187.56   11.08
   2   5  -4    0.31    1.11
   2   5  -4    1.73    1.26
   2   5  -4    1.12    0.99
   2   5  -4    1.49    1.37
   2   5  -3   28.06    5.53
   2   5  -3   28.61    5.92
   2   5  -3   33.73    3.85
   2   5  -3   36.66    4.01
   2   5  -3   36.34    4.00
   2   5  -3   31.60    3.63
   2   5  -3   30.96    3.64
   2   5  -2   12.38    2.52
   2   5  -2    9.89    3.52
   2   5  -2    9.69    3.82
   2   5  -2   11.55    2.49
   2   5  -2   10.46    2.29
   2   5  -2   14.50    2.47
   2   5  -2   11.69    2.33
   2   5  -1 1077.53   64.14
   2   5  -1 1102.92   65.22
   2   5  -1 1225.06   58.60
   2   5  -1 1211.65   58.52
   2   5  -1 1098.48   58.02
   2   5  -1 1228.44   58.44
   2   5  -1 1189.94   58.26
   2   5   0    3.32    2.65
   2   5   0    5.03    1.84
   2   5   0    5.08    2.02
   2   5   0   10.67    2.42
   2   5   0    6.01    3.71
   2   5   1   43.86    7.64
   2   5   1   37.58    4.24
   2   5   1   41.87    4.27
   2   5   1   51.56    5.11
   2   5   1   43.94    4.73
   2   5   2  340.40   18.78
   2   5   2  387.11   19.01
   2   5   2  305.12   24.83
   2   5   2  316.33   19.44
   2   5   2  331.21   19.42
   2   5   2  321.57   17.98
   2   5   2  287.25   25.11
   2   5   2  350.87   19.53
   2   5   2  337.86   19.34
   2   5   3    1.27    1.75
   2   5   3    6.50    2.21
   2   5   3    3.24    2.02
   2   5   3    5.07    1.54
   2   5   3    3.06    1.56
   2   5   3    3.75    1.28
   2   5   4   14.06    2.24
   2   5   4   16.23    2.30
   2   5   4   16.63    2.61
   2   5   4   14.16    2.58
   2   5   4   15.08    2.73
   2   5   4   14.32    2.66
   2   5   4   17.19    3.03
   2   5   4   18.30    3.17
   2   5   4   14.55    4.28
   2   5   4    8.52    4.00
   2   5   5   28.27    3.32
   2   5   5   37.47    3.97
   2   5   5   30.35    3.33
   2   5   5   32.89    3.93
   2   5   5   39.56    4.26
   2   5   5   41.72    4.57
   2   5   5   38.15    7.13
   2   5   5   39.10    4.26
   2   5   5   37.49    4.09
   2   5   5   37.23    6.83
   2   5   6   89.81    6.61
   2   5   6   77.63    6.29
   2   5   6   83.08    6.31
   2   5   6   66.87    5.54
   2   5   6   64.47    8.94
   2   5   6   83.83    6.63
   2   5   6   91.31    6.71
   2   5   6   57.94    8.92
   2   5   6   67.60    5.70
   2   5   7    2.48    1.18
   2   5   7    3.31    1.65
   2   5   7    2.83    1.31
   2   5   7    2.79    1.34
   2   5   7    3.63    1.61
   2   5   7    1.25    1.34
   2   5   7    2.86    2.08
   2   5   7    2.07    2.26
   2   5   7    2.50    1.26
   2   5   7    3.91    1.47
   2   5   8   65.98    5.62
   2   5   8   63.99    5.48
   2   5   8   71.45    5.82
   2   5   8   55.78    5.04
   2   5   8   64.45    5.70
   2   5   8   73.94    6.11
   2   5   8   66.96    5.54
   2   5   8   72.40    5.60
   2   5   8   60.40    5.32
   2   5   9  543.59   29.38
   2   5   9  552.34   29.34
   2   5   9  612.99   30.34
   2   5   9  613.46   29.73
   2   5   9  562.23   29.38
   2   5   9  545.30   29.23
   2   5   9  544.75   29.11
   2   5   9  627.75   30.11
   2   5  10  156.51    9.72
   2   5  10  162.38   10.30
   2   5  10  152.76    9.72
   2   5  10  164.50   10.51
   2   5  10  153.11    9.93
   2   5  10  144.11    9.47
   2   5  10  157.13    9.57
   2   5  11   21.58    3.20
   2   5  11   18.62    2.62
   2   5  11   16.65    2.60
   2   5  11   22.25    3.09
   2   5  12   28.11    3.39
   2   5  12   21.84    2.75
   2   5  12   17.53    2.43
   2   5  12   21.84    2.85
   2   5  12   21.08    3.01
   2   5  13   95.63    6.45
   2   5  13   68.36    5.41
   2   5  13   87.16    6.22
   2   5  13   72.35    6.02
   2   5  14   39.97    3.74
   2   5  14   44.37    3.90
   2   5  14   39.84    3.74
   2   5  15    4.04    1.25
   2   5  15    4.31    1.27
   2   5  15    7.62    1.63
   2   5  16   14.21    1.80
   2   5  16   12.03    1.71
   2   5  16   14.61    1.89
   2   5  17    2.04    0.68
   2   5  17    4.92    1.02
   2   5  18    2.03    0.60
   2   6 -10    1.14    0.56
   2   6 -10    1.61    0.63
   2   6  -9    0.56    0.63
   2   6  -9    0.42    0.65
   2   6  -8  257.67   13.80
   2   6  -8  265.07   13.85
   2   6  -7    1.11    0.83
   2   6  -7    1.31    1.03
   2   6  -6   32.38    3.09
   2   6  -5   31.27    2.93
   2   6  -5   28.51    2.86
   2   6  -5   30.10    3.10
   2   6  -4   83.35    6.05
   2   6  -4   84.41    5.98
   2   6  -4   84.74    6.02
   2   6  -4   93.17    6.27
   2   6  -4  104.17    6.58
   2   6  -4   86.10    6.18
   2   6  -3    4.27    1.22
   2   6  -3    5.60    1.49
   2   6  -3    5.21    1.48
   2   6  -3    4.09    1.47
   2   6  -3    6.41    1.69
   2   6  -3    4.55    1.47
   2   6  -2    1.54    1.18
   2   6  -2    0.52    1.11
   2   6  -2    1.12    1.28
   2   6  -2    0.27    0.94
   2   6  -2    1.11    1.27
   2   6  -1   32.56    3.54
   2   6  -1   31.99    3.56
   2   6  -1   28.54    3.45
   2   6  -1   28.38    3.33
   2   6  -1   32.84    3.69
   2   6   0   10.28    2.28
   2   6   0   10.70    2.19
   2   6   0    7.84    2.08
   2   6   0    8.08    2.01
   2   6   0   10.19    2.02
   2   6   1   53.12    4.68
   2   6   1   65.97    5.53
   2   6   1   57.66    5.33
   2   6   2  167.51   10.84
   2   6   2  186.93   11.05
   2   6   2  171.50   11.15
   2   6   2  151.52    9.78
   2   6   2  167.65   11.04
   2   6   3   92.45    7.05
   2   6   3   76.73    6.75
   2   6   4   17.25    2.72
   2   6   4   22.07    3.15
   2   6   4   17.24    3.00
   2   6   5   69.20    5.55
   2   6   5   61.30    5.30
   2   6   5   65.05    5.54
   2   6   5   68.53    5.78
   2   6   5   56.23    4.55
   2   6   6  141.92    9.57
   2   6   6  182.35   10.65
   2   6   6  171.90   10.43
   2   6   6  169.20   10.60
   2   6   6  191.70   10.32
   2   6   6  170.16   10.70
   2   6   7   46.16    4.13
   2   6   7   57.84    4.71
   2   6   7   57.07    4.73
   2   6   7   53.88    4.72
   2   6   7   58.38    4.60
   2   6   7   62.99    5.04
   2   6   8   66.62    5.18
   2   6   8   74.63    5.46
   2   6   8   75.97    5.50
   2   6   8   71.00    5.49
   2   6   8   85.88    5.64
   2   6   8   73.19    5.58
   2   6   9   94.54    6.27
   2   6   9   87.50    6.17
   2   6   9   87.44    6.05
   2   6   9   86.55    5.99
   2   6   9   99.75    6.24
   2   6  10   12.89    1.91
   2   6  10   13.03    1.90
   2   6  11    8.07    1.47
   2   6  11    6.33    1.30
   2   6  12  203.11   12.08
   2   6  12  256.58   12.27
   2   6  13  194.42   10.40
   2   6  14    2.62    0.68
   2   7  -2   35.87    2.59
   2   7  -2   36.23    2.59
   2   7  -1   66.35    4.26
   2   7  -1   64.30    4.21
   2   7   0   34.51    2.80
   2   7   0   30.84    2.69
   2   7   1   16.97    1.92
   2   7   1   15.04    1.86
   2   7   2   62.04    4.35
   2   7   2   59.57    4.33
   2   7   5   25.43    2.34
   2   7   5   22.45    2.27
   2   7   6   96.79    5.77
   2   7   6   98.75    5.82
   2   7   7   49.86    3.27
   3  -3 -10  436.49   29.59
   3  -3  -9  539.09   34.35
   3  -3  -8  341.67   24.14
   3  -3  -1   69.27    8.66
   3  -3   0   84.02    9.62
   3  -3   1   46.36    7.13
   3  -3   2  292.32   21.57
   3  -3   3 1014.04   56.23
   3  -3   4   76.27    9.51
   3  -3   5    6.05    3.12
   3  -3   6  512.17   33.57
   3  -3   7   77.48   10.27
   3  -3   8   30.25    6.50
   3  -3   9   16.02    2.56
   3  -3  10   63.65    5.17
   3  -3  11  147.03    9.13
   3  -3  12  136.21    8.38
   3  -3  13    5.00    1.30
   3  -3  14   21.45    2.31
   3  -2 -16  304.52   16.38
   3  -2 -15   22.02    2.70
   3  -2 -14    5.44    1.57
   3  -2 -13  735.39   37.05
   3  -2 -12  124.02    8.53
   3  -2 -12  134.44   14.22
   3  -2 -11  113.82   13.14
   3  -2 -10    6.64    3.42
   3  -2  -7   13.46    3.36
   3  -2  -6  143.60   12.06
   3  -2  -5 1124.91   59.11
   3  -2  -4   67.07    7.80
   3  -2  -3  248.92   17.75
   3  -2  -2   29.96    5.22
   3  -2  -1  169.44   13.91
   3  -2   0   28.01    5.19
   3  -2   1  207.38   16.22
   3  -2   2   18.23    4.20
   3  -2   3   17.95    4.33
   3  -2   4    0.89    1.50
   3  -2   4    1.19    1.42
   3  -2   5  750.94   43.34
   3  -2   5  728.15   39.70
   3  -2   6  109.97   11.99
   3  -2   8  127.24    9.30
   3  -2   8  167.01   13.28
   3  -2   9  535.23   28.61
   3  -2   9  468.63   33.23
   3  -2  10   32.98    4.08
   3  -2  10   27.97    5.26
   3  -2  10   25.96    5.80
   3  -2  11    2.80    1.65
   3  -2  11    1.64    2.27
   3  -2  11    1.06    2.32
   3  -2  11    3.82    1.70
   3  -2  12   62.34    5.01
   3  -2  12   36.23    4.73
   3  -2  13   49.70    4.60
   3  -2  13   55.12    5.46
   3  -2  14    7.38    1.99
   3  -2  14    8.08    2.03
   3  -2  15  146.90    8.75
   3  -2  15  132.37    9.18
   3  -2  16   22.47    2.46
   3  -2  16   15.98    2.65
   3  -2  17   62.28    4.34
   3  -2  17   56.26    4.47
   3  -2  18    4.53    0.99
   3  -1 -20   70.56    4.54
   3  -1 -19    2.83    1.21
   3  -1 -18    3.93    1.36
   3  -1 -17    9.01    1.96
   3  -1 -16  144.98    9.49
   3  -1 -15   12.93    2.51
   3  -1 -14   50.49    5.06
   3  -1 -13  795.61   40.49
   3  -1 -11   31.59    6.00
   3  -1 -10  362.56   24.46
   3  -1  -9    8.18    2.91
   3  -1  -9    5.83    2.71
   3  -1  -8 1425.78   64.47
   3  -1  -8 1042.57   62.85
   3  -1  -7    2.65    1.95
   3  -1  -7    6.78    2.39
   3  -1  -6  105.78    9.61
   3  -1  -6   84.00    8.78
   3  -1  -5  376.65   22.31
   3  -1  -5  312.79   20.95
   3  -1  -4   68.34    7.53
   3  -1  -4   59.50    6.82
   3  -1  -3    6.55    2.41
   3  -1  -3    6.31    2.03
   3  -1  -2   77.79    8.17
   3  -1  -2   79.58    7.14
   3  -1  -1    3.19    1.97
   3  -1  -1    1.18    1.38
   3  -1   0  391.66   23.51
   3  -1   0  367.68   21.00
   3  -1   1  437.23   26.40
   3  -1   2  646.56   36.54
   3  -1   3  297.40   20.01
   3  -1   4   16.92    3.88
   3  -1   4   19.10    3.73
   3  -1   5    0.78    1.86
   3  -1   5    2.41    1.76
   3  -1   5    2.35    1.81
   3  -1   6  968.53   51.27
   3  -1   6  977.90   50.44
   3  -1   6  939.24   47.34
   3  -1   7  244.18   17.23
   3  -1   7  230.21   15.59
   3  -1   7  200.47   12.82
   3  -1   8  703.88   37.87
   3  -1   8  784.33   41.81
   3  -1   8  727.94   42.71
   3  -1   8  790.77   40.86
   3  -1   9   85.87    7.13
   3  -1   9   74.97    9.72
   3  -1   9   93.00    9.58
   3  -1  10  425.62   23.51
   3  -1  10  368.80   27.93
   3  -1  10  444.30   27.47
   3  -1  11   29.79    4.28
   3  -1  11   40.86    7.06
   3  -1  11   37.60    6.40
   3  -1  12  258.09   15.70
   3  -1  12  224.02   18.53
   3  -1  12  236.86   20.30
   3  -1  13    0.43    1.45
   3  -1  13   -0.90    2.14
   3  -1  13    1.15    2.23
   3  -1  13    1.57    1.53
   3  -1  14   47.44    4.66
   3  -1  14   43.11    5.06
   3  -1  15  122.00    8.17
   3  -1  15  116.57    8.86
   3  -1  16  187.41   10.86
   3  -1  16  167.34   11.35
   3  -1  17    0.88    1.14
   3  -1  18    0.49    1.05
   3  -1  19    7.63    1.51
   3  -1  20  260.00   12.04
   3  -1  20  205.51   11.48
   3   0 -20    5.84    1.24
   3   0 -19   40.99    3.70
   3   0 -18    5.80    1.69
   3   0 -17  111.45    7.78
   3   0 -16   22.17    3.15
   3   0 -15   49.54    4.99
   3   0 -14   25.83    5.75
   3   0 -14   28.64    3.79
   3   0 -13  293.19   22.53
   3   0 -12    6.13    3.16
   3   0 -11  343.70   23.81
   3   0 -11  293.45   22.44
   3   0 -10  552.21   33.69
   3   0  -9  963.09   52.60
   3   0  -8   32.62    5.30
   3   0  -7   14.44    3.42
   3   0  -7    8.45    2.84
   3   0  -6    0.63    1.22
   3   0  -6   -0.71    1.39
   3   0  -5  629.14   33.19
   3   0  -5  522.18   33.10
   3   0  -4   14.28    3.53
   3   0  -4   12.41    3.24
   3   0  -3  245.78   16.49
   3   0  -3  230.89   16.48
   3   0  -2  213.05   14.66
   3   0  -2  187.61   14.03
   3   0  -1   68.81    7.20
   3   0  -1   65.37    6.88
   3   0   0  319.93   19.97
   3   0   0  309.73   19.20
   3   0   1  499.59   27.84
   3   0   2  108.04    8.85
   3   0   3    9.24    2.51
   3   0   3   10.50    2.83
   3   0   4  456.55   26.23
   3   0   4  413.69   25.13
   3   0   5  366.09   23.18
   3   0   5  370.85   22.27
   3   0   6    1.36    1.87
   3   0   6    0.71    1.97
   3   0   6    0.56    1.33
   3   0   7  620.43   35.53
   3   0   7  618.28   35.34
   3   0   7  583.68   33.45
   3   0   7  594.37   30.93
   3   0   8   61.28    8.15
   3   0   8   51.22    7.64
   3   0   8   72.83    7.59
   3   0   8   62.47    7.35
   3   0   8   67.83    5.83
   3   0   9  704.08   40.27
   3   0   9  665.87   37.54
   3   0   9  648.31   34.82
   3   0   9  693.80   38.13
   3   0  10   93.34   10.94
   3   0  10   86.08    7.43
   3   0  10  103.42   10.24
   3   0  11    2.18    2.60
   3   0  11   -0.41    1.27
   3   0  11    2.46    2.65
   3   0  12  268.18   21.58
   3   0  12  263.00   19.32
   3   0  12  228.17   18.69
   3   0  12  256.83   15.89
   3   0  13   80.27   10.85
   3   0  13   71.58    9.02
   3   0  13   71.23    8.99
   3   0  13   72.06    6.88
   3   0  13   75.89    6.09
   3   0  14   22.59    5.84
   3   0  14   14.69    4.29
   3   0  14   17.24    4.35
   3   0  14   13.98    3.98
   3   0  14   16.80    3.42
   3   0  14   17.95    3.05
   3   0  15   10.33    2.67
   3   0  15    8.60    2.08
   3   0  16  107.45    8.55
   3   0  16  117.85    7.76
   3   0  17  107.73    8.24
   3   0  17  116.15    7.55
   3   0  18    1.05    1.03
   3   0  19   35.89    3.15
   3   0  19   31.41    3.01
   3   0  20  272.76   14.12
   3   0  21    9.93    1.27
   3   1 -13  227.15   17.76
   3   1 -12  594.47   35.95
   3   1 -11   -0.84    1.63
   3   1 -10  387.49   25.89
   3   1 -10  413.19   27.29
   3   1  -9   24.97    4.33
   3   1  -9   27.31    5.36
   3   1  -8  185.98   16.62
   3   1  -8  210.09   15.78
   3   1  -8  191.90   14.21
   3   1  -8  187.88   11.11
   3   1  -7  126.34   12.34
   3   1  -7  110.40   10.52
   3   1  -7  112.14   10.09
   3   1  -7  111.57    7.36
   3   1  -6  991.55   49.27
   3   1  -6 1004.49   49.47
   3   1  -6  984.72   55.48
   3   1  -6 1043.95   53.44
   3   1  -6 1079.41   53.80
   3   1  -5  185.11   15.18
   3   1  -4   -0.74    1.77
   3   1  -3  242.74   17.44
   3   1  -2  741.07   40.74
   3   1  -2  723.25   39.48
   3   1  -1   38.17    5.78
   3   1  -1   41.38    5.39
   3   1   0  267.43   18.00
   3   1   0  277.75   17.76
   3   1   1  447.73   26.32
   3   1   1  446.53   26.09
   3   1   2 1572.80   79.12
   3   1   2 1573.30   78.88
   3   1   3  383.42   22.83
   3   1   3  360.52   22.27
   3   1   4   51.86    6.36
   3   1   4   46.57    5.92
   3   1   5   17.12    3.42
   3   1   5   19.22    3.81
   3   1   6  961.10   48.25
   3   1   6 1005.03   52.41
   3   1   6 1032.96   52.08
   3   1   6 1025.75   51.78
   3   1   6  983.57   51.97
   3   1   7  257.16   14.30
   3   1   7  278.44   17.98
   3   1   7  257.63   17.46
   3   1   7  246.84   17.85
   3   1   7  282.43   17.94
   3   1   8    5.10    2.26
   3   1   8    4.90    2.28
   3   1   8    6.60    2.67
   3   1   8    9.27    2.66
   3   1   9  269.43   18.54
   3   1   9  240.75   18.13
   3   1  10    7.88    2.99
   3   1  10    6.37    2.92
   3   1  11   55.85    4.76
   3   1  11   47.53    7.06
   3   1  11   52.99    5.53
   3   1  11   47.64    6.80
   3   1  11   68.52    8.48
   3   1  12   -0.86    1.18
   3   1  12    3.75    1.95
   3   1  12    9.30    3.20
   3   1  12    4.80    1.47
   3   1  13  209.79   12.67
   3   1  13  211.60   14.14
   3   1  13  222.73   16.92
   3   1  13  230.70   12.87
   3   1  14   27.61    3.22
   3   1  14   35.90    3.63
   3   1  14   35.97    4.64
   3   1  14   36.64    5.90
   3   1  15  176.18   11.30
   3   1  15  142.88    9.39
   3   1  15  160.60    9.71
   3   1  16   14.65    2.45
   3   1  16   11.09    2.53
   3   1  16   10.07    1.92
   3   1  17   84.76    6.83
   3   1  17   86.67    6.26
   3   1  17   75.95    5.85
   3   1  17   83.34    5.84
   3   1  18    5.13    1.42
   3   1  18    5.29    1.66
   3   1  18    5.67    1.44
   3   1  18    4.59    1.29
   3   1  19    2.35    1.10
   3   1  19    1.46    0.84
   3   1  20   34.95    3.13
   3   1  20   35.98    2.99
   3   1  21   86.81    5.07
   3   2 -19   77.48    4.85
   3   2 -18    2.44    1.01
   3   2 -17  161.51    9.58
   3   2 -16    1.68    1.22
   3   2 -15  215.23   12.60
   3   2 -14   10.17    2.09
   3   2 -13   93.12    6.98
   3   2 -12    0.30    1.45
   3   2  -8    2.64    1.93
   3   2  -8    5.39    2.28
   3   2  -8    1.70    1.67
   3   2  -8    4.67    2.05
   3   2  -8    2.49    1.17
   3   2  -7   33.86    5.78
   3   2  -7   31.08    3.32
   3   2  -7   32.90    3.35
   3   2  -7   27.75    4.85
   3   2  -7   34.82    5.65
   3   2  -6  572.28   33.68
   3   2  -6  580.17   29.33
   3   2  -6  572.03   29.16
   3   2  -6  537.10   33.40
   3   2  -6  605.65   33.59
   3   2  -5  321.09   17.52
   3   2  -5  312.83   21.62
   3   2  -5  327.37   21.37
   3   2  -5  343.85   21.56
   3   2  -5  328.48   17.73
   3   2  -4    4.71    1.47
   3   2  -4    5.94    2.71
   3   2  -4   -0.69    2.02
   3   2  -4    4.61    1.94
   3   2  -4    2.41    2.03
   3   2  -4    3.44    1.36
   3   2  -3  455.23   24.01
   3   2  -3  475.88   26.98
   3   2  -3  474.33   26.50
   3   2  -3  450.04   27.97
   3   2  -2  754.54   38.21
   3   2  -2  759.31   40.73
   3   2  -2  777.40   40.56
   3   2  -2  782.57   42.77
   3   2  -1  797.31   42.44
   3   2  -1  814.05   42.42
   3   2   0  271.69   17.24
   3   2   0  277.71   17.32
   3   2   1  375.17   20.26
   3   2   1  400.25   22.59
   3   2   1  385.39   22.38
   3   2   1  354.36   23.99
   3   2   2 1163.59   57.80
   3   2   2 1208.52   60.45
   3   2   2 1175.70   58.76
   3   2   2 1177.34   62.37
   3   2   2 1218.56   60.26
   3   2   3    7.50    2.38
   3   2   3    7.44    2.47
   3   2   3    9.07    2.18
   3   2   3   13.51    3.63
   3   2   3   11.80    2.09
   3   2   4  298.99   16.08
   3   2   4  292.49   17.73
   3   2   4  275.61   18.52
   3   2   4  289.36   19.70
   3   2   4  289.44   18.27
   3   2   5  218.58   12.46
   3   2   5  205.06   14.34
   3   2   5  230.81   15.62
   3   2   5  215.04   15.87
   3   2   5  212.99   14.63
   3   2   6  378.21   20.72
   3   2   6  384.25   20.71
   3   2   6  383.17   20.43
   3   2   6  391.82   23.30
   3   2   6  370.17   23.82
   3   2   6  413.41   25.45
   3   2   6  385.47   24.20
   3   2   6  410.34   23.38
   3   2   7    2.86    1.26
   3   2   7    1.65    1.43
   3   2   7    5.39    1.56
   3   2   7    2.43    1.68
   3   2   7    3.04    2.10
   3   2   7    5.35    2.44
   3   2   7    4.95    1.54
   3   2   8   59.54    5.21
   3   2   8   50.22    6.29
   3   2   8   44.73    6.78
   3   2   8   55.15    6.88
   3   2   8   62.78    5.06
   3   2   8   58.10    4.66
   3   2   8   47.90    6.55
   3   2   8   55.71    4.49
   3   2   9  201.83   15.95
   3   2   9  221.70   13.16
   3   2   9  205.17   16.09
   3   2  10  126.35   11.81
   3   2  10  128.72    8.89
   3   2  10  109.02    7.79
   3   2  11   49.62    6.98
   3   2  11   48.43    5.00
   3   2  11   38.76    4.06
   3   2  11   46.78    4.40
   3   2  11   42.12    3.86
   3   2  12   88.46    7.37
   3   2  12   81.80    6.64
   3   2  12   91.07    6.76
   3   2  12   91.95    6.32
   3   2  13   25.60    3.35
   3   2  13   28.19    3.90
   3   2  13   30.03    3.55
   3   2  13   32.71    3.21
   3   2  14    8.90    2.04
   3   2  14    8.45    2.30
   3   2  14    6.19    1.92
   3   2  14    8.52    1.62
   3   2  15   30.43    3.96
   3   2  15   35.36    3.79
   3   2  15   33.75    3.74
   3   2  16  174.89   11.22
   3   2  16  173.01   10.72
   3   2  16  174.66   10.67
   3   2  17   37.38    3.99
   3   2  17   41.32    3.92
   3   2  17   45.13    4.06
   3   2  18   25.09    2.72
   3   2  18   19.37    2.55
   3   2  18   23.50    2.70
   3   2  19    3.31    1.04
   3   2  19    1.80    0.98
   3   2  20  101.05    6.08
   3   3 -15    1.16    0.90
   3   3 -14    1.65    0.96
   3   3 -14    1.18    0.95
   3   3 -13    7.19    1.69
   3   3 -12  491.62   25.81
   3   3 -12  520.20   26.03
   3   3 -11   69.60    5.40
   3   3 -11   65.55    5.28
   3   3 -10    1.24    2.09
   3   3 -10    4.31    1.43
   3   3  -9  198.22   20.42
   3   3  -9  269.44   14.60
   3   3  -8   81.05    5.85
   3   3  -8   67.06   10.06
   3   3  -7    7.14    1.56
   3   3  -7    6.93    2.83
   3   3  -7    8.70    3.10
   3   3  -7    4.47    2.69
   3   3  -7    7.11    1.70
   3   3  -7    8.43    1.86
   3   3  -6   17.19    2.40
   3   3  -6   18.23    2.46
   3   3  -6   15.06    4.09
   3   3  -6   18.92    4.39
   3   3  -6   20.08    5.11
   3   3  -6   18.22    2.62
   3   3  -6   17.75    2.53
   3   3  -6   13.80    3.56
   3   3  -5  659.10   38.87
   3   3  -5  702.44   38.92
   3   3  -5  665.21   33.71
   3   3  -5  669.08   33.60
   3   3  -5  636.62   33.23
   3   3  -5  682.01   40.46
   3   3  -4    0.75    1.04
   3   3  -4    1.47    1.31
   3   3  -4    4.11    2.66
   3   3  -4    2.59    2.38
   3   3  -4    0.94    1.83
   3   3  -4    1.68    1.22
   3   3  -3  203.15   11.62
   3   3  -3  190.83   11.86
   3   3  -3  205.89   11.87
   3   3  -3  167.83   14.02
   3   3  -3  212.81   16.56
   3   3  -3  188.72   15.98
   3   3  -3  209.24   16.20
   3   3  -3  179.83   11.24
   3   3  -2  256.02   14.61
   3   3  -2  254.96   14.61
   3   3  -2  270.50   15.41
   3   3  -2  286.41   15.42
   3   3  -2  244.47   17.48
   3   3  -2  275.38   19.71
   3   3  -2  239.84   19.65
   3   3  -2  252.18   19.54
   3   3  -2  279.77   15.12
   3   3  -1   66.58    5.24
   3   3  -1   64.71    5.22
   3   3  -1   65.25    5.81
   3   3  -1   88.22    9.29
   3   3  -1   63.83    6.52
   3   3  -1   65.59    5.45
   3   3  -1   82.97    9.80
   3   3  -1   67.73    7.10
   3   3   0  147.87    9.06
   3   3   0  139.95   11.03
   3   3   0  150.26   12.88
   3   3   0  125.43   10.58
   3   3   0  141.33    9.35
   3   3   0  156.82    9.22
   3   3   1  240.51   12.89
   3   3   1  217.64   12.63
   3   3   1  222.85   13.62
   3   3   1  216.67   13.30
   3   3   1  210.34   14.51
   3   3   1  252.58   17.31
   3   3   1  187.39   17.41
   3   3   1  191.51   17.13
   3   3   1  224.15   13.13
   3   3   2  509.24   27.14
   3   3   2  497.72   28.06
   3   3   2  534.99   27.95
   3   3   2  532.15   29.17
   3   3   2  474.01   33.07
   3   3   2  560.75   33.61
   3   3   2  568.47   27.44
   3   3   2  583.25   32.39
   3   3   3  528.47   28.72
   3   3   3  584.77   33.59
   3   3   3  569.85   29.77
   3   3   3  562.45   29.33
   3   3   3  595.66   35.98
   3   3   3  556.55   34.61
   3   3   3  576.61   28.91
   3   3   3  575.27   29.17
   3   3   4   36.89    3.77
   3   3   4   38.12    5.95
   3   3   4   34.26    4.08
   3   3   4   37.09    4.13
   3   3   4   35.83    3.76
   3   3   4   38.83    3.92
   3   3   4   43.63    6.89
   3   3   4   45.11    7.27
   3   3   5  152.92   13.97
   3   3   5  143.47   12.95
   3   3   5  135.72    8.86
   3   3   5  127.63    9.18
   3   3   5  144.81    9.13
   3   3   5  129.42    8.78
   3   3   5  139.28    8.96
   3   3   6   13.31    2.12
   3   3   6   13.41    2.35
   3   3   6   12.36    2.40
   3   3   6    8.84    1.89
   3   3   6   10.54    3.66
   3   3   6   13.48    4.15
   3   3   6   15.01    2.34
   3   3   7   22.71    2.87
   3   3   7   22.99    2.95
   3   3   7   20.31    2.99
   3   3   7   20.63    2.85
   3   3   7   22.63    2.98
   3   3   7   28.80    5.32
   3   3   7   15.03    4.34
   3   3   8   66.90    8.69
   3   3   8   74.77    8.65
   3   3   8   61.40    5.41
   3   3   8   60.41    5.22
   3   3   8   78.70    5.90
   3   3   8   60.87    5.40
   3   3   8   61.21    5.07
   3   3   9  528.65   27.64
   3   3   9  576.69   27.62
   3   3   9  455.12   31.36
   3   3   9  534.31   27.60
   3   3   9  552.94   27.94
   3   3   9  563.28   28.22
   3   3   9  448.70   31.82
   3   3   9  537.55   28.14
   3   3  10   89.82    6.83
   3   3  10   88.84    7.02
   3   3  10   88.86    6.59
   3   3  10   90.07    6.85
   3   3  11  474.61   24.17
   3   3  11  436.71   24.36
   3   3  11  420.17   23.94
   3   3  11  493.57   24.45
   3   3  12   60.08    5.26
   3   3  12   45.76    4.61
   3   3  12   50.49    4.87
   3   3  13  385.48   22.05
   3   3  13  397.59   22.00
   3   3  13  447.16   22.26
   3   3  14    8.96    2.02
   3   3  14    6.02    1.64
   3   3  14    8.02    1.88
   3   3  15  193.17   12.36
   3   3  15  221.43   12.79
   3   3  15  235.50   12.87
   3   3  16    0.50    1.14
   3   3  16    2.56    1.20
   3   3  17    2.47    1.24
   3   3  17    3.13    1.22
   3   3  18    3.67    1.28
   3   3  18    5.40    1.26
   3   3  19   40.92    3.23
   3   3  19   36.67    3.02
   3   3  20   30.08    2.40
   3   3  20   27.64    2.14
   3   4 -15   20.08    1.91
   3   4 -14   68.90    4.82
   3   4 -13    0.85    0.93
   3   4 -12  180.02   10.20
   3   4 -12  153.46    9.47
   3   4 -11   -0.70    0.85
   3   4 -10   96.25    6.82
   3   4  -9   41.30    4.08
   3   4  -7  103.89    6.95
   3   4  -7   87.77    6.66
   3   4  -7   97.78    6.68
   3   4  -6   67.07    5.71
   3   4  -6   85.16    6.11
   3   4  -6   83.04    9.33
   3   4  -6   57.23    8.10
   3   4  -6   66.15    9.13
   3   4  -6   73.21    5.70
   3   4  -6   78.11    5.74
   3   4  -5   15.44    4.12
   3   4  -5    9.70    2.20
   3   4  -5    8.47    2.00
   3   4  -5   10.94    3.31
   3   4  -5   10.85    3.44
   3   4  -5   11.27    3.69
   3   4  -5    8.31    1.81
   3   4  -5   10.26    2.07
   3   4  -4   26.04    5.40
   3   4  -4   27.27    3.37
   3   4  -4   21.05    3.00
   3   4  -4   23.60    5.02
   3   4  -4   31.01    5.83
   3   4  -4   21.50    4.98
   3   4  -4   24.84    3.16
   3   4  -4   22.91    2.98
   3   4  -3    2.70    2.15
   3   4  -3    2.64    1.44
   3   4  -3    4.45    1.68
   3   4  -3    1.82    1.98
   3   4  -3    6.83    3.01
   3   4  -3    1.01    2.42
   3   4  -3    4.81    1.64
   3   4  -3    3.21    1.40
   3   4  -2   85.96    9.96
   3   4  -2   86.96    6.88
   3   4  -2   88.20    6.82
   3   4  -2   81.49    9.85
   3   4  -2   91.71   10.80
   3   4  -2   69.70    9.67
   3   4  -2   88.50    6.69
   3   4  -2   76.82    6.37
   3   4  -1   56.23    5.10
   3   4  -1   49.92    7.54
   3   4  -1   62.30    5.83
   3   4  -1   54.70    5.40
   3   4  -1   60.40    8.42
   3   4  -1   63.61    8.95
   3   4  -1   64.99    9.27
   3   4  -1   68.95    5.70
   3   4  -1   57.37    5.27
   3   4   0  232.30   13.30
   3   4   0  232.35   17.83
   3   4   0  203.92   18.21
   3   4   0  229.77   13.77
   3   4   0  221.10   13.49
   3   4   0  213.37   12.53
   3   4   1  230.07   12.80
   3   4   1  241.88   13.59
   3   4   1  244.70   18.04
   3   4   1  212.29   13.85
   3   4   1  211.38   18.60
   3   4   1  187.90   18.19
   3   4   1  222.03   13.74
   3   4   1  238.65   14.06
   3   4   2  602.70   33.25
   3   4   2  512.74   28.08
   3   4   2  487.00   28.15
   3   4   2  541.10   26.83
   3   4   2  543.64   27.64
   3   4   2  479.70   34.50
   3   4   2  511.57   34.47
   3   4   3   98.73   12.12
   3   4   3   99.24   11.65
   3   4   3   91.22    6.56
   3   4   3  119.41    8.12
   3   4   3   95.35    7.91
   3   4   3   92.84    7.35
   3   4   3  101.94    7.30
   3   4   4  111.93    7.71
   3   4   4   94.31   11.39
   3   4   4  103.02   12.25
   3   4   4   92.85    6.80
   3   4   4  116.94    8.37
   3   4   4   99.29    7.74
   3   4   4  113.74   12.17
   3   4   4  107.77    7.92
   3   4   4  111.40    7.80
   3   4   5    0.99    2.16
   3   4   5    1.09    2.11
   3   4   5    0.33    1.19
   3   4   5   -0.61    1.19
   3   4   5    1.08    1.53
   3   4   5   -0.63    1.10
   3   4   5   -0.33    1.32
   3   4   5    1.95    1.90
   3   4   6  440.14   30.26
   3   4   6  405.13   30.15
   3   4   6  479.95   25.02
   3   4   6  468.78   24.77
   3   4   6  489.26   25.31
   3   4   6  491.54   25.12
   3   4   6  409.06   29.46
   3   4   6  462.85   24.93
   3   4   7   13.12    2.44
   3   4   7   17.88    2.88
   3   4   7   14.18    2.67
   3   4   7   12.86    2.25
   3   4   7   15.74    2.55
   3   4   7    8.35    3.20
   3   4   7   18.07    4.83
   3   4   7   13.66    2.51
   3   4   7   17.23    4.46
   3   4   8   98.41    6.84
   3   4   8   64.04    6.11
   3   4   8   76.39    6.48
   3   4   8   76.19    6.35
   3   4   8   82.24    6.30
   3   4   8   75.50    6.13
   3   4   8   81.69    6.12
   3   4   8   85.44    9.73
   3   4   8   72.72    9.29
   3   4   8   72.91    9.02
   3   4   9   59.65    5.39
   3   4   9   52.91    4.96
   3   4   9   63.22    5.13
   3   4   9   52.48    4.77
   3   4   9   59.77    4.91
   3   4   9   58.13    5.43
   3   4   9   61.10    5.38
   3   4  10   31.07    3.97
   3   4  10   41.21    4.23
   3   4  10   40.79    4.26
   3   4  10   32.44    3.60
   3   4  10   33.06    3.54
   3   4  10   32.11    3.45
   3   4  10   32.86    3.37
   3   4  11   51.27    4.87
   3   4  11   43.72    4.86
   3   4  11   47.60    4.41
   3   4  11   51.22    4.82
   3   4  12  232.91   13.50
   3   4  13   12.34    2.26
   3   4  13   10.15    1.96
   3   4  14   17.19    2.51
   3   4  14   13.22    2.17
   3   4  15   37.52    3.74
   3   4  15   43.15    3.84
   3   4  15   36.52    3.54
   3   4  15   38.56    3.96
   3   4  16  615.37   29.16
   3   4  16  530.68   28.70
   3   4  16  604.50   29.48
   3   4  17   10.18    1.66
   3   4  17    7.30    1.28
   3   4  17   10.80    1.69
   3   4  18   22.92    1.99
   3   4  18   28.95    2.48
   3   5 -13   31.18    2.36
   3   5 -12   81.07    4.85
   3   5 -12   65.60    4.20
   3   5 -11    0.18    0.72
   3   5 -11   -0.15    0.66
   3   5 -10    1.45    1.07
   3   5 -10    1.11    0.90
   3   5  -9  307.59   16.48
   3   5  -8   66.12    5.17
   3   5  -7   12.31    2.22
   3   5  -6    5.72    1.51
   3   5  -6    5.73    1.40
   3   5  -6    8.28    1.66
   3   5  -6    5.67    1.68
   3   5  -6    4.04    1.29
   3   5  -5  150.26    9.82
   3   5  -5  166.18   10.08
   3   5  -5  164.22   10.17
   3   5  -5  154.38    9.74
   3   5  -5  165.11    9.84
   3   5  -4   53.76    4.91
   3   5  -4   63.47    5.13
   3   5  -4   63.59    5.29
   3   5  -4   63.78    5.28
   3   5  -3  165.31   10.57
   3   5  -3  162.89   10.51
   3   5  -3  168.40   10.79
   3   5  -3  181.20   10.92
   3   5  -2  123.40    8.49
   3   5  -2  125.82    8.50
   3   5  -2  128.02    8.78
   3   5  -2  113.18    8.54
   3   5  -1    3.86    1.58
   3   5  -1    3.30    1.55
   3   5  -1    3.55    1.77
   3   5  -1    4.16    1.79
   3   5   0  165.47   10.69
   3   5   0  153.08   10.44
   3   5   1  112.12    8.45
   3   5   1  117.77    8.48
   3   5   1  112.73    7.94
   3   5   2    5.96    2.29
   3   5   2    9.91    2.32
   3   5   2    5.98    1.95
   3   5   2   13.58    2.82
   3   5   3  197.73   11.80
   3   5   3  184.00   11.19
   3   5   3  186.37   12.31
   3   5   3  199.60   12.71
   3   5   4   36.91    4.34
   3   5   4   35.10    4.33
   3   5   4   26.66    3.48
   3   5   4   28.41    3.21
   3   5   4   31.91    3.97
   3   5   4   35.47    4.03
   3   5   5  326.18   18.48
   3   5   5  344.58   18.83
   3   5   5  334.69   18.17
   3   5   5  291.76   17.44
   3   5   5  348.39   18.63
   3   5   5  324.20   18.22
   3   5   6   34.26    4.06
   3   5   6   39.87    4.18
   3   5   6   44.00    4.30
   3   5   6   32.50    3.57
   3   5   6   41.68    4.23
   3   5   6   35.96    3.92
   3   5   7   57.29    5.14
   3   5   7   53.58    4.90
   3   5   7   54.69    4.81
   3   5   7   54.13    4.79
   3   5   7   47.80    4.51
   3   5   8    2.50    1.27
   3   5   8    0.27    0.93
   3   5   8    1.32    1.20
   3   5   8    0.59    1.25
   3   5   8   -0.26    1.19
   3   5   9  481.79   24.57
   3   5   9  472.58   24.36
   3   5   9  467.14   24.32
   3   5   9  453.29   24.17
   3   5   9  465.66   24.37
   3   5  10   43.66    3.90
   3   5  10   49.64    4.00
   3   5  10   49.73    4.36
   3   5  11    6.23    1.59
   3   5  12   20.78    2.31
   3   5  12   29.48    3.02
   3   5  13  132.59    7.30
   3   5  13   91.26    6.25
   3   5  14   22.70    2.12
   3   5  16   21.06    1.98
   3   6  -8   51.90    3.62
   3   6  -8   63.92    3.84
   3   6  -7    4.19    0.92
   3   6  -7    4.19    0.97
   3   6  -6  126.25    7.35
   3   6  -5   17.19    1.98
   3   6  -5   15.96    1.74
   3   6  -5   15.49    1.69
   3   6  -4    0.58    0.87
   3   6  -4    0.90    0.91
   3   6  -4    1.60    0.87
   3   6  -4    2.12    0.97
   3   6  -4    1.31    0.80
   3   6  -3   39.06    3.42
   3   6  -3   31.07    3.14
   3   6  -3   30.50    3.10
   3   6  -3   35.31    3.17
   3   6  -3   35.72    3.18
   3   6  -2   18.41    2.39
   3   6  -2   19.48    2.53
   3   6  -2   17.47    2.39
   3   6  -2   21.79    2.48
   3   6  -2   17.52    2.37
   3   6  -1   11.46    1.94
   3   6  -1   10.18    2.06
   3   6  -1   10.26    2.01
   3   6  -1   14.10    2.19
   3   6  -1   13.56    2.11
   3   6   0    2.01    1.05
   3   6   0    1.91    1.31
   3   6   0    3.59    1.53
   3   6   0    4.05    1.42
   3   6   0    1.54    1.15
   3   6   1    4.04    1.29
   3   6   1    5.85    1.65
   3   6   1    4.35    1.58
   3   6   2  259.18   15.90
   3   6   2  304.43   16.12
   3   6   2  291.32   15.96
   3   6   3   90.84    6.75
   3   6   3   82.92    6.56
   3   6   4  102.76    7.43
   3   6   4  108.46    7.54
   3   6   4  103.88    7.22
   3   6   5  171.59   11.05
   3   6   5  195.73   11.37
   3   6   5  179.02   10.96
   3   6   5  198.26   11.11
   3   6   6  142.41    8.16
   3   6   6  113.40    8.07
   3   6   6  128.10    8.37
   3   6   6  131.12    8.22
   3   6   6  134.79    8.20
   3   6   7   55.19    4.22
   3   6   7   45.80    4.04
   3   6   7   50.58    4.20
   3   6   7   53.21    4.16
   3   6   7   46.50    3.96
   3   6   8   89.89    5.59
   3   6   8   67.80    5.11
   3   6   8   75.28    5.33
   3   6   8   78.73    5.26
   3   6   8   76.63    5.18
   3   6   9   87.08    5.79
   3   6  10   18.96    2.13
   3   6  11   61.83    4.27
   3   6  12   63.46    4.12
   3   6  13   10.12    1.12
   3   7   2    8.51    1.14
   3   7   2    9.49    1.20
   4  -3   8   82.31    6.01
   4  -3   9   57.00    4.56
   4  -3  10   17.34    2.17
   4  -3  11   17.66    2.05
   4  -2 -12  162.67    9.77
   4  -2  -5   34.44    5.83
   4  -2  -4    5.37    2.63
   4  -2  -3  321.53   23.28
   4  -2  -2   98.23   11.30
   4  -2  -1  100.47   11.57
   4  -2   0   20.08    5.13
   4  -2   1   26.54    5.89
   4  -2   2   32.87    6.25
   4  -2   2   25.51    5.38
   4  -2   3   21.23    5.23
   4  -2   3   15.43    3.96
   4  -2   4  311.32   23.46
   4  -2   5  155.34   15.11
   4  -2   6  321.08   24.45
   4  -2   7  151.75   15.46
   4  -2   7  166.77   14.28
   4  -2  10    2.87    1.26
   4  -2  11   24.61    2.96
   4  -2  11   19.87    2.76
   4  -2  12   -1.81    1.51
   4  -2  12    0.50    0.98
   4  -2  13   89.42    5.70
   4  -2  13   69.06    5.44
   4  -2  14    0.17    0.74
   4  -2  14    0.17    0.65
   4  -1 -17   33.59    2.87
   4  -1 -16   67.00    4.91
   4  -1 -15   23.27    2.80
   4  -1 -14    1.06    1.21
   4  -1 -13  230.12   13.60
   4  -1 -10  338.82   23.85
   4  -1  -9  612.17   36.98
   4  -1  -8   70.04    8.61
   4  -1  -7    9.07    3.24
   4  -1  -6  630.25   37.20
   4  -1  -5  149.35   13.41
   4  -1  -4    6.05    2.67
   4  -1  -3   22.25    4.94
   4  -1  -2  346.99   24.05
   4  -1  -1  391.64   26.34
   4  -1   0  167.71   14.93
   4  -1   1   68.77    8.92
   4  -1   2  690.20   34.85
   4  -1   2  672.38   40.69
   4  -1   3  175.13   10.91
   4  -1   3  170.15   15.52
   4  -1   3  181.87   15.10
   4  -1   4  722.40   37.57
   4  -1   4  745.17   43.93
   4  -1   4  802.88   42.94
   4  -1   5   39.31    4.10
   4  -1   5   37.55    6.68
   4  -1   5   50.16    6.89
   4  -1   6   42.67    6.23
   4  -1   6   34.42    3.95
   4  -1   7  173.08   14.03
   4  -1   7  157.44   10.55
   4  -1   8  442.74   27.18
   4  -1   8  465.92   28.50
   4  -1   8  401.02   23.13
   4  -1   9  194.18   15.48
   4  -1   9  163.66   10.71
   4  -1  10   61.74    5.97
   4  -1  11   51.34    5.33
   4  -1  12  296.42   17.35
   4  -1  13    9.46    2.12
   4  -1  13    8.89    2.03
   4  -1  14   19.32    2.87
   4  -1  14   20.10    2.60
   4  -1  15    7.98    1.77
   4  -1  16   25.21    2.74
   4  -1  17    6.22    1.23
   4   0 -18    8.13    1.31
   4   0 -17  278.65   14.78
   4   0 -16   15.66    2.22
   4   0 -15   56.29    4.80
   4   0 -14    2.88    1.67
   4   0 -11  202.41   17.67
   4   0 -10  351.42   28.14
   4   0 -10  472.37   29.31
   4   0  -9  296.34   15.39
   4   0  -9  277.51   20.83
   4   0  -8    0.91    1.54
   4   0  -8    5.96    2.74
   4   0  -7  632.59   35.68
   4   0  -7  525.53   34.91
   4   0  -6  188.27   15.29
   4   0  -6  162.83   14.82
   4   0  -5  597.04   30.78
   4   0  -5  570.68   35.81
   4   0  -4  328.83   17.30
   4   0  -4  328.51   22.14
   4   0  -4  275.22   21.18
   4   0  -3  106.99    7.36
   4   0  -3  117.15   11.47
   4   0  -3  117.29   11.10
   4   0  -2   66.66    5.25
   4   0  -2   67.47    8.37
   4   0  -2   57.26    7.72
   4   0  -1  360.27   19.97
   4   0  -1  383.46   25.13
   4   0  -1  413.09   24.86
   4   0   0   35.67    3.69
   4   0   0   29.79    5.84
   4   0   1  123.17    8.30
   4   0   1  127.21   11.62
   4   0   2   11.80    2.09
   4   0   2    7.49    3.08
   4   0   2    9.83    3.42
   4   0   3    1.81    1.06
   4   0   3   -0.89    1.94
   4   0   3   -0.80    1.92
   4   0   4   42.39    4.28
   4   0   4   38.24    6.49
   4   0   4   39.58    6.22
   4   0   5 1276.90   62.48
   4   0   5 1254.18   68.23
   4   0   5 1270.10   66.98
   4   0   6   17.92    2.84
   4   0   6   21.36    5.00
   4   0   6   23.59    4.75
   4   0   7  231.14   14.23
   4   0   7  239.97   19.39
   4   0   7  239.86   17.96
   4   0   8   14.33    2.85
   4   0   8   14.67    4.51
   4   0   8   21.17    4.55
   4   0   9  323.52   18.34
   4   0   9  296.98   23.47
   4   0   9  297.44   21.90
   4   0  10   12.93    2.80
   4   0  10   15.33    4.81
   4   0  10   15.63    4.25
   4   0  11  211.58   13.28
   4   0  11  168.09   16.97
   4   0  11  194.23   16.65
   4   0  12    7.68    2.29
   4   0  13   59.83    5.92
   4   0  13   72.54    5.79
   4   0  14   66.62    5.99
   4   0  14   70.99    5.61
   4   0  15   24.46    3.46
   4   0  15   28.08    2.84
   4   0  15   33.62    3.34
   4   0  16   34.55    3.79
   4   0  16   39.02    3.23
   4   0  16   39.85    3.53
   4   0  17   -0.25    0.58
   4   0  17    0.64    0.93
   4   0  17    0.97    0.81
   4   0  18    2.30    0.94
   4   0  19   99.44    5.73
   4   1 -10  160.21   17.03
   4   1 -10  199.90   16.35
   4   1 -10  193.15   17.02
   4   1  -9    2.37    2.31
   4   1  -9    1.02    1.98
   4   1  -9    1.82    1.19
   4   1  -8  193.70   11.82
   4   1  -8  184.36   16.55
   4   1  -8  213.43   18.61
   4   1  -8  198.04   16.02
   4   1  -7   10.66    2.12
   4   1  -7    6.39    3.14
   4   1  -7    5.88    2.75
   4   1  -7   11.88    3.80
   4   1  -6   79.98    6.17
   4   1  -6   76.96    9.18
   4   1  -6   78.09    6.04
   4   1  -6   63.46    9.22
   4   1  -5   29.25    3.61
   4   1  -5   23.11    5.24
   4   1  -5   30.90    3.42
   4   1  -5   39.98    6.43
   4   1  -4   62.45    8.84
   4   1  -4   83.06    6.03
   4   1  -3   40.05    6.84
   4   1  -3   35.60    5.98
   4   1  -3   50.55    4.40
   4   1  -2  732.12   42.37
   4   1  -2  773.24   41.87
   4   1  -2  714.61   36.71
   4   1  -1   -1.75    2.96
   4   1  -1   -0.80    1.90
   4   1  -1    1.13    1.06
   4   1   0    6.18    2.93
   4   1   0    4.28    3.02
   4   1   0   13.64    3.76
   4   1   0    7.23    1.77
   4   1   1   81.64    9.13
   4   1   1   83.88    9.54
   4   1   1   82.61    9.33
   4   1   1   83.50    6.43
   4   1   2 1329.42   68.27
   4   1   2 1212.92   67.07
   4   1   2 1354.45   68.31
   4   1   2 1275.96   62.97
   4   1   3  879.54   47.29
   4   1   3  827.33   42.25
   4   1   3  840.86   47.09
   4   1   4  208.17   12.92
   4   1   4  232.56   17.17
   4   1   5  102.79    7.13
   4   1   5   87.08    9.57
   4   1   5   82.13    9.80
   4   1   5   90.54    7.05
   4   1   5   83.76    9.90
   4   1   6   -0.34    1.15
   4   1   6    0.59    1.14
   4   1   6    1.57    1.71
   4   1   6    2.50    2.44
   4   1   6    0.73    1.42
   4   1   6   -0.88    1.71
   4   1   7    2.84    1.51
   4   1   7    4.87    2.62
   4   1   7    1.99    1.54
   4   1   7    0.81    2.23
   4   1   7    1.55    1.85
   4   1   7   -0.91    1.53
   4   1   8  453.83   24.32
   4   1   8  482.08   29.73
   4   1   8  468.64   29.37
   4   1   8  429.02   29.65
   4   1   8  484.60   25.47
   4   1   9    7.90    3.32
   4   1   9    3.78    2.44
   4   1   9    4.26    1.90
   4   1  10   36.43    6.50
   4   1  10   38.71    6.65
   4   1  10   47.71    5.16
   4   1  11  214.65   12.42
   4   1  11  196.51   16.93
   4   1  12  144.63    9.17
   4   1  13   -0.26    1.14
   4   1  14    0.85    0.91
   4   1  14    0.23    1.04
   4   1  15  102.47    6.73
   4   1  15  108.74    6.92
   4   1  16   62.18    4.58
   4   1  16   70.58    4.77
   4   1  17    0.94    0.64
   4   1  17    1.14    1.02
   4   1  17    1.97    0.88
   4   1  18    7.84    1.45
   4   1  19   58.74    3.91
   4   2 -17  207.00   10.83
   4   2 -16   -0.63    0.90
   4   2 -15   39.37    3.48
   4   2 -14    9.22    1.79
   4   2 -13  114.32    7.70
   4   2 -12    8.42    2.01
   4   2  -9  102.73   12.69
   4   2  -8    3.00    1.38
   4   2  -8    4.18    1.41
   4   2  -7  514.78   26.95
   4   2  -7  535.57   26.92
   4   2  -7  526.22   26.53
   4   2  -7  463.93   33.92
   4   2  -7  490.24   32.19
   4   2  -7  509.41   32.08
   4   2  -7  455.72   32.27
   4   2  -6   33.61    6.75
   4   2  -6   38.58    6.54
   4   2  -6   39.97    6.76
   4   2  -6   50.91    7.15
   4   2  -6   30.23    3.79
   4   2  -6   36.04    3.93
   4   2  -5   40.04    4.10
   4   2  -5   41.71    4.44
   4   2  -5   36.93    4.09
   4   2  -5   47.57    7.88
   4   2  -5   34.51    5.68
   4   2  -5   38.34    6.88
   4   2  -5   32.98    6.13
   4   2  -5   45.90    6.83
   4   2  -4   -0.81    1.58
   4   2  -4    1.04    1.76
   4   2  -4    1.45    2.12
   4   2  -4    0.35    1.26
   4   2  -4    0.97    1.34
   4   2  -4   -0.29    1.07
   4   2  -4    1.01    2.21
   4   2  -4    0.94    2.05
   4   2  -3  130.70   11.86
   4   2  -3  124.49   13.15
   4   2  -3  116.79   11.31
   4   2  -3  130.23    8.98
   4   2  -3  130.24    8.73
   4   2  -3  140.78   13.42
   4   2  -2   23.43    4.52
   4   2  -2   20.06    4.15
   4   2  -2   22.69    5.19
   4   2  -2   21.08    3.24
   4   2  -2   24.73    3.12
   4   2  -2   23.98    5.69
   4   2  -1   -0.71    1.96
   4   2  -1   -0.96    3.12
   4   2  -1    1.79    1.09
   4   2  -1    3.55    1.96
   4   2   0   19.82    3.29
   4   2   0   19.10    4.16
   4   2   0   32.98    6.25
   4   2   0   28.69    4.99
   4   2   0   31.07    6.15
   4   2   1  686.12   35.76
   4   2   1  638.67   41.15
   4   2   1  757.55   41.57
   4   2   1  687.82   38.93
   4   2   1  693.03   38.93
   4   2   1  688.29   37.02
   4   2   2   67.24    5.97
   4   2   2   57.63    7.28
   4   2   2   57.77    8.20
   4   2   2   58.08    8.56
   4   2   2   53.31    7.09
   4   2   2   69.23    6.86
   4   2   3    7.11    2.52
   4   2   3   12.70    4.07
   4   2   3   10.33    3.16
   4   2   3    7.97    2.14
   4   2   3    6.16    2.15
   4   2   3    8.93    3.76
   4   2   4  121.53    8.44
   4   2   4  108.02    9.83
   4   2   4  110.56   10.92
   4   2   4  116.50   10.85
   4   2   4  107.83   11.75
   4   2   5 1604.21   83.29
   4   2   5 1568.11   77.29
   4   2   5 1521.47   80.35
   4   2   5 1639.36   82.28
   4   2   5 1657.67   81.75
   4   2   5 1593.10   77.45
   4   2   6  135.79   14.27
   4   2   6  142.89   13.74
   4   2   6  180.37   10.77
   4   2   6  139.02    9.43
   4   2   6  162.49   10.27
   4   2   6  148.64   13.16
   4   2   6  176.91   10.91
   4   2   6  161.96   14.02
   4   2   6  160.61   13.26
   4   2   7   68.66    5.96
   4   2   7   63.45    9.18
   4   2   7   63.42    8.39
   4   2   7   61.13    5.44
   4   2   7   53.94    7.42
   4   2   7   67.32    5.89
   4   2   8   27.99    3.20
   4   2   8   23.98    5.39
   4   2   8   26.89    5.13
   4   2   8   32.60    3.97
   4   2   8   35.32    3.93
   4   2   8   31.23    3.53
   4   2   9   60.01    4.81
   4   2   9   51.66    5.07
   4   2   9   56.70    7.56
   4   2   9   63.86    5.90
   4   2  10   -0.84    1.83
   4   2  10   -0.38    1.11
   4   2  11   75.22    6.73
   4   2  11   76.46    5.70
   4   2  11   82.54    6.36
   4   2  12  261.72   15.59
   4   2  12  249.61   14.15
   4   2  12  266.29   14.92
   4   2  13   23.28    3.33
   4   2  13   25.71    3.13
   4   2  14    3.88    1.55
   4   2  14    3.19    1.30
   4   2  15   20.99    2.85
   4   2  15   17.57    2.32
   4   2  16  144.61    9.03
   4   2  17   20.66    2.37
   4   2  17   20.29    2.27
   4   2  18   37.95    2.83
   4   2  18   45.45    3.22
   4   3 -14  132.48    7.56
   4   3 -12   59.72    4.45
   4   3 -11   11.67    1.83
   4   3 -11   12.94    1.90
   4   3 -10  108.95    7.28
   4   3  -8    0.25    0.93
   4   3  -7  138.30    8.97
   4   3  -7  143.57    9.01
   4   3  -7  149.95    9.39
   4   3  -7  142.38    9.30
   4   3  -6  199.92   18.86
   4   3  -6  232.52   13.58
   4   3  -6  258.28   13.73
   4   3  -6  223.22   13.07
   4   3  -6  188.89   17.15
   4   3  -6  197.57   17.25
   4   3  -5   18.36    2.66
   4   3  -5   23.38    3.17
   4   3  -5   18.83    2.84
   4   3  -5   16.25    4.35
   4   3  -5   16.01    4.54
   4   3  -5   10.07    3.87
   4   3  -4   42.56    4.36
   4   3  -4   35.82    4.25
   4   3  -4   35.76    6.01
   4   3  -4   41.38    7.19
   4   3  -4   39.86    6.90
   4   3  -4   37.83    6.96
   4   3  -4   41.16    4.15
   4   3  -3  197.86   12.29
   4   3  -3  206.06   12.89
   4   3  -3  213.69   12.78
   4   3  -3  169.47   15.27
   4   3  -3  208.06   17.86
   4   3  -3  195.13   17.68
   4   3  -3  213.95   17.87
   4   3  -3  201.70   12.22
   4   3  -2  392.20   20.64
   4   3  -2  395.18   21.23
   4   3  -2  385.77   20.99
   4   3  -2  302.41   23.18
   4   3  -2  363.71   26.22
   4   3  -2  362.65   27.10
   4   3  -2  349.90   26.27
   4   3  -2  370.09   20.23
   4   3  -1   45.12    4.53
   4   3  -1   35.19    4.46
   4   3  -1   35.58    6.89
   4   3  -1   37.22    3.95
   4   3  -1   45.75    7.82
   4   3  -1   40.58    7.58
   4   3  -1   40.14    5.92
   4   3   0    9.84    1.98
   4   3   0   14.29    3.42
   4   3   0   13.42    2.39
   4   3   0   14.25    3.48
   4   3   0    4.00    3.27
   4   3   0   16.47    2.83
   4   3   1    6.58    2.33
   4   3   1    3.99    1.44
   4   3   1    2.81    2.06
   4   3   1   -3.93    4.39
   4   3   1    3.81    2.19
   4   3   1    3.32    1.50
   4   3   1    4.59    2.96
   4   3   1    2.51    3.00
   4   3   1    4.15    1.91
   4   3   2  711.65   39.73
   4   3   2  605.43   36.53
   4   3   2  598.79   33.80
   4   3   2  661.83   33.82
   4   3   2  695.57   33.10
   4   3   2  626.94   41.09
   4   3   2  600.19   39.84
   4   3   2  617.36   32.29
   4   3   3   27.09    3.20
   4   3   3   36.20    6.58
   4   3   3   30.22    4.25
   4   3   3   39.18    4.39
   4   3   3   30.75    3.85
   4   3   3   28.88    3.58
   4   3   3   30.83    6.76
   4   3   3   24.57    6.49
   4   3   4  301.17   24.19
   4   3   4  321.56   23.74
   4   3   4  296.08   17.00
   4   3   4  315.64   18.38
   4   3   4  305.04   17.90
   4   3   4  322.27   17.66
   4   3   4  322.95   17.72
   4   3   5  517.36   35.72
   4   3   5  524.66   34.93
   4   3   5  523.54   28.56
   4   3   5  555.20   29.72
   4   3   5  582.21   29.48
   4   3   5  571.12   29.12
   4   3   5  590.16   29.37
   4   3   6    4.25    1.60
   4   3   6    4.53    1.74
   4   3   6    3.26    1.74
   4   3   6    6.78    3.13
   4   3   6   -1.08    2.12
   4   3   6    5.31    1.56
   4   3   6    4.54    1.42
   4   3   7   93.60    6.89
   4   3   7  106.71    7.63
   4   3   7   90.46    7.05
   4   3   7   66.18    9.75
   4   3   7   79.09    9.93
   4   3   7  103.89    7.45
   4   3   7   94.18    6.90
   4   3   8  216.76   12.62
   4   3   8  213.58   12.84
   4   3   8  211.95   12.55
   4   3   8  217.14   12.42
   4   3   8  201.67   12.74
   4   3   9  202.27   12.35
   4   3   9  185.78   11.60
   4   3   9  193.00   11.96
   4   3   9  187.92   11.90
   4   3   9  199.01   11.73
   4   3   9  201.93   11.58
   4   3  10   13.44    2.46
   4   3  10   11.79    2.30
   4   3  10    8.57    1.72
   4   3  10   12.80    2.52
   4   3  11  124.25    8.55
   4   3  11  128.67    8.55
   4   3  11  116.27    8.50
   4   3  12   32.09    3.74
   4   3  12   34.16    3.72
   4   3  13   34.05    3.66
   4   3  13   36.01    3.74
   4   3  14   23.52    2.85
   4   3  14   23.61    2.90
   4   3  14   26.53    2.94
   4   3  15   87.65    5.99
   4   3  15   86.34    6.08
   4   3  16    5.60    1.23
   4   3  16    3.63    1.19
   4   3  16    3.49    1.05
   4   3  17  101.63    6.09
   4   3  18   70.64    4.19
   4   4 -13  205.51   10.78
   4   4 -12   18.30    2.06
   4   4 -11   26.70    2.46
   4   4 -10   42.20    3.56
   4   4  -9  181.28   10.60
   4   4  -7   68.30    5.16
   4   4  -7   80.65    5.58
   4   4  -6  391.36   20.81
   4   4  -6  382.49   20.72
   4   4  -6  400.28   21.11
   4   4  -6  413.87   21.15
   4   4  -5   41.66    4.02
   4   4  -5   43.13    4.06
   4   4  -5   42.39    4.24
   4   4  -5   51.02    4.50
   4   4  -4   -0.61    1.29
   4   4  -4    0.63    1.19
   4   4  -4   -0.28    1.06
   4   4  -4   -0.27    1.10
   4   4  -3   63.77    5.67
   4   4  -3   68.38    5.83
   4   4  -3   62.06    5.44
   4   4  -3   61.50    5.31
   4   4  -2  366.19   20.11
   4   4  -2  337.51   19.97
   4   4  -2  369.58   19.85
   4   4  -2  353.75   19.68
   4   4  -1  138.91   10.27
   4   4  -1  170.26   10.81
   4   4  -1  154.61   10.19
   4   4  -1  153.12   10.34
   4   4   0   24.97    3.43
   4   4   0   21.66    3.23
   4   4   0   19.08    5.35
   4   4   0   22.62    2.85
   4   4   0   17.19    5.17
   4   4   0   17.55    4.88
   4   4   1   64.14    9.58
   4   4   1   92.22    6.44
   4   4   1   88.38   10.27
   4   4   1   82.13    7.09
   4   4   1   80.58    6.84
   4   4   1   85.35    6.89
   4   4   1   83.31    6.18
   4   4   1   72.38   10.35
   4   4   2    2.36    2.57
   4   4   2    2.54    2.77
   4   4   2    2.21    1.35
   4   4   2    0.41    1.85
   4   4   2    5.35    2.27
   4   4   2    4.31    1.43
   4   4   3  141.17   15.16
   4   4   3  142.65   14.77
   4   4   3  151.26   10.22
   4   4   3  160.23   10.67
   4   4   3  131.14   14.09
   4   4   3  148.39    9.20
   4   4   3  137.89    9.26
   4   4   4   50.12    4.62
   4   4   4   51.15    4.49
   4   4   4   51.02    5.11
   4   4   4   50.92    4.98
   4   4   4   48.49    5.08
   4   4   4   55.46    5.55
   4   4   5  354.52   19.48
   4   4   5  355.42   19.23
   4   4   5  350.26   19.67
   4   4   5  364.00   20.04
   4   4   5  367.80   20.06
   4   4   5  363.36   20.34
   4   4   6   48.62    4.57
   4   4   6   48.51    4.94
   4   4   6   51.60    4.96
   4   4   6   49.36    4.42
   4   4   6   51.16    4.76
   4   4   6   49.84    4.65
   4   4   7    3.47    1.42
   4   4   7    3.25    1.66
   4   4   7    4.14    1.69
   4   4   7    4.31    1.34
   4   4   7    4.94    1.78
   4   4   7    4.09    1.54
   4   4   8  427.37   21.17
   4   4   8  376.90   20.72
   4   4   8  389.27   20.91
   4   4   8  391.27   20.71
   4   4   8  376.63   20.34
   4   4   8  364.06   20.49
   4   4   8  376.38   20.39
   4   4   9   13.17    2.27
   4   4   9   14.16    2.32
   4   4   9    9.48    1.79
   4   4   9   11.63    1.99
   4   4   9   13.76    2.13
   4   4   9   14.68    2.23
   4   4  10   12.33    2.20
   4   4  10   13.13    1.93
   4   4  11    8.87    1.84
   4   4  12  196.28   12.07
   4   4  12  226.49   12.34
   4   4  13    0.88    1.01
   4   4  13    0.20    0.99
   4   4  13   -0.68    0.91
   4   4  14    0.96    0.95
   4   4  14    1.77    1.02
   4   4  14    1.19    0.86
   4   4  15   54.67    4.00
   4   4  15   55.50    4.05
   4   4  16   83.14    5.07
   4   5 -10   52.45    3.35
   4   5 -10   55.77    3.67
   4   5  -9  238.63   12.44
   4   5  -8    0.80    0.78
   4   5  -7  104.54    6.62
   4   5  -6   40.01    3.56
   4   5  -6   37.33    3.04
   4   5  -6   41.42    3.17
   4   5  -5   81.82    5.66
   4   5  -5   74.70    5.20
   4   5  -5   83.23    5.36
   4   5  -5   73.47    5.32
   4   5  -5   71.14    5.28
   4   5  -4    0.23    1.05
   4   5  -4    0.21    1.01
   4   5  -4    0.21    0.97
   4   5  -4    0.69    1.01
   4   5  -3  123.75    7.88
   4   5  -3  119.08    7.75
   4   5  -3  127.76    8.10
   4   5  -3  111.49    7.86
   4   5  -2    1.94    1.21
   4   5  -2    0.25    0.98
   4   5  -2   -0.26    1.01
   4   5  -2    1.70    1.26
   4   5  -1   44.07    4.24
   4   5  -1   44.82    4.26
   4   5  -1   49.01    4.57
   4   5  -1   39.25    4.27
   4   5   0    6.61    1.84
   4   5   0    8.59    1.98
   4   5   0    6.17    2.03
   4   5   1   74.55    6.09
   4   5   1   75.94    6.07
   4   5   2   28.38    3.68
   4   5   2   31.06    3.75
   4   5   2   28.08    3.55
   4   5   2   29.94    3.07
   4   5   3  123.50    9.16
   4   5   3  137.46    9.23
   4   5   3  137.16    8.41
   4   5   4   43.43    4.24
   4   5   4   35.50    3.98
   4   5   4   40.70    4.07
   4   5   4   36.37    3.80
   4   5   4   32.67    3.48
   4   5   4   32.89    3.38
   4   5   5  163.42   10.53
   4   5   5  160.25   10.64
   4   5   5  169.63   10.11
   4   5   5  163.63   10.02
   4   5   5  174.30   10.55
   4   5   5  179.81   10.46
   4   5   6    1.14    1.17
   4   5   6    1.70    1.13
   4   5   6    0.77    1.04
   4   5   6    0.24    0.98
   4   5   6    0.26    1.02
   4   5   6   -0.28    1.23
   4   5   7  117.25    7.84
   4   5   7  105.49    7.52
   4   5   7  103.81    7.35
   4   5   7  130.80    7.75
   4   5   7  111.09    7.51
   4   5   7  134.49    7.77
   4   5   8    0.65    0.99
   4   5   8    1.26    1.02
   4   5   8    0.98    0.90
   4   5   8    1.14    1.11
   4   5   8    0.84    0.94
   4   5   8    0.92    1.05
   4   5   9  176.60    9.44
   4   5   9  161.45    9.24
   4   5   9  145.72    8.82
   4   5   9  136.80    8.87
   4   5  10   32.16    3.12
   4   5  10   38.80    3.39
   4   5  11   57.54    4.23
   4   5  11   55.02    4.24
   4   5  12    6.74    1.28
   4   5  13   68.58    4.48
   4   5  14    4.81    0.85
   4   6  -4    7.56    1.14
   4   6  -3    1.17    0.67
   4   6  -3    0.11    0.51
   4   6  -3    0.10    0.52
   4   6  -2   88.07    5.45
   4   6  -2   84.70    5.34
   4   6  -2   91.76    5.44
   4   6  -1    7.51    1.28
   4   6  -1    8.55    1.42
   4   6  -1    7.96    1.37
   4   6   0   34.61    2.98
   4   6   0   41.32    3.50
   4   6   0   41.04    3.47
   4   6   0   44.88    3.46
   4   6   0   45.22    3.48
   4   6   1    4.57    1.27
   4   6   1    5.23    1.28
   4   6   2   12.42    1.93
   4   6   2   16.28    2.06
   4   6   2   14.25    1.99
   4   6   3    7.61    1.52
   4   6   3    7.96    1.62
   4   6   4  165.07    9.86
   4   6   4  164.06    9.90
   4   6   4  178.28    9.86
   4   6   4  182.10    9.83
   4   6   5    5.73    1.29
   4   6   5    5.18    1.23
   4   6   6   43.88    3.38
   4   6   6   45.08    3.32
   4   6   7   19.66    1.90
   4   6   7   20.80    1.88
   5  -2  10    0.90    0.88
   5  -1 -14   43.42    3.16
   5  -1 -13   52.90    3.94
   5  -1 -12    1.96    1.23
   5  -1  -9   98.58    6.71
   5  -1   4   76.69    5.80
   5  -1   5   11.15    2.02
   5  -1   6   68.91    5.50
   5  -1   7  231.72   13.38
   5  -1   8  118.93    8.03
   5  -1   9    0.26    0.92
   5  -1  10  137.27    8.80
   5  -1  11  127.19    8.53
   5  -1  11  156.94    8.92
   5  -1  12  222.56   13.01
   5  -1  12  261.61   13.27
   5  -1  13   54.36    3.88
   5   0 -15   -0.49    1.03
   5   0 -14  170.26    9.52
   5   0 -13  336.81   17.61
   5   0  -9   11.72    2.00
   5   0  -8   44.66    4.21
   5   0  -7    8.51    2.02
   5   0  -6  495.75   26.22
   5   0  -4    9.88    3.34
   5   0  -4   16.24    2.34
   5   0  -3   67.10    8.86
   5   0  -3   76.93    5.80
   5   0  -2  273.88   20.73
   5   0  -2  273.77   15.43
   5   0  -1   10.67    3.83
   5   0  -1   13.76    2.31
   5   0   0   83.97   10.39
   5   0   0   97.89    7.02
   5   0   1  202.38   17.77
   5   0   1  236.69   13.59
   5   0   2  153.47   15.00
   5   0   2  159.22   14.65
   5   0   2  165.65   10.44
   5   0   3  254.12   20.62
   5   0   3  247.61   19.77
   5   0   3  268.73   15.27
   5   0   4  247.54   20.60
   5   0   4  276.25   15.45
   5   0   4  248.24   19.70
   5   0   5  911.11   45.72
   5   0   6   98.31    7.55
   5   0   6  110.05    7.81
   5   0   7  345.42   19.58
   5   0   7  384.56   20.27
   5   0   8    1.97    1.28
   5   0   9   30.26    3.68
   5   0  10   25.96    3.37
   5   0  11   32.77    3.75
   5   0  12   59.71    5.31
   5   0  12   68.16    5.10
   5   0  13    1.62    1.07
   5   0  13    4.52    1.30
   5   0  14   -0.76    0.74
   5   0  14    1.37    0.80
   5   0  15  402.72   20.20
   5   1  -8   15.38    2.36
   5   1  -8   14.34    2.29
   5   1  -7    8.84    2.05
   5   1  -7    9.54    2.01
   5   1  -6   89.15    6.87
   5   1  -5    1.30    1.31
   5   1  -4  139.65   13.97
   5   1  -4  126.58   13.41
   5   1  -4  130.55   13.13
   5   1  -4  146.51    9.72
   5   1  -4  138.41    9.06
   5   1  -4  147.53   13.39
   5   1  -3  507.58   34.09
   5   1  -3  481.10   32.80
   5   1  -3  463.15   32.41
   5   1  -3  586.38   28.49
   5   1  -3  532.35   27.46
   5   1  -3  518.82   32.64
   5   1  -2  106.93   12.57
   5   1  -2   92.45   11.02
   5   1  -2  124.03   12.35
   5   1  -2  137.33   12.53
   5   1  -2  117.64    7.99
   5   1  -1  211.75   18.06
   5   1  -1  230.26   18.22
   5   1  -1  227.61   13.31
   5   1  -1  215.51   17.58
   5   1   0  319.07   25.26
   5   1   0  335.50   19.84
   5   1   0  311.61   24.00
   5   1   0  354.67   24.40
   5   1   0  387.02   19.56
   5   1   0  337.56   24.02
   5   1   1    6.79    3.66
   5   1   1    4.98    2.08
   5   1   1   -0.91    1.54
   5   1   1    5.77    1.77
   5   1   1    5.53    2.84
   5   1   2  251.44   21.27
   5   1   2  276.12   16.38
   5   1   2  269.65   20.50
   5   1   2  275.51   15.88
   5   1   2  295.61   21.31
   5   1   3   29.26    6.11
   5   1   3   28.67    3.82
   5   1   3   28.30    3.50
   5   1   3   21.93    5.25
   5   1   4  249.79   21.21
   5   1   4  305.37   17.01
   5   1   4  280.88   16.62
   5   1   4  311.24   20.79
   5   1   4  291.96   21.94
   5   1   5   -0.97    1.64
   5   1   5    1.02    1.24
   5   1   5   -0.34    1.42
   5   1   5   -0.89    1.74
   5   1   6   83.09    6.72
   5   1   6   92.27    7.08
   5   1   7   15.22    2.56
   5   1   7   13.85    2.59
   5   1   8  456.04   24.88
   5   1   8  443.29   24.39
   5   1   9    4.12    1.71
   5   1   9    3.24    1.18
   5   1  10   27.32    3.63
   5   1  11    0.95    1.23
   5   1  12   84.13    6.52
   5   1  12   83.96    5.84
   5   1  13    0.76    0.93
   5   1  13    0.17    0.78
   5   1  14   58.36    4.65
   5   1  15    1.03    0.77
   5   2 -14  124.13    6.83
   5   2 -13  268.48   13.90
   5   2 -12   60.18    4.36
   5   2 -11  385.22   19.97
   5   2  -8   10.50    1.69
   5   2  -8   11.45    1.83
   5   2  -7   99.03    6.74
   5   2  -7  104.68    7.17
   5   2  -7   98.39    7.01
   5   2  -6    7.13    1.68
   5   2  -6    8.06    1.90
   5   2  -6    9.35    2.09
   5   2  -5   10.57    2.22
   5   2  -5    7.57    2.09
   5   2  -4   24.85    3.33
   5   2  -4   25.70    3.53
   5   2  -3  115.19    7.99
   5   2  -3  123.07    8.85
   5   2  -3  115.97    8.58
   5   2  -2   40.26    4.02
   5   2  -2   40.11    4.58
   5   2  -2   32.86    4.34
   5   2  -1   40.64    4.10
   5   2  -1   37.43    7.07
   5   2  -1   37.59    6.02
   5   2  -1   42.35    7.70
   5   2   0  108.30    7.95
   5   2   0   89.51    6.87
   5   2   0   96.19   10.08
   5   2   0  102.22   10.17
   5   2   0   82.59   10.94
   5   2   1  793.96   44.56
   5   2   1  861.65   44.47
   5   2   1  942.46   43.98
   5   2   1  970.39   51.13
   5   2   1  920.50   49.05
   5   2   1  897.01   48.39
   5   2   1  712.00   50.92
   5   2   1  833.35   51.21
   5   2   2   37.62    4.91
   5   2   2   44.98    4.97
   5   2   2   48.54    7.00
   5   2   2   51.82    6.98
   5   2   2   50.71    4.77
   5   2   2   38.50    7.69
   5   2   2   46.91    7.85
   5   2   3   -0.33    1.23
   5   2   3    1.12    1.78
   5   2   4    0.66    1.25
   5   2   4    0.80    1.66
   5   2   4    0.71    1.70
   5   2   5  579.23   29.88
   5   2   5  539.27   29.19
   5   2   6   85.50    7.14
   5   2   6   90.95    6.93
   5   2   7   26.37    3.36
   5   2   7   22.01    2.84
   5   2   7   20.73    2.94
   5   2   8   77.31    6.31
   5   2   8   80.69    6.11
   5   2   8   87.46    6.04
   5   2   9   12.98    2.17
   5   2   9    9.26    1.59
   5   2  10    9.84    1.97
   5   2  11   27.02    3.00
   5   2  11   33.12    3.61
   5   2  12   20.47    2.73
   5   2  12   18.33    2.26
   5   2  13   35.79    3.51
   5   2  14   23.00    2.54
   5   2  15  161.69    9.02
   5   2  16    2.09    0.61
   5   3 -12   21.93    1.81
   5   3 -10  140.58    7.77
   5   3  -7    1.24    0.83
   5   3  -7    1.59    0.79
   5   3  -7    1.61    0.84
   5   3  -6   52.35    4.23
   5   3  -6   55.94    4.33
   5   3  -6   48.20    4.30
   5   3  -6   53.13    4.48
   5   3  -5    1.08    1.26
   5   3  -5    0.93    1.04
   5   3  -5    1.39    1.21
   5   3  -4  177.32   10.71
   5   3  -4  175.23   11.13
   5   3  -4  180.84   11.10
   5   3  -3    1.91    1.46
   5   3  -3    2.50    1.38
   5   3  -3    0.67    1.49
   5   3  -2   66.38    5.45
   5   3  -2   51.49    5.38
   5   3  -2   65.85    5.72
   5   3  -1   11.63    2.49
   5   3  -1   20.58    3.27
   5   3   0  249.62   14.33
   5   3   0  252.58   14.83
   5   3   1  151.22    9.53
   5   3   1  159.54   10.05
   5   3   1  140.45   10.37
   5   3   1  139.01   10.12
   5   3   2   13.80    2.32
   5   3   2   15.18    2.94
   5   3   2   13.47    3.02
   5   3   3   -0.36    1.35
   5   3   3    0.29    1.11
   5   3   3    2.21    1.59
   5   3   3    0.79    1.85
   5   3   4  342.09   18.82
   5   3   4  355.32   19.06
   5   3   4  351.17   19.76
   5   3   4  329.13   19.20
   5   3   5    1.89    1.47
   5   3   5   -0.29    1.02
   5   3   5    0.28    1.09
   5   3   5    2.49    1.66
   5   3   6   41.48    4.24
   5   3   6   46.17    4.18
   5   3   6   40.89    4.38
   5   3   6   45.01    4.33
   5   3   7    0.26    1.09
   5   3   7   -0.30    1.16
   5   3   7   -0.24    0.86
   5   3   7    0.57    1.04
   5   3   8  113.55    7.97
   5   3   8  136.29    8.65
   5   3   8  137.65    8.71
   5   3   8  134.21    8.09
   5   3   9    0.90    0.91
   5   3   9    0.53    0.94
   5   3   9    0.39    0.72
   5   3   9    1.76    1.18
   5   3  10   25.86    2.94
   5   3  10   25.56    2.95
   5   3  11   17.51    2.33
   5   3  11   19.41    2.44
   5   3  12   25.96    2.65
   5   3  12   25.71    2.68
   5   3  13   20.81    2.14
   5   4 -10   21.51    1.87
   5   4  -9   21.57    1.86
   5   4  -8    3.93    0.95
   5   4  -6   30.08    2.59
   5   4  -6   32.50    2.70
   5   4  -5   19.03    2.29
   5   4  -5   20.30    2.36
   5   4  -5   20.29    2.20
   5   4  -5   23.79    2.38
   5   4  -4    2.47    1.22
   5   4  -4    1.33    1.01
   5   4  -4    0.59    0.86
   5   4  -4   -0.60    0.91
   5   4  -3  223.94   13.08
   5   4  -3  228.76   13.07
   5   4  -3  225.13   12.80
   5   4  -3  232.59   12.83
   5   4  -2    1.12    1.19
   5   4  -2    2.99    1.45
   5   4  -2    1.73    1.08
   5   4  -2    2.41    1.24
   5   4  -1   26.11    3.14
   5   4  -1   27.95    3.17
   5   4  -1   27.66    3.35
   5   4  -1   22.09    3.07
   5   4   0   15.51    2.51
   5   4   0   14.39    2.49
   5   4   1  353.13   18.54
   5   4   1  339.52   18.33
   5   4   1  307.80   18.41
   5   4   2   13.77    2.62
   5   4   2   15.13    2.17
   5   4   2   14.62    2.62
   5   4   3   60.19    4.66
   5   4   3   61.20    5.53
   5   4   3   60.90    5.29
   5   4   4   39.64    4.18
   5   4   4   35.39    3.84
   5   4   4   42.31    3.60
   5   4   4   44.57    4.12
   5   4   4   33.01    3.61
   5   4   5   26.15    3.26
   5   4   5   24.62    3.06
   5   4   5   27.29    3.12
   5   4   5   27.97    3.05
   5   4   5   25.53    2.72
   5   4   6   15.20    2.26
   5   4   6   16.03    2.41
   5   4   6   15.20    1.91
   5   4   6   16.80    2.27
   5   4   6   14.18    2.13
   5   4   6   13.96    1.96
   5   4   7  116.06    7.53
   5   4   7  110.52    7.26
   5   4   7  109.60    6.82
   5   4   7  122.24    7.36
   5   4   7  115.20    7.13
   5   4   7  107.09    6.97
   5   4   8   93.34    6.24
   5   4   8   85.44    5.90
   5   4   8   89.28    5.88
   5   4   8   97.75    5.91
   5   4   8   98.27    6.11
   5   4   8   94.72    5.93
   5   4   9    6.24    1.16
   5   4  10   50.87    3.82
   5   4  10   41.58    3.22
   5   4  11   18.14    1.75
   5   4  11   21.78    2.23
   5   5  -6   67.52    3.86
   5   5  -6   57.22    3.74
   5   5  -5    2.17    0.71
   5   5  -4   92.13    5.36
   5   5  -4   94.77    5.46
   5   5  -4  103.23    5.82
   5   5  -3   58.31    3.84
   5   5  -3   56.23    3.83
   5   5  -2  206.27   11.15
   5   5  -2  208.57   11.17
   5   5  -1   55.03    4.15
   5   5  -1   51.91    4.12
   5   5  -1   55.18    4.05
   5   5  -1   52.97    3.99
   5   5   0  179.70   10.51
   5   5   0  180.95   10.30
   5   5   0  186.01   10.29
   5   5   1  183.14    9.98
   5   5   1  160.25    9.71
   5   5   2   20.21    2.53
   5   5   2   26.66    2.85
   5   5   2   26.15    2.69
   5   5   3  112.13    7.16
   5   5   3  111.34    7.23
   5   5   4   19.23    2.38
   5   5   4   19.04    2.33
   5   5   4   25.47    2.53
   5   5   4   18.74    2.22
   5   5   5   11.96    1.83
   5   5   5   13.30    1.79
   5   5   5   15.26    1.82
   5   5   6   13.13    1.63
   5   5   6   13.38    1.63
   5   5   7   84.44    5.14
   6  -1  -5    1.76    1.01
   6  -1  -4    2.62    1.13
   6  -1  -3  277.01   15.23
   6  -1  -1   57.02    4.81
   6  -1   0    1.29    1.31
   6  -1   1  269.46   14.98
   6  -1   2    8.77    1.74
   6  -1   3    2.18    1.13
   6  -1   4   71.16    5.06
   6   0 -11   11.47    1.25
   6   0 -10  137.72    7.65
   6   0  -6  132.92    8.39
   6   0  -6  147.13    8.49
   6   0  -5    1.11    0.99
   6   0  -4   52.09    4.46
   6   0  -3   50.33    4.49
   6   0   0  135.40    7.81
   6   0   0  131.67    8.87
   6   0   1   10.66    1.61
   6   0   1   10.32    2.13
   6   0   2  199.02   11.05
   6   0   2  206.13   12.08
   6   0   3  163.95    9.31
   6   0   3  162.59   10.05
   6   0   4  154.77    8.55
   6   0   4  133.16    8.88
   6   0   5    1.28    1.08
   6   0   5    1.42    0.91
   6   0   6    0.91    0.83
   6   0   6    1.57    0.80
   6   0   7   29.35    2.76
   6   0   8   15.93    1.91
   6   0   9   63.74    4.26
   6   0  10   73.60    4.48
   6   1  -7  140.34    7.81
   6   1  -6   13.87    1.86
   6   1  -6   12.21    1.72
   6   1  -6   12.23    1.83
   6   1  -5    6.16    1.56
   6   1  -5    9.59    1.76
   6   1  -4    2.45    1.25
   6   1  -4    2.07    1.29
   6   1  -3  133.65    8.96
   6   1  -3  139.65    8.87
   6   1  -2    9.41    2.11
   6   1  -1   44.19    3.71
   6   1   0  163.85    9.26
   6   1   0  144.20    9.82
   6   1   1   15.75    2.12
   6   1   1   14.18    2.49
   6   1   2   15.14    2.09
   6   1   2   16.41    2.53
   6   1   3   83.92    5.80
   6   1   3   93.19    6.81
   6   1   3   76.61    6.19
   6   1   4   72.20    5.20
   6   1   4   69.93    5.76
   6   1   4   70.14    5.53
   6   1   5   19.20    2.41
   6   1   5   18.49    2.46
   6   1   5   17.38    2.60
   6   1   6  189.74   10.56
   6   1   6  206.40   11.03
   6   1   6  178.05   11.02
   6   1   6  183.35   10.77
   6   1   7  182.86    9.99
   6   1   7  156.16    9.74
   6   1   8  112.26    7.09
   6   1   9   39.89    3.38
   6   1  10   53.48    3.88
   6   1  11    6.40    1.12
   6   1  12   17.80    1.58
   6   2  -9    9.83    1.39
   6   2  -6   58.47    3.94
   6   2  -5   11.92    1.79
   6   2  -5   16.16    2.04
   6   2  -5   14.83    1.84
   6   2  -4   40.65    3.68
   6   2  -4   39.53    3.64
   6   2  -4   42.44    3.51
   6   2  -3  303.82   17.37
   6   2  -3  315.16   17.36
   6   2  -3  347.74   17.20
   6   2  -2    3.26    1.43
   6   2  -2    2.55    1.25
   6   2  -2    5.48    1.46
   6   2  -1    6.66    1.93
   6   2  -1    9.00    1.78
   6   2   0  258.30   13.68
   6   2   0  241.71   14.24
   6   2   0  246.83   13.93
   6   2   1   36.29    3.28
   6   2   1   32.51    3.74
   6   2   1   33.27    3.64
   6   2   2   18.65    2.85
   6   2   2   20.22    2.46
   6   2   2   20.31    2.79
   6   2   3  729.89   35.91
   6   2   3  711.70   36.63
   6   2   3  711.06   36.36
   6   2   3  741.71   36.10
   6   2   4    6.72    1.54
   6   2   4    6.57    1.78
   6   2   4    7.52    1.73
   6   2   4    6.97    1.61
   6   2   5   17.91    2.39
   6   2   5   19.59    2.65
   6   2   5   15.54    2.32
   6   2   5   23.41    2.46
   6   2   6   49.97    4.24
   6   2   6   50.95    4.02
   6   2   6   55.64    4.28
   6   2   6   48.44    3.86
   6   2   7   68.50    4.84
   6   2   7   72.85    4.99
   6   2   7   60.72    4.53
   6   2   8   93.89    6.10
   6   2   9   45.41    3.57
   6   3  -5    8.87    1.19
   6   3  -5    9.05    1.16
   6   3  -4  180.28    9.95
   6   3  -4  190.12   10.00
   6   3  -3    2.02    0.98
   6   3  -3    1.62    1.00
   6   3  -3    2.03    0.91
   6   3  -3    1.42    0.81
   6   3  -2   69.94    5.10
   6   3  -2   71.17    5.17
   6   3  -2   75.53    5.00
   6   3  -2   70.91    5.00
   6   3  -1   22.29    2.64
   6   3  -1   20.26    2.34
   6   3   0  348.25   18.18
   6   3   1   73.81    5.50
   6   3   1   75.95    5.31
   6   3   2    2.20    1.17
   6   3   2    2.46    1.24
   6   3   3   66.83    5.13
   6   3   3   64.91    4.96
   6   3   3   67.26    4.82
   6   3   4  166.35    9.73
   6   3   4  167.49    9.92
   6   3   4  159.69    9.35
   6   3   4  173.96    9.54
   6   3   5   27.71    2.77
   6   3   5   23.42    2.76
   6   3   5   38.78    3.10
   6   3   5   32.60    2.81
   6   3   5   36.23    2.96
   6   3   6  121.53    7.57
   6   3   6  133.20    7.42
   6   3   6  128.25    7.53
   6   3   6  136.73    7.64
   6   3   7   22.09    2.21
   6   3   8  195.31   10.39
   6   3   9    0.55    0.52
   6   3  10    3.57    0.67
   6   4  -2    0.21    0.51
   6   4  -2    0.81    0.56
   6   4  -1   52.65    3.54
   6   4  -1   50.93    3.53
   6   4   0    6.40    1.14
   6   4   0    6.72    1.15
   6   4   1   74.18    4.95
   6   4   1   84.20    5.02
   6   4   3  184.96    9.89
   6   4   4   91.64    5.37
   6   4   4   86.39    5.24
   6   4   5    6.76    0.95
   6   4   5    5.72    0.97
   0   0   0    0.00    0.00


TITL hpd223b in P1
REM P1 (#1 in standard setting)
CELL 1.54184   5.495672   5.861350  18.648736  83.5423  88.9128  82.7531
ZERR    8.00   0.000116   0.000188   0.000579   0.0026   0.0021   0.0022
LATT -1
SFAC C H N O S
UNIT 8.00 8.00 8.00 8.00 8.00
TREF
HKLF 4
END
_computing_structure_solution     'SHELXT 2018/2 (Sheldrick, 2018)'
;
_shelx_hkl_checksum              26856
_olex2_exptl_crystal_mounting_method 'nylon loop'
_olex2_submission_special_instructions 'No special instructions were received'
_oxdiff_exptl_absorpt_empirical_details
;
Empirical correction (ABSPACK) includes:
- Absorption correction using spherical harmonics
- Frame scaling
;
_oxdiff_exptl_absorpt_empirical_full_max 1.450
_oxdiff_exptl_absorpt_empirical_full_min 0.713
loop_
_space_group_symop_operation_xyz
'x, y, z'
'-x, -y, -z'
loop_
_atom_site_label
_atom_site_type_symbol
_atom_site_fract_x
_atom_site_fract_y
_atom_site_fract_z
_atom_site_U_iso_or_equiv
_atom_site_adp_type
_atom_site_occupancy
_atom_site_site_symmetry_order
_atom_site_calc_flag
_atom_site_refinement_flags_posn
_atom_site_refinement_flags_adp
_atom_site_refinement_flags_occupancy
_atom_site_disorder_assembly
_atom_site_disorder_group
S1 S 0.50953(7) -0.20512(7) 0.39480(2) 0.02036(15) Uani 1 1 d . . . . .
S2 S 0.35135(8) 0.78749(8) 0.11590(2) 0.02390(15) Uani 1 1 d . . . . .
O2 O 0.6706(2) -0.2000(2) 0.45415(7) 0.0248(3) Uani 1 1 d . . . . .
O3 O 0.4626(2) 0.3345(2) 0.20646(7) 0.0266(3) Uani 1 1 d . . . . .
O1 O 0.5897(2) -0.3345(2) 0.33642(7) 0.0283(3) Uani 1 1 d . . . . .
N2 N 0.1980(3) -0.2838(3) 0.48916(9) 0.0214(3) Uani 1 1 d . . . . .
N3 N 0.1288(3) -0.2578(3) 0.54500(9) 0.0265(4) Uani 1 1 d . . . . .
N1 N 0.2593(3) -0.3291(3) 0.42648(9) 0.0246(3) Uani 1 1 d . . . . .
C1 C 0.3895(3) 0.0813(3) 0.36157(10) 0.0211(4) Uani 1 1 d . . . . .
H1A H 0.325066 0.163600 0.401528 0.025 Uiso 1 1 calc R U . . .
H1B H 0.520387 0.161004 0.339057 0.025 Uiso 1 1 calc R U . . .
C6 C -0.0575(3) 0.7881(3) 0.18407(10) 0.0217(4) Uani 1 1 d . . . . .
H6 H -0.183454 0.744478 0.214562 0.026 Uiso 1 1 calc R U . . .
C5 C 0.1642(3) 0.6532(3) 0.17817(10) 0.0212(4) Uani 1 1 d . . . . .
C2 C 0.1863(3) 0.0843(3) 0.30675(10) 0.0229(4) Uani 1 1 d . . . . .
H2A H 0.052525 0.010639 0.329976 0.027 Uiso 1 1 calc R U . . .
H2B H 0.248991 -0.004523 0.268040 0.027 Uiso 1 1 calc R U . . .
C7 C -0.0736(3) 0.9992(3) 0.13904(10) 0.0247(4) Uani 1 1 d . . . . .
H7 H -0.211150 1.109782 0.136968 0.030 Uiso 1 1 calc R U . . .
C3 C 0.0889(3) 0.3297(3) 0.27494(10) 0.0224(4) Uani 1 1 d . . . . .
H3A H -0.070184 0.327771 0.253523 0.027 Uiso 1 1 calc R U . . .
H3B H 0.066283 0.428319 0.313571 0.027 Uiso 1 1 calc R U . . .
C4 C 0.2570(3) 0.4317(3) 0.21841(10) 0.0219(4) Uani 1 1 d . . . . .
C8 C 0.1327(3) 1.0247(3) 0.09886(10) 0.0241(4) Uani 1 1 d . . . . .
C9 C 0.1815(4) 1.2244(4) 0.04522(11) 0.0311(4) Uani 1 1 d . . . . .
H9A H 0.340238 1.267449 0.054023 0.047 Uiso 1 1 calc R U . . .
H9B H 0.058400 1.353420 0.050015 0.047 Uiso 1 1 calc R U . . .
H9C H 0.177214 1.180216 -0.002731 0.047 Uiso 1 1 calc R U . . .
loop_
_atom_site_aniso_label
_atom_site_aniso_U_11
_atom_site_aniso_U_22
_atom_site_aniso_U_33
_atom_site_aniso_U_23
_atom_site_aniso_U_13
_atom_site_aniso_U_12
S1 0.0170(2) 0.0206(2) 0.0227(3) -0.00185(17) 0.00181(16) -0.00010(16)
S2 0.0188(2) 0.0259(3) 0.0269(3) -0.00313(18) 0.00338(17) -0.00318(17)
O2 0.0188(6) 0.0274(7) 0.0272(7) -0.0007(5) -0.0020(5) -0.0010(5)
O3 0.0202(6) 0.0289(7) 0.0293(7) -0.0048(6) 0.0026(5) 0.0030(5)
O1 0.0288(7) 0.0267(7) 0.0276(7) -0.0045(6) 0.0042(6) 0.0040(5)
N2 0.0168(7) 0.0195(7) 0.0279(9) -0.0002(6) -0.0005(6) -0.0038(6)
N3 0.0217(8) 0.0284(9) 0.0293(9) -0.0025(7) 0.0025(6) -0.0040(6)
N1 0.0248(8) 0.0259(8) 0.0242(8) -0.0041(6) 0.0028(6) -0.0065(6)
C1 0.0189(8) 0.0190(9) 0.0251(9) -0.0026(7) -0.0004(7) -0.0011(6)
C6 0.0173(8) 0.0252(9) 0.0230(9) -0.0050(7) -0.0003(7) -0.0017(7)
C5 0.0175(8) 0.0251(9) 0.0218(9) -0.0055(7) 0.0001(7) -0.0030(7)
C2 0.0198(8) 0.0225(9) 0.0262(10) -0.0025(7) -0.0019(7) -0.0018(7)
C7 0.0217(9) 0.0251(9) 0.0268(10) -0.0045(7) -0.0027(7) 0.0012(7)
C3 0.0176(8) 0.0242(9) 0.0244(9) -0.0021(7) -0.0003(7) 0.0002(7)
C4 0.0189(8) 0.0242(9) 0.0233(9) -0.0073(7) -0.0019(7) -0.0011(7)
C8 0.0252(9) 0.0234(9) 0.0242(9) -0.0043(7) -0.0030(7) -0.0028(7)
C9 0.0382(11) 0.0278(10) 0.0276(10) -0.0002(8) -0.0001(8) -0.0085(8)
loop_
_atom_type_symbol
_atom_type_description
_atom_type_scat_dispersion_real
_atom_type_scat_dispersion_imag
_atom_type_scat_source
C C 0.0181 0.0091 'International Tables Vol C Tables 4.2.6.8 and 6.1.1.4'
H H 0.0000 0.0000 'International Tables Vol C Tables 4.2.6.8 and 6.1.1.4'
N N 0.0311 0.0180 'International Tables Vol C Tables 4.2.6.8 and 6.1.1.4'
O O 0.0492 0.0322 'International Tables Vol C Tables 4.2.6.8 and 6.1.1.4'
S S 0.3331 0.5567 'International Tables Vol C Tables 4.2.6.8 and 6.1.1.4'
loop_
_exptl_crystal_face_index_h
_exptl_crystal_face_index_k
_exptl_crystal_face_index_l
_exptl_crystal_face_perp_dist
0 4 3 0.0545
3 2 4 0.0545
0 -4 -3 0.0489
-3 -2 -4 0.0624
-1 -1 11 0.0168
1 1 -11 0.0056
loop_
_geom_angle_atom_site_label_1
_geom_angle_atom_site_label_2
_geom_angle_atom_site_label_3
_geom_angle
_geom_angle_site_symmetry_1
_geom_angle_site_symmetry_3
_geom_angle_publ_flag
O2 S1 N1 108.61(8) . . ?
O2 S1 C1 109.55(8) . . ?
O1 S1 O2 120.11(8) . . ?
O1 S1 N1 102.74(8) . . ?
O1 S1 C1 110.28(9) . . ?
N1 S1 C1 104.18(8) . . ?
C8 S2 C5 91.91(9) . . ?
N3 N2 N1 173.68(17) . . ?
N2 N1 S1 112.92(12) . . ?
S1 C1 H1A 109.3 . . ?
S1 C1 H1B 109.3 . . ?
H1A C1 H1B 108.0 . . ?
C2 C1 S1 111.56(12) . . ?
C2 C1 H1A 109.3 . . ?
C2 C1 H1B 109.3 . . ?
C5 C6 H6 123.5 . . ?
C5 C6 C7 112.92(17) . . ?
C7 C6 H6 123.5 . . ?
C6 C5 S2 110.75(14) . . ?
C6 C5 C4 129.55(17) . . ?
C4 C5 S2 119.62(13) . . ?
C1 C2 H2A 109.2 . . ?
C1 C2 H2B 109.2 . . ?
C1 C2 C3 112.26(15) . . ?
H2A C2 H2B 107.9 . . ?
C3 C2 H2A 109.2 . . ?
C3 C2 H2B 109.2 . . ?
C6 C7 H7 123.4 . . ?
C8 C7 C6 113.12(17) . . ?
C8 C7 H7 123.4 . . ?
C2 C3 H3A 108.9 . . ?
C2 C3 H3B 108.9 . . ?
H3A C3 H3B 107.8 . . ?
C4 C3 C2 113.17(15) . . ?
C4 C3 H3A 108.9 . . ?
C4 C3 H3B 108.9 . . ?
O3 C4 C5 121.04(17) . . ?
O3 C4 C3 121.99(17) . . ?
C5 C4 C3 116.96(15) . . ?
C7 C8 S2 111.30(15) . . ?
C7 C8 C9 128.11(18) . . ?
C9 C8 S2 120.59(15) . . ?
C8 C9 H9A 109.5 . . ?
C8 C9 H9B 109.5 . . ?
C8 C9 H9C 109.5 . . ?
H9A C9 H9B 109.5 . . ?
H9A C9 H9C 109.5 . . ?
H9B C9 H9C 109.5 . . ?
loop_
_geom_bond_atom_site_label_1
_geom_bond_atom_site_label_2
_geom_bond_distance
_geom_bond_site_symmetry_2
_geom_bond_publ_flag
S1 O2 1.4355(14) . ?
S1 O1 1.4275(14) . ?
S1 N1 1.7008(16) . ?
S1 C1 1.7720(18) . ?
S2 C5 1.7262(18) . ?
S2 C8 1.7237(19) . ?
O3 C4 1.228(2) . ?
N2 N3 1.122(2) . ?
N2 N1 1.258(2) . ?
C1 H1A 0.9700 . ?
C1 H1B 0.9700 . ?
C1 C2 1.525(2) . ?
C6 H6 0.9300 . ?
C6 C5 1.376(2) . ?
C6 C7 1.409(3) . ?
C5 C4 1.462(3) . ?
C2 H2A 0.9700 . ?
C2 H2B 0.9700 . ?
C2 C3 1.527(2) . ?
C7 H7 0.9300 . ?
C7 C8 1.362(3) . ?
C3 H3A 0.9700 . ?
C3 H3B 0.9700 . ?
C3 C4 1.511(3) . ?
C8 C9 1.500(3) . ?
C9 H9A 0.9600 . ?
C9 H9B 0.9600 . ?
C9 H9C 0.9600 . ?
loop_
_geom_torsion_atom_site_label_1
_geom_torsion_atom_site_label_2
_geom_torsion_atom_site_label_3
_geom_torsion_atom_site_label_4
_geom_torsion
_geom_torsion_site_symmetry_1
_geom_torsion_site_symmetry_2
_geom_torsion_site_symmetry_3
_geom_torsion_site_symmetry_4
_geom_torsion_publ_flag
S1 C1 C2 C3 -177.34(12) . . . . ?
S2 C5 C4 O3 -3.1(2) . . . . ?
S2 C5 C4 C3 176.78(13) . . . . ?
O2 S1 N1 N2 34.05(15) . . . . ?
O2 S1 C1 C2 -170.77(12) . . . . ?
O1 S1 N1 N2 162.28(13) . . . . ?
O1 S1 C1 C2 54.90(15) . . . . ?
N1 S1 C1 C2 -54.73(14) . . . . ?
C1 S1 N1 N2 -82.65(15) . . . . ?
C1 C2 C3 C4 77.2(2) . . . . ?
C6 C5 C4 O3 -179.45(18) . . . . ?
C6 C5 C4 C3 0.5(3) . . . . ?
C6 C7 C8 S2 0.1(2) . . . . ?
C6 C7 C8 C9 179.75(18) . . . . ?
C5 S2 C8 C7 -0.37(15) . . . . ?
C5 S2 C8 C9 179.92(16) . . . . ?
C5 C6 C7 C8 0.4(2) . . . . ?
C2 C3 C4 O3 -8.0(3) . . . . ?
C2 C3 C4 C5 172.10(15) . . . . ?
C7 C6 C5 S2 -0.7(2) . . . . ?
C7 C6 C5 C4 175.91(18) . . . . ?
C8 S2 C5 C6 0.59(15) . . . . ?
C8 S2 C5 C4 -176.37(15) . . . . ?
loop_
_exptl_oxdiff_crystal_face_indexfrac_h
_exptl_oxdiff_crystal_face_indexfrac_k
_exptl_oxdiff_crystal_face_indexfrac_l
_exptl_oxdiff_crystal_face_x
_exptl_oxdiff_crystal_face_y
_exptl_oxdiff_crystal_face_z
-0.2557 3.7092 2.5819 0.0278 0.1083 0.9937
3.0886 1.9513 4.2487 0.2258 0.9371 0.2661
0.2152 -3.7162 -2.6235 -0.0306 -0.1197 -0.9923
-3.2565 -1.5254 -4.0765 -0.2317 -0.9625 -0.1410
-0.9411 -0.6086 11.2679 0.9723 -0.2337 -0.0089
0.9411 0.6086 -11.2679 -0.9723 0.2337 0.0089
