#------------------------------------------------------------------------------
#$Date: 2021-04-09 12:11:50 +0300 (Fri, 09 Apr 2021) $
#$Revision: 264016 $
#$URL: file:///home/coder/svn-repositories/cod/cif/1/56/16/1561619.cif $
#------------------------------------------------------------------------------
#
# This file is available in the Crystallography Open Database (COD),
# http://www.crystallography.net/
#
# All data on this site have been placed in the public domain by the
# contributors.
#
data_1561619
loop_
_publ_author_name
'Prakash, Jai'
'Mesbah, Adel'
'Beard, Jessica C.'
'Malliakas, Christos D.'
'Ibers, James A.'
_publ_section_title
;
 Syntheses, crystal structures, and resistivities of the two new ternary
 uranium selenides, Er3USe8 and Yb3USe8
;
_journal_name_full               'Journal of Solid State Chemistry'
_journal_page_first              90
_journal_page_last               94
_journal_paper_doi               10.1016/j.jssc.2015.10.003
_journal_volume                  233
_journal_year                    2016
_chemical_formula_sum            'Er3 Se8 U'
_chemical_formula_weight         1371.49
_chemical_name_common            Er3USe8
_space_group_crystal_system      orthorhombic
_space_group_IT_number           57
_space_group_name_Hall           '-P 2c 2b'
_space_group_name_H-M_alt        'P b c m'
_atom_sites_solution_hydrogens   .
_atom_sites_solution_primary     direct
_atom_sites_solution_secondary   difmap
_cell_angle_alpha                90
_cell_angle_beta                 90
_cell_angle_gamma                90
_cell_formula_units_Z            1
_cell_length_a                   7.0360(2)
_cell_length_b                   7.5483(2)
_cell_length_c                   5.46720(10)
_cell_measurement_reflns_used    3358
_cell_measurement_temperature    100(2)
_cell_measurement_theta_max      30.04
_cell_measurement_theta_min      3.96
_cell_volume                     290.362(12)
_computing_cell_refinement       'Bruker SAINT'
_computing_data_collection       'Bruker APEX2'
_computing_data_reduction        'Bruker SAINT'
_computing_molecular_graphics    'Bruker SHELXTL'
_computing_publication_material  'Bruker SHELXTL'
_computing_structure_refinement  'SHELXL-2014/6 (Sheldrick, 2014)'
_computing_structure_solution    'SHELXL-2012/1 (Sheldrick, 2012)'
_diffrn_ambient_temperature      100(2)
_diffrn_measured_fraction_theta_full 0.997
_diffrn_measured_fraction_theta_max 0.996
_diffrn_measurement_device_type  'Bruker APEX-II CCD'
_diffrn_measurement_method       '\f and \w scans'
_diffrn_radiation_type           MoK\a
_diffrn_radiation_wavelength     0.71073
_diffrn_reflns_av_R_equivalents  0.0178
_diffrn_reflns_av_unetI/netI     0.0094
_diffrn_reflns_Laue_measured_fraction_full 0.997
_diffrn_reflns_Laue_measured_fraction_max 0.996
_diffrn_reflns_limit_h_max       9
_diffrn_reflns_limit_h_min       -9
_diffrn_reflns_limit_k_max       10
_diffrn_reflns_limit_k_min       -10
_diffrn_reflns_limit_l_max       7
_diffrn_reflns_limit_l_min       -7
_diffrn_reflns_number            4313
_diffrn_reflns_point_group_measured_fraction_full 0.997
_diffrn_reflns_point_group_measured_fraction_max 0.996
_diffrn_reflns_theta_full        25.242
_diffrn_reflns_theta_max         30.039
_diffrn_reflns_theta_min         3.959
_diffrn_source                   'fine-focus sealed tube'
_exptl_absorpt_coefficient_mu    60.366
_exptl_absorpt_correction_T_max  0.32618
_exptl_absorpt_correction_T_min  0.15705
_exptl_absorpt_correction_type   numerical
_exptl_absorpt_process_details   'face indexed (SADABS; Sheldrick, 2012/1)'
_exptl_crystal_colour            black
_exptl_crystal_density_diffrn    7.843
_exptl_crystal_density_method    'not measured'
_exptl_crystal_description       plate
_exptl_crystal_F_000             568
_exptl_crystal_size_max          0.089
_exptl_crystal_size_mid          0.033
_exptl_crystal_size_min          0.031
_refine_diff_density_max         0.857
_refine_diff_density_min         -0.908
_refine_diff_density_rms         0.252
_refine_ls_extinction_coef       0.00294(17)
_refine_ls_extinction_expression Fc^*^=kFc[1+0.001xFc^2^\l^3^/sin(2\q)]^-1/4^
_refine_ls_extinction_method     SHELXL
_refine_ls_goodness_of_fit_ref   1.233
_refine_ls_hydrogen_treatment    undef
_refine_ls_matrix_type           full
_refine_ls_number_parameters     19
_refine_ls_number_reflns         472
_refine_ls_number_restraints     0
_refine_ls_restrained_S_all      1.233
_refine_ls_R_factor_all          0.0093
_refine_ls_R_factor_gt           0.0088
_refine_ls_shift/su_max          0.000
_refine_ls_shift/su_mean         0.000
_refine_ls_structure_factor_coef Fsqd
_refine_ls_weighting_details
'w=1/[\s^2^(Fo^2^)+(0.0110P)^2^] where P=(1.0000Fo^2^+0.0000Fc^2^)'
_refine_ls_weighting_scheme      calc
_refine_ls_wR_factor_gt          0.0208
_refine_ls_wR_factor_ref         0.0210
_reflns_Friedel_coverage         0.000
_reflns_Friedel_fraction_full    .
_reflns_Friedel_fraction_max     .
_reflns_number_gt                463
_reflns_number_total             472
_reflns_threshold_expression     'I > 2\s(I)'
_cod_data_source_file            JSSC-2016-233-90.cif
_cod_data_source_block           Er3USe8
_cod_depositor_comments
;
The following automatic conversions were performed:

data item '_exptl_crystal_density_meas' value 'not measured' was
changed to '?' -- the value is perceived as not measured.

Automatic conversion script
Id: cif_fix_values 8369 2020-08-20 11:38:08Z andrius 
;
_cod_database_code               1561619
_shelx_space_group_comment
;
The symmetry employed for this shelxl refinement is uniquely defined
by the following loop, which should always be used as a source of
symmetry information in preference to the above space-group names.
They are only intended as comments.
;
_shelx_estimated_absorpt_t_min   0.075
_shelx_estimated_absorpt_t_max   0.256
_shelxl_version_number           2014/6
_shelx_res_file
;
TITL Er3USe8 in Pbcm after absorption correction and tidy
CELL 0.71073 7.036 7.5483 5.4672 90 90 90
ZERR 1 0.0002 0.0002 0.0001 0 0 0
LATT 1
SYMM -X,-Y,0.5+Z
SYMM -X,0.5+Y,0.5-Z
SYMM +X,0.5-Y,-Z
SFAC Se Er U
UNIT 8 3 1
EADP U1 Er1
EXYZ U1 Er1

L.S. 4
PLAN  20
SIZE 0.031 0.033 0.089
TEMP -173.25
BOND
OMIT 1 0 0
ACTA
fmap 2

WGHT    0.011000    0.000000    0.000000    0.000000    0.000000    1.000000
EXTI    0.002938
FVAR       0.32880
U1    3    0.247362    0.055095    0.250000    10.12500    0.00574    0.00746 =
         0.00487    0.00000    0.00000    0.00013
ER1   2    0.247362    0.055095    0.250000    10.37500    0.00574    0.00746 =
         0.00487    0.00000    0.00000    0.00013
SE1   1    0.118302    0.406220    0.250000    10.50000    0.00513    0.00778 =
         0.00432    0.00000    0.00000    0.00072
SE2   1    0.568853    0.250000    0.000000    10.50000    0.00487    0.00635 =
         0.01259   -0.00078    0.00000    0.00000
HKLF 4

REM  Er3USe8 in Pbcm after absorption correction and tidy
REM R1 =  0.0088 for     463 Fo > 4sig(Fo)  and  0.0093 for all     472 data
REM     19 parameters refined using      0 restraints

END

WGHT      0.0110      0.1736

REM Highest difference peak  0.857,  deepest hole -0.908,  1-sigma level  0.252
Q1    1   0.8829  0.3042 -0.0971  11.00000  0.05    0.86
Q2    1   0.4121  0.0851  0.1370  11.00000  0.05    0.66
Q3    1   0.6522  0.1153 -0.1126  11.00000  0.05    0.58
Q4    1   0.2489 -0.0115  0.0694  11.00000  0.05    0.58
Q5    1   0.1521  0.2076  0.1367  11.00000  0.05    0.57
Q6    1   0.2489  0.1271  0.0750  11.00000  0.05    0.57
Q7    1   0.2043  0.4526  0.0965  11.00000  0.05    0.52
Q8    1   0.0811  0.0844  0.1361  11.00000  0.05    0.52
Q9    1   0.2242  0.3154  0.1179  11.00000  0.05    0.52
Q10   1   0.4835  0.3459  0.1320  11.00000  0.05    0.51
Q11   1   0.0790  0.4847  0.0835  11.00000  0.05    0.50
Q12   1  -0.0077  0.3008  0.3712  11.00000  0.05    0.48
Q13   1   0.1972  0.5722  0.1190  11.00000  0.05    0.46
Q14   1   0.1663 -0.0742  0.1364  11.00000  0.05    0.45
Q15   1   0.4770  0.1783  0.1160  11.00000  0.05    0.45
Q16   1   0.3531  0.1935  0.1217  11.00000  0.05    0.45
Q17   1   0.8159  0.2196 -0.1205  11.00000  0.05    0.45
Q18   1   0.4087  0.4051  0.0749  11.00000  0.05    0.45
Q19   1   0.3912  0.2633  0.1173  11.00000  0.05    0.44
Q20   1   0.2829  0.4096  0.1085  11.00000  0.05    0.41
;
_shelx_res_checksum              90953
_shelx_hkl_file
;
  -1   0   0 -4.3770 0.67809   2
   1   0   0 -3.8362 0.71452   2
   2   0   0 2737.98 51.6513   2
  -2   0   0 2886.55 51.5223   1
  -2   0   0 2888.06 51.7898   2
   3   0   0 1161.21 23.4777   1
  -3   0   0 1149.06 23.6316   2
   4   0   0 1070.29 22.8057   2
   4   0   0 1063.37 22.6283   1
  -4   0   0 1040.12 22.7423   2
  -4   0   0 1087.67 22.7087   1
   4   0   0 1012.29 24.9432   4
  -5   0   0 7.66011 2.42925   2
  -5   0   0 6.31503 2.31228   1
   5   0   0 6.89463 2.43597   1
   5   0   0 7.00424 2.41354   2
  -6   0   0 6078.91 113.002   1
   6   0   0 6288.77 113.084   1
   6   0   0 6030.86 113.130   2
  -6   0   0 5966.53 113.337   2
   7   0   0 683.458 18.5608   1
  -7   0   0 613.453 18.0754   2
   7   0   0 656.064 18.4413   2
  -7   0   0 619.542 18.1544   1
  -8   0   0 1787.66 40.4128   2
  -8   0   0 1821.92 40.4069   1
   8   0   0 1804.47 40.3860   2
  -9   0   0 1061.52 27.8772   1
   9   0   0 1013.67 27.4957   2
  -9   0   0 1047.65 27.6491   2
   0   1   0 -1.7313 0.56355   2
   0  -1   0 -2.9702 0.46846   2
   1  -1   0 782.649 15.3485   2
   1   1   0 785.620 15.1769   2
  -1   1   0 793.648 15.3202   2
  -2  -1   0 2353.78 43.5420   1
   2  -1   0 2387.69 43.7760   1
   2   1   0 2404.86 43.7241   2
  -2   1   0 2386.43 43.9207   2
   2   1   0 2388.90 43.5384   1
  -2  -1   0 2372.56 43.7846   2
   2  -1   0 2334.65 43.9130   2
  -3  -1   0 1869.95 35.0211   2
  -3   1   0 1835.47 35.1189   2
   3  -1   0 1793.00 34.8690   1
  -3   1   0 1799.38 34.8367   1
  -3  -1   0 1824.66 34.7230   1
   3   1   0 1795.19 34.6653   1
   3   1   0 1788.66 34.8309   2
   3  -1   0 1762.39 35.0388   2
  -4  -1   0 936.726 20.4238   1
   4  -1   0 912.023 20.7098   2
   4   1   0 921.628 22.6449   4
  -4   1   0 927.767 20.5821   1
   4   1   0 908.974 20.4767   2
   4  -1   0 955.133 20.7037   1
  -4  -1   0 935.105 20.6292   2
  -4   1   0 942.377 20.8204   2
   4   1   0 934.188 20.4040   1
  -5   1   0 94.6524 5.48478   1
   5   1   0 91.0545 5.37234   1
  -5  -1   0 100.520 5.57109   1
   5  -1   0 99.6881 5.71061   2
   5  -1   0 93.5856 5.49110   1
  -5   1   0 91.9533 5.55029   2
  -5  -1   0 95.0365 5.59102   2
   5   1   0 101.889 5.51503   2
  -6  -1   0 2.59354 2.49799   2
  -6   1   0 3.60602 2.52462   1
   6   1   0 2.69844 2.56285   1
  -6   1   0 -0.1838 2.32783   2
  -6  -1   0 3.62844 2.47446   1
   6  -1   0 2.85457 2.43904   1
   6  -1   0 3.12207 2.62735   2
   6   1   0 1.46404 2.42997   2
  -7  -1   0 830.095 21.5278   1
   7   1   0 788.868 21.3759   2
  -7   1   0 835.354 21.7198   1
   7  -1   0 835.465 21.7613   1
  -7   1   0 811.765 21.5671   2
   7  -1   0 787.898 21.4884   2
  -7  -1   0 822.204 21.7085   2
   7   1   0 844.492 21.7053   1
  -8   1   0 126.628 8.32731   1
  -8  -1   0 126.505 8.43861   1
   8   1   0 124.534 8.09136   2
   8  -1   0 119.562 8.02125   2
  -8   1   0 118.544 7.97689   2
  -8  -1   0 123.833 8.17680   2
  -9   1   0 778.757 22.4527   1
  -9  -1   0 759.412 22.5491   1
   9  -1   0 715.326 21.8266   2
  -9  -1   0 725.170 21.8917   2
  -9   1   0 747.631 21.9755   2
   9   1   0 732.032 22.0417   2
   0   2   0 1589.48 29.4194   2
  -1   2   0 2017.09 37.2035   2
  -1   2   0 2005.77 37.0157   1
  -1  -2   0 1986.88 36.9066   1
   1  -2   0 1992.66 37.1197   1
   1  -2   0 2077.19 37.3505   2
   1   2   0 2030.54 36.9431   1
  -2  -2   0 6220.75 107.506   1
   2   2   0 6166.67 107.482   1
   2   2   0 6093.20 108.003   2
   2  -2   0 5812.47 108.116   2
   2  -2   0 6140.38 107.817   1
  -2   2   0 5789.96 108.143   2
   3  -2   0 2.86852 1.84701   1
  -3  -2   0 3.62596 1.63944   1
   3   2   0 4.67974 1.72268   1
   3   2   0 5.82967 1.90026   2
  -3   2   0 2.48997 1.77117   1
   3  -2   0 5.76723 2.04103   2
  -3   2   0 1.53228 1.78438   2
  -3  -2   0 3.55202 1.79604   2
  -4   2   0 1860.57 37.2293   1
   4  -2   0 1845.63 37.4667   2
   4  -2   0 1870.77 37.3072   1
   4  -2   0 1900.17 37.3976   1
  -4  -2   0 1857.31 37.2341   2
   4   2   0 1866.71 37.2170   2
   4   2   0 1859.34 36.9295   1
  -4   2   0 1901.99 37.5747   2
   4   2   0 1839.72 40.8431   4
  -4  -2   0 1880.06 37.0806   1
   5  -2   0 364.590 11.2505   1
  -5   2   0 330.895 10.9484   1
   5   2   0 367.219 11.1235   2
  -5  -2   0 348.107 10.9402   2
  -5   2   0 348.184 11.2480   2
   5  -2   0 349.777 11.2138   2
  -5  -2   0 340.727 10.8141   1
   5   2   0 374.587 10.9840   1
   5  -2   0 345.578 11.0688   1
  -6   2   0 484.997 14.7722   2
   6  -2   0 468.284 14.4950   1
   6   2   0 464.996 14.2967   2
  -6  -2   0 477.249 14.3351   2
   6   2   0 496.313 14.3852   1
   6  -2   0 506.716 14.8840   2
  -6  -2   0 495.891 14.4720   1
  -6   2   0 502.239 14.8372   1
   6  -2   0 506.101 14.8171   1
   7  -2   0 427.962 14.4392   2
   7   2   0 429.768 14.3287   2
   7   2   0 429.363 14.2462   1
   7  -2   0 453.553 14.6536   1
  -7  -2   0 449.056 14.5145   1
  -7   2   0 422.564 14.4314   2
  -7  -2   0 419.184 14.2291   2
  -7   2   0 446.778 14.6148   1
   7  -2   0 465.158 14.7401   1
  -8  -2   0 2892.92 61.1904   2
  -8  -2   0 2971.50 61.0147   1
   8   2   0 2957.44 60.9558   2
   8  -2   0 2899.51 60.8860   2
  -8   2   0 3117.43 61.4553   1
  -8   2   0 2935.34 61.1350   2
  -9   2   0 3.56101 3.50821   2
   9   2   0 2.21126 3.49589   2
  -9  -2   0 5.64972 3.51206   2
  -9   2   0 3.04824 3.80580   1
   9  -2   0 9.41541 4.09008   2
   0   3   0 -5.1667 1.39581   2
   0   3   0 -4.7491 1.38601   1
   0  -3   0 -6.0682 1.27451   1
   0  -3   0 -5.5417 1.32149   2
  -1  -3   0 8997.40 160.330   1
  -1   3   0 9186.66 161.790   1
   1  -3   0 9225.62 160.529   1
   1  -3   0 8943.71 161.208   2
   1   3   0 8987.93 163.951   2
  -1   3   0 9053.22 161.134   2
   1   3   0 9172.84 160.313   1
  -2   3   0 82.6507 4.04245   2
   2   3   0 77.6033 3.82948   1
  -2   3   0 82.6164 3.99805   1
  -2  -3   0 82.0460 3.88366   1
   2  -3   0 76.0486 3.99596   2
  -3  -3   0 35.8468 3.40868   2
   3  -3   0 39.9816 3.58770   1
  -3   3   0 38.1082 3.49156   2
   3  -3   0 40.1214 3.65365   2
   3   3   0 39.3828 3.37420   2
   3   3   0 30.8857 3.10980   1
  -3   3   0 37.7261 3.48188   1
   4  -3   0 667.035 16.5677   2
  -4   3   0 682.615 16.4879   1
   4   3   0 658.088 16.0309   1
  -4  -3   0 652.235 16.0852   2
  -4  -3   0 628.893 15.7918   1
   4   3   0 662.995 16.1571   2
  -4   3   0 679.805 16.5804   2
   4  -3   0 686.775 16.5599   1
  -5  -3   0 2934.25 58.2508   1
  -5  -3   0 3051.31 58.7479   2
   5   3   0 2905.76 58.4077   2
   5  -3   0 2977.27 58.9072   2
   5  -3   0 3047.30 58.7607   1
  -5   3   0 3076.23 58.9015   1
  -5   3   0 3055.55 59.0975   2
   5   3   0 3030.92 58.3012   1
   6   3   0 805.501 20.5691   2
  -6  -3   0 813.429 20.5447   1
  -6   3   0 786.510 20.8550   2
   6  -3   0 820.187 20.9632   2
   6  -3   0 831.370 21.0599   1
   6   3   0 804.383 20.3356   1
  -6  -3   0 774.530 20.3618   2
  -6   3   0 772.107 20.5440   1
  -7   3   0 2900.54 58.2835   1
   7  -3   0 2864.65 58.3003   2
   7   3   0 2841.84 57.6551   1
  -7   3   0 2818.75 58.4319   2
  -7  -3   0 2914.49 57.9373   1
   7   3   0 2760.55 57.6306   2
  -7  -3   0 2770.57 57.6423   2
  -8   3   0 23.1263 4.84834   2
   8   3   0 20.7721 4.40997   2
  -8  -3   0 19.1940 4.50542   1
  -8   3   0 16.8074 4.27159   1
   8  -3   0 16.0761 4.41835   2
  -8  -3   0 23.1909 4.66986   2
   9   3   0 662.174 20.3638   2
  -9  -3   0 635.678 20.4262   2
   9  -3   0 664.394 20.4638   2
  -9   3   0 626.417 20.2867   2
   0   4   0 469.825 11.4843   1
   0  -4   0 509.187 11.6910   1
   0  -4   0 507.655 11.7900   2
   0   4   0 482.604 11.7063   2
  -1   4   0 1786.51 35.0039   2
  -1   4   0 1779.18 34.8214   1
   1   4   0 1805.91 34.9031   2
   1  -4   0 1814.40 34.8562   1
  -1  -4   0 1802.49 34.7095   1
   1   4   0 1836.70 34.8106   1
   1  -4   0 1771.37 35.0147   2
   2   4   0 25.9663 2.83281   2
  -2   4   0 26.2959 2.95740   1
   2   4   0 27.0436 3.03931   1
  -2   4   0 24.4147 2.84617   2
   2  -4   0 22.5288 2.88074   1
   2  -4   0 21.3271 2.80877   2
  -2  -4   0 21.9191 2.77880   1
   3  -4   0 12.0805 2.47188   1
   3  -4   0 15.5259 2.65908   2
  -3   4   0 15.5794 2.67000   2
   3   4   0 10.0745 2.28258   1
  -3  -4   0 11.5704 2.30231   1
   3   4   0 10.3789 2.29079   2
  -3   4   0 16.7634 2.77004   1
   4  -4   0 571.848 15.4985   2
  -4  -4   0 603.923 15.0779   1
   4   4   0 568.783 15.0586   2
   4  -4   0 597.911 15.5950   1
   4   4   0 600.624 15.0561   1
  -4   4   0 584.585 15.3428   1
  -4  -4   0 589.769 15.1451   2
  -4   4   0 545.368 15.1511   2
  -5   4   0 759.340 19.4409   1
  -5  -4   0 748.309 19.1809   2
   5  -4   0 810.829 19.7893   1
  -5  -4   0 768.549 19.2582   1
  -5   4   0 751.522 19.5470   2
   5  -4   0 759.233 19.5997   2
   5   4   0 773.513 19.1969   1
   5   4   0 750.862 19.1544   2
   6   4   0 533.255 15.6777   2
   6  -4   0 501.330 15.7917   2
   6  -4   0 535.382 16.1552   1
  -6   4   0 522.691 15.9804   2
  -6  -4   0 544.578 15.7370   1
  -6  -4   0 533.204 15.8578   2
  -6   4   0 538.380 16.0821   1
   6   4   0 541.612 15.7108   1
  -7  -4   0 118.795 7.80670   2
  -7   4   0 119.746 7.93427   2
  -7  -4   0 127.439 8.01196   1
   7   4   0 124.717 7.81616   2
  -7   4   0 128.894 8.07734   1
   7  -4   0 126.583 8.19704   2
  -8  -4   0 372.060 14.4768   1
  -8  -4   0 341.955 13.6920   2
  -8   4   0 395.135 14.6193   1
   8   4   0 361.396 14.0523   2
   8  -4   0 358.202 14.0895   2
  -8   4   0 383.113 14.4378   2
  -9  -4   0 5.35831 3.76083   2
  -9   4   0 7.04828 3.71845   2
   9  -4   0 3.25226 3.73967   2
   9   4   0 2.64659 3.61987   2
   0  -5   0 -0.7411 1.53053   2
   0  -5   0 -2.5642 1.33008   1
   0   5   0 -2.8675 1.39141   1
   0   5   0 -0.9227 1.52344   2
  -1   5   0 2732.36 51.9589   1
  -1   5   0 2693.26 52.1235   2
  -1  -5   0 2791.13 51.8720   1
   1   5   0 2741.42 52.0570   2
   1   5   0 2717.53 51.8190   1
   1  -5   0 2705.99 52.1992   2
   1  -5   0 2768.36 51.9874   1
   2  -5   0 723.281 17.3305   2
   2   5   0 722.884 16.8273   1
  -2   5   0 706.294 17.0345   2
   2   5   0 734.921 17.0093   2
  -2   5   0 726.012 17.0097   1
  -2  -5   0 755.741 17.0842   1
   2  -5   0 739.926 17.2078   1
  -3   5   0 5474.01 100.649   1
   3  -5   0 5407.49 100.740   1
  -3   5   0 5383.77 101.051   2
   3   5   0 5381.79 100.190   1
  -3  -5   0 5608.39 100.612   1
   3  -5   0 5577.53 101.482   2
   3   5   0 5483.22 100.913   2
   4   5   0 416.628 12.2247   2
   4  -5   0 410.909 12.7680   2
  -4  -5   0 404.274 12.2086   1
  -4   5   0 409.059 12.5169   1
   4   5   0 418.507 12.1959   1
  -4   5   0 396.289 12.4910   2
  -4  -5   0 401.492 12.3995   2
   4  -5   0 404.327 12.5881   1
  -5  -5   0 742.587 19.3048   1
   5  -5   0 739.402 19.7094   2
  -5   5   0 754.827 19.7829   1
  -5   5   0 762.474 19.7829   2
   5   5   0 764.146 19.1598   1
  -5  -5   0 711.299 19.1286   2
   5   5   0 725.420 19.1635   2
   5  -5   0 741.573 19.7369   1
   6  -5   0 116.124 7.63965   2
  -6   5   0 117.440 7.58533   1
   6   5   0 113.378 7.26277   1
  -6  -5   0 124.107 7.38333   1
  -6   5   0 131.165 7.71831   2
  -6  -5   0 107.822 7.10811   2
   6   5   0 104.896 7.09410   2
  -7   5   0 1881.69 42.6475   2
  -7  -5   0 1977.93 42.6451   1
  -7  -5   0 1801.99 41.9334   2
   7  -5   0 1952.54 42.8173   2
  -7   5   0 1958.31 42.8592   1
   7   5   0 1937.60 42.2230   2
   8   5   0 99.8166 7.91027   2
   8  -5   0 97.8173 8.09292   2
  -8   5   0 104.504 8.29634   2
  -8  -5   0 92.8403 7.72216   2
   0  -6   0 5281.96 95.6099   1
   0   6   0 5131.63 95.4572   1
   0   6   0 5136.19 95.9972   2
   0  -6   0 5270.36 96.1371   2
   1   6   0 37.2326 3.59546   1
   1  -6   0 29.9895 3.44252   1
  -1   6   0 32.0865 3.56382   2
  -1  -6   0 28.6723 3.31861   1
   1   6   0 33.2258 3.43667   2
  -1   6   0 29.3044 3.45771   1
   1  -6   0 23.9290 3.14748   2
  -2   6   0 77.6156 5.02838   2
   2   6   0 68.2225 4.84885   2
   2  -6   0 79.5656 5.22128   2
   2   6   0 72.0200 4.80093   1
  -2   6   0 76.4639 4.89496   1
  -2  -6   0 79.9719 5.00821   1
   2  -6   0 82.8138 5.14351   1
  -3  -6   0 399.422 12.0310   1
  -3   6   0 381.401 12.0388   1
  -3   6   0 392.481 12.2080   2
   3   6   0 404.632 11.9949   2
   3   6   0 401.060 11.9073   1
   3  -6   0 381.819 12.2106   1
   3  -6   0 400.876 12.4653   2
  -4   6   0 -0.4915 2.35387   1
   4  -6   0 0.23598 2.56120   1
   4  -6   0 0.78735 2.46915   2
   4   6   0 2.30001 2.28255   1
   4   6   0 0.44061 2.23316   2
  -4  -6   0 2.02019 2.17920   1
  -4   6   0 3.37900 2.47647   2
  -5   6   0 2.43603 2.58902   2
   5  -6   0 6.45860 3.15351   1
   5   6   0 3.28084 2.67519   1
  -5  -6   0 5.17230 2.75000   2
   5   6   0 10.6782 3.11741   2
   5  -6   0 1.19839 2.83918   2
  -5   6   0 6.32470 3.00472   1
  -5  -6   0 3.65024 2.85772   1
   6  -6   0 1471.92 34.8029   2
  -6   6   0 1575.34 35.2018   1
   6   6   0 1446.19 34.0673   2
  -6  -6   0 1556.85 34.6667   1
  -6   6   0 1498.15 34.7993   2
  -6  -6   0 1448.17 34.2087   2
  -7   6   0 447.613 15.8402   2
   7   6   0 451.614 15.4061   2
  -7   6   0 477.358 16.3086   1
   7  -6   0 423.563 15.5374   2
  -7  -6   0 418.939 15.2442   2
   8  -6   0 211.168 11.2835   2
  -8  -6   0 220.843 11.2764   2
  -8   6   0 200.886 11.1280   2
   8   6   0 205.783 10.8962   2
   0  -7   0 1.40093 2.12087   1
   0   7   0 -0.1283 1.98582   1
   0   7   0 0.73748 1.95855   2
   0  -7   0 3.21781 2.15806   2
  -1   7   0 838.560 20.3336   2
   1  -7   0 804.472 20.3881   2
   1  -7   0 816.599 20.2805   1
  -1  -7   0 869.690 20.3886   1
  -1   7   0 848.616 20.2052   1
   1   7   0 836.045 20.1057   1
  -2   7   0 1018.93 24.1034   2
   2  -7   0 1037.06 24.3836   1
  -2   7   0 1073.22 24.2383   1
  -2  -7   0 1042.38 24.1232   1
   2  -7   0 1049.17 24.6304   2
   2   7   0 1023.44 24.0388   2
   2   7   0 1045.29 24.0230   1
  -3   7   0 550.500 15.9350   2
   3   7   0 588.504 15.9593   1
   3  -7   0 545.790 16.1643   2
   3   7   0 546.682 15.7258   2
  -3   7   0 559.847 15.9378   1
   3  -7   0 572.199 16.2704   1
  -3  -7   0 561.961 15.8889   1
   4  -7   0 545.650 16.6401   2
  -4   7   0 564.946 16.5541   2
   4   7   0 550.027 16.2087   2
   4   7   0 561.938 16.2465   1
  -4   7   0 584.973 16.6856   1
  -5  -7   0 2305.38 49.4482   2
  -5  -7   0 2428.70 49.6649   1
   5  -7   0 2406.04 50.4878   2
   5   7   0 2355.70 49.6058   2
  -5   7   0 2370.07 50.2990   2
  -5   7   0 2386.52 50.2235   1
  -6   7   0 43.1116 5.94693   1
   6   7   0 45.2241 5.66754   2
  -6   7   0 54.0351 6.34654   2
  -6  -7   0 41.7090 5.29316   2
   6  -7   0 47.0870 5.97934   2
  -7  -7   0 84.9002 7.44876   2
  -7   7   0 104.346 8.09593   2
   7   7   0 98.1828 7.74187   2
   7  -7   0 92.3238 7.92509   2
   0  -8   0 457.845 14.0890   2
   0   8   0 428.554 13.5774   2
   0   8   0 477.593 14.0935   1
   0  -8   0 464.195 14.0960   1
   1  -8   0 330.148 11.6100   1
   1   8   0 318.244 11.1720   2
  -1   8   0 326.420 11.3845   2
  -1  -8   0 322.384 11.4155   1
   1  -8   0 325.529 11.5919   2
  -1   8   0 324.030 11.2419   1
   1   8   0 316.409 11.1531   1
   2   8   0 2730.84 53.2901   1
   2   8   0 2612.37 53.2337   2
  -2   8   0 2591.19 53.6038   2
   2  -8   0 2666.40 53.9073   1
  -2   8   0 2663.18 53.5228   1
  -2  -8   0 2644.62 53.4102   1
   2  -8   0 2614.87 53.9713   2
   3  -8   0 8.90885 3.29388   2
  -3  -8   0 5.54720 3.09622   1
   3   8   0 5.40867 2.94062   1
  -3   8   0 6.03128 3.15251   1
   3   8   0 8.06304 3.10437   2
  -3   8   0 8.85066 3.18195   2
   4  -8   0 1501.44 34.9078   2
  -4   8   0 1546.66 34.7695   1
  -4   8   0 1497.15 34.6105   2
   4   8   0 1505.12 34.3151   2
  -5   8   0 36.2223 5.52047   1
   5   8   0 33.9312 5.08572   2
  -5   8   0 34.7826 5.12505   2
   5  -8   0 32.9175 5.16493   2
  -5  -8   0 38.0507 5.23676   2
  -6   8   0 346.970 14.0363   2
  -6  -8   0 338.721 13.4291   2
   6  -8   0 360.853 14.1614   2
   6   8   0 343.976 13.4914   2
   0   9   0 2.03163 2.65302   2
   0   9   0 -1.9720 2.54053   1
  -1   9   0 225.493 9.85140   2
   1  -9   0 232.721 10.1443   2
   1   9   0 234.912 9.92108   1
  -1   9   0 230.031 9.99918   1
   1   9   0 223.344 9.77909   2
  -2   9   0 4.61179 2.99133   1
   2  -9   0 2.28014 2.93122   2
   2   9   0 2.90374 2.80288   2
  -2   9   0 4.73022 2.85402   2
  -3   9   0 681.059 19.6965   2
   3  -9   0 647.792 19.7015   2
  -3   9   0 714.707 20.3384   1
   3   9   0 674.976 19.2514   2
   4   9   0 178.888 9.35136   2
   4  -9   0 181.024 9.77865   2
  -4   9   0 168.200 9.37788   2
  -5  -9   0 15.0828 4.27325   2
  -5   9   0 23.4350 4.78281   2
   5   9   0 16.1267 4.34975   2
   5  -9   0 16.0656 4.51218   2
   0  10   0 1060.11 26.5758   2
   1  10   0 511.812 16.0661   2
  -1  10   0 486.318 16.0234   2
  -2  10   0 544.572 17.2317   2
   2 -10   0 526.386 17.4913   2
   2  10   0 541.790 17.0502   2
   3 -10   0 1.70925 3.34273   2
  -3  10   0 4.96240 3.22799   2
   3  10   0 6.11359 3.28776   2
   0   0  -1 2.29972 1.43027   3
  -1   0  -1 -4.3275 1.36353   3
   1   0  -1 -3.3524 0.90819   2
  -1   0  -1 -2.3425 1.11258   2
   1   0   1 -2.6485 1.09487   2
  -1   0  -1 -6.6098 1.01850   4
   1   0  -1 -5.4731 1.40774   3
  -1   0   1 -6.4028 0.88249   2
   2   0   1 2.50249 1.49971   1
   2   0  -1 -0.8072 1.35719   2
  -2   0   1 2.60126 1.43136   1
  -2   0  -1 5.59202 1.45338   3
   2   0  -1 -1.5896 1.38338   3
  -2   0   1 0.50181 1.36292   2
  -2   0  -1 0.79007 1.49972   2
   2   0   1 -0.1076 1.35707   2
  -3   0  -1 -0.9395 1.62941   2
   3   0   1 -1.4240 1.46489   2
  -3   0  -1 -1.2545 1.05456   3
  -3   0   1 2.92547 1.73748   1
  -3   0   1 0.04337 1.62039   2
  -3   0  -1 0.06773 1.70565   1
   3   0  -1 0.55618 1.64327   2
   3   0   1 -1.9215 1.49330   1
  -4   0   1 -3.7048 1.90182   2
  -4   0  -1 7.48286 2.69149   2
   4   0   1 -5.9743 1.85764   1
  -4   0   1 -6.9421 1.56336   1
   4   0  -1 -3.8037 1.82582   1
   4   0  -1 -7.0052 1.72892   2
  -4   0  -1 -4.0116 1.02771   3
   4   0  -1 -5.2374 1.74899   4
  -4   0  -1 -0.4454 2.14974   1
   4   0   1 -3.9666 1.94349   2
   5   0  -1 -0.0316 1.87689   1
   5   0   1 0.08401 2.02705   2
   5   0   1 -2.0341 1.76138   1
  -5   0  -1 2.76854 2.25790   2
   5   0  -1 0.06105 1.95218   2
  -5   0   1 1.21221 1.96412   1
  -5   0   1 3.18589 2.16670   2
   5   0  -1 1.44785 2.04097   4
  -5   0  -1 -1.7404 1.81223   1
   6   0  -1 4.89233 2.60137   2
  -6   0   1 3.83650 2.53431   2
  -6   0  -1 4.91420 2.76903   2
   6   0   1 6.41030 2.94641   2
  -6   0  -1 3.17077 2.54946   1
   6   0   1 6.10147 2.74311   1
  -6   0   1 2.32527 2.27828   1
  -7   0  -1 1.27349 2.84483   2
  -7   0  -1 0.97908 2.81983   1
   7   0   1 -0.3847 2.46296   2
   7   0  -1 -0.0561 2.62688   2
   7   0   1 1.35486 2.84434   1
  -7   0   1 -0.9499 2.37417   2
  -7   0   1 1.30994 2.64078   1
  -8   0  -1 3.76471 3.27938   2
   8   0  -1 8.71843 3.54151   2
  -8   0   1 -0.0467 3.06709   1
   8   0   1 4.64413 3.57108   1
  -8   0   1 -0.4062 2.85053   2
   8   0   1 5.33346 3.35381   2
  -9   0   1 1.47040 3.32645   2
  -9   0   1 -3.5440 2.77266   1
   9   0  -1 8.13731 3.78951   2
   9   0   1 -0.9552 3.29686   2
  -9   0  -1 5.96179 3.57480   2
   0  -1  -1 -1.1109 1.20183   4
   0  -1   1 -4.0386 1.02091   2
   0   1   1 -4.8052 0.89380   2
   0  -1  -1 -4.3623 1.80839   3
   0   1  -1 -7.6651 0.86367   4
   1   1  -1 3015.15 54.8813   2
  -1   1   1 3068.38 55.0672   2
   1  -1   1 3073.37 55.3728   2
   1   1  -1 3053.40 60.9841   4
   1  -1   1 3124.82 55.1326   1
  -1   1   1 3086.94 54.8372   1
  -1  -1  -1 3110.93 60.9568   4
  -1  -1  -1 3076.95 55.1348   2
  -1  -1   1 3161.41 54.6775   1
   1   1   1 3125.10 54.7433   1
   1  -1  -1 3000.93 54.7440   2
  -1   1  -1 3009.49 55.0000   2
  -1   1  -1 3067.57 59.5569   3
   1   1   1 3168.99 55.0236   2
  -1   1  -1 3066.00 61.1003   4
   1  -1  -1 3074.83 59.4494   3
  -2   1   1 769.250 15.7055   2
  -2   1   1 762.936 15.5700   1
   2   1  -1 768.428 17.2054   4
   2  -1   1 752.632 15.9177   2
   2   1  -1 739.998 15.4343   2
  -2  -1  -1 771.185 15.7636   2
   2   1   1 778.444 15.5130   1
  -2  -1   1 759.864 15.2979   1
  -2   1  -1 762.901 15.7433   2
  -2   1  -1 772.237 16.1406   3
   2  -1  -1 753.407 15.4137   2
   2   1   1 772.585 15.6498   2
   2  -1  -1 755.412 16.0309   3
  -3  -1  -1 7267.82 128.751   1
  -3   1   1 6951.30 128.724   1
   3   1  -1 6917.99 128.938   2
  -3   1   1 7061.79 129.377   2
   3  -1   1 7336.69 129.647   2
   3  -1   1 7373.66 129.119   1
   3   1  -1 7248.43 143.228   4
  -3  -1  -1 7267.54 129.331   2
  -3  -1   1 7450.56 129.175   2
   3   1   1 7209.28 128.646   1
  -3   1  -1 7266.39 129.477   2
  -3   1  -1 7300.07 128.833   1
  -3  -1   1 7361.08 128.554   1
   3  -1  -1 7280.42 136.292   3
   3   1   1 7142.28 129.216   2
   3  -1  -1 6916.77 129.023   2
  -4   1   1 66.4941 4.27805   1
  -4  -1  -1 61.5559 3.50765   3
  -4  -1  -1 63.2442 4.18918   1
   4   1  -1 64.5070 4.19843   2
   4  -1   1 65.4131 4.41011   2
   4   1  -1 71.4318 4.18687   1
  -4   1   1 63.0963 4.25783   2
   4   1  -1 56.6284 4.32401   4
  -4  -1  -1 68.6581 4.40740   2
   4  -1   1 62.5374 4.31963   1
   4   1   1 62.9576 4.12227   1
   4  -1  -1 61.3604 4.19867   2
   4   1   1 65.3830 4.24738   2
  -4   1  -1 76.8048 4.54321   2
  -4   1  -1 79.3227 4.53485   1
   4  -1  -1 64.3461 4.14395   1
  -4  -1   1 61.4797 4.11054   2
   4  -1  -1 68.4072 4.18228   1
  -4  -1   1 65.0281 4.06981   1
   5  -1   1 4346.50 81.8612   2
  -5  -1  -1 4257.19 80.8776   1
   5   1  -1 4077.23 80.7698   2
  -5  -1  -1 4285.39 83.4556   3
   5  -1   1 4343.96 81.3825   1
  -5   1   1 4299.20 81.0842   1
   5   1  -1 4390.46 89.9966   4
   5   1  -1 4407.31 80.7472   1
  -5   1   1 4314.56 81.4300   2
  -5  -1   1 4310.64 80.7310   1
   5   1   1 4316.19 81.0062   1
  -5   1  -1 4234.12 81.4786   2
   5  -1  -1 4514.24 81.1141   1
  -5  -1   1 4364.92 81.2997   2
   5  -1  -1 4564.70 81.1867   1
   5   1   1 4253.74 81.3575   2
   5  -1  -1 4252.75 81.1718   2
  -5   1  -1 4446.43 81.3274   1
   6  -1   1 548.556 16.0425   2
  -6  -1  -1 559.430 15.8357   2
  -6   1   1 556.144 15.7459   1
  -6   1   1 569.832 15.9196   2
   6  -1   1 579.573 16.1780   1
   6   1  -1 567.927 15.6908   2
  -6  -1  -1 592.375 16.0277   1
   6  -1  -1 569.649 15.6873   2
   6   1   1 550.281 15.7266   1
  -6  -1   1 559.181 15.6046   1
   6   1   1 550.779 15.8235   2
  -6   1  -1 559.823 15.8215   1
  -6   1  -1 542.709 15.8066   2
  -6  -1   1 549.146 15.6253   2
  -7   1   1 849.918 21.9532   1
  -7  -1  -1 821.707 21.9582   2
  -7  -1  -1 860.717 22.1430   1
   7   1  -1 842.671 21.7408   2
  -7   1   1 841.194 22.0518   2
   7  -1   1 862.633 22.4546   2
   7  -1   1 856.641 22.3585   1
  -7   1  -1 846.036 21.9688   2
   7   1   1 855.994 22.2531   1
  -7  -1   1 815.714 21.8150   2
  -7   1  -1 846.645 22.0063   1
   7  -1  -1 817.064 21.6911   2
  -7  -1   1 832.061 21.8019   1
   7   1   1 845.259 22.1266   2
   8  -1   1 14.3327 4.18779   2
  -8  -1  -1 -1.2112 2.86499   2
   8  -1   1 7.37186 3.62861   1
   8   1  -1 1.77821 3.30216   2
  -8   1   1 3.90123 3.26632   2
  -8   1   1 1.11661 3.16600   1
  -8  -1   1 -0.9209 2.85306   1
   8  -1  -1 8.77265 3.65299   2
   8   1   1 0.20953 3.01130   2
  -8  -1   1 -4.2368 2.51791   2
  -8   1  -1 -0.9978 3.10158   2
   8   1   1 1.16741 3.31442   1
   9   1  -1 843.048 23.8302   2
  -9   1   1 848.060 24.2264   2
  -9   1   1 907.436 24.8543   1
  -9  -1  -1 852.154 24.1981   2
   9  -1  -1 848.999 23.6414   2
  -9   1  -1 845.007 24.0651   2
   9   1   1 844.189 24.4534   2
  -9  -1   1 835.229 24.2090   2
  -9  -1   1 906.556 24.7524   1
   0   2  -1 312.124 7.07087   2
   0  -2   1 322.761 7.27021   2
   0  -2   1 315.884 7.16020   1
   0   2   1 312.573 7.09107   2
   0  -2  -1 300.173 7.71470   4
   0   2  -1 298.510 7.80742   4
   0   2   1 316.330 7.05936   1
   1  -2   1 551.807 12.0054   2
  -1   2   1 566.717 11.8001   2
  -1   2   1 561.731 11.7022   1
   1   2  -1 570.197 11.6986   2
   1  -2   1 574.871 12.0009   1
  -1  -2  -1 560.641 13.4331   4
  -1   2  -1 565.401 11.7602   2
   1   2   1 566.833 11.6721   1
  -1   2  -1 558.178 13.0980   4
   1  -2  -1 572.227 11.6219   2
  -1  -2   1 560.551 11.5931   1
   1  -2  -1 543.787 12.9871   4
  -1  -2   1 553.253 11.6702   2
   1   2   1 563.403 11.7207   2
  -2   2   1 2461.34 45.3994   1
   2  -2   1 2479.89 45.7338   1
  -2   2   1 2465.88 45.6286   2
   2   2  -1 2428.37 45.3632   2
   2   2  -1 2389.65 50.2566   4
  -2  -2  -1 2477.23 45.5299   2
   2  -2   1 2408.62 45.8505   2
  -2   2  -1 2422.13 50.4653   4
   2  -2  -1 2376.56 45.2534   2
  -2  -2   1 2480.39 45.1083   1
  -2   2  -1 2418.81 45.4698   2
   2   2   1 2472.88 45.1576   1
   2  -2  -1 2517.52 48.5384   3
   2   2   1 2500.48 45.4779   2
   3   2  -1 237.327 7.80867   4
   3   2  -1 221.492 6.98780   2
   3   2  -1 233.400 6.98406   1
  -3   2   1 223.085 7.18338   1
  -3  -2  -1 240.228 7.14611   1
   3  -2   1 226.910 7.47498   2
   3  -2   1 219.521 7.36482   1
  -3   2   1 232.904 7.33585   2
  -3  -2  -1 231.855 7.28139   2
   3  -2   1 224.136 7.41494   1
  -3   2  -1 233.536 7.39340   2
   3   2   1 231.519 7.03958   1
   3  -2  -1 238.287 7.15706   1
   3   2   1 231.942 7.20488   2
  -3  -2   1 224.810 6.88728   1
  -3  -2   1 228.110 7.08409   2
   3  -2  -1 238.270 6.42672   3
   3  -2  -1 223.006 7.09636   2
   4   2  -1 4077.20 85.8839   4
  -4  -2  -1 4234.27 77.4469   1
  -4  -2  -1 4161.92 77.9136   2
  -4   2   1 4085.51 77.5127   1
  -4   2   1 4118.98 77.9733   2
   4  -2   1 4114.33 78.2768   2
   4  -2   1 4149.33 77.9481   1
   4   2  -1 4249.23 77.6841   2
   4  -2   1 4148.79 77.9370   1
   4   2  -1 4283.61 77.2133   1
   4   2   1 4231.58 77.7457   2
   4   2   1 4318.81 77.5134   1
  -4  -2   1 4164.62 77.3289   1
  -4   2  -1 4190.05 77.6663   1
   4  -2  -1 4326.08 79.9018   3
  -4   2  -1 4110.49 78.0495   2
   4  -2  -1 4084.80 77.6605   2
   4  -2  -1 4316.21 77.4686   1
  -4  -2   1 4170.12 77.6752   2
  -5  -2  -1 510.106 14.0428   1
  -5   2   1 505.020 14.2644   2
   5  -2   1 512.324 14.5883   2
   5  -2   1 525.653 14.6038   1
   5  -2   1 521.768 14.6044   1
   5   2  -1 529.460 14.0951   2
  -5   2   1 535.238 14.4321   1
   5   2  -1 532.118 13.9238   1
  -5  -2  -1 501.059 14.0335   2
  -5  -2   1 502.710 13.8059   1
   5   2   1 514.021 14.1594   2
  -5   2  -1 520.155 14.2998   1
  -5  -2   1 527.086 14.2156   2
   5  -2  -1 518.324 14.1522   1
   5  -2  -1 498.915 14.0887   2
  -5   2  -1 495.642 14.1574   2
   6  -2   1 743.412 19.9111   2
  -6   2   1 776.489 19.8925   2
  -6  -2  -1 782.645 19.6116   1
  -6  -2  -1 732.928 19.4777   2
   6  -2   1 746.119 19.8744   1
  -6   2   1 733.508 19.4634   1
   6   2  -1 729.130 19.1392   2
   6  -2   1 743.551 19.8658   1
   6   2   1 780.647 19.6765   1
   6   2   1 775.434 19.6383   2
   6  -2  -1 734.793 19.3667   2
  -6   2  -1 770.113 19.7977   1
  -6   2  -1 735.942 19.6947   2
  -6  -2   1 768.390 19.3242   1
  -6  -2   1 769.004 19.6189   2
  -7   2   1 138.609 7.99204   2
   7  -2   1 146.032 8.32366   1
  -7   2   1 138.207 8.02400   1
  -7  -2  -1 130.332 7.92267   2
   7   2  -1 146.475 8.04346   2
   7  -2   1 147.984 8.34519   1
  -7  -2   1 138.530 7.93954   2
   7   2   1 140.824 8.13998   1
  -7  -2   1 134.398 7.97196   1
  -7   2  -1 138.691 8.14355   1
   7  -2  -1 154.000 8.32159   2
  -7   2  -1 134.656 8.27382   2
   7   2   1 150.482 8.17012   2
   8  -2   1 117.530 8.36981   1
   8   2  -1 99.7360 7.68370   2
  -8   2   1 116.803 7.98048   2
  -8  -2  -1 101.591 7.58345   2
   8  -2   1 102.784 7.89727   2
  -8   2   1 113.506 8.07984   1
   8  -2   1 113.820 8.28582   1
  -8   2  -1 113.686 8.01130   2
   8   2   1 99.2478 7.72911   2
   8  -2  -1 97.0813 7.56032   2
   8   2   1 105.687 8.09360   1
  -8  -2   1 105.212 7.88369   2
  -8  -2   1 98.7619 7.66914   1
  -9   2   1 89.6981 7.88840   1
  -9  -2  -1 91.1909 7.89303   2
   9  -2   1 112.735 8.48677   2
  -9   2   1 85.3991 8.14551   2
   9   2  -1 88.1689 7.85660   2
   9   2   1 91.2638 8.15628   2
  -9   2  -1 92.2024 7.95663   2
   9  -2  -1 82.0335 7.73952   2
  -9  -2   1 92.2786 7.97561   1
  -9  -2   1 85.4921 7.77724   2
   0  -3   1 2.60032 1.37108   1
   0  -3   1 2.03217 1.37951   2
   0   3   1 -0.7095 1.17281   1
   0   3  -1 3.71871 1.44432   4
   0   3  -1 -0.7778 1.20424   2
   0   3   1 -2.2478 1.15248   2
   0  -3  -1 0.51165 1.23405   2
   1  -3   1 1689.86 32.5461   2
   1  -3   1 1675.98 32.3302   1
  -1   3   1 1692.39 32.0542   1
   1   3  -1 1664.02 32.0672   2
  -1   3   1 1674.38 32.2301   2
   1   3  -1 1718.52 35.7311   4
  -1  -3   1 1703.04 32.0230   1
   1  -3  -1 1637.38 32.0360   2
   1   3   1 1712.69 32.0648   1
  -1   3  -1 1734.35 32.0688   1
   1   3   1 1723.04 32.2281   2
  -1   3  -1 1655.64 35.7326   4
  -1  -3   1 1673.70 32.2023   2
  -1   3  -1 1700.81 32.2037   2
   2  -3   1 54.1394 3.67785   2
   2   3  -1 56.7615 3.28615   1
   2   3  -1 58.1207 3.34688   2
   2   3  -1 50.4220 3.47906   4
  -2   3   1 51.5142 3.33072   2
  -2   3   1 50.7704 3.30977   1
   2  -3   1 55.6988 3.65628   1
  -2  -3  -1 61.9606 3.38879   1
   2  -3  -1 57.3024 3.45195   2
  -2   3  -1 52.0267 3.72144   4
   2  -3  -1 58.0277 3.30378   1
   2   3   1 50.1627 3.27962   2
  -2   3  -1 53.8540 3.28820   1
  -2  -3   1 56.5922 3.20746   1
  -2   3  -1 52.9297 3.34594   2
   2   3   1 53.6524 3.19719   1
   3   3  -1 805.061 18.0741   2
  -3   3   1 801.860 18.3409   2
  -3  -3  -1 862.822 18.1754   1
   3  -3   1 837.458 18.6764   2
   3  -3   1 824.406 18.5260   1
   3   3  -1 802.226 19.9083   4
   3   3  -1 792.783 17.8077   1
  -3  -3  -1 866.005 18.3669   2
  -3   3   1 787.391 18.0738   1
   3  -3  -1 831.500 18.6855   3
  -3   3  -1 787.824 18.1830   2
   3  -3  -1 834.108 18.0861   1
  -3   3  -1 815.301 18.2012   1
   3   3   1 806.677 17.9466   1
   3  -3  -1 817.935 18.1843   2
   3   3   1 804.961 18.0652   2
  -4  -3  -1 1.99906 1.82989   1
   4   3  -1 1.94890 1.96114   1
  -4   3   1 -0.5936 1.72114   1
   4  -3   1 2.12631 1.97540   1
   4   3  -1 0.43970 1.54280   4
   4  -3   1 2.88314 2.19901   2
   4   3  -1 2.76960 2.00315   2
  -4   3   1 1.47725 2.02523   2
  -4  -3  -1 2.10099 1.92702   2
   4  -3  -1 3.08132 1.98339   1
  -4   3  -1 5.03521 2.06723   1
   4  -3  -1 4.54379 1.56137   3
  -4  -3   1 1.86845 1.85426   1
   4   3   1 2.63902 1.84514   1
   4  -3  -1 0.49494 1.99690   2
   4   3   1 1.33941 1.74389   2
  -4   3  -1 0.19720 1.83804   2
  -4  -3   1 7.56170 2.14278   2
  -5  -3  -1 678.404 16.8713   1
  -5   3   1 629.846 16.7960   1
   5   3  -1 635.862 16.4594   1
  -5  -3  -1 641.915 16.7359   2
  -5   3   1 662.820 17.1357   2
   5  -3   1 627.090 17.1163   2
   5   3  -1 642.285 16.6166   2
   5  -3   1 602.925 16.8709   1
   5  -3  -1 620.093 16.5686   2
   5   3   1 629.919 16.4922   2
  -5   3  -1 649.639 16.9634   2
   5  -3  -1 628.575 16.6064   1
  -5   3  -1 648.239 16.7098   1
  -5  -3   1 647.658 16.6877   2
   5   3   1 647.938 16.6439   1
  -5  -3   1 638.960 16.4688   1
  -6   3   1 2.64580 2.78801   2
   6  -3   1 7.79506 3.11202   2
  -6  -3  -1 2.35315 2.73233   1
  -6   3   1 -0.1539 2.44505   1
  -6  -3  -1 2.13028 2.55677   2
   6  -3   1 15.2897 3.80498   1
   6   3  -1 0.61638 2.45642   2
   6   3   1 5.89599 2.67654   1
   6  -3  -1 0.09171 2.51225   2
   6   3   1 5.73452 2.78044   2
  -6  -3   1 -0.9767 2.21473   2
  -6  -3   1 1.74143 2.44099   1
  -6   3  -1 3.83054 2.69153   2
  -6   3  -1 5.90863 2.76798   1
   7  -3   1 651.876 19.4331   1
  -7  -3  -1 680.197 19.1560   2
   7  -3   1 651.648 19.3770   2
  -7   3   1 683.896 19.4127   1
   7   3  -1 649.067 18.6401   2
  -7   3   1 657.025 19.2635   2
   7   3   1 649.238 18.8199   2
   7   3   1 689.432 19.2087   1
  -7  -3   1 675.410 18.8803   1
   7  -3  -1 645.121 18.6648   2
  -7  -3   1 663.463 19.0142   2
  -7   3  -1 683.269 19.3280   2
  -8  -3  -1 14.1102 3.86184   2
  -8   3   1 14.7263 4.23653   1
   8  -3   1 18.1878 4.38851   2
   8  -3   1 12.0224 4.07676   1
   8   3  -1 13.9992 4.17835   2
  -8   3   1 17.1741 4.21987   2
   8  -3  -1 13.9634 4.09187   2
   8   3   1 20.1312 4.29104   2
  -8   3  -1 20.4416 4.66596   2
  -8  -3   1 17.9410 4.18930   2
  -8  -3   1 18.0772 4.29193   1
   8   3   1 17.1321 4.39234   1
   9  -3   1 355.039 14.7664   2
   9   3  -1 341.671 13.9814   2
  -9   3   1 372.441 14.8116   1
  -9  -3  -1 341.024 14.0332   2
  -9   3   1 339.327 14.3036   2
  -9  -3   1 304.760 13.7685   2
   9  -3  -1 369.008 14.0965   2
   9   3   1 362.749 14.4779   2
  -9  -3   1 324.606 14.0279   1
  -9   3  -1 335.660 14.1932   2
   0  -4  -1 2004.62 38.1791   1
   0   4   1 2004.99 38.2820   1
   0  -4  -1 1977.06 38.3956   2
   0  -4   1 2020.83 38.6655   2
   0   4  -1 2049.84 38.2034   1
   0   4   1 2022.20 38.5061   2
   0   4  -1 2053.17 38.4730   2
   0  -4   1 1945.70 38.3286   1
   1   4  -1 204.253 7.08361   4
  -1   4   1 211.484 6.48515   1
  -1  -4  -1 194.618 6.28394   1
  -1   4   1 206.244 6.52860   2
   1   4  -1 179.676 6.20137   2
   1   4  -1 195.196 6.26497   1
   1  -4   1 188.830 6.52646   1
   1  -4   1 196.060 6.65897   2
  -1   4  -1 196.216 7.14694   4
  -1   4  -1 209.325 6.42736   1
   1  -4  -1 204.008 6.38549   2
  -1  -4   1 196.899 6.39905   1
  -1   4  -1 209.624 6.54297   2
  -1  -4   1 198.175 6.47363   2
   1   4   1 197.446 6.41799   2
   1   4   1 197.834 6.36520   1
   1  -4  -1 199.659 6.27877   1
   2   4  -1 4115.65 73.4587   1
   2  -4   1 4042.47 74.4305   2
  -2  -4  -1 4173.23 73.6261   1
  -2   4   1 3968.65 74.0109   2
  -2   4   1 3952.12 73.6817   1
   2   4  -1 3914.16 81.7863   4
   2   4  -1 4039.70 73.8044   2
   2  -4   1 3940.04 73.9424   1
   2  -4  -1 4013.34 73.3645   1
  -2   4  -1 4009.47 82.2027   4
   2  -4  -1 3958.69 73.8126   2
  -2   4  -1 3906.20 73.8372   2
   2   4   1 4057.85 73.8180   2
  -2  -4   1 3955.75 73.4115   1
  -2   4  -1 3931.31 73.5024   1
   2   4   1 4102.92 73.5787   1
  -3  -4  -1 74.5960 4.55566   1
   3   4  -1 76.2607 4.47960   2
   3   4  -1 78.0701 5.00193   4
   3  -4   1 65.0139 4.70585   1
  -3   4   1 79.0392 4.73423   2
  -3  -4  -1 67.8468 4.50685   2
   3  -4   1 72.8626 4.94342   2
   3   4  -1 81.7661 4.52239   1
  -3   4   1 75.0602 4.63606   1
   3   4   1 78.9914 4.49104   1
   3   4   1 73.2211 4.53186   2
  -3   4  -1 76.3408 4.64262   2
   3  -4  -1 75.2264 4.71697   2
  -3  -4   1 71.6012 4.41750   1
   3  -4  -1 73.6127 4.44407   1
  -3   4  -1 74.5091 4.59231   1
   4  -4   1 5135.32 95.4020   2
  -4  -4  -1 5140.59 94.4596   1
  -4   4   1 4977.05 94.4984   1
   4   4  -1 5005.10 94.4534   2
   4  -4   1 5135.75 94.9849   1
  -4   4   1 5176.47 95.2533   2
  -4  -4  -1 4998.70 94.7249   2
   4   4  -1 5068.49 94.0360   1
  -4   4  -1 5159.59 94.6234   1
   4  -4  -1 5002.77 94.7624   2
  -4   4  -1 5042.19 94.9665   2
   4  -4  -1 5275.40 94.5602   1
  -4  -4   1 5117.10 94.2082   1
   4  -4  -1 5164.66 99.3621   3
   4   4   1 5188.25 94.3439   1
   4   4   1 5139.31 94.6752   2
   5  -4   1 309.201 11.1064   1
  -5  -4  -1 320.221 10.8794   2
   5   4  -1 307.606 10.4836   2
   5  -4   1 304.132 10.9300   2
  -5   4   1 308.034 10.9357   2
  -5  -4  -1 314.666 10.5975   1
  -5   4  -1 306.079 10.8611   2
  -5   4  -1 303.226 10.8206   1
   5   4   1 325.225 10.7562   1
  -5  -4   1 312.882 10.6283   1
   5   4   1 290.953 10.4187   2
   5  -4  -1 296.764 10.6855   2
  -5  -4   1 306.312 10.6059   2
   6  -4   1 1789.23 39.3994   2
  -6  -4  -1 1773.71 38.7381   2
  -6   4   1 1819.36 39.4230   2
  -6   4   1 1771.41 38.8541   1
   6   4  -1 1734.91 38.4382   2
   6  -4   1 1784.13 39.2653   1
   6   4   1 1856.19 38.8078   1
  -6  -4   1 1780.07 38.6233   2
   6   4   1 1799.31 38.8304   2
   6  -4  -1 1770.94 38.8103   2
  -6   4  -1 1852.89 39.1790   1
  -6  -4   1 1818.13 38.6582   1
  -6   4  -1 1827.06 39.1921   2
   7  -4   1 118.405 8.02894   2
  -7   4   1 119.040 8.01728   1
   7  -4   1 118.101 8.11746   1
  -7  -4  -1 134.460 8.06829   2
   7   4  -1 128.358 7.84863   2
  -7   4   1 119.226 7.93901   2
   7   4   1 120.391 7.81316   1
   7   4   1 115.376 7.74526   2
  -7  -4   1 137.471 8.19705   2
   7  -4  -1 130.393 8.11332   2
  -7  -4   1 108.617 7.58054   1
  -7   4  -1 126.198 8.08248   2
   8   4  -1 693.474 20.1467   2
   8  -4   1 663.551 20.8649   1
  -8  -4  -1 660.426 20.2620   2
   8  -4   1 670.342 20.7114   2
  -8   4   1 709.057 20.8778   1
  -8   4   1 686.037 20.7787   2
  -8  -4   1 683.019 20.4085   1
  -8   4  -1 675.305 20.5695   2
   8  -4  -1 683.078 20.3085   2
   8   4   1 693.206 20.6754   1
  -8  -4   1 650.004 20.1355   2
   8   4   1 683.036 20.5149   2
  -9   4   1 14.8598 4.70287   2
  -9   4   1 26.3390 5.34617   1
   9  -4   1 12.5725 4.32921   2
  -9  -4  -1 6.59195 4.04272   2
   9   4  -1 15.1940 4.50796   2
   9   4   1 16.8379 4.69752   2
  -9  -4   1 24.8395 5.12077   2
  -9  -4   1 20.0957 4.88228   1
  -9   4  -1 17.2131 4.86806   2
   9  -4  -1 20.9993 4.91209   2
   0   5  -1 0.09212 1.38329   4
   0  -5  -1 0.27685 1.55032   2
   0  -5   1 2.41924 1.63069   2
   0  -5   1 0.84120 1.52125   1
   0   5   1 2.56426 1.59340   1
   0   5  -1 0.64669 1.52460   1
   0  -5  -1 2.30282 1.62490   1
   0   5  -1 1.16184 1.51573   2
   0   5   1 3.55995 1.78083   2
   1   5  -1 59.6303 4.41200   4
  -1   5   1 51.2450 3.73041   1
   1   5  -1 62.0833 3.92956   1
  -1   5   1 59.2288 4.03442   2
   1   5  -1 60.5983 3.97539   2
   1  -5   1 57.4220 4.04430   1
  -1  -5  -1 57.7423 3.93511   1
   1  -5   1 64.2384 4.27816   2
  -1   5  -1 63.2635 4.57375   4
   1  -5  -1 64.4193 4.01191   1
  -1  -5   1 62.4681 4.05689   2
  -1   5  -1 55.7419 3.97691   2
   1  -5  -1 65.2220 4.08528   2
  -1   5  -1 56.8732 3.90772   1
   1   5   1 53.1735 3.86522   1
  -1  -5   1 60.5114 3.97417   1
   1   5   1 59.5145 3.96849   2
  -2   5   1 594.427 15.0141   2
  -2  -5  -1 607.671 14.8318   1
   2   5  -1 605.706 14.7450   2
   2   5  -1 596.595 16.3609   4
   2   5  -1 626.628 14.7598   1
   2  -5   1 600.858 15.1552   1
  -2   5   1 586.250 14.8305   1
   2   5   1 609.955 14.8535   2
  -2   5  -1 608.388 14.8865   2
  -2  -5   1 608.930 14.8017   1
  -2   5  -1 627.227 14.8378   1
   2  -5  -1 607.268 14.7449   1
   2  -5  -1 583.388 14.7709   2
   2   5   1 608.058 14.8192   1
   3   5  -1 757.708 18.0440   2
  -3  -5  -1 771.743 18.0832   1
  -3   5   1 770.755 18.4207   2
  -3   5   1 739.631 18.1787   1
   3  -5   1 743.469 18.6547   2
   3  -5   1 764.823 18.6481   1
   3   5  -1 744.831 17.8383   1
   3  -5  -1 786.267 18.3556   2
  -3   5  -1 754.018 18.2565   2
   3   5   1 722.342 18.0247   2
  -3  -5   1 724.422 17.8886   1
  -3   5  -1 766.236 18.1597   1
   3  -5  -1 778.448 18.1161   1
   3   5   1 743.223 17.9561   1
  -4   5   1 17.1582 3.26234   1
  -4  -5  -1 17.8231 3.18202   2
   4   5  -1 23.9947 3.49824   2
   4  -5   1 13.7085 3.16985   2
   4  -5   1 15.3933 3.37706   1
  -4   5   1 19.3330 3.42535   2
   4   5  -1 16.9795 3.14658   1
  -4  -5  -1 17.3212 3.08077   1
   4   5   1 19.2431 3.13895   1
  -4   5  -1 18.4046 3.29525   1
   4  -5  -1 17.6873 3.31833   2
   4   5   1 12.4634 2.87695   2
  -4   5  -1 23.9247 3.62564   2
  -4  -5   1 20.5029 3.15775   1
   5   5  -1 341.510 11.6558   2
  -5   5   1 344.115 12.0312   1
  -5  -5  -1 332.624 11.7130   2
   5  -5   1 341.644 12.2958   1
  -5   5   1 343.932 12.0493   2
   5  -5   1 331.503 12.1747   2
  -5   5  -1 357.161 12.1659   1
  -5  -5   1 346.130 11.7353   2
   5   5   1 350.441 11.7536   2
   5   5   1 336.526 11.6135   1
   5  -5  -1 353.754 11.9804   2
  -5   5  -1 372.026 12.3441   2
  -6  -5  -1 325.149 12.1621   2
   6  -5   1 344.023 12.7847   2
   6   5  -1 317.713 11.8016   2
   6  -5   1 363.514 13.1385   1
  -6   5   1 349.199 12.7176   1
  -6   5   1 326.388 12.4295   2
  -6  -5   1 331.066 12.1259   2
   6   5   1 334.593 12.2415   2
  -6  -5   1 337.633 12.2998   1
  -6   5  -1 334.262 12.5956   2
   6   5   1 336.480 12.2893   1
   6  -5  -1 333.766 12.3872   2
   7  -5   1 70.1848 7.23337   1
  -7   5   1 68.4525 6.87392   1
   7   5  -1 67.9532 6.39988   2
  -7  -5  -1 63.7003 6.38477   2
  -7   5   1 59.1400 6.44928   2
   7  -5   1 64.7603 6.92164   2
  -7  -5   1 59.5193 6.38000   2
   7   5   1 68.9709 7.12051   1
  -7  -5   1 58.4194 6.36038   1
   7  -5  -1 72.3908 6.85623   2
  -7   5  -1 72.4534 6.90251   2
   7   5   1 57.1136 6.30513   2
  -8   5   1 16.8739 4.52223   2
  -8   5   1 18.1347 4.77417   1
   8  -5   1 18.8876 4.73193   2
  -8  -5  -1 14.6203 4.16972   2
   8   5  -1 11.7943 4.11674   2
  -8  -5   1 15.4687 4.26360   2
  -8  -5   1 17.0520 4.62514   1
   8  -5  -1 19.8835 4.69949   2
   8   5   1 16.5762 4.50986   2
  -8   5  -1 12.9793 4.14615   2
   0   6  -1 3252.52 60.0171   1
   0  -6   1 3157.06 60.5062   2
   0   6   1 3154.33 60.2051   2
   0   6   1 3112.47 59.8622   1
   0  -6  -1 3145.87 59.8462   1
   0   6  -1 3173.62 60.1440   2
   0  -6   1 3094.71 60.0739   1
  -1   6   1 62.6961 4.46253   2
   1   6  -1 55.6058 4.24419   2
   1   6  -1 54.8085 4.15657   1
  -1   6   1 57.5013 4.30965   1
  -1  -6  -1 55.0198 4.23150   1
   1  -6   1 46.7648 4.21052   2
   1  -6   1 58.5900 4.42488   1
   1  -6  -1 55.8274 4.26148   1
  -1   6  -1 54.5448 4.09449   1
  -1  -6   1 53.3872 4.23421   1
  -1   6  -1 55.4488 4.20869   2
   1  -6  -1 52.7038 4.31906   2
  -1  -6   1 51.9068 4.28903   2
   1   6   1 55.0686 4.19555   2
   1   6   1 52.4553 4.13649   1
  -2  -6  -1 2011.34 40.1133   1
  -2   6   1 2020.22 40.3123   1
  -2   6   1 2000.39 40.3837   2
   2  -6   1 1947.04 40.2383   1
   2   6  -1 2041.46 39.9898   1
   2   6  -1 1994.56 40.1011   2
   2  -6   1 1967.79 40.7143   2
   2  -6  -1 1931.55 40.1717   2
   2   6   1 1986.67 40.2395   2
   2  -6  -1 1983.68 40.2223   1
  -2   6  -1 1963.70 40.0193   1
  -2  -6   1 1994.49 40.0913   1
   2   6   1 2023.38 40.1677   1
  -2   6  -1 1999.94 40.2741   2
   3   6  -1 52.6328 4.65497   1
  -3   6   1 54.2895 4.77636   1
  -3   6   1 55.3222 4.90618   2
   3   6  -1 52.7780 4.69680   2
   3  -6   1 49.4401 4.94130   2
   3  -6   1 55.0313 4.90866   1
  -3   6  -1 52.1056 4.71114   1
  -3  -6   1 64.9814 4.89953   1
   3   6   1 49.2005 4.49603   1
   3   6   1 55.5627 4.58764   2
   3  -6  -1 53.4763 4.82519   2
  -3   6  -1 43.3591 4.48878   2
   4  -6   1 1116.31 26.4569   2
  -4   6   1 1096.98 25.9463   1
  -4   6   1 1095.79 26.1084   2
   4   6  -1 1054.17 25.3251   2
  -4  -6  -1 1103.29 25.7268   2
   4  -6  -1 1125.88 26.0338   2
  -4   6  -1 1154.42 26.1907   1
  -4  -6   1 1086.79 25.5933   1
  -4   6  -1 1111.89 26.0438   2
   4   6   1 1128.32 25.6478   1
   4   6   1 1105.64 25.7004   2
  -5  -6  -1 6.28443 3.02997   2
   5  -6   1 16.5276 3.83880   1
   5  -6   1 15.6777 3.82583   2
  -5   6   1 9.57735 3.26182   2
  -5   6   1 10.2410 3.49530   1
  -5  -6   1 8.30325 3.13380   2
  -5   6  -1 7.03910 3.10731   2
   5   6   1 9.51644 3.23787   2
   5  -6  -1 14.5541 3.77102   2
   5   6   1 11.4930 3.16611   1
  -5  -6   1 11.4385 3.54411   1
   6  -6   1 1455.11 33.4105   1
  -6  -6  -1 1384.71 32.2995   2
   6   6  -1 1364.04 31.8717   2
  -6   6   1 1370.40 32.7936   2
  -6   6   1 1405.00 32.8180   1
   6  -6   1 1314.91 32.6674   2
  -6  -6   1 1390.80 32.2543   2
   6  -6  -1 1382.26 32.4680   2
   6   6   1 1344.09 32.1254   2
  -6   6  -1 1360.27 32.5949   2
  -6  -6   1 1412.83 32.2394   1
   6   6   1 1391.26 32.4132   1
  -7   6   1 2.76924 3.38185   2
  -7  -6  -1 -0.8567 3.04291   2
  -7   6   1 6.18328 3.88830   1
   7  -6   1 0.59288 3.12652   2
   7   6  -1 4.20721 3.38241   2
  -7  -6   1 1.48342 3.25095   1
   7   6   1 3.22641 3.23451   2
  -7   6  -1 7.87578 3.55187   2
  -7  -6   1 2.14285 3.01889   2
   7   6   1 -0.5830 3.06337   1
   7  -6  -1 -1.2124 3.19121   2
  -8   6   1 1157.88 30.4986   1
   8  -6   1 1129.18 30.3127   2
  -8   6   1 1153.30 30.2335   2
   8   6  -1 1114.32 29.1314   2
  -8  -6  -1 1130.24 29.3615   2
  -8  -6   1 1117.61 29.6033   2
  -8  -6   1 1176.94 30.2507   1
   8   6   1 1151.18 29.9325   2
   8  -6  -1 1148.42 29.6172   2
  -8   6  -1 1162.97 30.1680   2
   0   7  -1 0.94525 2.06416   2
   0   7   1 2.41670 2.24119   2
   0   7   1 2.03618 2.02094   1
   0   7  -1 2.10438 2.19419   1
   0  -7   1 2.33999 2.22873   2
   0  -7   1 2.85712 2.19547   1
   1   7  -1 798.059 19.0853   1
   1   7  -1 779.537 19.2017   2
  -1   7   1 798.579 19.5764   2
   1  -7   1 798.857 19.6642   1
   1  -7   1 780.566 19.6355   2
  -1   7   1 758.840 19.1413   1
  -1   7  -1 780.040 19.2580   2
  -1   7  -1 807.667 19.2471   1
   1   7   1 755.179 19.1379   1
   1  -7  -1 773.748 19.3509   2
   1   7   1 785.837 19.3465   2
  -1  -7   1 757.616 19.2152   1
   2  -7   1 98.0668 6.24461   2
   2  -7   1 93.0639 6.09187   1
   2   7  -1 91.8986 5.80219   2
  -2   7   1 97.5496 6.09331   2
  -2   7   1 102.195 6.10814   1
   2   7   1 93.2415 5.86786   1
  -2   7  -1 97.2129 6.09014   2
   2   7   1 99.1998 5.93155   2
  -2   7  -1 98.4235 6.04365   1
   2  -7  -1 104.580 6.19963   2
  -2  -7   1 98.9187 5.92878   1
  -3   7   1 1780.03 38.2767   2
   3  -7   1 1817.10 38.4840   1
   3  -7   1 1810.78 38.8403   2
  -3   7   1 1802.96 38.3817   1
   3   7  -1 1762.05 37.7193   2
   3   7   1 1811.52 38.0298   1
   3  -7  -1 1806.79 38.3546   2
  -3   7  -1 1802.27 38.2478   2
  -3  -7   1 1783.82 37.9338   1
   3   7   1 1765.85 38.0320   2
   4  -7   1 13.5622 3.65581   1
  -4   7   1 12.4870 3.47345   1
   4  -7   1 6.41864 3.06379   2
  -4  -7  -1 12.1613 3.37558   2
  -4   7   1 12.3767 3.45497   2
   4   7  -1 9.21209 3.11352   2
   4  -7  -1 11.7807 3.42284   2
  -4  -7   1 11.4169 3.33552   1
   4   7   1 11.1465 3.28822   1
   4   7   1 11.1334 3.24078   2
  -4   7  -1 14.0891 3.61574   2
   5  -7   1 1235.94 30.3159   2
  -5   7   1 1278.74 30.1760   1
   5   7  -1 1218.89 29.3097   2
  -5   7   1 1258.41 30.0705   2
  -5  -7  -1 1178.56 29.1406   2
   5  -7   1 1303.27 30.5471   1
   5   7   1 1248.80 29.6194   2
   5   7   1 1302.12 29.9365   1
  -5  -7   1 1243.28 29.5973   1
  -5  -7   1 1214.54 29.7459   2
  -5   7  -1 1218.68 29.7007   2
   5  -7  -1 1231.99 29.7773   2
   6   7  -1 130.053 7.86565   2
   6  -7   1 122.084 8.51056   2
  -6  -7  -1 121.173 7.98681   2
  -6   7   1 134.673 8.66815   1
   6  -7   1 126.944 8.63995   1
  -6   7   1 116.729 8.26117   2
   6   7   1 115.949 7.92224   2
  -6  -7   1 122.371 8.13963   2
  -6   7  -1 112.996 8.01918   2
   6   7   1 137.202 8.32372   1
   6  -7  -1 107.492 7.95229   2
  -6  -7   1 125.787 8.20688   1
   7   7  -1 341.028 13.4148   2
  -7  -7  -1 354.438 13.8510   2
  -7   7   1 365.802 14.5256   1
   7  -7   1 321.971 13.7795   2
  -7   7   1 333.050 13.8954   2
  -7  -7   1 337.760 13.8368   1
   7  -7  -1 345.268 13.7382   2
  -7  -7   1 333.525 13.6716   2
  -7   7  -1 329.126 13.5491   2
   7   7   1 326.255 13.3895   2
   0   8   1 1121.95 26.5444   2
   0   8  -1 1175.85 26.5974   2
   0  -8   1 1142.88 27.0245   2
   0   8   1 1164.75 26.7506   1
   0  -8   1 1130.71 26.8430   1
   1   8  -1 181.707 8.36164   2
   1  -8   1 172.076 8.55097   2
   1  -8   1 190.810 8.79229   1
  -1   8   1 189.705 8.46697   1
  -1   8   1 183.120 8.34892   2
  -1  -8   1 203.013 8.80426   1
   1  -8  -1 187.174 8.58599   2
   1   8   1 195.338 8.59018   1
  -1   8  -1 197.145 8.57431   2
   1   8   1 190.864 8.47441   2
   2  -8   1 193.972 8.97936   1
  -2   8   1 186.463 8.71545   1
   2  -8   1 174.698 8.68920   2
  -2   8   1 193.988 8.78080   2
   2   8  -1 185.537 8.46970   2
  -2  -8   1 183.081 8.56454   1
   2  -8  -1 181.931 8.65345   2
   2   8   1 191.551 8.63573   1
  -2   8  -1 188.440 8.51785   2
   2   8   1 189.401 8.48191   2
   3  -8   1 135.950 7.90571   2
  -3   8   1 115.500 7.36695   1
   3   8  -1 123.286 7.22329   2
  -3   8   1 113.027 7.33045   2
   3  -8   1 126.962 7.78855   1
   3   8   1 120.927 7.21950   2
   3  -8  -1 121.949 7.63366   2
  -3   8  -1 122.307 7.40506   2
  -3  -8   1 143.611 7.84079   1
   3   8   1 123.012 7.30850   1
  -4   8   1 9.02189 3.39871   2
  -4   8   1 2.27551 2.96308   1
   4  -8   1 4.77639 3.31738   1
  -4  -8  -1 6.58124 3.32703   2
   4  -8   1 4.78363 3.08422   2
   4   8  -1 5.97660 3.08702   2
  -4  -8   1 7.18171 3.14084   1
   4   8   1 7.04935 3.26086   1
   4  -8  -1 9.59558 3.49349   2
  -4   8  -1 -0.8836 2.75569   2
   4   8   1 4.48079 2.95863   2
  -5   8   1 139.890 8.52140   1
   5  -8   1 122.393 8.49011   2
   5   8  -1 133.330 8.04685   2
  -5   8   1 135.928 8.62225   2
   5  -8   1 131.010 9.13866   1
  -5  -8  -1 129.638 8.35434   2
   5   8   1 120.108 7.94223   2
   5  -8  -1 123.459 8.37267   2
  -5   8  -1 139.576 8.54857   2
  -5  -8   1 129.533 8.21564   1
  -5  -8   1 125.230 8.34124   2
   5   8   1 140.858 8.47653   1
  -6  -8  -1 242.310 11.4300   2
   6  -8   1 254.141 12.0026   2
   6   8  -1 234.400 11.1826   2
  -6   8   1 275.422 12.3568   1
  -6   8   1 264.903 12.2255   2
   6  -8  -1 226.030 11.3725   2
  -6  -8   1 234.712 11.3176   2
  -6  -8   1 252.216 11.7016   1
   6   8   1 233.716 11.2977   2
  -6   8  -1 245.524 11.6112   2
   0   9   1 -0.2459 2.56316   1
   0  -9   1 -1.9279 2.51098   1
   0   9  -1 2.70052 2.60764   2
   0   9   1 1.09834 2.61158   2
   0  -9   1 2.30730 2.81338   2
   1   9  -1 1962.28 41.4352   2
  -1   9   1 1933.86 41.7651   1
  -1   9   1 1921.54 41.9824   2
   1  -9   1 1866.91 42.0297   2
   1  -9   1 1972.86 42.3136   1
  -1   9  -1 1894.78 41.5014   2
  -1  -9   1 1996.74 42.2441   1
   1   9   1 1912.82 41.6426   2
   1   9   1 1979.65 41.8082   1
   2  -9   1 94.5371 7.11820   2
  -2   9   1 90.6107 6.84128   1
   2   9  -1 84.0751 6.54922   2
   2  -9   1 92.1448 7.11704   1
  -2   9   1 83.5643 6.75257   2
  -2  -9   1 91.6589 6.89766   1
   2   9   1 91.8417 6.85045   2
   2   9   1 95.8505 6.80560   1
  -2   9  -1 88.9876 6.80682   2
   2  -9  -1 89.4790 6.97728   2
   3   9  -1 855.985 22.4604   2
  -3   9   1 870.125 23.1973   1
  -3   9   1 813.401 22.7844   2
   3  -9   1 910.604 23.7967   1
   3  -9   1 854.664 23.3934   2
   3   9   1 835.666 22.6448   2
   3   9   1 865.262 22.9804   1
  -3   9  -1 815.909 22.5488   2
   3  -9  -1 869.276 23.0549   2
  -3  -9   1 885.989 23.3432   1
   4   9  -1 1.04868 2.96241   2
  -4   9   1 6.37364 3.44087   1
  -4   9   1 5.56930 3.29851   2
   4  -9   1 3.90624 3.21465   2
  -4  -9  -1 2.58591 3.11630   2
  -4   9  -1 -0.1616 2.90087   2
   4   9   1 3.62460 3.25268   1
  -4  -9   1 -2.1383 2.59197   1
   4   9   1 1.14838 2.77864   2
   4  -9  -1 1.16240 3.30826   2
  -5   9   1 857.544 23.9070   2
   5  -9   1 841.682 24.2210   2
  -5  -9  -1 814.512 23.2984   2
  -5   9   1 850.882 23.8349   1
   5   9  -1 842.398 23.1071   2
   5   9   1 818.792 23.1317   2
  -5   9  -1 840.099 23.6353   2
   5  -9  -1 819.649 23.5069   2
  -5  -9   1 821.375 23.6383   2
   0  10   1 30.9675 4.70450   2
   0  10   1 29.9542 4.84132   1
   0 -10   1 31.9097 5.33708   1
   0  10  -1 33.4582 4.73659   2
   1  10  -1 12.6323 3.63905   2
  -1  10   1 15.0602 3.92380   2
   1 -10   1 10.5652 3.61080   2
  -1  10   1 15.6440 4.07050   1
  -1 -10   1 13.9467 4.03036   1
  -1  10  -1 12.9313 3.56950   2
   1  10   1 8.78426 3.52176   1
   1  10   1 14.2959 3.89600   2
  -2  10   1 120.742 8.07951   1
   2 -10   1 99.9613 7.81224   2
  -2  10   1 123.290 8.10840   2
   2  10  -1 103.818 7.42072   2
   2  10   1 123.027 8.12015   1
   2  10   1 113.399 7.87573   2
  -2 -10   1 122.514 8.48574   1
  -2  10  -1 110.342 7.63494   2
   3  10  -1 4.73237 3.37353   2
  -3  10   1 15.3355 4.18268   2
   3 -10   1 13.4125 4.22171   2
  -3  10   1 5.08893 3.61475   1
   3  10   1 13.4014 4.04134   1
  -3  10  -1 6.68378 3.56893   2
   3 -10  -1 5.59320 3.70583   2
   3  10   1 5.92844 3.33467   2
   0   0  -2 5317.05 102.667   3
   1   0   2 3327.98 58.8060   2
  -1   0  -2 3450.21 65.1250   4
  -1   0  -2 3211.60 64.9264   3
   1   0   2 3343.52 58.5567   1
  -1   0   2 3321.00 57.9695   1
   1   0  -2 3194.94 65.0172   3
  -2   0   2 7532.57 132.754   2
  -2   0  -2 7383.23 142.474   3
   2   0   2 7389.01 132.429   2
   2   0  -2 7444.94 130.969   2
   2   0   2 7421.23 131.851   1
   2   0  -2 7441.52 142.730   3
  -2   0  -2 7352.55 131.934   2
  -2   0   2 7440.85 133.010   1
  -2   0  -2 7747.28 146.915   4
  -3   0   2 191.204 6.04035   1
   3   0  -2 191.697 5.70468   2
   3   0   2 197.452 6.38708   1
   3   0  -2 184.729 6.81702   3
  -3   0  -2 188.145 6.24920   2
   3   0   2 184.073 6.27510   2
  -3   0   2 190.555 6.05881   2
  -3   0  -2 183.060 6.35023   3
  -4   0  -2 1529.50 31.3177   2
  -4   0  -2 1559.92 31.1849   1
   4   0  -2 1548.30 30.7149   2
  -4   0   2 1555.11 31.0742   2
   4   0   2 1501.78 31.2828   1
  -4   0   2 1547.95 30.9228   1
   4   0   2 1529.51 31.4973   2
   5   0  -2 877.640 20.4175   2
   5   0   2 921.185 21.3170   2
   5   0  -2 911.589 23.0226   4
  -5   0   2 873.025 20.5056   1
  -5   0   2 856.254 20.5918   2
  -5   0  -2 900.354 21.0084   2
   5   0   2 899.249 21.0159   1
   6   0   2 1362.36 30.9625   2
  -6   0   2 1424.47 30.7642   2
  -6   0  -2 1346.17 30.5539   2
   6   0   2 1328.89 30.6748   1
  -6   0   2 1402.93 30.4477   1
   6   0  -2 1399.71 30.1790   2
  -7   0   2 253.998 10.3639   2
  -7   0   2 232.137 10.0502   1
   7   0  -2 235.282 9.85802   2
   7   0   2 233.860 10.4800   2
  -7   0  -2 230.255 10.0071   2
   7   0   2 225.510 10.3728   1
   8   0  -2 5260.58 100.800   2
  -8   0   2 5283.79 101.433   1
  -8   0  -2 5001.13 101.195   2
   8   0   2 5426.45 102.454   1
  -8   0   2 5431.30 102.305   2
   8   0   2 5303.67 102.574   2
   9   0   2 69.3723 7.47458   2
   9   0   2 71.5562 7.51222   1
  -9   0   2 62.9432 6.96878   1
  -9   0   2 52.6163 6.52079   2
   9   0  -2 56.3006 6.28483   2
  -9   0  -2 69.3017 7.12391   2
   0  -1   2 1.60505 0.90243   2
   0   1  -2 1.64492 1.95372   3
   0  -1  -2 1.16039 1.81752   3
   0  -1   2 -0.7518 0.76553   1
   0   1   2 4.79118 0.76077   2
   0   1   2 1.55142 0.68199   1
   1  -1   2 2683.09 49.5763   1
   1  -1   2 2745.31 49.8094   2
  -1  -1  -2 2656.38 55.0614   3
  -1  -1  -2 2791.12 54.6740   4
   1   1  -2 2739.32 55.3948   3
  -1   1   2 2798.79 49.1025   1
   1   1  -2 2748.96 54.6559   4
  -1   1   2 2807.46 49.3034   2
  -1  -1   2 2795.09 49.2124   2
  -1   1  -2 2876.98 48.7928   2
  -1  -1   2 2789.79 48.9960   1
   1   1   2 2788.98 49.1476   1
  -1   1  -2 2684.36 54.8414   4
   1  -1  -2 2694.91 54.8790   3
  -1   1  -2 2724.34 54.9113   3
   1   1   2 2762.79 49.3969   2
  -2   1   2 30.9694 2.31660   1
  -2  -1  -2 31.4832 2.59686   4
  -2  -1  -2 31.9564 2.50420   2
   2  -1   2 30.6988 2.69331   2
  -2  -1  -2 32.0474 3.33073   3
   2   1  -2 34.7434 3.71416   3
  -2   1   2 34.8332 2.42744   2
   2   1  -2 28.8971 2.10087   2
   2  -1   2 31.6149 2.70317   1
   2   1  -2 26.5491 2.48132   4
  -2  -1   2 29.3620 2.14011   1
   2  -1  -2 29.1400 1.65668   2
  -2   1  -2 27.0001 2.26783   2
   2  -1  -2 31.7637 3.10019   3
  -2   1  -2 28.4304 2.86889   3
   2   1   2 26.9330 2.31781   1
   2   1   2 28.5880 2.37756   2
  -3  -1  -2 358.685 9.41405   2
   3   1  -2 362.839 8.94980   2
  -3   1   2 364.068 9.37135   2
   3   1  -2 355.103 10.2116   4
   3  -1   2 339.687 9.57194   2
  -3   1   2 358.846 9.15886   1
   3  -1   2 349.153 9.57580   1
  -3  -1  -2 337.369 9.89389   3
  -3  -1  -2 360.306 10.2306   4
  -3   1  -2 352.286 9.52129   3
  -3  -1   2 370.771 9.13659   2
  -3  -1   2 352.578 8.94439   1
   3   1   2 351.989 9.23074   1
   3  -1  -2 357.015 9.66477   3
   3  -1  -2 350.693 8.61211   2
  -3   1  -2 355.144 9.26546   2
   3   1   2 355.213 9.33003   2
  -4  -1  -2 614.407 15.3435   3
   4  -1   2 622.241 15.5909   1
  -4  -1  -2 651.650 15.3527   1
   4   1  -2 615.447 14.8657   2
  -4   1   2 630.464 15.2512   2
   4   1  -2 624.614 16.7546   4
   4  -1   2 643.040 15.7615   2
  -4   1   2 623.228 15.0998   1
  -4  -1  -2 637.649 15.4036   2
   4  -1  -2 628.831 14.6648   2
  -4   1  -2 648.710 14.7857   3
  -4   1  -2 635.062 15.3934   2
  -4  -1   2 618.516 14.8937   1
  -4  -1   2 630.090 15.0443   2
  -4   1  -2 643.533 15.1951   1
   4   1   2 619.142 15.2891   2
   4  -1  -2 646.349 15.1082   3
   4   1   2 629.274 15.2761   1
  -5  -1  -2 1007.55 22.9942   2
   5  -1   2 1021.41 23.3590   1
  -5   1   2 1001.58 22.9872   2
  -5  -1  -2 995.213 22.2629   3
  -5   1   2 972.502 22.7632   1
   5   1  -2 1018.89 22.5904   2
   5  -1   2 1013.09 23.3613   2
   5   1  -2 1018.51 25.2234   4
  -5  -1   2 1024.79 22.8137   2
  -5   1  -2 998.700 23.0048   2
   5   1   2 989.991 22.8718   1
  -5  -1   2 998.291 22.5286   1
   5  -1  -2 973.720 22.3281   2
   5   1   2 992.087 22.9413   2
  -6   1   2 449.584 13.8558   1
  -6   1   2 481.168 14.2171   2
   6  -1   2 428.232 14.1752   2
   6   1  -2 456.125 13.5618   2
   6  -1   2 445.428 14.2050   1
  -6  -1  -2 453.378 13.9187   2
   6   1   2 477.984 14.2241   1
   6  -1  -2 468.779 13.7019   2
   6   1   2 476.368 14.2320   2
  -6  -1   2 462.818 13.7728   1
  -6  -1   2 481.188 13.9693   2
  -6   1  -2 470.828 14.1660   2
  -7   1   2 548.123 16.3533   2
  -7  -1  -2 530.854 16.0127   2
   7  -1   2 525.884 16.5998   2
  -7   1   2 516.896 15.9326   1
   7  -1   2 514.120 16.3863   1
   7   1  -2 526.366 15.5839   2
  -7  -1   2 488.714 15.5611   1
  -7   1  -2 510.906 15.9857   2
  -7  -1   2 522.294 16.1117   2
   7  -1  -2 534.472 15.7113   2
   7   1   2 509.145 16.1899   2
   7   1   2 525.052 16.3872   1
   8  -1   2 -0.9624 3.24244   2
  -8   1   2 -1.5558 2.96248   1
  -8  -1  -2 1.29485 3.13029   2
   8  -1   2 -1.1186 3.15124   1
  -8   1   2 4.69075 3.47578   2
   8   1  -2 4.55442 3.29516   2
  -8  -1   2 2.79991 2.99923   2
  -8   1  -2 -1.6649 3.15141   2
   8   1   2 2.72706 3.20663   2
  -8  -1   2 -1.7467 2.79985   1
   8   1   2 -0.2664 3.11420   1
   8  -1  -2 0.49125 3.07397   2
   9  -1   2 23.9078 5.22493   1
  -9   1   2 24.1693 5.38546   1
   9  -1   2 26.2590 5.18773   2
  -9   1   2 27.3260 5.10468   2
   9   1  -2 17.7733 4.34022   2
  -9  -1  -2 31.1633 5.41854   2
  -9   1  -2 24.1783 5.21604   2
   9   1   2 32.8467 5.79757   1
   9  -1  -2 33.5833 5.28027   2
  -9  -1   2 26.2518 5.23420   1
  -9  -1   2 23.1726 4.75954   2
   9   1   2 19.0570 4.85084   2
   0   2  -2 9147.12 159.487   2
   0  -2  -2 8709.92 172.852   3
   0  -2  -2 9165.42 177.878   4
   0   2   2 8882.54 161.374   1
   0  -2   2 9084.92 160.906   1
   0  -2  -2 8983.17 158.638   2
   0  -2   2 9167.28 160.032   2
   0   2   2 9233.01 161.587   2
   0   2  -2 8799.86 178.476   4
  -1  -2  -2 359.570 11.0115   3
   1  -2   2 340.663 8.35592   2
   1  -2   2 336.431 8.26808   1
  -1   2   2 351.965 7.98585   2
  -1  -2  -2 359.959 8.74007   4
  -1  -2  -2 360.918 7.82147   2
   1   2  -2 345.030 8.77076   4
   1   2  -2 354.619 7.61504   2
  -1   2   2 335.783 7.87187   1
   1  -2  -2 356.210 10.3061   3
  -1   2  -2 342.176 8.86851   4
  -1  -2   2 355.099 7.97353   2
   1  -2  -2 344.899 8.77445   4
  -1  -2   2 345.732 7.86554   1
  -1   2  -2 366.645 7.79723   2
   1   2   2 354.707 7.98624   2
   1   2   2 350.771 7.93460   1
  -2  -2  -2 1093.46 24.7734   3
   2   2  -2 1040.63 23.2438   4
  -2   2   2 1046.26 21.0413   1
   2  -2   2 1088.15 21.7799   2
   2  -2   2 1039.74 21.5441   1
   2  -2   2 1059.30 21.5983   1
  -2   2   2 1039.88 21.1699   2
  -2  -2  -2 1034.57 21.0828   2
  -2  -2  -2 1070.09 23.2889   4
   2   2  -2 1044.58 20.7449   2
  -2  -2   2 1051.22 20.7762   1
   2  -2  -2 1063.15 20.2741   2
   2  -2  -2 1088.17 23.6394   3
  -2   2  -2 1047.73 20.8785   2
   2   2   2 1088.87 21.0865   1
  -2   2  -2 1054.39 23.6190   4
  -3   2   2 280.406 8.22678   2
   3  -2   2 299.237 8.73037   2
   3   2  -2 287.332 8.95864   4
   3   2  -2 292.574 7.93672   2
  -3  -2  -2 289.020 8.27299   2
  -3  -2  -2 273.246 8.78246   4
  -3  -2  -2 280.315 9.64689   3
   3  -2   2 286.762 8.60657   1
  -3   2   2 267.365 8.07189   1
   3  -2  -2 294.383 7.65781   2
   3  -2  -2 284.493 8.50456   3
   3   2   2 286.599 8.18664   1
  -3  -2   2 284.780 7.84554   1
   3   2   2 272.834 8.11568   2
  -3   2  -2 283.165 8.08091   2
   4   2  -2 1029.14 24.6302   4
  -4  -2  -2 1031.98 23.9175   3
   4  -2   2 987.852 22.7197   1
  -4   2   2 1008.40 22.4227   2
  -4  -2  -2 1001.18 22.3511   2
  -4  -2  -2 1064.19 22.9363   1
  -4   2   2 1028.76 22.4070   1
   4   2  -2 1024.11 21.9378   2
   4  -2   2 1007.59 22.9820   2
   4  -2  -2 1007.88 22.2514   3
  -4   2  -2 1025.77 22.2141   1
   4  -2  -2 1046.30 21.8919   2
   4   2   2 1002.82 22.2884   2
  -4   2  -2 1026.31 22.4162   2
   4   2   2 1023.50 22.3301   1
  -4  -2   2 993.342 21.9098   1
  -4  -2   2 1029.04 22.1793   2
   5   2  -2 80.8744 5.67992   4
  -5   2   2 67.7136 5.14573   1
   5   2  -2 88.3973 5.32421   2
   5  -2   2 75.0763 5.64169   2
  -5  -2  -2 80.2926 5.02714   3
   5  -2   2 77.4794 5.53764   1
  -5   2   2 80.3681 5.36659   2
  -5  -2  -2 81.4883 5.41891   2
  -5   2  -2 74.3545 5.34731   2
   5   2   2 93.7059 5.55905   1
  -5  -2   2 80.5217 5.13988   1
   5  -2  -2 75.3625 4.96297   2
  -5  -2   2 80.6483 5.16764   2
   5   2   2 80.1154 5.38204   2
  -6   2   2 3226.34 64.6924   1
  -6   2   2 3304.37 65.0355   2
  -6  -2  -2 3258.48 64.6980   2
   6  -2   2 3306.38 65.4241   1
   6  -2   2 3426.65 65.8467   2
   6   2  -2 3348.97 64.4095   2
  -6  -2   2 3331.39 64.4952   1
   6  -2  -2 3241.98 64.0333   2
  -6  -2   2 3366.52 64.8138   2
  -6   2  -2 3327.36 64.9782   2
   6   2   2 3277.97 64.8946   1
   6   2   2 3303.91 65.1345   2
   7   2  -2 348.053 12.2399   2
  -7  -2  -2 332.515 12.3713   2
   7  -2   2 333.298 12.8361   2
  -7   2   2 341.775 12.6349   1
  -7   2   2 358.705 12.9149   2
   7  -2   2 333.788 12.9626   1
   7   2   2 338.247 12.7863   2
  -7  -2   2 345.046 12.4680   2
  -7  -2   2 341.262 12.3646   1
   7  -2  -2 352.891 12.1813   2
   7   2   2 344.799 12.6919   1
  -7   2  -2 328.551 12.4792   2
  -8  -2  -2 396.182 14.6324   2
   8   2  -2 417.660 14.4776   2
  -8   2   2 413.700 15.0061   2
   8  -2   2 452.906 15.8405   2
  -8   2   2 409.499 14.8817   1
   8  -2   2 437.328 15.7540   1
   8  -2   2 424.578 15.5665   1
  -8  -2   2 422.229 15.0115   1
   8   2   2 445.018 15.5616   1
  -8  -2   2 451.941 15.3818   2
  -8   2  -2 439.146 15.1446   2
   8   2   2 421.308 15.3047   2
   8  -2  -2 412.496 14.2999   2
   9  -2   2 425.185 16.3464   1
  -9   2   2 405.508 15.8089   2
   9   2  -2 393.488 14.6399   2
   9  -2   2 391.008 15.7093   2
  -9  -2  -2 402.030 15.2436   2
  -9   2   2 408.961 15.6724   1
   9  -2   2 409.145 16.1063   1
   9   2   2 426.305 16.0144   2
   9   2   2 438.065 16.2923   1
  -9  -2   2 394.709 15.5072   2
  -9   2  -2 423.159 15.5439   2
   9  -2  -2 419.075 14.8741   2
  -9  -2   2 374.389 15.0155   1
   0  -3  -2 -3.2269 1.18285   4
   0   3   2 -3.8929 1.12504   1
   0  -3   2 0.19584 1.44313   2
   0   3  -2 -5.3732 1.06562   4
   0  -3   2 -1.1537 1.38498   1
   0   3  -2 -1.3812 1.30113   2
   0   3   2 -2.0954 1.26336   2
   1  -3   2 4153.13 76.3805   2
  -1  -3  -2 4180.50 75.7058   2
   1  -3   2 4314.09 76.1549   1
  -1   3   2 4153.76 75.9493   2
   1   3  -2 4199.07 75.6007   2
  -1  -3  -2 4284.10 84.2102   4
   1   3  -2 4205.46 84.1475   4
  -1   3   2 4105.29 75.5881   1
  -1  -3   2 4201.25 75.9294   2
   1   3   2 4182.87 75.9254   2
   1  -3  -2 4134.48 84.1291   4
  -1   3  -2 4265.69 75.6869   2
  -1   3  -2 4362.89 84.4320   4
  -1  -3   2 4242.51 75.6018   1
   1  -3  -2 4031.79 83.8002   3
   1   3   2 4103.49 75.5382   1
  -2  -3  -2 2680.75 53.9694   4
  -2  -3  -2 2589.66 48.7766   2
   2  -3   2 2689.06 49.3555   1
  -2   3   2 2598.70 48.9228   2
   2   3  -2 2516.33 53.9647   4
   2   3  -2 2688.36 48.6855   2
  -2   3   2 2582.73 48.6193   1
   2  -3   2 2632.79 49.4038   2
  -2   3  -2 2605.52 48.5582   2
   2  -3  -2 2595.88 53.6699   3
   2  -3  -2 2614.42 54.1722   4
   2  -3  -2 2602.88 48.0919   2
  -2  -3   2 2565.62 48.4150   1
   2   3   2 2667.99 48.8103   2
  -2   3  -2 2517.27 54.2274   4
   2   3   2 2581.84 48.4386   1
  -3  -3  -2 3287.39 60.6565   2
  -3   3   2 3237.12 60.5853   1
   3   3  -2 3222.25 60.2383   2
  -3  -3  -2 3245.99 67.0247   4
   3  -3   2 3157.55 61.2741   2
   3  -3   2 3160.94 61.0172   1
  -3   3   2 3302.93 60.9006   2
   3   3  -2 3236.88 66.9274   4
   3   3   2 3268.21 60.5799   2
   3  -3  -2 3187.31 67.2111   4
  -3   3  -2 3211.54 60.4163   2
   3   3   2 3225.14 60.2364   1
   3  -3  -2 3254.67 64.7809   3
   3  -3  -2 3266.07 59.9753   2
  -3  -3   2 3176.05 60.0591   1
  -3   3  -2 3281.96 60.1604   1
  -4  -3  -2 622.798 15.7469   2
   4  -3   2 639.648 16.3837   1
  -4   3   2 633.558 16.0197   2
  -4   3   2 620.764 15.8438   1
   4  -3   2 642.767 16.4659   2
   4   3  -2 641.516 17.3789   4
   4   3  -2 638.268 15.5136   2
  -4   3  -2 647.614 15.8953   2
   4   3   2 639.532 15.7582   1
   4  -3  -2 648.274 15.3830   2
   4   3   2 626.769 15.8501   2
   4  -3  -2 648.157 15.6072   3
  -4  -3   2 634.783 15.7792   2
  -4  -3   2 627.503 15.4562   1
   5   3  -2 189.249 8.67799   4
  -5   3   2 191.418 8.12469   1
   5   3  -2 225.231 8.27377   2
   5  -3   2 186.577 8.44928   2
  -5  -3  -2 185.697 8.00724   2
   5  -3   2 189.935 8.36619   1
  -5   3   2 181.013 8.03636   2
  -5  -3  -2 183.600 8.45236   3
   5  -3  -2 190.008 7.75306   2
  -5  -3   2 211.040 7.99284   1
   5   3   2 198.314 8.12466   1
   5   3   2 171.436 7.85178   2
  -5  -3   2 203.086 8.02127   2
  -5   3  -2 182.455 8.04318   2
   6  -3   2 26.6626 4.52818   1
   6   3  -2 25.5612 4.08387   2
  -6   3   2 22.6955 3.96254   2
  -6   3   2 19.2746 3.68402   1
  -6  -3  -2 24.8429 4.14415   2
   6  -3   2 27.2445 4.44991   2
   6  -3   2 30.2689 4.63632   1
   6   3   2 31.3478 4.38040   2
   6   3   2 33.0132 4.63349   1
  -6   3  -2 28.7684 4.28716   2
   6  -3  -2 38.1636 4.58707   2
  -6  -3   2 28.1868 4.04831   1
  -6  -3   2 35.4239 4.43407   2
  -7  -3  -2 2900.93 59.8959   2
  -7   3   2 2983.32 60.2256   1
   7  -3   2 2924.07 60.7229   2
   7   3  -2 2937.92 59.1661   2
   7  -3   2 3088.83 61.0519   1
  -7   3   2 2970.59 60.2694   2
   7   3   2 2928.86 60.2082   1
  -7   3  -2 2932.75 60.0286   2
  -7  -3   2 2930.17 59.5631   1
   7  -3  -2 2959.16 59.4135   2
  -7  -3   2 2969.55 59.9909   2
   7   3   2 2868.52 60.0566   2
  -8  -3  -2 209.116 10.6246   2
   8  -3   2 220.794 11.2552   1
   8  -3   2 205.008 10.8717   2
   8   3  -2 218.441 10.2169   2
  -8   3   2 217.246 10.9145   2
  -8   3   2 216.266 10.8661   1
   8  -3  -2 213.384 10.3357   2
   8   3   2 215.766 10.9471   2
  -8  -3   2 213.229 10.5535   2
   8   3   2 216.097 10.8452   1
  -8  -3   2 201.989 10.2821   1
  -8   3  -2 208.401 10.5198   2
   9  -3   2 2148.43 47.3424   1
  -9   3   2 2064.47 46.4012   2
   9   3  -2 2007.18 44.8576   2
   9  -3   2 2012.74 46.6007   2
  -9   3   2 2014.35 46.0535   1
  -9  -3  -2 2018.72 45.4250   2
   9  -3  -2 1984.51 44.6467   2
   9   3   2 2046.29 46.4722   1
  -9   3  -2 2008.17 45.5145   2
  -9  -3   2 1986.15 45.5914   1
  -9  -3   2 1983.69 45.8672   2
   9   3   2 1947.13 45.8784   2
   0  -4   2 1242.38 25.5567   2
   0   4  -2 1269.81 28.0803   4
   0   4   2 1256.52 25.0996   1
   0   4  -2 1261.05 25.0207   2
   0  -4  -2 1274.04 27.9432   4
   0   4   2 1272.90 25.2689   2
   0  -4   2 1220.35 25.3009   1
  -1   4   2 105.354 4.58705   1
   1   4  -2 107.338 5.07857   4
  -1   4   2 101.702 4.69844   2
   1  -4   2 105.999 4.93252   2
   1  -4   2 110.263 4.83796   1
   1   4  -2 121.984 4.67210   2
  -1  -4  -2 108.467 5.04458   4
  -1  -4   2 106.479 4.71716   2
  -1  -4   2 102.680 4.53966   1
   1   4   2 113.426 4.77745   2
   1   4   2 107.485 4.66739   1
  -1   4  -2 102.006 4.51827   2
   1  -4  -2 108.228 5.00066   4
  -1   4  -2 109.118 5.32013   4
  -2   4   2 897.034 19.6280   2
  -2  -4  -2 901.229 21.6781   4
  -2   4   2 900.657 19.5363   1
  -2  -4  -2 889.843 19.4290   2
   2  -4   2 903.055 20.1390   2
   2   4  -2 872.188 19.1320   2
   2   4  -2 869.485 21.4974   4
   2  -4   2 871.167 19.9003   1
  -2   4  -2 907.969 21.9271   4
   2   4   2 911.181 19.5160   2
   2  -4  -2 905.879 21.7276   4
   2  -4  -2 916.794 22.9709   3
  -2   4  -2 904.414 19.3551   2
  -2   4  -2 913.457 19.2545   1
  -2  -4   2 885.590 19.3427   1
   2  -4  -2 896.941 19.0586   2
   2   4   2 881.595 19.3548   1
  -3   4   2 274.549 8.98273   1
   3   4  -2 289.640 8.82040   2
   3  -4   2 290.510 9.46335   1
  -3  -4  -2 292.713 9.11528   2
  -3   4   2 295.445 9.21743   2
   3  -4   2 293.736 9.65131   2
   3   4  -2 291.405 9.89984   4
   3  -4  -2 291.509 10.1577   3
  -3  -4   2 291.717 8.86670   1
   3   4   2 293.752 8.97124   1
  -3   4  -2 283.227 8.98654   2
  -3   4  -2 296.659 10.2748   4
   3  -4  -2 284.259 8.65605   2
   3   4   2 285.712 8.98126   2
  -4   4   2 901.468 21.3444   2
  -4  -4  -2 887.971 21.0210   2
   4  -4   2 888.935 21.6826   1
   4  -4   2 939.884 21.8630   2
  -4   4   2 919.543 21.3005   1
   4   4  -2 943.561 20.8919   2
  -4  -4   2 896.671 20.7011   1
  -4   4  -2 905.699 21.0678   2
   4  -4  -2 894.743 20.6862   2
   4  -4  -2 905.554 21.5022   3
   4   4   2 891.800 20.8839   1
   4   4   2 886.145 20.9230   2
   5  -4   2 3.20830 2.56122   1
   5   4  -2 -1.1695 2.25087   2
  -5  -4  -2 8.52565 2.96124   2
  -5   4   2 3.81538 2.52067   1
  -5   4   2 4.13535 2.70169   2
   5  -4   2 4.11349 2.71252   2
   5   4   2 6.78708 2.65251   2
   5   4   2 1.98348 2.34173   1
  -5   4  -2 2.50661 2.63514   2
  -5  -4   2 5.21729 2.56173   2
  -5  -4   2 3.74989 2.55433   1
   5  -4  -2 4.42213 2.41682   2
  -6  -4  -2 142.746 7.82970   2
  -6   4   2 133.915 7.91111   1
   6  -4   2 148.122 8.31172   1
   6   4  -2 159.977 7.84643   2
  -6   4   2 145.234 8.10994   2
   6  -4   2 142.333 8.35988   2
  -6   4  -2 134.746 7.83814   2
   6   4   2 142.599 7.86259   2
   6   4   2 157.017 8.16941   1
   6  -4  -2 142.721 7.75865   2
  -6  -4   2 142.647 7.69997   1
  -6  -4   2 135.142 7.62326   2
   7  -4   2 583.629 18.2135   1
  -7   4   2 549.874 17.7126   1
   7  -4   2 544.941 17.8808   2
   7   4  -2 585.852 17.0106   2
  -7  -4  -2 557.209 17.2992   2
  -7   4   2 564.347 17.7932   2
  -7  -4   2 535.950 17.0087   1
   7   4   2 568.574 17.4464   2
   7   4   2 594.050 17.7245   1
  -7  -4   2 542.979 17.1759   2
  -7   4  -2 562.242 17.4454   2
   7  -4  -2 565.815 16.9603   2
   8   4  -2 122.926 8.16786   2
  -8   4   2 123.250 8.63555   2
   8  -4   2 122.341 8.87054   2
  -8   4   2 129.425 8.98367   1
  -8  -4  -2 122.388 8.56854   2
   8  -4   2 129.355 9.01749   1
   8   4   2 121.344 8.47446   2
  -8  -4   2 113.779 8.26196   1
   8   4   2 127.740 8.74428   1
  -8   4  -2 129.906 8.77714   2
   8  -4  -2 135.493 8.51541   2
  -8  -4   2 112.826 8.38412   2
   0   5   2 2.94487 1.65757   1
   0  -5   2 1.18214 1.58077   2
   0   5   2 -0.4929 1.58159   2
   0   5  -2 3.15879 1.71721   2
   0  -5   2 2.87974 1.88842   1
   0   5  -2 2.30926 1.61861   4
  -1   5   2 4759.42 87.7135   2
  -1   5   2 4583.82 87.1448   1
   1  -5   2 4731.65 87.4729   1
   1   5  -2 4843.37 87.2870   2
   1   5  -2 4822.67 97.0880   4
   1  -5   2 4755.48 88.0169   2
   1   5   2 4809.46 87.5275   2
  -1  -5   2 4745.43 87.6829   2
   1   5   2 4903.33 87.2652   1
  -1   5  -2 4933.41 97.3954   4
  -1   5  -2 4650.31 87.2848   2
  -1  -5   2 4578.71 87.1159   1
   2   5  -2 136.065 6.62237   4
  -2   5   2 129.346 5.86431   1
   2  -5   2 135.041 6.35806   2
   2   5  -2 127.557 5.68177   2
   2  -5   2 138.828 6.27628   1
  -2   5   2 141.793 6.14150   2
  -2  -5  -2 143.101 6.15659   2
  -2   5  -2 139.180 6.84614   4
   2   5   2 135.506 5.97778   2
   2  -5  -2 130.601 5.70760   2
  -2   5  -2 143.435 5.97272   2
   2   5   2 138.441 5.94337   1
  -2  -5   2 132.230 5.85733   1
   3   5  -2 739.333 19.0875   4
  -3   5   2 690.163 17.2751   2
   3  -5   2 689.086 17.6595   1
   3  -5   2 711.100 17.9272   2
  -3  -5  -2 693.731 17.0901   2
   3   5  -2 691.891 16.8499   2
  -3   5   2 686.594 17.1918   1
  -3  -5   2 693.394 17.0078   1
   3  -5  -2 698.055 19.3029   3
   3   5   2 708.850 17.1337   2
   3   5   2 671.750 16.9141   1
   3  -5  -2 673.346 16.7048   2
  -3   5  -2 673.324 16.9880   2
  -4   5   2 555.733 15.6831   1
   4  -5   2 574.740 16.2963   1
  -4  -5  -2 574.778 15.4720   2
   4  -5   2 566.735 16.2091   2
  -4   5   2 575.575 15.9339   2
   4   5  -2 566.397 15.1582   2
   4   5   2 573.358 15.6861   2
   4  -5  -2 623.097 16.6237   3
   4  -5  -2 588.925 15.3279   2
   4   5   2 565.358 15.5061   1
  -4  -5   2 587.565 15.4506   1
  -4   5  -2 561.121 15.5691   2
  -5   5   2 3477.05 68.1722   1
  -5  -5  -2 3414.36 67.7926   2
  -5   5   2 3580.46 68.6663   2
   5   5  -2 3505.46 67.4311   2
   5  -5   2 3483.41 68.7076   1
   5  -5   2 3521.27 69.0397   2
   5   5   2 3528.04 68.3824   2
  -5  -5   2 3593.53 68.2332   2
  -5   5  -2 3295.08 67.7389   2
   5   5   2 3414.15 67.7285   1
  -5  -5   2 3533.51 67.6452   1
   5  -5  -2 3445.02 67.5764   2
   6  -5   2 57.3644 6.12898   1
   6  -5   2 92.4255 7.13938   2
  -6  -5  -2 90.8564 6.68564   2
   6   5  -2 73.6315 6.03130   2
  -6   5   2 70.2222 6.40330   2
  -6   5   2 62.6074 6.25255   1
   6   5   2 76.5331 6.41837   1
  -6  -5   2 70.9204 6.01491   1
  -6  -5   2 72.0014 6.11384   2
  -6   5  -2 73.8771 6.43519   2
   6  -5  -2 76.5002 6.41708   2
   6   5   2 71.6620 6.21204   2
  -7  -5  -2 1466.38 34.5003   2
  -7   5   2 1534.23 35.4273   1
   7   5  -2 1403.19 33.8690   2
  -7   5   2 1538.51 35.7259   2
   7  -5   2 1550.01 36.0949   2
   7  -5   2 1572.18 36.1733   1
  -7  -5   2 1477.95 34.9038   2
   7   5   2 1514.58 35.2352   2
  -7  -5   2 1511.31 34.9938   1
   7  -5  -2 1484.17 34.3481   2
  -7   5  -2 1443.80 34.7785   2
   7   5   2 1476.49 34.9885   1
  -8   5   2 10.2342 4.16468   2
   8   5  -2 -0.5692 3.16940   2
   8  -5   2 0.04293 3.41475   2
   8  -5   2 -1.6136 3.42932   1
  -8  -5  -2 0.88076 3.32197   2
  -8   5   2 9.32694 4.00249   1
   8  -5  -2 1.01704 3.28221   2
  -8  -5   2 0.63066 3.35385   1
   8   5   2 5.55389 3.65947   2
  -8  -5   2 -1.0202 3.14998   2
   8   5   2 5.98412 3.72055   1
  -8   5  -2 -2.4867 3.28942   2
   0   6   2 560.572 14.4545   2
   0  -6   2 553.173 14.6707   2
   0   6   2 564.614 14.3301   1
   0  -6   2 567.006 14.6663   1
   0   6  -2 555.086 14.1983   2
   1   6  -2 1297.82 27.6437   2
   1  -6   2 1343.65 28.5122   2
   1  -6   2 1303.20 28.1171   1
  -1   6   2 1313.75 28.1405   2
  -1   6   2 1248.50 27.7586   1
  -1  -6   2 1273.06 27.8247   1
   1   6   2 1269.81 27.6695   1
  -1   6  -2 1313.47 27.6409   2
  -1  -6   2 1304.09 28.1424   2
   1   6   2 1340.25 28.0732   2
   2  -6   2 1382.08 29.8871   1
   2  -6   2 1370.83 30.0684   2
   2   6  -2 1394.25 29.1714   2
  -2   6   2 1331.51 29.5140   1
  -2   6   2 1382.48 29.6479   2
   2   6   2 1357.04 29.1434   1
  -2   6  -2 1345.94 29.2180   2
   2   6   2 1379.45 29.5240   2
   2  -6  -2 1407.11 29.1435   2
  -2  -6   2 1341.40 29.2284   1
   3   6  -2 46.5198 4.39737   2
  -3   6   2 56.0634 4.92365   2
  -3  -6  -2 49.9076 4.70995   2
   3  -6   2 48.8930 4.96495   2
   3  -6   2 46.3086 4.66453   1
  -3   6   2 51.3155 4.71246   1
   3  -6  -2 58.0317 4.76849   2
   3   6   2 54.7856 4.77780   2
  -3  -6   2 55.0705 4.71210   1
   3   6   2 59.6003 4.81035   1
  -3   6  -2 49.6657 4.65623   2
   4   6  -2 49.4981 4.95748   2
   4  -6   2 45.2349 5.35641   2
  -4   6   2 60.8081 5.45215   1
   4  -6   2 51.3876 5.37222   1
  -4   6   2 46.7799 5.02994   2
  -4  -6  -2 53.1644 5.06501   2
   4  -6  -2 57.3150 5.08646   2
   4  -6  -2 55.9508 5.81814   3
  -4  -6   2 46.0945 4.86649   1
   4   6   2 49.6042 5.07804   2
   4   6   2 49.1158 4.90305   1
  -4   6  -2 49.3290 5.14713   2
  -5   6   2 522.076 16.0013   1
  -5  -6  -2 508.265 15.5290   2
  -5   6   2 531.463 16.1457   2
   5  -6   2 502.999 16.2191   1
   5   6  -2 523.281 15.2595   2
   5  -6   2 504.772 16.2752   2
   5   6   2 516.598 15.8267   2
  -5  -6   2 510.728 15.8453   2
   5  -6  -2 538.997 15.6391   2
  -5   6  -2 510.381 15.7370   2
   5   6   2 493.289 15.6246   1
  -6  -6  -2 72.9798 6.52951   2
   6   6  -2 70.3897 6.12046   2
   6  -6   2 71.6191 6.97810   2
  -6   6   2 77.9535 7.15139   2
   6  -6   2 72.5891 7.12615   1
  -6   6   2 77.2416 6.94562   1
  -6  -6   2 72.3467 6.42391   1
  -6  -6   2 58.8694 6.20607   2
  -6   6  -2 65.3118 6.63435   2
   6   6   2 54.8874 6.00870   1
   6   6   2 75.2015 6.58165   2
   6  -6  -2 81.3729 6.56948   2
   7  -6   2 100.121 8.20863   2
   7  -6   2 102.091 8.42524   1
  -7   6   2 111.472 8.34087   2
  -7  -6  -2 102.200 7.76679   2
  -7   6   2 110.540 8.30686   1
   7   6  -2 102.009 7.44999   2
  -7  -6   2 104.852 7.79437   2
   7  -6  -2 100.784 7.57339   2
   7   6   2 105.981 8.00949   1
   7   6   2 106.095 7.98403   2
  -7  -6   2 102.131 7.82863   1
  -7   6  -2 112.093 8.07664   2
   0   7   2 2.44135 2.22256   1
   0   7   2 2.09403 2.23890   2
   0   7  -2 0.83920 2.06125   2
   0  -7   2 -0.4372 2.03731   1
   0  -7   2 1.03215 2.30497   2
   1  -7   2 114.401 6.62752   2
  -1   7   2 117.907 6.41284   1
  -1   7   2 120.120 6.57970   2
   1  -7   2 119.287 6.57442   1
   1   7  -2 108.155 6.17906   2
   1   7   2 115.933 6.34164   2
  -1  -7   2 118.580 6.57077   2
   1   7   2 115.812 6.41820   1
  -1   7  -2 120.490 6.34215   2
  -1  -7   2 134.668 6.75160   1
   2  -7   2 -2.9599 2.03454   2
   2   7  -2 -0.5875 2.11194   2
  -2   7   2 1.74272 2.30497   1
   2  -7   2 0.11936 2.43527   1
  -2   7   2 -0.6517 2.13318   2
   2   7   2 0.41171 2.06575   2
  -2  -7   2 2.63662 2.41628   1
  -2   7  -2 -0.1493 2.20401   2
   2  -7  -2 0.57410 2.29598   2
   2   7   2 1.37634 2.32587   1
  -3   7   2 3442.21 67.7245   2
   3  -7   2 3503.21 68.0822   1
  -3  -7  -2 3481.89 67.3889   2
  -3   7   2 3474.88 67.6824   1
   3   7  -2 3463.32 66.9558   2
   3  -7   2 3438.42 68.2805   2
   3   7   2 3379.25 67.0452   1
   3  -7  -2 3462.26 67.1286   2
  -3  -7   2 3452.18 67.2183   1
   3   7   2 3519.32 67.6123   2
  -3   7  -2 3356.26 67.1077   2
   4  -7   2 176.883 9.13103   2
  -4   7   2 161.257 8.63575   2
   4   7  -2 159.714 7.98582   2
  -4   7   2 163.977 8.54218   1
   4  -7   2 164.200 8.85915   1
  -4  -7  -2 164.675 8.25426   2
   4  -7  -2 172.372 8.38033   2
   4   7   2 163.842 8.36347   1
  -4   7  -2 167.328 8.45212   2
  -4  -7   2 155.356 8.26413   1
   4   7   2 178.169 8.52768   2
   5  -7   2 374.550 13.9031   1
   5  -7   2 360.212 13.7405   2
  -5   7   2 382.374 13.6651   1
  -5  -7  -2 365.435 13.0848   2
  -5   7   2 357.518 13.4096   2
   5   7  -2 363.123 12.8153   2
   5  -7  -2 360.006 12.9342   2
  -5   7  -2 356.945 13.2202   2
   5   7   2 357.527 13.0749   2
  -5  -7   2 369.956 13.2313   1
   5   7   2 383.698 13.3925   1
   6  -7   2 518.956 17.2862   1
   6   7  -2 487.848 15.6383   2
  -6   7   2 481.331 16.6067   1
  -6   7   2 481.367 16.5846   2
  -6  -7  -2 493.011 16.1777   2
   6  -7   2 484.285 16.8111   2
  -6   7  -2 482.882 16.2737   2
   6   7   2 470.336 16.1543   1
  -6  -7   2 500.390 16.4467   1
   6   7   2 477.488 16.4129   2
   6  -7  -2 480.965 15.8728   2
  -6  -7   2 491.796 16.3354   2
  -7   7   2 178.064 10.4142   1
   7  -7   2 164.370 10.4301   1
  -7  -7   2 169.844 9.83565   1
  -7  -7   2 170.893 9.78761   2
   0  -8   2 3222.64 64.1148   2
   0   8   2 3255.25 63.4678   1
   0  -8   2 3213.41 63.7212   1
   0   8  -2 3224.01 63.1489   2
   0   8   2 3230.18 63.6887   2
  -1   8   2 231.993 9.65236   2
   1  -8   2 248.943 10.1582   1
  -1   8   2 249.289 9.78864   1
   1   8  -2 243.629 9.63445   2
   1  -8   2 231.847 9.96377   2
  -1  -8   2 231.158 9.78219   1
   1   8   2 236.476 9.68007   2
   1   8   2 244.957 9.75859   1
  -1   8  -2 233.853 9.42366   2
  -2   8   2 673.771 18.9201   2
   2  -8   2 703.494 19.4864   2
   2   8  -2 676.142 18.4441   2
   2  -8   2 708.146 19.4607   1
  -2   8   2 701.062 19.0668   1
  -2  -8   2 710.116 19.0910   1
  -2   8  -2 701.788 18.5750   2
   2   8   2 694.081 18.8143   1
   2   8   2 692.973 18.7586   2
  -3  -8  -2 46.4418 5.40007   2
   3  -8   2 40.5868 5.42029   2
  -3   8   2 42.3925 5.25401   1
  -3   8   2 40.7996 5.10120   2
   3  -8   2 39.7269 5.29846   1
   3   8  -2 40.0268 4.96646   2
  -3  -8   2 41.1853 5.23846   1
   3   8   2 45.9218 5.23806   1
  -3   8  -2 37.9828 4.67951   2
   3  -8  -2 40.5846 5.03411   2
   3   8   2 33.5361 4.58252   2
   4   8  -2 1034.49 25.7399   2
  -4   8   2 1057.55 26.5938   2
  -4   8   2 1069.19 26.7484   1
  -4  -8  -2 1042.21 26.0732   2
   4  -8   2 1070.58 26.8742   1
   4  -8   2 1002.20 26.6557   2
  -4   8  -2 1025.91 26.0320   2
  -4  -8   2 1053.25 26.3045   1
   4   8   2 1053.02 26.2170   2
   4  -8  -2 1024.60 25.9432   2
   4   8   2 1057.68 26.2029   1
  -5   8   2 117.441 8.28799   1
  -5  -8  -2 111.050 7.91135   2
   5  -8   2 111.141 8.12360   2
   5   8  -2 131.987 7.91259   2
  -5   8   2 115.101 8.42497   2
   5  -8   2 111.175 8.44148   1
   5   8   2 122.701 8.05334   2
  -5  -8   2 107.465 7.84477   1
   5   8   2 130.398 8.39220   1
   5  -8  -2 127.685 8.09831   2
  -5   8  -2 115.844 8.17293   2
  -6  -8   2 1766.39 40.5678   1
   0   9   2 3.64437 2.87793   2
   0  -9   2 2.54698 2.85406   2
   0   9  -2 1.77568 2.75520   2
   0  -9   2 -0.9064 2.84177   1
   0   9   2 -1.2368 2.54967   1
   1   9  -2 2.12530 2.76173   2
   1  -9   2 -0.8782 2.57295   1
  -1   9   2 1.60694 2.78167   2
  -1   9   2 1.63936 2.80356   1
   1  -9   2 2.69657 2.86298   2
   1   9   2 3.15330 2.72702   2
   1   9   2 3.01269 2.75307   1
  -1   9  -2 9.86774 3.35015   2
  -1  -9   2 4.67078 3.30171   1
   2  -9   2 611.810 18.2714   1
   2  -9   2 592.652 18.0551   2
  -2   9   2 597.115 18.0318   2
   2   9  -2 591.081 17.3236   2
  -2   9   2 573.171 17.6040   1
   2   9   2 571.758 17.3995   2
  -2   9  -2 586.089 17.2386   2
  -2  -9   2 580.849 17.6206   1
   2   9   2 575.964 17.4439   1
   3  -9   2 15.9074 4.19986   2
   3  -9   2 14.5823 4.40109   1
   3   9  -2 17.9525 4.10992   2
  -3   9   2 14.2058 3.98255   1
  -3  -9  -2 11.1825 3.82099   2
  -3   9   2 13.1750 3.78536   2
   3   9   2 19.5637 4.32232   1
   3  -9  -2 18.4513 4.08495   2
  -3   9  -2 16.1479 4.05850   2
  -3  -9   2 15.4186 4.08718   1
   3   9   2 8.58770 3.44180   2
   4  -9   2 252.071 11.8290   2
  -4   9   2 261.156 11.7407   1
   4   9  -2 243.506 11.0531   2
  -4  -9  -2 265.266 11.5812   2
   4  -9   2 260.488 11.9615   1
  -4   9   2 251.252 11.5728   2
   4  -9  -2 245.950 11.1969   2
  -4   9  -2 250.232 11.1425   2
  -4  -9   2 242.156 11.3857   1
   4   9   2 249.839 11.1683   2
   4   9   2 249.334 11.3396   1
   0  10  -2 21.7882 4.31644   2
   0  10   2 20.5615 4.19910   2
   0  10   2 20.6313 4.45602   1
   0 -10   2 24.7204 4.85428   1
  -1  10   2 14.9268 4.07106   2
  -1  10   2 21.2116 4.41195   1
   1  10  -2 9.17788 3.58737   2
   1 -10   2 14.3609 4.15220   2
   1 -10   2 11.5376 4.09036   1
   1  10   2 11.9457 3.74964   1
  -1  10  -2 13.9535 3.75774   2
   1  10   2 18.0460 4.16615   2
  -1 -10   2 14.8694 4.08030   1
   2 -10   2 1650.77 38.7218   2
  -2  10   2 1677.00 38.3397   2
   2  10  -2 1676.34 37.1604   2
  -2  10   2 1624.33 37.9247   1
   2 -10   2 1680.56 38.8461   1
   2  10   2 1650.66 37.9381   2
   2  10   2 1649.99 37.7476   1
  -2 -10   2 1660.45 38.2684   1
  -2  10  -2 1552.71 37.0319   2
   0   0  -3 -3.2284 1.94831   3
   1   0   3 -0.0907 0.83967   2
  -1   0  -3 -1.0113 0.86564   4
   1   0  -3 -2.2479 1.89878   3
  -1   0  -3 -2.9845 1.90719   3
  -1   0  -3 -1.5464 0.82161   4
   1   0   3 -2.2476 0.81931   1
  -2   0  -3 0.31014 1.85958   3
   2   0   3 0.26345 1.22850   2
  -2   0   3 1.27166 1.02355   2
  -2   0   3 3.98506 1.18978   1
  -2   0  -3 0.20136 1.29152   4
   2   0  -3 2.65903 2.13240   3
   2   0   3 0.17906 1.25821   1
  -3   0  -3 -3.1549 1.63679   3
  -3   0  -3 2.12437 1.38075   2
   3   0   3 -3.0864 1.29925   2
   3   0  -3 -1.0191 1.85007   3
  -3   0   3 0.01662 1.37616   1
   3   0   3 -1.3422 1.45639   1
  -3   0   3 1.02319 1.41770   2
  -4   0   3 4.16918 1.89137   1
   4   0  -3 2.34697 1.40341   2
   4   0  -3 1.82033 2.13826   3
   4   0   3 4.75982 2.23884   2
  -4   0   3 7.27697 2.26108   2
   4   0   3 10.1423 2.50850   1
  -4   0  -3 7.70787 2.38320   3
  -5   0   3 1.15641 1.99045   1
  -5   0   3 -3.2458 1.89867   2
   5   0  -3 0.88317 2.16430   4
  -5   0  -3 0.87938 2.09322   2
   5   0  -3 -2.1170 1.76623   2
   5   0   3 2.45983 2.28111   1
   5   0   3 3.89756 2.51118   2
  -6   0   3 1.23893 2.33967   1
   6   0  -3 6.58758 2.97681   4
   6   0  -3 1.85740 2.48019   2
   6   0   3 3.42668 2.95899   2
  -6   0   3 2.73928 2.56884   2
   6   0   3 1.78043 2.62220   1
  -6   0  -3 15.2498 3.39782   2
  -7   0   3 1.53616 2.62364   2
  -7   0  -3 4.88946 3.19654   2
  -7   0   3 -0.0843 2.65073   1
   7   0   3 -0.7860 2.87342   1
   7   0   3 2.30790 3.04862   2
  -8   0   3 -2.0112 3.02014   2
  -8   0   3 0.29708 3.01454   1
  -8   0  -3 2.25387 3.21457   2
   8   0   3 3.89058 3.34195   1
   8   0   3 3.44629 3.27991   2
  -9   0  -3 -1.3389 3.30628   2
   9   0   3 -0.2959 3.65444   1
  -9   0   3 6.36457 3.78640   1
  -9   0   3 0.13490 3.34859   2
   9   0   3 2.90628 3.74101   2
   0  -1  -3 5.87197 2.67467   3
   0  -1   3 0.53973 0.89648   2
   0   1  -3 -1.6113 0.65835   4
   0  -1   3 -1.3333 0.85891   1
   0   1  -3 -2.7470 1.97185   3
  -1   1   3 2158.94 38.3162   1
   1   1  -3 2162.61 42.7726   4
   1  -1   3 2115.04 39.1657   1
  -1  -1  -3 2121.41 45.1922   3
  -1   1   3 2195.77 38.5060   2
   1   1  -3 2123.26 45.3758   3
   1  -1   3 2128.51 39.3084   2
  -1  -1  -3 2169.38 42.9077   4
   1   1   3 2173.79 38.6624   1
   1  -1  -3 2160.51 45.2571   3
  -1   1  -3 2136.69 45.0594   3
  -1  -1   3 2139.90 38.3814   1
  -1   1  -3 2093.84 43.0927   4
  -1  -1   3 2169.05 38.5686   2
   1   1   3 2176.95 38.8190   2
  -2   1   3 466.427 10.1855   1
   2   1  -3 460.848 11.3328   4
   2  -1   3 476.582 11.0045   2
  -2  -1  -3 474.284 13.4779   3
   2  -1   3 456.905 10.8474   1
  -2   1   3 490.292 10.3552   2
   2   1  -3 449.600 13.5278   3
  -2  -1  -3 470.466 11.6027   4
  -2  -1   3 447.814 9.92357   1
   2   1   3 474.366 10.5038   2
   2   1   3 458.222 10.3963   1
   2  -1  -3 468.472 13.1559   3
  -2   1  -3 484.247 13.2958   3
  -3  -1  -3 5406.13 107.176   4
   3  -1   3 5311.00 97.1394   2
  -3  -1  -3 5378.41 104.907   3
   3  -1   3 5269.15 96.6562   1
   3   1  -3 5363.58 106.837   4
   3   1  -3 5437.22 105.713   3
  -3  -1  -3 5334.11 95.5615   2
  -3   1   3 5205.33 95.8145   1
  -3   1   3 5339.54 96.3644   2
  -3  -1   3 5333.18 95.5879   1
   3   1   3 5282.53 96.5739   2
   3   1   3 5131.31 96.0494   1
  -3   1  -3 5314.16 95.3473   2
   3  -1  -3 5278.98 104.443   3
  -3  -1   3 5505.67 96.1617   2
  -3   1  -3 5383.59 104.387   3
   4  -1   3 46.2497 4.19189   1
  -4   1   3 46.5691 3.69024   1
   4  -1   3 47.4157 4.21189   2
  -4  -1  -3 56.2565 4.03515   2
   4   1  -3 50.4846 4.24064   4
  -4  -1  -3 48.7971 4.30336   3
  -4   1   3 58.3778 4.09591   2
   4   1  -3 60.8289 3.34198   2
  -4   1  -3 56.1095 3.84694   2
  -4  -1   3 53.6834 3.83131   2
   4   1   3 53.3258 4.10234   2
  -4  -1   3 50.7675 3.71172   1
   4  -1  -3 47.2429 2.87105   2
  -4   1  -3 45.8401 4.04574   3
   4   1   3 50.1772 3.96297   1
   4  -1  -3 45.7406 4.14445   3
   5   1  -3 3398.05 64.6074   2
  -5  -1  -3 3562.17 69.7905   3
  -5   1   3 3487.28 66.1877   2
   5   1  -3 3463.00 73.1509   4
  -5   1   3 3412.08 65.7977   1
   5  -1   3 3481.02 66.8634   2
   5  -1   3 3334.02 66.3915   1
  -5  -1  -3 3619.07 66.0902   2
   5   1   3 3437.67 66.0919   1
   5  -1  -3 3385.29 64.1639   2
   5   1   3 3444.16 66.3563   2
  -5  -1   3 3397.36 65.7246   2
  -5   1  -3 3452.54 65.7496   2
   5  -1  -3 3488.48 69.7181   3
  -5  -1   3 3404.71 65.4444   1
   6   1  -3 465.806 13.1507   2
  -6   1   3 455.486 14.0150   2
   6   1  -3 460.079 15.2565   4
   6  -1   3 442.193 14.4171   2
   6  -1   3 441.069 14.2639   1
  -6  -1  -3 439.794 13.5154   2
  -6   1   3 430.650 13.5960   1
   6   1   3 447.213 14.0257   1
   6  -1  -3 438.714 12.6826   2
  -6  -1   3 470.327 13.8244   2
   6   1   3 457.156 14.1638   2
  -6   1  -3 439.692 13.7280   2
  -6  -1   3 435.771 13.3964   1
   7  -1   3 721.238 20.5946   2
  -7   1   3 730.318 20.0573   2
  -7   1   3 682.749 19.5000   1
   7  -1   3 684.276 20.1159   1
  -7  -1  -3 693.841 19.4674   2
  -7  -1   3 724.804 19.8539   2
  -7   1  -3 727.282 19.7852   2
   7   1   3 683.704 19.9522   1
   7   1   3 747.125 20.4946   2
  -7  -1   3 712.060 19.5710   1
  -8  -1  -3 -1.8123 2.90003   2
   8  -1   3 -1.3433 3.20623   2
   8  -1   3 2.53779 3.40320   1
  -8   1   3 3.96014 3.40695   1
  -8   1   3 -0.0282 3.21323   2
  -8  -1   3 2.49948 3.09664   1
  -8  -1   3 5.27529 3.22597   2
  -8   1  -3 -1.1539 3.06790   2
   8   1   3 1.33161 3.43004   1
   8   1   3 1.70351 3.27498   2
   9  -1   3 708.949 22.5731   2
  -9   1   3 736.350 22.0814   1
  -9   1   3 713.171 21.9438   2
   9  -1   3 717.731 22.5712   1
  -9  -1  -3 724.562 21.1059   2
  -9  -1   3 756.959 22.3246   2
   9   1   3 724.569 22.4177   2
  -9  -1   3 734.014 22.0734   1
   9   1   3 686.629 22.2313   1
  -9   1  -3 733.614 21.4847   2
   0  -2   3 225.388 5.79281   2
   0  -2   3 219.718 5.73519   1
   0   2   3 239.230 5.51103   2
   0   2  -3 222.126 6.12217   4
   0  -2  -3 215.659 5.88129   4
   0   2   3 228.122 5.41185   1
   0   2  -3 212.502 8.81789   3
   0  -2  -3 216.988 8.73302   3
   1  -2   3 358.823 8.69059   2
  -1   2   3 343.215 7.93221   1
  -1  -2  -3 354.011 11.7162   3
  -1  -2  -3 360.723 8.85850   4
   1  -2   3 341.624 8.53848   1
  -1   2   3 356.856 8.03571   2
   1   2  -3 358.023 8.95474   4
  -1  -2   3 346.925 7.94531   1
   1  -2  -3 344.759 8.76770   4
  -1   2  -3 347.962 9.06549   4
  -1  -2   3 366.878 8.11180   2
   1  -2  -3 360.926 11.4555   3
   1   2   3 355.159 8.03648   1
   1   2   3 372.128 8.12720   2
  -1   2  -3 346.336 11.5137   3
  -2  -2  -3 1801.37 37.3139   4
  -2  -2  -3 1763.92 39.1327   3
  -2  -2  -3 1797.42 32.2843   2
   2   2  -3 1746.21 37.1504   4
   2  -2   3 1733.33 34.2334   1
   2  -2   3 1805.67 34.4988   2
  -2   2   3 1742.04 33.4781   1
   2  -2   3 1747.06 34.2508   1
  -2   2   3 1799.10 33.7424   2
  -2   2  -3 1812.21 32.5189   2
   2   2   3 1714.74 33.4772   1
  -2  -2   3 1758.67 33.2489   1
   2   2   3 1782.54 33.8052   2
   2  -2  -3 1763.56 38.4363   3
  -2   2  -3 1762.41 37.6347   4
  -2   2  -3 1835.55 38.8693   3
   3  -2   3 163.957 6.47477   1
  -3   2   3 168.665 6.06501   1
   3  -2   3 177.232 6.65195   2
  -3  -2  -3 174.470 6.66720   4
   3   2  -3 171.921 4.96015   2
  -3  -2  -3 171.514 7.87371   3
  -3  -2  -3 170.397 5.81399   2
   3   2  -3 165.503 6.55339   4
  -3   2   3 181.548 6.17100   2
  -3   2  -3 165.157 5.45299   2
   3   2   3 163.505 6.02060   1
  -3  -2   3 168.533 5.74309   1
  -3   2  -3 164.971 7.37219   3
   3  -2  -3 184.841 7.46533   3
   3   2   3 177.460 6.20579   2
   4  -2   3 3308.46 62.7551   2
   4   2  -3 3199.83 68.1203   4
  -4  -2  -3 3239.41 66.8837   3
  -4   2   3 3265.33 61.7659   2
  -4   2   3 3267.28 61.4954   1
  -4  -2  -3 3261.28 61.5402   2
   4   2  -3 3376.58 60.5565   2
   4  -2   3 3217.33 62.2319   1
   4  -2  -3 3295.61 65.9146   3
  -4   2  -3 3128.29 60.9278   2
   4   2   3 3167.26 61.4464   1
   4  -2  -3 3248.34 59.4354   2
   4   2   3 3262.17 61.8272   2
  -4  -2   3 3344.21 61.4903   2
  -4  -2   3 3218.52 61.0390   1
   5   2  -3 412.157 11.4540   2
  -5   2   3 385.320 12.1053   1
   5  -2   3 420.657 13.1519   2
   5  -2   3 398.033 12.7649   1
  -5   2   3 423.248 12.5258   2
   5   2  -3 403.437 13.3571   4
  -5  -2  -3 421.259 12.2722   2
  -5  -2  -3 399.065 12.6850   3
   5  -2  -3 386.930 10.7586   2
  -5  -2   3 379.712 11.6754   1
  -5  -2   3 435.312 12.2458   2
  -5   2  -3 408.893 12.0656   2
   5   2   3 412.324 12.4908   2
   5   2   3 396.606 12.2006   1
  -6   2   3 616.105 17.1210   2
  -6  -2  -3 582.969 16.5672   2
  -6   2   3 602.460 16.9494   1
   6  -2   3 626.918 17.7614   1
   6  -2   3 613.031 17.8411   2
   6   2  -3 618.286 18.6445   4
   6   2  -3 611.949 16.1142   2
  -6   2  -3 620.119 16.7998   2
  -6  -2   3 556.301 16.3392   1
   6  -2  -3 592.682 15.6192   2
   6   2   3 602.062 17.1809   2
  -6  -2   3 613.244 16.8740   2
   6   2   3 592.180 17.0575   1
  -7   2   3 114.875 7.60700   1
  -7   2   3 117.003 7.73272   2
  -7  -2  -3 110.460 7.18514   2
   7  -2   3 121.282 8.21903   1
   7  -2   3 132.135 8.26180   2
   7   2   3 120.362 8.03573   2
  -7  -2   3 112.104 7.41718   1
   7   2   3 114.903 7.71180   1
  -7  -2   3 127.003 7.82279   2
  -7   2  -3 110.583 7.41997   2
  -8   2   3 88.4939 7.42458   1
   8  -2   3 79.4419 7.63665   1
  -8  -2  -3 97.6691 7.41222   2
  -8   2   3 110.753 8.08009   2
   8  -2   3 98.9398 8.06637   2
   8  -2   3 89.7933 8.03904   1
  -8  -2   3 102.292 7.78990   1
  -8   2  -3 93.9171 7.58178   2
   8   2   3 90.5770 7.92730   2
   8   2   3 105.398 8.06639   1
  -8  -2   3 95.4027 7.70277   2
   0  -3   3 0.53265 1.24652   2
   0  -3  -3 -0.4334 1.09645   4
   0   3  -3 0.24422 1.22702   4
   0   3  -3 -0.7570 0.93062   2
   0   3   3 0.40962 1.14538   1
   0  -3   3 5.49563 1.47294   1
   0   3   3 0.74637 1.19051   2
   0  -3  -3 1.52353 2.38261   3
  -1  -3  -3 1286.44 22.6774   2
  -1  -3  -3 1171.32 26.5028   4
  -1  -3  -3 1183.60 29.7302   3
   1   3  -3 1202.83 26.6005   4
   1  -3   3 1235.54 24.6058   2
   1   3  -3 1218.02 22.7003   2
  -1   3   3 1227.78 23.9335   1
   1  -3   3 1219.21 24.4693   1
  -1   3   3 1239.01 24.0504   2
   1  -3  -3 1242.12 26.5802   4
  -1   3  -3 1203.23 26.7852   4
  -1  -3   3 1176.84 23.8189   1
   1   3   3 1201.47 23.8389   1
  -1  -3   3 1202.32 23.9876   2
  -1   3  -3 1211.35 22.9850   2
   1  -3  -3 1206.32 29.0760   3
   1   3   3 1234.02 23.9844   2
  -2  -3  -3 41.2950 3.26950   4
  -2  -3  -3 37.1468 2.91345   2
   2  -3   3 35.6180 3.37804   2
  -2   3   3 37.3671 3.05177   1
  -2  -3  -3 36.4193 4.93050   3
   2   3  -3 35.6324 3.13967   4
   2   3  -3 36.5485 2.56891   2
   2  -3   3 35.8010 3.30797   1
  -2   3   3 34.0496 2.97370   2
   2  -3  -3 33.0666 3.12920   4
   2   3   3 36.4057 2.93107   2
   2  -3  -3 40.5169 4.52877   3
  -2  -3   3 38.6263 2.81622   1
  -2   3  -3 34.6077 2.48580   2
   2   3   3 36.5351 2.81566   1
  -2   3  -3 32.1994 3.31332   4
  -3  -3  -3 625.096 18.4605   3
  -3   3   3 633.312 15.0221   2
  -3  -3  -3 633.299 14.6099   2
  -3  -3  -3 637.731 16.6660   4
   3   3  -3 625.316 13.9276   2
   3  -3   3 609.793 15.4378   1
  -3   3   3 609.052 14.8205   1
   3   3  -3 599.835 16.0325   4
   3  -3   3 626.035 15.6312   2
  -3   3  -3 632.952 14.2029   2
   3  -3  -3 618.122 12.9549   2
  -3  -3   3 610.717 14.4766   1
   3   3   3 621.410 14.6916   1
   3   3   3 619.144 14.8004   2
   3  -3  -3 623.670 16.8530   3
   3  -3  -3 626.024 16.4308   4
   4  -3   3 1.38025 2.28904   1
  -4   3   3 1.39867 2.05251   1
  -4  -3  -3 2.48273 2.08460   2
  -4   3   3 2.61700 2.26870   2
   4  -3   3 2.11746 2.32059   2
   4   3  -3 1.62932 1.98914   4
  -4  -3  -3 1.66706 2.63919   3
   4   3  -3 -1.1040 1.84374   2
  -4  -3   3 0.44322 1.75343   1
  -4   3  -3 0.83924 1.85279   2
   4  -3  -3 2.94010 1.70648   2
   4   3   3 7.50091 2.49792   2
   4  -3  -3 0.43356 2.13167   3
   4   3   3 0.07489 1.95930   1
   5  -3   3 494.962 15.0078   1
   5  -3   3 515.884 15.2660   2
   5  -3   3 509.494 15.0562   1
  -5  -3  -3 490.334 15.4822   3
  -5   3   3 481.639 14.2188   1
  -5  -3  -3 500.626 14.1429   2
   5   3  -3 494.092 13.6153   2
   5   3  -3 482.798 15.5311   4
  -5   3   3 509.763 14.4858   2
  -5  -3   3 483.790 13.8828   1
   5   3   3 557.969 14.8621   2
   5  -3  -3 480.942 12.8865   2
  -5   3  -3 506.835 14.0609   2
  -5  -3   3 515.680 14.2484   2
   5   3   3 524.222 14.5308   1
   6  -3   3 -0.7244 2.86735   1
  -6   3   3 2.11925 2.70104   1
  -6   3   3 3.67734 2.91914   2
   6   3  -3 1.95245 2.64478   2
  -6  -3  -3 -0.5691 2.59296   2
   6  -3   3 1.47956 3.03828   1
   6  -3   3 4.88372 3.23075   2
   6   3   3 3.32027 2.87059   2
  -6  -3   3 1.73603 2.54313   1
  -6   3  -3 0.79496 2.69681   2
  -6  -3   3 1.77604 2.57847   2
   6   3   3 1.33532 2.63182   1
   7  -3   3 509.803 17.1816   1
  -7   3   3 543.228 16.9315   1
  -7  -3  -3 532.374 16.3100   2
  -7   3   3 585.082 17.3913   2
   7  -3   3 544.060 17.5620   2
   7  -3   3 510.076 17.3517   1
  -7  -3   3 528.753 16.4160   1
  -7   3  -3 518.066 16.3026   2
   7   3   3 553.119 17.1661   2
   7   3   3 519.016 16.8637   1
  -7  -3   3 557.582 16.8282   2
  -8   3   3 16.9966 4.44585   1
  -8   3   3 11.8103 4.18110   2
  -8  -3  -3 18.9078 4.31312   2
   8  -3   3 10.3863 4.11245   2
   8  -3   3 22.1851 5.18491   1
   8   3   3 10.0633 4.03076   1
  -8  -3   3 13.1863 4.12140   2
   8   3   3 9.87028 4.17203   2
  -8  -3   3 15.4419 4.18759   1
  -8   3  -3 18.7448 4.49490   2
   0  -4  -3 1539.67 33.6181   4
   0   4   3 1555.61 30.4470   2
   0   4  -3 1578.08 29.7358   2
   0   4  -3 1579.78 33.9092   4
   0  -4   3 1531.48 30.5140   1
   0  -4  -3 1534.46 37.5691   3
   0  -4   3 1579.80 30.8156   2
   0  -4  -3 1520.98 29.1878   2
   0   4   3 1479.69 30.1418   1
   1  -4   3 142.961 5.77552   1
  -1  -4  -3 159.510 6.22535   4
  -1  -4  -3 155.295 5.13959   2
   1   4  -3 163.148 6.32062   4
  -1   4   3 160.648 5.80617   2
   1   4  -3 158.641 5.21220   2
  -1  -4  -3 142.771 9.37290   3
   1  -4   3 142.061 5.81980   2
  -1   4   3 137.379 5.41947   1
   1   4   3 155.766 5.59180   2
   1   4   3 147.506 5.51858   1
  -1  -4   3 144.110 5.58339   2
  -1  -4   3 141.051 5.47212   1
   1  -4  -3 160.557 8.71380   3
  -1   4  -3 154.737 5.08896   2
   1  -4  -3 145.034 5.97765   4
  -1   4  -3 145.017 6.28921   4
   2   4  -3 3053.39 64.1475   4
  -2  -4  -3 3159.92 67.9115   3
  -2   4   3 2984.21 57.5806   1
   2  -4   3 3082.16 58.6664   2
  -2  -4  -3 3039.95 57.2473   2
   2  -4   3 3007.71 58.3161   1
  -2   4   3 3077.78 57.9606   2
   2   4  -3 3116.67 57.0297   2
  -2   4  -3 3187.56 64.7065   4
  -2   4  -3 3083.27 57.0505   2
   2   4   3 3134.16 57.8416   2
   2  -4  -3 3073.84 64.2081   4
  -2  -4   3 3034.70 57.4702   1
   2   4   3 3074.12 57.5663   1
   2  -4  -3 3045.06 64.8719   3
   3  -4   3 53.4226 4.51569   1
  -3  -4  -3 55.3895 6.75354   3
  -3   4   3 53.6591 4.21344   2
   3   4  -3 59.0121 4.52292   4
   3  -4   3 55.0718 4.72068   2
  -3  -4  -3 59.3163 4.26434   2
  -3   4   3 55.6395 4.26009   1
   3   4  -3 60.5483 4.02922   2
  -3  -4   3 53.4374 4.06792   1
  -3   4  -3 56.3526 4.87329   4
   3   4   3 60.6570 4.31245   2
  -3   4  -3 47.4515 3.76492   2
   3   4   3 53.1380 4.06529   1
   3  -4  -3 58.5007 5.41452   3
   3  -4  -3 55.7400 3.49051   2
   4   4  -3 3969.18 74.1148   2
  -4   4   3 3870.74 74.6758   1
  -4   4   3 4009.71 75.2998   2
   4  -4   3 3923.37 75.5706   1
   4   4  -3 3916.47 82.6136   4
  -4  -4  -3 3971.37 83.3291   3
  -4  -4  -3 4006.74 74.5802   2
   4  -4   3 3935.67 75.9092   2
   4   4   3 3934.35 74.5548   1
   4  -4  -3 3977.56 73.1732   2
  -4   4  -3 3843.11 74.1672   2
   4   4   3 4111.85 75.1229   2
   4  -4  -3 4018.52 80.1389   3
  -4  -4   3 3917.23 74.3603   1
   5  -4   3 243.777 10.0327   1
   5   4  -3 247.654 9.04429   2
  -5  -4  -3 246.676 11.1514   3
  -5  -4  -3 229.767 9.28225   2
  -5   4   3 220.768 9.48481   2
  -5   4   3 246.050 9.56489   1
   5  -4   3 234.180 10.0153   2
  -5  -4   3 229.394 9.08605   1
   5   4   3 250.129 9.76329   2
  -5  -4   3 248.838 9.48911   2
   5   4   3 232.593 9.22056   1
  -5   4  -3 237.554 9.20122   2
   5  -4  -3 233.824 8.50477   2
  -6   4   3 1460.50 33.7284   1
   6   4  -3 1467.08 32.4654   2
  -6   4   3 1503.50 34.0964   2
   6  -4   3 1519.08 34.7462   2
   6  -4   3 1475.82 34.3448   1
  -6  -4  -3 1449.78 33.1455   2
  -6   4  -3 1552.50 33.4675   2
  -6  -4   3 1516.51 33.5408   2
   6   4   3 1445.74 33.4128   1
  -6  -4   3 1477.95 33.2293   1
   6   4   3 1476.30 33.7415   2
   7  -4   3 106.045 8.17751   2
  -7   4   3 102.741 7.77241   2
  -7  -4  -3 102.959 7.40997   2
   7  -4   3 85.7471 7.66773   1
  -7   4   3 84.5413 7.27398   1
  -7  -4   3 96.6927 7.10561   1
  -7   4  -3 94.4109 7.21189   2
   7   4   3 94.5711 7.30724   1
   7   4   3 104.802 7.57671   2
  -7  -4   3 106.497 7.63255   2
   8  -4   3 606.621 19.8287   2
  -8   4   3 566.685 19.0227   2
  -8   4   3 597.946 19.2830   1
   8  -4   3 581.273 19.4444   1
  -8  -4  -3 588.301 18.2978   2
  -8  -4   3 554.142 18.2569   1
   8   4   3 575.390 18.9124   1
  -8   4  -3 612.940 18.8281   2
  -8  -4   3 561.444 18.6115   2
   8   4   3 607.124 19.1936   2
   0   5   3 1.22297 1.79089   1
   0   5   3 1.04433 1.79317   2
   0  -5   3 1.12143 1.81667   2
   0  -5  -3 -1.7737 3.67288   3
   0   5  -3 0.81499 1.82494   4
   0  -5   3 1.48299 1.81771   1
   0   5  -3 0.88764 1.61735   2
   1   5  -3 54.5183 4.31812   4
  -1   5   3 52.2873 4.04963   2
  -1  -5  -3 47.0365 3.61037   2
   1  -5   3 65.6953 4.47274   1
  -1   5   3 53.3477 3.89580   1
   1  -5   3 56.7530 4.29388   2
   1   5  -3 54.8601 3.66638   2
  -1  -5  -3 56.2584 7.56093   3
   1  -5  -3 53.8177 6.87659   3
   1   5   3 45.3375 3.71500   1
  -1  -5   3 55.0451 3.91700   1
  -1   5  -3 50.4252 3.58804   2
  -1   5  -3 52.8698 4.53427   4
   1   5   3 46.8924 3.82061   2
  -1  -5   3 58.3998 4.15591   2
   2   5  -3 475.059 14.1642   4
   2  -5   3 472.416 13.1829   1
  -2   5   3 466.029 12.6418   1
  -2  -5  -3 474.513 12.3820   2
  -2   5   3 481.955 12.7877   2
  -2  -5  -3 482.173 19.5863   3
   2  -5   3 460.590 13.1466   2
   2   5  -3 475.645 12.0819   2
   2   5   3 468.619 12.7069   2
  -2  -5   3 449.155 12.3928   1
   2   5   3 456.989 12.5077   1
  -2   5  -3 506.422 14.6587   4
   2  -5  -3 458.982 16.1519   3
  -2   5  -3 461.166 12.0531   2
  -3  -5  -3 636.156 15.7390   2
  -3  -5  -3 578.484 21.7577   3
  -3   5   3 601.257 15.9412   1
   3   5  -3 634.524 15.2846   2
   3  -5   3 644.973 16.8407   2
   3   5  -3 600.352 17.3993   4
   3  -5   3 616.465 16.5667   1
  -3   5   3 638.072 16.2527   2
   3  -5  -3 623.557 18.6826   3
  -3  -5   3 606.138 15.6157   1
   3  -5  -3 622.383 14.6855   2
   3   5   3 617.273 15.9761   2
   3   5   3 615.617 15.8661   1
  -3   5  -3 648.201 18.3428   4
  -3   5  -3 625.656 15.4255   2
   4   5  -3 12.1452 2.92500   2
   4  -5   3 8.87114 3.18058   1
  -4   5   3 11.5659 3.15968   2
  -4   5   3 14.9585 3.25985   1
  -4  -5  -3 12.1835 4.89380   3
   4  -5   3 15.1926 3.60517   2
  -4  -5  -3 14.7815 3.18549   2
   4  -5  -3 15.1602 3.68621   3
   4  -5  -3 10.7050 2.74108   2
   4   5   3 10.4372 3.05887   2
  -4   5  -3 13.5663 3.03716   2
   4   5   3 14.2760 3.13798   1
  -4  -5   3 14.0008 3.14544   1
  -5  -5  -3 269.717 13.0232   3
   5   5  -3 287.960 10.2113   2
   5  -5   3 257.625 11.0828   2
   5  -5   3 259.720 11.0042   1
  -5  -5  -3 285.869 10.4453   2
  -5   5   3 276.548 10.8296   2
  -5   5   3 272.916 10.7133   1
   5   5   3 275.557 10.8111   2
  -5  -5   3 273.899 10.3773   1
   5   5   3 256.612 10.3735   1
  -5   5  -3 273.454 10.3236   2
  -5  -5   3 285.446 10.8233   2
   6  -5   3 268.843 11.8482   2
  -6  -5  -3 273.050 13.0966   3
   6   5  -3 275.486 10.7628   2
  -6  -5  -3 277.657 11.1156   2
  -6   5   3 264.720 11.2785   1
   6  -5   3 266.246 11.6957   1
  -6   5   3 277.837 11.6525   2
   6   5   3 274.038 11.3064   1
   6   5   3 296.823 11.6559   2
  -6  -5   3 273.074 11.1892   2
  -6   5  -3 290.634 11.2928   2
  -6  -5   3 271.044 11.0102   1
  -7  -5  -3 46.9715 5.88095   2
   7  -5   3 57.7826 6.96064   1
   7  -5   3 63.6475 7.25717   2
  -7   5   3 60.5917 6.74232   2
  -7   5   3 61.4633 6.57485   1
   7   5   3 57.3194 6.47328   2
  -7   5  -3 54.8879 6.02732   2
   7   5   3 56.7813 6.61567   1
  -7  -5   3 44.1314 5.45173   1
  -7  -5   3 68.2327 6.67896   2
   0  -6  -3 2253.87 58.7387   3
   0   6  -3 2511.27 47.7692   2
   0  -6   3 2408.03 48.5340   1
   0   6  -3 2556.59 54.0995   4
   0   6   3 2518.68 48.5247   2
   0  -6   3 2527.03 49.0214   2
   0   6   3 2459.06 48.1110   1
   1  -6   3 42.9937 4.56312   2
  -1  -6  -3 46.2134 4.11926   2
   1   6  -3 54.9306 4.10991   2
  -1   6   3 42.1287 4.15941   1
   1  -6   3 43.6672 4.35012   1
  -1   6   3 43.4151 4.39514   2
   1   6  -3 47.7484 4.74883   4
   1   6   3 46.7846 4.31142   2
  -1  -6   3 53.1948 4.47497   2
  -1  -6   3 47.2904 4.32389   1
   1   6   3 38.2815 3.90582   1
  -1   6  -3 47.5774 3.91058   2
   1  -6  -3 46.5547 7.08331   3
  -1   6  -3 46.9795 4.88563   4
   2  -6   3 1625.61 35.1178   2
  -2   6   3 1584.55 34.3575   1
  -2   6   3 1645.39 34.5439   2
   2  -6   3 1611.26 34.7863   1
   2   6  -3 1656.30 33.5448   2
  -2  -6  -3 1667.41 33.8000   2
   2   6   3 1611.02 34.1065   1
   2  -6  -3 1682.50 40.8676   3
   2   6   3 1708.30 34.6705   2
  -2  -6   3 1624.12 34.1658   1
  -2   6  -3 1586.63 33.4130   2
  -3   6   3 38.8983 4.40401   1
  -3  -6  -3 35.7267 4.17359   2
  -3   6   3 46.9166 4.91117   2
   3  -6   3 27.5383 4.03807   1
   3  -6   3 43.2976 4.92818   2
   3   6  -3 48.3302 4.53841   2
  -3   6  -3 48.8096 4.52687   2
   3   6   3 33.9923 4.13842   1
   3  -6  -3 42.6998 4.20350   2
   3   6   3 40.6956 4.50464   2
  -3  -6   3 33.6626 4.15369   1
   3  -6  -3 37.6358 5.64316   3
  -4  -6  -3 930.756 22.7010   2
   4   6  -3 943.795 22.3024   2
  -4   6   3 923.405 23.2595   1
   4  -6   3 932.245 23.8463   1
   4  -6   3 971.644 24.2498   2
  -4  -6  -3 952.264 30.2533   3
  -4   6   3 975.860 23.6891   2
  -4  -6   3 935.844 22.9682   1
   4   6   3 965.202 23.3093   2
   4   6   3 931.461 22.9725   1
  -4   6  -3 931.196 22.5416   2
   4  -6  -3 959.580 25.4455   3
  -5   6   3 7.52661 3.34729   1
  -5   6   3 4.51582 3.27561   2
   5  -6   3 13.0506 3.75456   2
  -5  -6  -3 7.48593 4.79247   3
   5   6  -3 2.59154 2.86575   2
   5  -6   3 5.58126 3.43102   1
  -5  -6  -3 14.0933 3.64122   2
  -5  -6   3 3.41076 2.82628   1
  -5   6  -3 7.79010 3.17684   2
   5   6   3 11.5165 3.51491   1
   5   6   3 11.2875 3.56476   2
  -6   6   3 1164.50 28.9277   2
   6  -6   3 1160.59 29.4735   2
  -6   6   3 1125.09 28.5109   1
   6  -6   3 1134.40 29.3288   1
  -6  -6  -3 1176.26 27.9151   2
  -6  -6  -3 1120.09 31.9314   3
  -6  -6   3 1110.43 28.1115   1
   6   6   3 1088.60 28.0620   1
  -6   6  -3 1183.42 28.1379   2
  -6  -6   3 1140.27 28.4264   2
   6   6   3 1193.72 28.9089   2
  -7   6   3 11.1060 4.25573   1
  -7   6   3 7.69650 4.14906   2
   7  -6   3 6.56831 4.27353   2
   7  -6   3 3.38128 3.87484   1
  -7  -6  -3 2.21398 3.38817   2
  -7  -6   3 2.96252 3.22169   2
  -7  -6   3 3.27725 3.32939   1
  -7   6  -3 -1.3026 3.06686   2
   7   6   3 5.26812 3.68409   2
   7   6   3 -0.9159 3.23695   1
   0   7   3 0.72993 2.24872   1
   0  -7   3 5.72630 2.77490   2
   0  -7   3 5.32590 2.56736   1
   0   7  -3 2.39148 2.24804   2
   0   7   3 5.09575 2.58813   2
  -1   7   3 648.949 17.4136   1
  -1   7   3 697.959 17.9564   2
   1  -7   3 691.589 18.2334   2
   1   7  -3 666.670 16.9059   2
   1  -7   3 655.243 17.8192   1
   1   7   3 678.754 17.6603   2
  -1   7  -3 671.605 16.8103   2
  -1  -7   3 656.332 17.5049   1
  -1  -7   3 668.431 17.7452   2
   1  -7  -3 680.464 24.3623   3
   1   7   3 637.640 17.4038   1
   2  -7   3 83.8743 6.16829   1
   2   7  -3 92.3206 5.65779   2
   2  -7   3 82.5855 6.19710   2
  -2   7   3 86.2674 6.11182   2
  -2   7   3 87.9259 6.05276   1
  -2  -7  -3 83.6668 5.75663   2
   2   7   3 83.7219 5.81542   1
  -2  -7   3 83.4386 5.88173   1
  -2   7  -3 82.4249 5.50322   2
   2   7   3 76.3280 5.89726   2
   2  -7  -3 84.1682 8.81016   3
  -3   7   3 1488.81 33.0914   2
  -3  -7  -3 1481.65 32.2647   2
   3  -7   3 1490.37 33.6209   2
  -3   7   3 1401.91 32.7381   1
   3  -7   3 1473.80 33.3417   1
   3   7  -3 1472.94 31.7933   2
  -3  -7   3 1472.02 32.5158   1
  -3   7  -3 1430.73 31.7797   2
   3   7   3 1450.36 32.6597   2
   3  -7  -3 1492.19 37.6199   3
   3   7   3 1452.91 32.4471   1
  -4  -7  -3 10.6914 3.45852   2
   4  -7   3 5.56070 3.26930   1
   4   7  -3 12.5497 3.21471   2
   4  -7   3 17.1860 4.28105   2
  -4   7   3 12.0580 3.70563   2
  -4   7   3 8.28594 3.34223   1
  -4   7  -3 9.25880 3.32391   2
  -4  -7   3 11.2589 3.54234   1
   4   7   3 10.0173 3.34080   2
   4   7   3 14.4703 3.65083   1
   5  -7   3 1042.17 27.3767   2
  -5   7   3 1105.78 27.3373   2
  -5  -7  -3 1050.97 32.8132   3
  -5   7   3 1046.53 26.7158   1
  -5  -7  -3 1082.86 26.2050   2
   5  -7   3 1055.76 27.5405   1
   5   7   3 1071.97 26.7531   2
  -5  -7   3 1039.07 26.5044   1
  -5   7  -3 1080.91 26.2014   2
   5   7   3 1003.77 26.1994   1
  -6  -7  -3 105.252 7.55684   2
  -6  -7  -3 98.5758 9.69715   3
   6  -7   3 93.2011 8.13810   2
  -6   7   3 94.4239 7.82608   2
   6  -7   3 98.5815 8.17407   1
  -6   7   3 91.9437 7.73003   1
   6   7   3 108.148 7.91390   1
  -6  -7   3 98.8258 7.46786   1
   6   7   3 99.3745 7.74116   2
  -6   7  -3 107.478 7.67264   2
  -6  -7   3 94.4756 7.59626   2
   0   8   3 992.834 24.2592   1
   0   8   3 980.321 24.3283   2
   0   8  -3 977.615 23.2745   2
   0  -8   3 982.555 24.4843   1
   0  -8   3 1030.16 24.8064   2
  -1   8   3 154.052 7.83487   1
   1  -8   3 155.451 8.21414   2
   1  -8   3 157.326 8.27824   1
   1   8  -3 142.508 7.28546   2
  -1   8   3 144.055 7.85738   2
   1  -8  -3 135.701 12.3676   3
  -1  -8   3 140.463 7.76774   1
   1   8   3 143.864 7.73984   1
  -1  -8   3 145.928 8.01675   2
   1   8   3 148.974 7.83799   2
  -1   8  -3 148.139 7.33818   2
   2  -8   3 145.473 8.36917   1
  -2   8   3 153.007 8.17798   1
  -2  -8  -3 154.141 7.99130   2
   2  -8   3 153.165 8.54928   2
  -2   8   3 164.828 8.51360   2
   2   8  -3 154.674 7.67692   2
   2   8   3 163.337 8.21366   2
  -2  -8   3 148.061 8.09138   1
   2  -8  -3 152.643 11.5636   3
  -2   8  -3 160.877 7.80953   2
   2   8   3 162.029 8.19842   1
   3  -8   3 99.2208 7.45459   2
  -3  -8  -3 108.818 7.15162   2
   3  -8   3 107.177 7.54178   1
   3   8  -3 104.475 6.72914   2
  -3   8   3 109.074 7.46930   2
  -3   8   3 97.0286 7.15583   1
   3   8   3 104.177 7.09310   1
   3  -8  -3 120.015 9.80889   3
   3   8   3 108.714 7.24726   2
  -3  -8   3 103.763 7.12467   1
  -3   8  -3 99.9690 6.67967   2
  -4   8   3 5.70397 3.34548   2
   4  -8   3 4.95459 3.44680   2
   4   8  -3 3.26336 3.25811   2
   4  -8   3 5.04126 3.56148   1
  -4   8   3 2.37428 3.32700   1
  -4  -8  -3 11.0589 3.66809   2
   4   8   3 5.49665 3.40809   2
  -4  -8   3 -0.7075 2.91124   1
   4   8   3 2.07835 3.09330   1
  -4   8  -3 -0.0729 2.88026   2
   5  -8   3 94.5286 8.33404   2
  -5  -8  -3 104.759 11.7634   3
  -5   8   3 98.6344 7.85957   1
  -5   8   3 96.9275 7.97223   2
   5  -8   3 104.469 8.27169   1
  -5  -8   3 102.751 7.74413   1
   5   8   3 104.778 7.73863   2
  -5   8  -3 105.819 7.68490   2
   5   8   3 108.112 7.79039   1
   0  -9   3 1.27070 2.90985   2
   0   9   3 1.56845 2.84390   1
   0   9  -3 4.02478 2.80687   2
   0   9   3 3.22221 3.04253   2
   0  -9   3 6.91785 3.46107   1
  -1   9   3 1660.34 37.1117   1
   1   9  -3 1547.80 35.6105   2
   1  -9   3 1601.60 37.3821   1
  -1   9   3 1632.37 37.3270   2
   1  -9   3 1692.47 38.0414   2
  -1  -9   3 1689.11 37.4032   1
  -1   9  -3 1578.29 35.5244   2
   1   9   3 1666.93 37.1460   2
   1   9   3 1658.16 37.0751   1
   1  -9  -3 1796.55 48.3750   3
  -2   9   3 82.8881 7.08877   2
   2  -9   3 66.8376 6.72047   2
   2   9  -3 82.6112 6.40264   2
   2  -9   3 80.6597 7.18060   1
  -2   9   3 85.0760 6.96080   1
   2   9   3 83.2950 6.96360   2
  -2  -9   3 97.4538 7.24004   1
   2  -9  -3 91.1117 10.3978   3
  -2   9  -3 86.4252 6.30279   2
   2   9   3 86.3897 6.85733   1
  -3   9   3 760.142 21.8709   2
   3  -9   3 782.358 22.2789   1
  -3   9   3 756.085 21.6762   1
   3  -9   3 760.496 22.1652   2
   3  -9  -3 830.259 26.4738   3
   3   9   3 752.622 21.3633   2
  -3   9  -3 753.777 20.7140   2
   3   9   3 776.856 21.5674   1
  -3  -9   3 748.647 21.6425   1
   0   0  -4 9999.99 193.520   3
   1   0  -4 2.24860 2.30947   3
  -1   0  -4 3.83738 0.99649   4
  -1   0  -4 4.53443 2.54886   3
   1   0   4 4.05074 1.07885   1
   2   0   4 1602.71 30.5313   1
  -2   0  -4 1594.89 36.4790   3
  -2   0  -4 1645.58 34.0282   4
   2   0  -4 1564.30 36.4886   3
  -2   0   4 1601.56 29.5558   1
  -3   0  -4 564.832 16.3317   3
  -3   0   4 552.363 12.5880   1
   3   0  -4 565.536 16.6137   3
   3   0   4 541.894 13.2961   1
  -4   0  -4 641.959 17.9332   3
  -4   0   4 634.250 15.3391   1
   4   0  -4 660.071 18.7359   3
   4   0   4 665.950 16.3583   2
   4   0   4 649.165 16.1444   1
  -5   0   4 14.3803 3.08263   1
   5   0  -4 11.3583 3.03793   4
   5   0   4 6.07653 2.80625   1
   5   0   4 7.49234 3.11592   2
   5   0  -4 11.7179 3.69253   3
  -6   0   4 3825.19 75.0660   1
   6   0   4 3963.95 76.1687   1
   6   0  -4 3904.51 83.9480   4
   6   0   4 3993.78 76.6462   2
  -7   0   4 356.650 12.8441   1
   7   0   4 362.831 13.7123   1
   7   0   4 359.309 13.7690   2
  -8   0   4 1308.46 32.1080   1
   8   0   4 1291.35 32.8674   1
   8   0   4 1376.39 33.6715   2
   0   1  -4 1.73647 0.74171   4
   0  -1   4 1.19242 0.86794   1
   0   1  -4 1.72001 2.58690   3
   0  -1  -4 3.45871 2.42434   3
   1   1  -4 389.145 8.81103   4
  -1   1   4 397.126 7.84861   1
   1  -1   4 387.579 8.82762   1
   1   1  -4 387.856 13.1840   3
  -1  -1  -4 398.870 9.08869   4
  -1  -1  -4 383.248 13.0879   3
   1  -1  -4 395.076 13.0358   3
  -1   1  -4 382.232 12.9425   3
  -1  -1   4 395.809 7.95486   1
   1   1   4 388.070 8.27603   1
  -1   1  -4 393.611 9.38259   4
   2   1  -4 1053.06 26.8667   3
  -2  -1  -4 1071.21 23.4166   4
  -2  -1  -4 1065.13 26.5351   3
   2  -1   4 1063.44 21.6723   1
  -2   1   4 1073.06 20.5709   1
   2   1  -4 1061.09 22.9590   4
   2  -1  -4 1070.94 26.3904   3
   2   1   4 1080.52 21.1218   1
  -2  -1   4 1042.08 20.3780   1
  -2   1  -4 1028.35 26.0423   3
   3  -1   4 855.486 19.1127   1
  -3  -1  -4 853.899 22.4501   3
  -3   1   4 845.739 18.0196   1
   3   1  -4 856.566 20.1219   4
  -3  -1  -4 874.524 20.7393   4
   3   1  -4 846.223 23.0010   3
   3  -1  -4 864.318 22.2776   3
  -3  -1   4 827.726 17.7914   1
  -3   1  -4 848.372 22.0410   3
   3   1   4 836.400 18.4684   1
  -4   1   4 441.971 12.0057   1
  -4  -1  -4 474.796 14.6654   3
   4  -1   4 456.165 12.9980   2
   4   1  -4 448.729 13.3364   4
   4  -1   4 455.204 12.9444   1
   4  -1  -4 459.536 14.5236   3
   4   1   4 465.069 12.9393   2
   4   1   4 441.556 12.4393   1
  -4  -1   4 448.093 11.8659   1
  -4   1  -4 467.273 14.2365   3
   5   1  -4 34.6444 4.36995   4
  -5  -1  -4 48.4600 5.13378   3
  -5   1   4 36.1978 4.14262   1
   5  -1   4 45.1568 4.95502   1
   5  -1   4 44.9100 4.93362   2
   5   1   4 34.0246 4.40226   2
   5  -1  -4 37.9849 4.89678   3
   5   1   4 40.1431 4.55178   1
  -5  -1   4 42.6151 4.25194   1
   6   1  -4 0.72212 2.53944   4
   6  -1   4 -2.2606 2.75807   2
  -6   1   4 0.75367 2.51126   1
   6  -1   4 2.32941 2.84365   1
   6   1   4 1.48049 2.91086   2
   6   1   4 -0.3222 2.79291   1
  -6  -1   4 -0.3463 2.38810   1
  -7   1   4 538.972 16.4886   1
   7  -1   4 535.757 17.2706   1
   7  -1   4 535.847 17.4639   2
   7   1   4 532.198 17.1344   1
  -7  -1   4 542.855 16.4933   1
   7   1   4 555.310 17.3713   2
  -8   1   4 67.7756 7.04404   1
   8  -1   4 73.3767 7.82448   2
   8  -1   4 67.4106 7.13934   1
   8   1   4 82.9822 7.71337   2
   8   1   4 75.9176 7.82847   1
  -8  -1   4 72.3833 6.79147   1
   0  -2   4 947.146 18.3810   1
   0  -2  -4 928.219 19.7458   4
   0   2   4 935.009 17.9145   1
   0  -2  -4 932.938 24.3370   3
   0   2  -4 929.084 20.1739   4
   0   2  -4 927.316 24.5689   3
  -1  -2  -4 824.705 22.5373   3
   1   2  -4 830.809 22.8378   3
   1   2  -4 848.856 18.4568   4
   1  -2   4 832.838 17.2713   1
  -1  -2  -4 858.284 18.5043   4
  -1   2   4 839.080 16.4644   1
   1  -2  -4 825.717 18.2204   4
  -1   2  -4 867.029 22.5828   3
   1  -2  -4 825.994 22.2158   3
  -1  -2   4 822.512 16.5828   1
   1   2   4 835.373 16.6304   1
  -1   2  -4 831.006 18.7049   4
   2  -2   4 3157.96 58.6764   1
   2   2  -4 3204.27 64.2239   4
   2   2  -4 3147.32 67.2479   3
  -2  -2  -4 3056.12 66.3925   3
   2  -2   4 3157.16 58.6650   1
  -2   2   4 3140.41 57.6330   1
  -2  -2  -4 3271.97 64.4889   4
   2   2   4 3158.96 57.8186   1
   2  -2  -4 3171.04 66.3576   3
  -2   2  -4 3109.49 64.7796   4
  -2  -2   4 3149.79 57.4230   1
  -2   2  -4 3153.42 66.2182   3
   3  -2   4 5.25631 2.25864   1
   3  -2   4 2.15433 2.03000   2
  -3  -2  -4 3.13978 1.87161   4
   3   2  -4 5.05288 1.91069   4
  -3   2   4 7.54444 2.07792   1
  -3  -2  -4 7.73799 3.14268   3
  -3   2  -4 6.46314 2.94690   3
   3   2   4 8.56047 2.23059   1
   3  -2  -4 3.58656 2.79070   3
  -3  -2   4 2.63724 1.68285   1
   4  -2   4 1063.31 24.7049   2
   4  -2   4 1086.37 24.6607   1
  -4   2   4 1075.72 23.6728   1
  -4  -2  -4 1087.71 27.4258   3
   4   2  -4 1074.09 26.1492   4
   4  -2  -4 1101.32 26.7198   3
  -4  -2   4 1083.51 23.3243   1
  -4   2  -4 1109.09 26.9981   3
   4   2   4 1068.97 23.8293   1
   5  -2   4 172.932 8.40436   1
   5  -2   4 183.677 8.74118   2
   5   2  -4 187.624 8.69816   4
  -5  -2  -4 179.018 8.90017   3
  -5   2   4 189.122 8.10945   1
   5  -2  -4 200.896 8.90440   3
   5   2   4 184.542 8.20607   2
   5   2   4 176.393 8.02373   1
  -5  -2   4 186.699 7.70492   1
   6   2  -4 371.451 13.9865   4
  -6   2   4 369.693 12.7700   1
   6  -2   4 389.115 13.7082   2
   6  -2   4 401.293 13.7941   1
   6   2   4 362.937 12.9002   1
  -6  -2   4 391.226 12.7264   1
   6   2   4 405.083 13.4145   2
   7  -2   4 223.177 11.0981   1
   7  -2   4 240.380 11.3910   2
   7  -2   4 242.588 11.3708   1
  -7   2   4 236.689 10.6397   1
   7   2   4 239.686 10.9211   1
  -7  -2   4 252.708 10.5823   1
   7   2   4 233.851 10.9808   2
  -8   2   4 1980.25 44.7068   1
   8  -2   4 2060.58 46.2393   2
   8  -2   4 2095.62 46.1673   1
   8  -2   4 2031.26 45.9026   1
   8   2   4 1976.85 45.5635   2
   8   2   4 2002.65 45.5508   1
  -8  -2   4 2005.22 44.6117   1
   0  -3  -4 -0.2434 2.59763   3
   0   3   4 1.43314 1.31051   1
   0  -3   4 2.95082 1.49684   1
   0   3  -4 2.80385 1.49168   4
   0  -3  -4 3.42491 1.39824   4
  -1  -3  -4 5147.14 100.694   4
   1  -3   4 5007.50 91.1134   1
   1   3  -4 5045.78 100.676   4
  -1  -3  -4 4974.68 102.916   3
  -1   3   4 5024.96 90.2715   1
  -1  -3   4 5011.87 90.4391   1
  -1   3  -4 5091.69 101.052   4
   1   3   4 5012.09 90.4279   1
   1  -3  -4 4931.23 102.189   3
   1  -3  -4 5078.74 100.495   4
  -2   3   4 62.2214 3.71833   1
   2  -3   4 60.3409 4.22813   1
   2   3  -4 62.7722 3.96511   4
  -2  -3  -4 72.8398 4.36768   4
  -2  -3  -4 67.0753 6.67461   3
  -2   3  -4 69.1623 4.44840   4
   2   3   4 61.4692 3.67308   1
  -2  -3   4 56.4020 3.48579   1
   2  -3  -4 65.6733 4.11011   4
   2  -3  -4 66.3615 6.09773   3
   3   3  -4 47.6450 4.07416   4
  -3  -3  -4 42.8785 5.63248   3
   3  -3   4 45.9463 4.49895   2
   3  -3   4 62.6005 4.70346   1
  -3   3   4 41.0460 3.85415   1
   3  -3  -4 40.8326 5.10337   3
   3   3   4 41.2159 3.69591   1
  -3  -3   4 45.2238 3.52591   1
  -4   3   4 325.737 10.3807   1
   4  -3   4 336.739 11.4202   2
   4   3  -4 324.022 11.1937   4
  -4  -3  -4 347.188 13.3038   3
   4  -3   4 336.690 11.2913   1
   4  -3  -4 350.139 12.3102   3
   4   3   4 350.006 10.7053   1
  -4  -3   4 333.314 10.1421   1
  -5  -3  -4 1824.95 41.9544   3
   5  -3   4 1856.79 39.2650   2
  -5   3   4 1781.79 37.8336   1
   5   3  -4 1836.76 41.9185   4
   5  -3   4 1744.05 38.5963   1
  -5  -3   4 1753.02 37.1525   1
   5   3   4 1846.48 38.3288   2
   5   3   4 1767.08 37.8964   1
   6  -3   4 465.853 15.5884   2
   6  -3   4 468.623 15.4692   1
   6   3  -4 429.035 15.9293   4
  -6   3   4 458.170 14.6347   1
   6   3   4 460.379 14.8645   2
  -6  -3   4 453.557 14.1651   1
   6   3   4 462.736 14.7271   1
  -7   3   4 1867.30 42.1479   1
   7  -3   4 1990.35 43.7498   2
   7  -3   4 1959.90 43.3457   1
  -7  -3   4 1888.91 41.6377   1
   7   3   4 1875.73 42.3459   1
   7   3   4 1939.21 42.7781   2
   0  -4  -4 206.716 7.27895   4
   0   4   4 208.743 6.68325   1
   0  -4  -4 202.470 10.9032   3
   0  -4   4 209.435 6.98990   1
   0   4  -4 208.729 7.66854   4
   1  -4   4 922.295 20.5412   1
  -1  -4  -4 918.830 27.0590   3
  -1   4   4 951.930 20.1145   1
   1   4  -4 958.535 22.4143   4
  -1  -4  -4 936.774 22.2612   4
   1  -4  -4 943.545 22.0558   4
   1  -4  -4 937.360 26.2301   3
   1   4   4 929.889 19.9759   1
  -1  -4   4 933.605 20.0906   1
  -1   4  -4 954.383 22.6703   4
  -2   4   4 8.20334 2.27629   1
   2   4  -4 4.22649 2.04638   4
  -2  -4  -4 8.09160 4.35277   3
   2  -4   4 5.26017 2.37663   1
   2  -4   4 8.96933 2.53730   2
   2  -4  -4 9.30625 3.72394   3
   2   4   4 5.50151 1.96324   1
  -2  -4   4 9.32334 2.26008   1
  -2   4  -4 7.95583 2.38934   4
   3  -4   4 14.6149 3.03220   1
   3   4  -4 8.90308 2.57352   4
  -3   4   4 11.0214 2.66797   1
  -3  -4  -4 11.4069 4.35902   3
   3  -4   4 10.4265 2.99901   2
   3   4   4 15.1700 2.77213   1
  -3   4  -4 14.8291 3.09478   4
   3  -4  -4 18.2368 4.15994   3
  -3  -4   4 9.11214 2.37497   1
   4   4  -4 370.404 12.5926   4
   4  -4   4 393.964 12.5914   2
  -4  -4  -4 346.586 14.5257   3
   4  -4   4 343.911 12.0427   1
  -4   4   4 372.591 11.4958   1
  -4  -4   4 354.273 11.0981   1
   4  -4  -4 353.037 13.2256   3
   4   4   4 347.133 11.3931   1
   5   4  -4 402.230 14.4353   4
  -5   4   4 440.497 13.5312   1
   5  -4   4 448.852 14.6275   2
  -5  -4  -4 435.127 16.1259   3
   5  -4   4 437.870 14.3558   1
   5   4   4 424.938 13.5293   1
   5   4   4 445.084 13.8767   2
  -5  -4   4 422.280 12.9951   1
   6  -4   4 295.639 12.2590   1
  -6   4   4 311.928 11.7230   1
   6  -4   4 316.421 12.7701   2
   6   4   4 282.999 11.3686   1
  -6  -4   4 277.134 11.0071   1
   6   4   4 311.567 12.0908   2
   7  -4   4 61.0721 7.23385   2
  -7   4   4 59.6471 6.69670   1
   7  -4   4 63.6726 7.13628   1
  -7  -4   4 63.7068 6.39012   1
   7   4   4 54.2760 6.52429   2
   7   4   4 53.4713 6.45508   1
   0  -5   4 0.55432 1.92541   1
   0   5  -4 -1.3538 1.74150   4
   0   5   4 0.52972 1.68431   1
   0  -5  -4 3.43719 4.00409   3
   1  -5   4 1746.10 35.9863   2
   1  -5   4 1697.35 35.2562   1
  -1  -5  -4 1708.50 44.6082   3
   1   5  -4 1738.39 38.9746   4
  -1   5   4 1692.78 34.7406   1
  -1   5  -4 1750.00 39.2154   4
  -1  -5   4 1762.71 34.9635   1
   1   5   4 1741.34 34.7418   1
   1  -5  -4 1714.66 43.0178   3
  -2  -5  -4 389.181 17.7466   3
   2   5  -4 389.196 12.6199   4
   2  -5   4 385.793 11.9269   1
  -2   5   4 389.485 11.3070   1
   2  -5   4 406.757 12.2153   2
  -2  -5   4 388.870 11.2895   1
   2   5   4 379.427 11.1626   1
  -2   5  -4 409.610 13.2769   4
   2  -5  -4 401.551 15.6971   3
   3  -5   4 3557.42 67.1311   2
   3  -5   4 3425.68 66.5026   1
  -3  -5  -4 3414.30 77.3529   3
   3   5  -4 3361.51 72.7966   4
  -3   5   4 3329.08 65.4509   1
  -3  -5   4 3438.29 65.2996   1
  -3   5  -4 3539.59 73.9115   4
   3  -5  -4 3454.13 73.4524   3
   3   5   4 3335.54 65.2600   1
   4  -5   4 195.963 9.30403   1
  -4   5   4 203.403 8.63032   1
   4   5  -4 188.298 9.10418   4
   4  -5   4 200.274 9.49366   2
  -4  -5  -4 208.746 12.1009   3
   4   5   4 209.989 8.67080   1
   4  -5  -4 209.297 10.2710   3
  -4  -5   4 178.245 8.05729   1
  -5  -5  -4 595.602 20.5122   3
  -5   5   4 585.287 16.8906   1
   5  -5   4 583.937 17.8856   2
   5  -5   4 540.405 17.3017   1
  -5  -5   4 567.850 16.3650   1
   5   5   4 597.489 17.1111   2
   5   5   4 562.746 16.6562   1
  -6   5   4 62.7993 6.38201   1
   6  -5   4 74.3935 7.35768   2
   6  -5   4 57.3168 6.52071   1
  -6  -5   4 55.0204 5.88842   1
   6   5   4 66.6319 6.68103   1
   6   5   4 70.3044 6.68901   2
  -7   5   4 1329.05 32.7967   1
   7  -5   4 1407.55 34.3220   2
   7  -5   4 1348.36 33.7731   1
  -7  -5   4 1305.44 32.1620   1
   7   5   4 1381.52 33.3548   2
   7   5   4 1312.46 32.6750   1
   0   6  -4 3247.13 68.1449   4
   0  -6  -4 3032.01 73.2365   3
   0  -6   4 3200.32 61.9360   2
   0  -6   4 3118.81 61.0698   1
   0   6   4 3214.95 60.6332   1
  -1   6   4 10.7090 2.76458   1
   1   6  -4 5.02820 2.68312   4
   1  -6   4 10.4091 2.99032   2
   1  -6   4 9.34304 2.86676   1
  -1  -6  -4 22.7117 7.01385   3
  -1   6  -4 4.88536 2.79330   4
   1   6   4 8.26565 2.66257   1
   1  -6  -4 3.21036 4.16731   3
  -1  -6   4 11.2873 2.77923   1
   2   6  -4 68.1276 5.66606   4
   2  -6   4 79.6425 5.79967   1
  -2  -6  -4 59.2674 9.39490   3
  -2   6   4 59.7151 5.01671   1
  -2  -6   4 56.3276 4.73537   1
   2   6   4 53.3557 4.70028   1
   2  -6  -4 67.1320 8.02816   3
   3  -6   4 254.486 10.3594   2
   3  -6   4 248.782 10.0510   1
  -3   6   4 229.992 9.30895   1
  -3  -6  -4 259.060 15.6536   3
   3  -6  -4 243.093 12.3018   3
   3   6   4 241.449 9.41406   1
  -3  -6   4 223.615 9.09716   1
   4  -6   4 6.20119 3.23540   1
   4  -6   4 1.13587 3.05222   2
  -4  -6  -4 6.57628 5.23844   3
  -4   6   4 1.41340 2.56542   1
   4  -6  -4 6.40816 3.69656   3
  -4  -6   4 -0.1451 2.39020   1
   4   6   4 1.88046 2.71714   1
  -5   6   4 6.90634 3.23322   1
   5  -6   4 8.08936 3.68692   2
   5  -6   4 4.75973 3.47306   1
  -5  -6  -4 16.5717 5.27979   3
  -5  -6   4 9.16039 3.36719   1
   5   6   4 12.2063 3.73699   2
   5   6   4 7.13991 3.30384   1
   6  -6   4 1005.11 26.8805   2
  -6   6   4 939.809 25.3383   1
   6  -6   4 986.418 26.6184   1
  -6  -6   4 974.129 25.2257   1
   6   6   4 974.849 25.7299   2
   6   6   4 951.833 25.4562   1
   0  -7   4 5.17589 2.63827   1
   0   7   4 2.28004 2.38184   1
   0  -7  -4 0.14509 5.23650   3
   0  -7   4 7.73103 3.10842   2
   1  -7   4 561.096 16.0962   1
   1  -7   4 559.591 16.3171   2
  -1  -7  -4 502.120 24.3186   3
  -1   7   4 571.294 15.6817   1
  -1  -7   4 558.000 15.6860   1
   1  -7  -4 530.314 21.9067   3
   1   7   4 541.686 15.3949   1
  -1  -7   4 586.386 17.1480   2
  -2  -7  -4 584.215 26.8760   3
   2  -7   4 616.044 17.4332   1
  -2   7   4 607.782 17.0286   1
   2  -7   4 608.138 17.5987   2
   2   7   4 612.851 16.7605   1
  -2  -7   4 614.797 16.9414   1
   2  -7  -4 606.805 21.9555   3
   3  -7   4 449.635 14.9514   2
  -3   7   4 431.276 14.0599   1
   3  -7   4 415.214 14.4526   1
  -3  -7  -4 460.452 22.8623   3
  -3  -7   4 430.628 13.7959   1
   3   7   4 429.800 13.9530   1
   3  -7  -4 473.800 17.8576   3
  -4   7   4 318.375 12.1340   1
   4  -7   4 304.375 12.4555   1
   4  -7   4 311.869 12.8053   2
  -4  -7  -4 312.160 18.0605   3
   4   7   4 318.158 11.9553   1
  -4  -7   4 313.488 11.8940   1
  -5   7   4 1581.76 36.3658   1
   5  -7   4 1555.99 37.2879   1
  -5  -7  -4 1587.11 44.0352   3
   5  -7   4 1661.94 37.9080   2
   5   7   4 1580.26 37.9099   2
  -5  -7   4 1526.10 35.9598   1
   5   7   4 1545.58 36.2537   1
   0  -8   4 388.084 13.3795   2
   0  -8   4 373.054 13.0984   1
   0  -8  -4 374.372 20.9468   3
   0   8   4 372.316 12.7806   1
   1  -8   4 182.124 9.21180   2
  -1  -8  -4 156.574 15.9785   3
   1  -8   4 174.042 8.91039   1
  -1   8   4 172.755 8.53475   1
  -1  -8   4 177.845 8.74370   1
   1   8   4 166.751 8.51230   1
  -1  -8   4 181.378 9.12238   2
   1  -8  -4 178.616 13.9940   3
   2  -8   4 1762.69 39.1283   1
  -2   8   4 1772.06 38.6370   1
  -2  -8  -4 1592.10 53.7222   3
   2  -8   4 1859.03 39.8456   2
  -2  -8   4 1771.31 38.7432   1
   2  -8  -4 1801.56 46.7156   3
   2   8   4 1730.63 38.2372   1
   3  -8   4 9.88117 3.83461   1
  -3   8   4 5.86934 3.35669   1
   3  -8   4 3.86622 3.36922   2
  -3  -8  -4 -7.4289 6.32745   3
  -3  -8   4 4.05739 3.26038   1
   3   8   4 6.89819 3.36042   1
   3  -8  -4 9.28707 4.83249   3
  -4   8   4 1053.78 27.1554   1
  -4  -8  -4 1025.26 36.3134   3
   4  -8   4 1041.13 27.5230   1
   4  -8   4 1076.74 28.0753   2
  -4  -8   4 1042.35 26.6820   1
   4   8   4 1073.08 26.8364   1
   0  -9   4 0.30205 3.08598   2
   0   9   4 0.66052 3.00984   1
   0  -9   4 -0.0244 2.93494   1
   0  -9  -4 1.17118 6.87356   3
  -1  -9  -4 133.759 16.6702   3
   1  -9   4 140.605 8.63659   1
  -1   9   4 155.949 8.54782   1
   1  -9   4 140.037 8.82372   2
  -1  -9   4 146.995 8.65267   1
   1   9   4 130.634 8.15510   1
   1  -9  -4 155.203 14.1029   3
   0   0  -5 -1.2554 2.54769   3
   1   0   5 0.27079 1.18967   1
   1   0  -5 -0.7871 2.69857   3
  -1   0  -5 1.82240 1.16836   4
  -1   0  -5 1.18833 2.83021   3
   2   0   5 2.75575 1.70518   1
   2   0  -5 24.8796 4.79492   3
  -2   0  -5 -1.0763 2.72695   3
  -2   0   5 2.83886 1.28948   1
  -3   0   5 7.83600 2.04758   1
   3   0   5 0.57605 1.96212   1
   3   0  -5 0.07779 3.01450   3
  -3   0  -5 -0.0316 2.90566   3
   4   0  -5 9.62967 3.85821   3
   4   0   5 2.26427 2.48264   1
  -4   0   5 1.13066 2.02205   1
   4   0  -5 4.96065 2.24487   4
  -4   0  -5 1.55179 3.02720   3
   5   0  -5 3.88038 2.74966   4
  -5   0   5 2.35889 2.52937   1
   5   0   5 0.92076 2.58817   1
   5   0  -5 -0.1608 3.24628   3
   6   0  -5 0.60004 2.72142   4
   6   0   5 1.76310 3.10750   1
  -6   0   5 2.43691 2.79623   1
   7   0   5 5.59907 3.33190   1
  -7   0   5 -0.0939 2.83474   1
   7   0  -5 2.18852 3.06609   4
   0   1  -5 0.00172 0.81076   4
   0  -1  -5 -1.3513 2.59772   3
   0  -1   5 0.25907 1.02286   1
   0   1  -5 0.76938 2.99381   3
   1   1  -5 1212.19 31.8222   3
  -1  -1  -5 1229.81 31.7026   3
   1  -1   5 1254.22 24.1761   1
   1   1  -5 1261.31 25.6386   4
  -1  -1  -5 1277.69 26.1040   4
  -1  -1   5 1265.60 23.0264   1
  -1   1  -5 1246.21 31.6239   3
   1  -1  -5 1265.26 31.9552   3
  -1   1  -5 1211.79 26.3582   4
   1   1   5 1248.40 23.5710   1
  -2  -1  -5 267.279 11.9167   3
   2  -1   5 270.820 7.99045   1
   2   1  -5 261.113 7.61903   4
  -2  -1  -5 287.422 8.50720   4
   2   1  -5 275.900 12.2624   3
  -2   1   5 283.015 6.94168   1
   2   1   5 278.865 7.63693   1
  -2   1  -5 278.678 11.9868   3
   2  -1  -5 274.701 11.9139   3
  -2  -1   5 275.570 6.81466   1
  -3  -1  -5 3477.54 73.9809   3
   3   1  -5 3465.01 74.7810   3
   3   1  -5 3407.77 71.0806   4
   3  -1   5 3506.75 65.3150   1
  -3   1   5 3468.50 63.9400   1
  -3  -1  -5 3534.57 72.2410   4
  -3   1  -5 3424.26 73.4666   3
   3  -1  -5 3406.14 73.8702   3
  -3  -1   5 3572.65 63.7509   1
   3   1   5 3469.17 64.7869   1
  -4  -1  -5 31.6160 5.17239   3
   4   1  -5 31.8792 5.46009   3
  -4   1   5 26.4283 3.44700   1
   4   1  -5 29.1493 3.67430   4
   4  -1   5 28.2498 3.98589   1
   4  -1  -5 34.0594 5.17374   3
   4   1   5 31.6881 3.89308   1
  -4   1  -5 32.8605 5.17011   3
  -4  -1   5 29.8499 3.52889   1
   5   1  -5 2244.64 51.0450   4
  -5   1   5 2348.25 46.2081   1
  -5  -1  -5 2294.88 51.6559   3
   5  -1   5 2281.16 47.3170   1
   5  -1  -5 2329.17 52.0509   3
  -5  -1   5 2314.67 45.8930   1
   5   1   5 2284.28 46.9514   1
   6  -1   5 298.241 11.8028   1
   6   1  -5 289.303 12.0907   4
  -6   1   5 298.140 10.9502   1
   6  -1  -5 285.762 12.0231   4
  -6  -1   5 286.755 10.8725   1
   6   1   5 276.234 11.3419   1
   7  -1   5 487.199 16.7139   1
   7   1  -5 486.636 18.0200   4
  -7   1   5 495.902 15.9427   1
  -7  -1   5 512.243 15.9437   1
   7  -1  -5 485.601 17.8211   4
   7   1   5 498.094 16.6329   1
   0  -2  -5 136.182 8.84200   3
   0   2  -5 135.269 4.78491   4
   0  -2  -5 135.068 4.43178   4
   0  -2   5 145.468 4.57522   1
   0   2   5 141.666 4.11811   1
   0   2  -5 134.017 8.91316   3
  -1  -2  -5 213.732 6.43776   4
  -1   2   5 217.538 5.57861   1
   1   2  -5 209.933 6.38122   4
   1   2  -5 216.984 11.0944   3
   1  -2   5 205.906 6.44129   1
  -1  -2  -5 215.220 10.8418   3
   1   2   5 201.695 5.80512   1
  -1  -2   5 213.528 5.80210   1
   1  -2  -5 201.732 5.98387   4
  -1   2  -5 205.384 6.80095   4
   1  -2  -5 209.355 10.6540   3
  -1   2  -5 224.388 10.9689   3
  -2  -2  -5 1077.30 28.9576   3
   2  -2   5 1045.86 22.5061   1
  -2  -2  -5 1083.15 24.2430   4
  -2   2   5 1071.24 21.2145   1
   2   2  -5 1052.81 29.0608   3
   2   2  -5 1046.01 23.6819   4
   2  -2  -5 1086.18 28.6568   3
   2   2   5 1059.13 21.7554   1
  -2   2  -5 1059.99 28.3563   3
  -2  -2   5 1055.81 21.1829   1
  -2   2  -5 1043.49 24.5315   4
   3   2  -5 99.9331 5.23238   4
  -3  -2  -5 103.715 5.81641   4
  -3   2   5 101.363 4.87096   1
   3  -2   5 90.1479 5.46511   1
  -3  -2  -5 101.588 8.02156   3
   3  -2   5 95.6812 5.55823   1
   3  -2  -5 94.2391 7.51328   3
   3   2   5 98.3698 5.18286   1
  -3  -2   5 96.9286 4.68484   1
  -3   2  -5 106.351 8.02223   3
  -4   2   5 2056.27 41.5694   1
   4  -2   5 2073.33 42.8966   1
  -4  -2  -5 2163.76 48.8750   3
   4   2  -5 2063.57 46.0388   4
   4  -2   5 2102.54 42.9577   1
  -4   2  -5 2150.09 48.2094   3
   4  -2  -5 2121.76 48.0209   3
  -4  -2   5 2108.55 41.2990   1
   4   2   5 2073.63 42.2089   1
  -5  -2  -5 267.996 11.9733   3
   5  -2   5 248.275 10.4506   1
  -5   2   5 254.958 9.55990   1
   5  -2   5 242.192 10.3523   1
   5   2  -5 231.298 10.1513   4
   5   2   5 255.784 9.88379   1
  -5  -2   5 264.007 9.42690   1
   5  -2  -5 257.591 11.4996   3
  -6   2   5 424.890 13.6523   1
   6  -2   5 407.699 14.4242   1
   6  -2   5 390.475 14.2620   1
   6   2  -5 414.306 14.9710   4
   6   2   5 407.464 13.9145   1
  -6  -2   5 418.291 13.4619   1
   7  -2   5 79.1207 7.45610   1
   7  -2   5 69.2531 7.24381   1
  -7   2   5 81.4388 6.83953   1
  -7  -2   5 76.3136 6.74327   1
   7   2   5 82.1078 7.23259   1
   0   3  -5 0.45944 1.49604   4
   0  -3  -5 2.35831 3.54996   3
   0   3   5 1.06842 1.41491   1
   0  -3   5 2.16288 1.65054   1
   0  -3  -5 1.05215 1.43187   4
  -1  -3  -5 737.901 23.0200   3
  -1   3   5 753.976 15.7419   1
   1  -3   5 733.047 16.6411   1
  -1  -3  -5 756.060 17.7779   4
   1   3  -5 748.804 17.8745   4
  -1   3  -5 742.281 18.3146   4
   1  -3  -5 729.022 17.4651   4
   1   3   5 740.651 15.9013   1
   1  -3  -5 732.800 22.6581   3
  -1  -3   5 751.395 16.1175   1
   2   3  -5 20.2370 2.79172   4
  -2  -3  -5 22.3319 5.21918   3
  -2  -3  -5 25.8556 3.11638   4
   2  -3   5 22.3176 3.10146   1
  -2   3   5 25.3385 2.82740   1
   2  -3  -5 29.4341 5.26363   3
   2  -3  -5 23.0814 2.83632   4
   2   3   5 23.6412 2.82433   1
  -2  -3   5 21.5749 2.59061   1
  -2   3  -5 20.7723 3.08203   4
  -3   3   5 368.964 10.6170   1
   3   3  -5 368.985 11.6532   4
  -3  -3  -5 394.986 15.6043   3
   3  -3   5 373.620 11.5890   1
  -3  -3   5 392.753 10.6181   1
   3  -3  -5 395.321 12.0137   4
   3   3   5 392.169 11.1867   1
   3  -3  -5 369.550 14.4558   3
  -4   3   5 0.02206 2.30090   1
  -4  -3  -5 -0.4079 3.34699   3
   4   3  -5 3.53664 2.49272   4
   4  -3   5 -0.0192 2.57022   1
   4  -3  -5 3.80414 3.36195   3
   4   3   5 3.82447 2.44510   1
  -4  -3   5 3.79728 2.32955   1
   5  -3   5 324.768 12.2683   1
  -5   3   5 331.519 11.4082   1
  -5  -3  -5 359.325 14.2308   3
   5   3  -5 327.294 12.1983   4
   5   3   5 343.233 11.9204   1
  -5  -3   5 320.086 11.0840   1
   6   3  -5 0.72183 2.63532   4
   6  -3   5 -0.0062 3.23979   1
  -6   3   5 -1.6833 2.67636   1
  -6  -3   5 -1.1758 2.61282   1
   6   3   5 -2.3726 2.43021   1
   0  -4   5 902.158 19.8830   1
   0  -4  -5 882.661 27.1446   3
   0  -4  -5 928.305 21.6325   4
   0   4  -5 913.729 22.1439   4
   0   4   5 913.107 19.3849   1
   1   4  -5 90.6567 5.20393   4
   1  -4   5 80.8100 4.83337   1
  -1  -4  -5 73.6464 8.27923   3
  -1  -4  -5 87.5479 5.07650   4
  -1   4   5 85.0696 4.52972   1
   1  -4  -5 73.1325 8.08435   3
   1  -4  -5 90.7034 4.96319   4
  -1  -4   5 82.7957 4.53344   1
   1   4   5 84.0589 4.53427   1
  -1   4  -5 92.3788 5.46393   4
  -2   4   5 2068.79 39.7093   1
  -2  -4  -5 2031.99 50.0899   3
   2  -4   5 2009.45 40.7640   1
   2   4  -5 2066.79 44.5628   4
  -2  -4   5 2040.90 39.7810   1
   2   4   5 1989.51 39.7976   1
   2  -4  -5 1981.48 43.9961   4
   2  -4  -5 2018.48 48.3279   3
  -2   4  -5 2053.13 45.1962   4
  -3   4   5 33.4652 3.96594   1
  -3  -4  -5 33.9204 6.49286   3
   3   4  -5 38.7837 4.32331   4
   3  -4   5 35.6292 4.41756   1
   3  -4  -5 40.9884 6.18293   3
   3   4   5 30.2268 3.66320   1
  -3  -4   5 41.5350 4.08966   1
  -4   4   5 2717.59 52.8375   1
  -4  -4  -5 2595.59 61.2557   3
   4   4  -5 2669.02 58.6316   4
   4  -4   5 2611.38 54.0722   1
   4   4   5 2693.90 53.1600   1
  -4  -4   5 2663.49 52.5641   1
   4  -4  -5 2784.95 59.9231   3
   5  -4   5 152.111 8.60058   1
  -5  -4  -5 170.319 10.3833   3
   5   4  -5 136.576 8.20581   4
   5   4   5 134.815 7.72985   1
  -5  -4   5 144.560 7.57947   1
   6  -4   5 991.342 26.0200   1
  -6   4   5 1000.03 24.9760   1
  -6  -4   5 952.084 24.4512   1
   6   4   5 985.084 25.2435   1
   0   5   5 1.63066 1.93655   1
   0  -5  -5 0.98400 4.36503   3
   0   5  -5 -0.8750 1.93095   4
   0  -5   5 1.03718 1.92300   1
   1  -5   5 34.7898 3.88897   1
  -1  -5  -5 26.0311 6.70642   3
   1   5  -5 32.8258 4.05122   4
  -1   5   5 33.8873 3.63330   1
   1  -5  -5 34.1891 6.74887   3
   1   5   5 22.8100 3.19901   1
  -1  -5   5 25.8961 3.36594   1
  -1   5  -5 27.1934 3.92456   4
   2  -5   5 292.657 10.2337   1
   2   5  -5 290.296 10.8285   4
  -2  -5  -5 307.208 16.3368   3
  -2   5   5 292.444 9.77563   1
  -2  -5   5 297.327 9.77756   1
   2  -5  -5 308.609 14.4758   3
   2   5   5 310.030 9.85648   1
  -2   5  -5 308.143 11.5975   4
   3   5  -5 376.525 13.0852   4
   3  -5   5 396.423 12.7438   1
  -3  -5  -5 373.085 17.7837   3
  -3   5   5 365.997 11.5833   1
  -3   5  -5 389.940 13.8735   4
   3   5   5 354.818 11.6261   1
  -3  -5   5 381.411 11.7800   1
   3  -5  -5 379.911 15.7638   3
  -4  -5  -5 20.1562 5.64604   3
  -4   5   5 13.2521 3.50813   1
   4  -5   5 14.6447 3.77768   1
   4   5  -5 9.27981 3.32663   4
   4   5   5 7.77306 3.11727   1
  -4  -5   5 15.0224 3.41465   1
   4  -5  -5 12.6932 4.47560   3
  -5   5   5 188.638 9.17834   1
  -5  -5  -5 204.713 12.2010   3
   5  -5   5 199.860 10.1400   1
  -5  -5   5 180.140 8.71874   1
   5   5   5 195.024 9.25112   1
   0  -6  -5 1690.14 47.0199   3
   0   6  -5 1816.92 40.8716   4
   0  -6   5 1702.76 36.1480   1
   0   6   5 1690.61 35.5668   1
  -1   6   5 27.2053 3.70258   1
   1   6  -5 22.0337 3.97313   4
   1  -6   5 27.5371 4.00924   1
  -1  -6  -5 30.2801 7.67967   3
   1   6   5 27.0076 3.68248   1
  -1   6  -5 28.5030 4.46169   4
   1  -6  -5 21.1376 6.25972   3
  -1  -6   5 16.4977 3.39100   1
   2   6  -5 1101.98 28.1750   4
   2  -6   5 1055.16 25.6376   1
  -2  -6  -5 1128.97 36.3451   3
  -2   6   5 1103.30 25.0185   1
   2  -6  -5 1052.20 31.9048   3
  -2   6  -5 1154.20 29.2430   4
  -2  -6   5 1072.71 24.9825   1
   2   6   5 1055.57 24.8242   1
  -3   6   5 28.0407 3.99255   1
   3   6  -5 23.9036 4.25621   4
   3  -6   5 29.9952 4.30038   1
  -3  -6  -5 25.9963 7.46556   3
   3   6   5 28.5329 4.07883   1
   3  -6  -5 30.8225 6.00027   3
  -3  -6   5 21.9024 3.76791   1
  -4   6   5 661.755 17.9935   1
  -4  -6  -5 639.624 24.7818   3
   4  -6   5 611.077 18.4981   1
   4   6   5 587.104 17.4815   1
   4  -6  -5 659.718 21.8909   3
  -4  -6   5 618.483 17.5242   1
  -5  -6  -5 6.63374 4.97060   3
   5  -6   5 0.14112 3.43920   1
  -5   6   5 -0.0040 2.89972   1
  -5  -6   5 2.50254 3.04603   1
   5   6   5 2.71076 2.94058   1
   0   7   5 -1.7980 2.34398   1
   0  -7  -5 -3.1556 4.96231   3
   0  -7   5 0.46245 2.47827   1
   1  -7   5 439.387 13.8888   1
  -1  -7  -5 457.155 23.0718   3
  -1   7   5 429.049 13.3270   1
  -1  -7   5 415.555 13.5015   1
   1  -7  -5 439.525 20.5115   3
   1   7   5 435.645 13.3878   1
  -2   7   5 47.5375 5.08329   1
  -2  -7  -5 48.0000 10.2748   3
   2  -7   5 41.7054 5.26917   1
   2   7   5 45.8443 4.97007   1
  -2  -7   5 48.0916 5.17009   1
   2  -7  -5 50.0016 8.14908   3
  -3   7   5 1016.16 25.3367   1
   3  -7   5 1043.79 26.3245   1
  -3  -7  -5 1041.10 36.8658   3
   3  -7  -5 1082.29 31.5141   3
   3   7   5 1033.21 25.3242   1
  -3  -7   5 1038.57 25.5648   1
   0  -8   5 652.462 18.5087   1
   0  -8  -5 622.825 27.5623   3
   0   8   5 638.273 18.1138   1
  -1  -8  -5 107.506 13.8777   3
   1  -8   5 102.741 7.24534   1
  -1   8   5 96.0577 6.77371   1
   1   8   5 114.661 7.01499   1
   1  -8  -5 88.3503 11.0465   3
  -1  -8   5 114.700 7.35806   1
   0   0  -6 2345.58 54.7353   3
   1   0   6 887.104 17.8993   1
   1   0  -6 856.283 26.2286   3
  -1   0  -6 872.934 26.1226   3
   2   0  -6 2703.03 61.9529   3
  -2   0  -6 2705.17 61.8111   3
   2   0  -6 2697.99 54.7924   4
   2   0   6 2754.08 50.9751   1
   3   0  -6 87.7993 4.81340   4
  -3   0   6 86.2176 4.47978   1
  -3   0  -6 98.6561 8.41609   3
   3   0   6 81.8653 5.31992   1
   3   0  -6 64.3359 7.89715   3
  -4   0  -6 668.785 21.4744   3
   4   0  -6 605.491 21.6191   3
  -4   0   6 683.506 15.9890   1
   4   0   6 680.949 17.4621   1
   4   0  -6 615.436 17.4193   4
   5   0   6 314.157 11.7643   1
   5   0  -6 300.910 11.6158   4
   5   0  -6 336.859 15.0855   3
  -5   0   6 319.370 10.8196   1
   6   0   6 806.653 22.3351   1
  -6   0   6 819.893 21.1311   1
   6   0  -6 801.157 23.1769   4
   0  -1  -6 -0.4505 3.29606   3
   0   1  -6 0.32292 3.41699   3
   0   1  -6 2.46750 1.08554   4
  -1  -1  -6 804.134 25.0256   3
  -1  -1  -6 849.263 18.5900   4
   1   1  -6 827.336 25.8787   3
   1  -1   6 833.645 17.1421   1
   1   1  -6 837.722 17.7672   4
   1   1   6 840.369 16.7562   1
   1  -1  -6 813.890 25.3227   3
  -1   1  -6 848.326 25.5933   3
   2   1  -6 2.66159 1.45091   4
  -2  -1  -6 4.97725 2.00953   4
   2  -1   6 3.25283 2.11380   1
   2  -1   6 1.35773 2.07330   1
  -2  -1  -6 2.33527 3.58180   3
   2   1  -6 2.58955 4.08240   3
   2   1   6 1.59390 1.81797   1
  -2  -1   6 1.32774 1.51303   1
   2  -1  -6 -0.9752 3.52393   3
  -2   1  -6 -0.2221 3.43403   3
   3   1  -6 64.4025 4.17598   4
  -3   1   6 66.0678 4.13587   1
   3   1  -6 54.9859 7.36992   3
   3  -1   6 70.1054 5.04342   1
  -3  -1  -6 72.4014 7.83248   3
  -3   1  -6 63.4904 7.54716   3
   3   1   6 62.7454 4.71866   1
   3  -1  -6 65.1937 7.69573   3
  -3  -1   6 67.9473 4.09157   1
   4  -1   6 172.295 8.05755   1
   4   1  -6 170.159 7.58705   4
  -4  -1  -6 171.264 10.5440   3
  -4   1   6 171.537 7.12433   1
  -4   1  -6 181.467 10.9126   3
  -4  -1   6 175.621 7.13092   1
   4  -1  -6 165.327 10.7254   3
   4   1   6 176.397 7.95984   1
   5   1  -6 360.849 12.7011   4
   5  -1   6 365.194 12.8321   1
  -5   1   6 369.973 11.7923   1
   5  -1  -6 340.563 15.0782   3
   5   1   6 343.713 12.4460   1
   5  -1  -6 359.000 12.7982   4
  -5  -1   6 345.891 11.5854   1
  -6   1   6 160.958 8.34587   1
   6   1  -6 168.885 9.11885   4
   6  -1   6 165.251 9.33458   1
   6   1   6 151.534 8.88145   1
  -6  -1   6 166.995 8.51610   1
   6  -1  -6 142.757 8.99646   4
   0  -2  -6 3160.87 62.6067   4
   0   2  -6 3070.74 63.2871   4
   0  -2   6 3157.24 56.8657   1
   0   2  -6 3137.86 70.4084   3
   0  -2  -6 3101.06 70.3364   3
   1  -2   6 68.4722 3.93321   1
  -1  -2  -6 70.1806 8.09725   3
  -1  -2  -6 69.5439 3.82165   4
   1   2  -6 67.3844 8.11792   3
   1   2  -6 61.9787 3.51637   4
   1   2   6 67.6606 3.64597   1
   1  -2  -6 69.9585 8.24596   3
  -1   2  -6 65.1971 4.04648   4
  -1   2  -6 67.4716 8.35386   3
  -1  -2   6 69.1689 3.36486   1
   1  -2  -6 65.2488 3.23862   4
  -2  -2  -6 528.442 19.3732   3
   2  -2   6 527.226 13.1638   1
  -2  -2  -6 531.469 14.0485   4
  -2   2   6 503.277 11.5580   1
   2   2  -6 495.802 13.2324   4
   2   2  -6 493.230 19.4889   3
   2  -2  -6 535.237 19.1044   3
   2   2   6 524.634 12.7009   1
   2  -2  -6 513.669 13.0387   4
  -2  -2   6 526.018 12.0020   1
  -2   2  -6 504.140 19.0894   3
   3  -2   6 98.1791 5.83512   1
   3   2  -6 94.6547 5.29067   4
  -3  -2  -6 101.880 9.00308   3
  -3   2   6 89.4972 4.65587   1
   3  -2  -6 96.5405 8.58314   3
  -3   2  -6 89.0318 8.55404   3
  -3  -2   6 94.7340 4.89732   1
   3   2   6 92.3221 5.48037   1
   4   2  -6 453.100 14.0589   4
   4  -2   6 451.982 14.1345   1
  -4   2   6 480.930 13.0054   1
  -4  -2  -6 476.987 18.2550   3
  -4  -2   6 509.012 13.3698   1
   4  -2  -6 494.884 18.1572   3
  -4   2  -6 483.430 17.9918   3
   4   2   6 461.735 13.7724   1
  -5  -2  -6 17.1021 5.06528   3
   5   2  -6 13.2902 3.38972   4
  -5   2   6 25.8324 3.99825   1
   5  -2   6 19.4459 4.14788   1
   5  -2   6 20.0410 4.26683   1
   5   2   6 23.7595 4.27869   1
  -5  -2   6 16.5833 3.76317   1
   0   3   6 5.24829 1.84078   1
   0  -3  -6 0.80816 1.58158   4
   0   3  -6 -0.5319 1.66410   4
   0  -3   6 0.48605 1.76231   1
   0  -3  -6 -0.2570 3.72397   3
   1   3  -6 1721.92 38.2679   4
  -1  -3  -6 1847.97 38.3935   4
  -1   3   6 1810.50 33.9103   1
   1  -3   6 1802.40 35.0714   1
  -1  -3  -6 1753.19 45.4869   3
   1  -3  -6 1729.07 44.7347   3
  -1   3  -6 1690.22 38.7221   4
   1  -3  -6 1765.95 37.7517   4
   1   3   6 1837.27 34.5662   1
  -1  -3   6 1846.96 34.5562   1
   2   3  -6 860.655 21.3265   4
  -2  -3  -6 840.739 27.5781   3
  -2  -3  -6 901.103 21.9228   4
   2  -3   6 920.797 20.4649   1
  -2   3   6 864.129 18.7188   1
  -2  -3   6 926.849 19.3322   1
   2   3   6 898.640 19.7491   1
   2  -3  -6 892.081 21.1181   4
   2  -3  -6 866.624 27.2813   3
   3   3  -6 1151.23 27.9309   4
  -3  -3  -6 1193.26 33.8852   3
   3  -3   6 1145.39 26.5243   1
  -3   3   6 1180.96 24.9752   1
   3  -3  -6 1187.35 28.0463   4
   3  -3  -6 1208.35 33.1835   3
   3   3   6 1205.30 26.0678   1
  -3  -3   6 1216.78 25.2722   1
   4   3  -6 180.398 8.37759   4
  -4  -3  -6 162.987 11.1506   3
   4  -3   6 174.961 8.54363   1
  -4   3   6 185.628 7.71283   1
   4   3   6 187.011 8.34521   1
  -4  -3   6 198.297 7.97389   1
   4  -3  -6 183.524 11.2038   3
  -5  -3  -6 131.840 10.1068   3
  -5   3   6 149.558 7.57858   1
   5  -3   6 143.989 8.45349   1
   5   3  -6 142.707 8.19621   4
   5   3   6 155.979 8.48665   1
  -5  -3   6 159.536 7.86803   1
   0  -4   6 362.081 10.3598   1
   0   4  -6 373.952 11.6796   4
   0  -4  -6 354.709 11.0455   4
   0  -4  -6 339.822 16.8070   3
   0   4   6 391.987 10.1942   1
  -1   4   6 16.8157 2.67037   1
   1   4  -6 14.4060 2.84383   4
  -1  -4  -6 5.39306 4.71683   3
   1  -4   6 15.9146 2.99499   1
  -1  -4   6 15.7746 2.81865   1
   1  -4  -6 16.0415 2.74190   4
  -1   4  -6 14.7388 2.89276   4
   1   4   6 16.4843 2.67892   1
   1  -4  -6 24.2962 6.11123   3
   2  -4   6 286.272 9.86060   1
  -2   4   6 302.850 8.98049   1
   2   4  -6 287.672 10.1355   4
  -2  -4  -6 270.659 15.1419   3
   2   4   6 295.895 9.50484   1
   2  -4  -6 262.238 14.1537   3
  -2   4  -6 287.622 10.8294   4
  -2  -4   6 307.569 9.31368   1
  -3  -4  -6 99.0400 9.72151   3
   3   4  -6 98.9198 6.19854   4
   3  -4   6 93.7742 6.43067   1
  -3   4   6 95.0072 5.48411   1
  -3  -4   6 106.911 5.86882   1
   3   4   6 105.439 6.19588   1
   3  -4  -6 97.5894 9.17706   3
  -4   4   6 348.753 11.4890   1
   4   4  -6 372.308 12.9906   4
   4  -4   6 347.043 12.7503   1
  -4  -4  -6 356.330 16.6652   3
  -4  -4   6 388.393 11.9654   1
   4   4   6 373.532 12.4635   1
   4  -4  -6 371.883 16.0547   3
   0   5  -6 0.47236 2.32038   4
   0  -5   6 1.08206 2.24119   1
   0   5   6 1.10325 2.11695   1
   0  -5  -6 1.07955 4.72475   3
  -1   5   6 1987.20 39.5353   1
   1  -5   6 1987.34 40.7306   1
   1   5  -6 2043.04 45.1866   4
  -1  -5  -6 2012.68 53.1692   3
  -1   5  -6 1971.74 45.4535   4
   1  -5  -6 2013.68 51.4807   3
   1   5   6 2022.39 40.0762   1
  -1  -5   6 1972.41 40.1911   1
   2   5  -6 36.3957 4.58928   4
  -2  -5  -6 40.4669 8.10593   3
  -2   5   6 30.7034 3.78822   1
   2  -5   6 29.6514 4.09101   1
   2   5   6 29.9460 3.84408   1
  -2  -5   6 34.1578 4.01166   1
   2  -5  -6 32.4705 7.05155   3
  -2   5  -6 31.3346 4.62972   4
   3   5  -6 453.729 14.8462   4
  -3   5   6 434.237 12.7923   1
  -3  -5  -6 429.819 20.2567   3
   3  -5   6 448.571 14.2696   1
   3  -5  -6 450.823 18.5400   3
   3   5   6 448.136 13.5774   1
  -3  -5   6 452.135 13.3133   1
  -4   5   6 182.541 8.38137   1
  -4  -5  -6 196.338 13.3136   3
   4   5  -6 187.813 9.53900   4
   4  -5   6 174.139 9.29265   1
   4  -5  -6 197.706 12.1114   3
  -4  -5   6 188.802 8.70852   1
   4   5   6 188.394 8.85095   1
   0  -6  -6 343.910 18.7009   3
   0   6   6 347.023 11.0691   1
   0  -6   6 333.539 11.4040   1
   0   6  -6 332.313 12.7442   4
  -1  -6  -6 465.939 22.3180   3
   1   6  -6 440.004 14.8710   4
  -1   6   6 419.585 12.6472   1
   1  -6   6 442.332 13.7017   1
  -1   6  -6 455.478 15.4869   4
   1   6   6 441.564 13.1239   1
   1  -6  -6 430.520 20.3451   3
  -1  -6   6 450.487 13.4874   1
  -2  -6  -6 562.856 25.2409   3
  -2   6   6 544.087 15.0725   1
   2  -6   6 536.672 15.9000   1
   2   6  -6 538.721 17.2775   4
   2   6   6 537.383 15.4167   1
  -2  -6   6 541.337 15.4901   1
  -2   6  -6 565.038 18.3473   4
   2  -6  -6 545.444 22.1322   3
   0   0  -7 4.15759 4.21352   3
  -1   0  -7 6.52465 4.46992   3
   1   0  -7 8.87326 4.92269   3
   2   0  -7 -0.0390 4.48874   3
  -2   0  -7 0.11185 4.17410   3
   3   0   7 0.27698 2.39498   1
   3   0  -7 -2.8752 4.42770   3
   3   0  -7 -0.1007 1.72648   4
  -3   0  -7 -1.0656 4.02509   3
   4   0  -7 6.24377 5.17759   3
  -4   0  -7 3.33178 4.13907   3
   4   0   7 -2.0955 2.57249   1
   4   0  -7 2.38794 2.20204   4
   0  -1  -7 8.85819 5.11427   3
   0   1  -7 6.16148 4.41378   3
   1   1  -7 714.438 25.0525   3
  -1  -1  -7 741.847 25.0690   3
   1  -1  -7 702.395 24.7233   3
  -1   1  -7 700.956 24.8935   3
  -2  -1  -7 157.266 11.4188   3
   2   1  -7 142.532 5.02500   4
   2   1  -7 147.605 11.7488   3
   2  -1  -7 146.681 4.95641   4
  -2   1  -7 143.254 11.2921   3
   2  -1  -7 137.239 11.0898   3
  -3  -1  -7 1914.54 48.9613   3
   3   1  -7 1906.54 41.1314   4
   3  -1   7 1937.87 39.0863   1
   3   1  -7 1925.75 49.9591   3
   3   1   7 1915.84 39.0515   1
  -3   1  -7 2004.32 49.4264   3
   3  -1  -7 1991.91 49.7699   3
   3  -1  -7 1909.93 41.2933   4
  -4  -1  -7 15.1121 5.34732   3
   4   1  -7 18.6969 3.30686   4
   4  -1   7 13.4889 3.59903   1
   4  -1   7 13.6136 3.59249   1
   4  -1  -7 20.1538 5.83838   3
   4  -1  -7 20.3641 3.33879   4
   4   1   7 12.7030 3.72199   1
  -4   1  -7 18.0830 5.63092   3
   0   2  -7 80.9088 9.67660   3
   0  -2  -7 88.2981 3.82891   4
   0  -2  -7 78.1135 9.22344   3
   0   2  -7 76.8310 4.22297   4
  -1  -2  -7 110.961 10.0505   3
  -1  -2  -7 108.871 4.96924   4
   1   2  -7 115.770 10.8507   3
   1   2  -7 100.466 4.52961   4
   1  -2  -7 103.692 4.00272   4
   1  -2  -7 95.1085 9.73725   3
  -1   2  -7 97.8047 9.94783   3
  -2  -2  -7 649.703 16.7748   4
  -2  -2  -7 640.887 23.3927   3
   2  -2   7 611.561 15.0485   1
   2   2  -7 604.567 15.2500   4
   2  -2  -7 615.636 14.7319   4
   2  -2  -7 600.762 22.8446   3
  -2   2  -7 599.744 22.7480   3
   3  -2   7 48.1689 4.70076   1
  -3  -2  -7 52.4319 7.94109   3
   3   2  -7 56.4828 4.29111   4
  -3   2  -7 48.6510 7.63933   3
   3  -2  -7 63.8301 8.64133   3
   3   2   7 54.4278 4.95092   1
   3  -2  -7 49.3870 4.31163   4
   0  -3  -7 -0.0139 4.39334   3
   0  -3  -7 2.25686 1.73944   4
   0   3  -7 0.19005 1.81423   4
   1  -3   7 419.962 11.1775   1
  -1  -3  -7 412.673 19.1838   3
  -1  -3  -7 432.119 12.0607   4
   1   3  -7 403.868 11.7675   4
   1  -3  -7 384.777 18.4695   3
  -1   3  -7 408.581 12.5193   4
   1  -3  -7 423.954 11.2348   4
   2  -3   7 11.7472 2.75450   1
   2   3  -7 12.8145 2.71933   4
  -2  -3  -7 15.3854 5.99774   3
   2   3   7 13.9301 3.02219   1
   2  -3  -7 11.1581 5.39909   3
   2  -3  -7 16.8976 2.63697   4
   3   3  -7 231.493 9.01493   4
  -3  -3  -7 224.613 14.3220   3
   3  -3   7 245.647 9.44681   1
   3  -3  -7 253.562 9.21804   4
   3   3   7 243.453 9.29414   1
  -3  -3   7 250.962 8.76722   1
   3  -3  -7 241.865 14.0877   3
   0   4  -7 623.121 17.5115   4
   0  -4  -7 606.950 24.3808   3
   0  -4  -7 641.896 17.5708   4
   0  -4   7 639.790 15.6153   1
   1  -4   7 53.0273 4.58777   1
  -1  -4  -7 40.9062 7.88719   3
   1   4  -7 44.4455 4.37838   4
   1   4   7 58.3480 4.57664   1
  -1   4  -7 50.9226 4.94822   4
   1  -4  -7 45.6321 8.18408   3
   1  -4  -7 48.2847 4.37147   4
  -1  -4   7 57.2416 4.63346   1
   0   0   0    0.00    0.00   0
;
_shelx_hkl_checksum              53018
loop_
_space_group_symop_operation_xyz
'x, y, z'
'-x, -y, z+1/2'
'-x, y+1/2, -z+1/2'
'x, -y+1/2, -z'
'-x, -y, -z'
'x, y, -z-1/2'
'x, -y-1/2, z-1/2'
'-x, y-1/2, z'
loop_
_atom_site_label
_atom_site_type_symbol
_atom_site_fract_x
_atom_site_fract_y
_atom_site_fract_z
_atom_site_U_iso_or_equiv
_atom_site_adp_type
_atom_site_occupancy
_atom_site_site_symmetry_order
_atom_site_calc_flag
_atom_site_refinement_flags_posn
_atom_site_refinement_flags_adp
_atom_site_refinement_flags_occupancy
_atom_site_disorder_assembly
_atom_site_disorder_group
U1 U 0.24736(2) 0.05509(2) 0.2500 0.00602(5) Uani 0.25 2 d S T P . .
Er1 Er 0.24736(2) 0.05509(2) 0.2500 0.00602(5) Uani 0.75 2 d S T P . .
Se1 Se 0.11830(4) 0.40622(3) 0.2500 0.00574(7) Uani 1 2 d S T P . .
Se2 Se 0.56885(4) 0.2500 0.0000 0.00794(7) Uani 1 2 d S T P . .
loop_
_atom_site_aniso_label
_atom_site_aniso_U_11
_atom_site_aniso_U_22
_atom_site_aniso_U_33
_atom_site_aniso_U_23
_atom_site_aniso_U_13
_atom_site_aniso_U_12
U1 0.00574(7) 0.00746(8) 0.00487(8) 0.000 0.000 0.00013(3)
Er1 0.00574(7) 0.00746(8) 0.00487(8) 0.000 0.000 0.00013(3)
Se1 0.00513(12) 0.00778(12) 0.00432(12) 0.000 0.000 0.00072(9)
Se2 0.00487(12) 0.00635(12) 0.01259(13) -0.00078(9) 0.000 0.000
loop_
_atom_type_symbol
_atom_type_description
_atom_type_scat_dispersion_real
_atom_type_scat_dispersion_imag
_atom_type_scat_source
Se Se -0.0929 2.2259 'International Tables Vol C Tables 4.2.6.8 and 6.1.1.4'
Er Er -0.2586 4.9576 'International Tables Vol C Tables 4.2.6.8 and 6.1.1.4'
U U -9.6767 9.6646 'International Tables Vol C Tables 4.2.6.8 and 6.1.1.4'
loop_
_geom_angle_atom_site_label_1
_geom_angle_atom_site_label_2
_geom_angle_atom_site_label_3
_geom_angle
_geom_angle_site_symmetry_1
_geom_angle_site_symmetry_3
Se1 U1 Se1 94.683(5) . 3_545
Se1 U1 Se1 78.634(7) . 7_565
Se1 U1 Se1 75.697(6) 3_545 7_565
Se1 U1 Se1 78.634(7) . 7_566
Se1 U1 Se1 75.697(6) 3_545 7_566
Se1 U1 Se1 141.528(11) 7_565 7_566
Se1 U1 Se2 150.871(3) . 5_655
Se1 U1 Se2 95.078(7) 3_545 5_655
Se1 U1 Se2 77.323(6) 7_565 5_655
Se1 U1 Se2 130.423(6) 7_566 5_655
Se1 U1 Se2 150.871(3) . 2_655
Se1 U1 Se2 95.078(7) 3_545 2_655
Se1 U1 Se2 130.423(6) 7_565 2_655
Se1 U1 Se2 77.323(6) 7_566 2_655
Se2 U1 Se2 54.723(3) 5_655 2_655
Se1 U1 Se2 77.424(6) . .
Se1 U1 Se2 151.641(3) 3_545 .
Se1 U1 Se2 76.046(6) 7_565 .
Se1 U1 Se2 127.744(6) 7_566 .
Se2 U1 Se2 81.014(4) 5_655 .
Se2 U1 Se2 105.021(4) 2_655 .
Se1 U1 Se2 77.424(6) . 6_556
Se1 U1 Se2 151.642(4) 3_545 6_556
Se1 U1 Se2 127.744(6) 7_565 6_556
Se1 U1 Se2 76.046(6) 7_566 6_556
Se2 U1 Se2 105.020(4) 5_655 6_556
Se2 U1 Se2 81.014(4) 2_655 6_556
Se2 U1 Se2 53.727(4) . 6_556
Se1 U1 Er1 46.126(3) . 7_566
Se1 U1 Er1 107.052(4) 3_545 7_566
Se1 U1 Er1 124.662(7) 7_565 7_566
Se1 U1 Er1 44.232(5) 7_566 7_566
Se2 U1 Er1 151.663(5) 5_655 7_566
Se2 U1 Er1 104.745(2) 2_655 7_566
Se2 U1 Er1 87.204(3) . 7_566
Se2 U1 Er1 48.403(4) 6_556 7_566
Se1 U1 U1 46.126(3) . 7_566
Se1 U1 U1 107.052(4) 3_545 7_566
Se1 U1 U1 124.662(7) 7_565 7_566
Se1 U1 U1 44.232(5) 7_566 7_566
Se2 U1 U1 151.663(5) 5_655 7_566
Se2 U1 U1 104.745(2) 2_655 7_566
Se2 U1 U1 87.204(3) . 7_566
Se2 U1 U1 48.403(4) 6_556 7_566
Er1 U1 U1 0.0 7_566 7_566
Se1 U1 U1 46.126(3) . 7_565
Se1 U1 U1 107.052(4) 3_545 7_565
Se1 U1 U1 44.232(5) 7_565 7_565
Se1 U1 U1 124.662(7) 7_566 7_565
Se2 U1 U1 104.745(2) 5_655 7_565
Se2 U1 U1 151.663(5) 2_655 7_565
Se2 U1 U1 48.403(4) . 7_565
Se2 U1 U1 87.204(3) 6_556 7_565
Er1 U1 U1 85.8 7_566 7_565
U1 U1 U1 85.786(5) 7_566 7_565
Se1 U1 Er1 46.126(3) . 7_565
Se1 U1 Er1 107.052(4) 3_545 7_565
Se1 U1 Er1 44.232(5) 7_565 7_565
Se1 U1 Er1 124.662(7) 7_566 7_565
Se2 U1 Er1 104.745(2) 5_655 7_565
Se2 U1 Er1 151.663(5) 2_655 7_565
Se2 U1 Er1 48.403(4) . 7_565
Se2 U1 Er1 87.204(3) 6_556 7_565
Er1 U1 Er1 85.786(5) 7_566 7_565
U1 U1 Er1 85.786(5) 7_566 7_565
U1 U1 Er1 0.000(2) 7_565 7_565
U1 Se1 Er1 132.5 . 3
U1 Se1 U1 132.506(10) . 3
Er1 Se1 U1 0.0 3 3
U1 Se1 Er1 89.6 . 7_566
Er1 Se1 Er1 104.303(6) 3 7_566
U1 Se1 Er1 104.303(6) 3 7_566
U1 Se1 U1 89.643(6) . 7_566
Er1 Se1 U1 104.3 3 7_566
U1 Se1 U1 104.303(6) 3 7_566
Er1 Se1 U1 0.0 7_566 7_566
U1 Se1 U1 89.643(6) . 7_565
Er1 Se1 U1 104.3 3 7_565
U1 Se1 U1 104.303(6) 3 7_565
Er1 Se1 U1 141.5 7_566 7_565
U1 Se1 U1 141.529(11) 7_566 7_565
U1 Se1 Er1 89.6 . 7_565
Er1 Se1 Er1 104.303(6) 3 7_565
U1 Se1 Er1 104.303(6) 3 7_565
Er1 Se1 Er1 141.529(11) 7_566 7_565
U1 Se1 Er1 141.529(11) 7_566 7_565
U1 Se1 Er1 0.000(6) 7_565 7_565
Se2 Se2 Se2 180.0 6_556 6
Se2 Se2 Er1 62.638(2) 6_556 3_655
Se2 Se2 Er1 117.362(2) 6 3_655
Se2 Se2 U1 62.638(2) 6_556 3_655
Se2 Se2 U1 117.362(2) 6 3_655
Er1 Se2 U1 0.0 3_655 3_655
Se2 Se2 U1 117.362(2) 6_556 5_655
Se2 Se2 U1 62.638(2) 6 5_655
Er1 Se2 U1 128.5 3_655 5_655
U1 Se2 U1 128.451(10) 3_655 5_655
Se2 Se2 Er1 117.362(2) 6_556 5_655
Se2 Se2 Er1 62.638(2) 6 5_655
Er1 Se2 Er1 128.451(10) 3_655 5_655
U1 Se2 Er1 128.451(10) 3_655 5_655
U1 Se2 Er1 0.000(3) 5_655 5_655
Se2 Se2 U1 63.137(2) 6_556 .
Se2 Se2 U1 116.864(2) 6 .
Er1 Se2 U1 119.6 3_655 .
U1 Se2 U1 119.614(3) 3_655 .
U1 Se2 U1 98.987(3) 5_655 .
Er1 Se2 U1 99.0 5_655 .
Se2 Se2 U1 116.864(2) 6_556 7_565
Se2 Se2 U1 63.137(2) 6 7_565
Er1 Se2 U1 99.0 3_655 7_565
U1 Se2 U1 98.987(3) 3_655 7_565
U1 Se2 U1 119.614(3) 5_655 7_565
Er1 Se2 U1 119.6 5_655 7_565
U1 Se2 U1 83.195(8) . 7_565
Se2 Se2 Er1 116.864(2) 6_556 7_565
Se2 Se2 Er1 63.137(2) 6 7_565
Er1 Se2 Er1 98.987(3) 3_655 7_565
U1 Se2 Er1 98.987(3) 3_655 7_565
U1 Se2 Er1 119.614(3) 5_655 7_565
Er1 Se2 Er1 119.614(3) 5_655 7_565
U1 Se2 Er1 83.2 . 7_565
U1 Se2 Er1 0.000(3) 7_565 7_565
loop_
_geom_bond_atom_site_label_1
_geom_bond_atom_site_label_2
_geom_bond_distance
_geom_bond_site_symmetry_2
U1 Se1 2.8016(3) .
U1 Se1 2.8075(3) 3_545
U1 Se1 2.89524(10) 7_565
U1 Se1 2.89524(10) 7_566
U1 Se2 2.97385(16) 5_655
U1 Se2 2.97385(16) 2_655
U1 Se2 3.0248(2) .
U1 Se2 3.0248(2) 6_556
U1 Er1 4.01628(18) 7_566
U1 U1 4.01628(18) 7_566
U1 U1 4.01627(18) 7_565
U1 Er1 4.01627(18) 7_565
Se1 Er1 2.8075(3) 3
Se1 U1 2.8075(3) 3
Se1 Er1 2.89524(11) 7_566
Se1 U1 2.89524(11) 7_566
Se1 U1 2.89524(11) 7_565
Se1 Er1 2.89524(11) 7_565
Se2 Se2 2.73360(5) 6_556
Se2 Se2 2.73360(5) 6
Se2 Er1 2.97385(16) 3_655
Se2 U1 2.97385(16) 3_655
Se2 U1 2.97385(16) 5_655
Se2 Er1 2.97385(16) 5_655
Se2 U1 3.0248(2) 7_565
Se2 Er1 3.0248(2) 7_565
