#------------------------------------------------------------------------------
#$Date: 2021-03-29 12:02:19 +0300 (Mon, 29 Mar 2021) $
#$Revision: 263413 $
#$URL: file:///home/coder/svn-repositories/cod/cif/1/56/13/1561330.cif $
#------------------------------------------------------------------------------
#
# This file is available in the Crystallography Open Database (COD),
# http://www.crystallography.net/
#
# All data on this site have been placed in the public domain by the
# contributors.
#
data_1561330
loop_
_publ_author_name
'Singh, Suryabhan'
'Bhim, Anupam'
_publ_section_title
;
 Water linked 3D coordination polymers: Syntheses, structures and
 applications
;
_journal_name_full               'Journal of Solid State Chemistry'
_journal_page_first              151
_journal_page_last               159
_journal_paper_doi               10.1016/j.jssc.2016.09.025
_journal_volume                  244
_journal_year                    2016
_chemical_formula_sum            'C37 H20 O14 Pb2 S2'
_chemical_formula_weight         1167.05
_space_group_crystal_system      triclinic
_space_group_IT_number           2
_space_group_name_Hall           '-P 1'
_space_group_name_H-M_alt        'P -1'
_symmetry_cell_setting           triclinic
_atom_sites_solution_hydrogens   mixed
_cell_angle_alpha                66.960(5)
_cell_angle_beta                 78.305(4)
_cell_angle_gamma                81.581(4)
_cell_formula_units_Z            1
_cell_length_a                   6.5980(3)
_cell_length_b                   11.2888(6)
_cell_length_c                   12.4352(6)
_cell_measurement_reflns_used    3895
_cell_measurement_temperature    293(2)
_cell_measurement_theta_max      29.2090
_cell_measurement_theta_min      3.1110
_cell_volume                     832.32(8)
_computing_structure_refinement  'SHELXL-2014 (Sheldrick, 2014)'
_diffrn_ambient_temperature      293(2)
_diffrn_measured_fraction_theta_full 0.999
_diffrn_measured_fraction_theta_max 0.844
_diffrn_measurement_device_type  'Xcalibur, Eos, Nova'
_diffrn_radiation_type           MoK\a
_diffrn_radiation_wavelength     0.71073
_diffrn_reflns_av_R_equivalents  0.0377
_diffrn_reflns_av_unetI/netI     0.0566
_diffrn_reflns_Laue_measured_fraction_full 0.999
_diffrn_reflns_Laue_measured_fraction_max 0.844
_diffrn_reflns_limit_h_max       5
_diffrn_reflns_limit_h_min       -8
_diffrn_reflns_limit_k_max       15
_diffrn_reflns_limit_k_min       -15
_diffrn_reflns_limit_l_max       16
_diffrn_reflns_limit_l_min       -16
_diffrn_reflns_number            6819
_diffrn_reflns_point_group_measured_fraction_full 0.999
_diffrn_reflns_point_group_measured_fraction_max 0.844
_diffrn_reflns_theta_full        25.000
_diffrn_reflns_theta_max         29.438
_diffrn_reflns_theta_min         3.125
_exptl_absorpt_coefficient_mu    10.303
_exptl_absorpt_correction_type   none
_exptl_crystal_colour            Colorless
_exptl_crystal_density_diffrn    2.328
_exptl_crystal_description       Rectangular
_exptl_crystal_F_000             550
_exptl_crystal_recrystallization_method 'DMF and Water'
_exptl_crystal_size_max          0.34
_exptl_crystal_size_mid          0.32
_exptl_crystal_size_min          0.30
_refine_diff_density_max         1.964
_refine_diff_density_min         -2.373
_refine_diff_density_rms         0.254
_refine_ls_extinction_coef       .
_refine_ls_extinction_method     none
_refine_ls_goodness_of_fit_ref   1.051
_refine_ls_hydrogen_treatment    mixed
_refine_ls_matrix_type           full
_refine_ls_number_parameters     258
_refine_ls_number_reflns         3888
_refine_ls_number_restraints     1
_refine_ls_restrained_S_all      1.051
_refine_ls_R_factor_all          0.0399
_refine_ls_R_factor_gt           0.0376
_refine_ls_shift/su_max          0.025
_refine_ls_shift/su_mean         0.001
_refine_ls_structure_factor_coef Fsqd
_refine_ls_weighting_details
'w=1/[\s^2^(Fo^2^)+(0.0537P)^2^+2.0101P] where P=(Fo^2^+2Fc^2^)/3'
_refine_ls_weighting_scheme      calc
_refine_ls_wR_factor_gt          0.0957
_refine_ls_wR_factor_ref         0.0987
_reflns_Friedel_coverage         0.000
_reflns_Friedel_fraction_full    .
_reflns_Friedel_fraction_max     .
_reflns_number_gt                3667
_reflns_number_total             3888
_reflns_threshold_expression     'I > 2\s(I)'
_cod_data_source_file            cif-3.cif
_cod_data_source_block           3
_cod_original_cell_volume        832.33(8)
_cod_database_code               1561330
_shelx_space_group_comment
;
The symmetry employed for this shelxl refinement is uniquely defined
by the following loop, which should always be used as a source of
symmetry information in preference to the above space-group names.
They are only intended as comments.
;
_shelxl_version_number           2014-3
_shelx_res_file
;
TITL S382 in P1
CELL  0.71073   6.5980  11.2888  12.4352   66.960   78.305   81.581
ZERR     2.00   0.0003   0.0006   0.0006    0.005    0.004    0.004
LATT   1
SFAC  C    H    O    S    PB
UNIT  37   20   14   2    2
MERG   2
DFIX     0.850   0.020 OW1 H002
FMAP   2
PLAN   25
acta 50
bond $H
omit -2 180
L.S.   4
WGHT    0.053700    2.010100
FVAR       4.39523
PB1   5    0.234818    0.562965    0.560030    11.00000    0.01309    0.01676 =
         0.01441   -0.00660   -0.00483   -0.00049
O3    3    0.400984    0.599782    0.338443    11.00000    0.01593    0.02587 =
         0.01753   -0.00854   -0.00627    0.00084
O4    3    0.059136    0.614996    0.392399    11.00000    0.01752    0.01822 =
         0.01534   -0.00779   -0.00351   -0.00120
O1    3    0.584336    0.685982    0.498827    11.00000    0.01907    0.01735 =
         0.02085   -0.00579   -0.00717   -0.00318
O2    3    0.278539    0.791937    0.463475    11.00000    0.01720    0.02193 =
         0.01909   -0.00754   -0.00558    0.00201
C10   1    0.359374    0.617836    0.112273    11.00000    0.01763    0.02568 =
         0.01839   -0.01294   -0.00365    0.00371
AFIX  43
H10   2    0.488997    0.590306    0.135663    11.00000   -1.20000
AFIX   0
C9    1    0.188345    0.639115    0.192148    11.00000    0.01871    0.01536 =
         0.01384   -0.00464   -0.00766    0.00023
C1    1    0.474191    0.787322    0.455172    11.00000    0.01823    0.01781 =
         0.01507   -0.00459   -0.01055   -0.00064
C4    1    0.891835    1.022756    0.295498    11.00000    0.01659    0.02432 =
         0.01747   -0.01291   -0.00165   -0.00176
AFIX  43
H4    2    1.035379    1.020976    0.273983    11.00000   -1.20000
AFIX   0
C7    1    0.460103    1.030834    0.359350    11.00000    0.01751    0.02468 =
         0.02057   -0.01359   -0.00383    0.00363
AFIX  43
H7    2    0.316527    1.033007    0.380735    11.00000   -1.20000
AFIX   0
C5    1    0.771609    1.139078    0.265400    11.00000    0.01615    0.01841 =
         0.00845   -0.00572   -0.00530   -0.00088
C6    1    0.555502    1.143584    0.298666    11.00000    0.01883    0.01706 =
         0.01821   -0.00750   -0.00348    0.00113
AFIX  43
H6    2    0.477455    1.222500    0.279694    11.00000   -1.20000
AFIX   0
C13   1   -0.031852    0.702732    0.043242    11.00000    0.01381    0.02777 =
         0.02002   -0.01386   -0.00621    0.00123
AFIX  43
H13   2   -0.161823    0.730369    0.020347    11.00000   -1.20000
AFIX   0
C14   1   -0.003002    0.681516    0.156369    11.00000    0.01810    0.01925 =
         0.01762   -0.00878   -0.00098   -0.00158
AFIX  43
H14   2   -0.115039    0.696120    0.209722    11.00000   -1.20000
AFIX   0
C3    1    0.794218    0.909227    0.358209    11.00000    0.01814    0.02242 =
         0.01588   -0.00954   -0.00417    0.00241
AFIX  43
H3    2    0.873055    0.830626    0.379694    11.00000   -1.20000
AFIX   0
C8    1    0.221692    0.617835    0.313490    11.00000    0.01885    0.01299 =
         0.00903   -0.00213   -0.00232   -0.00423
C11   1    0.333893    0.638007   -0.000953    11.00000    0.01634    0.02197 =
         0.02022   -0.01107   -0.00243    0.00476
AFIX  43
H11   2    0.445728    0.622711   -0.054066    11.00000   -1.20000
AFIX   0
C2    1    0.578853    0.911873    0.389347    11.00000    0.01912    0.01926 =
         0.01206   -0.00430   -0.00522   -0.00379
OW1   3   -0.110864    0.653380    0.619813    11.00000    0.01807    0.03384 =
         0.01717   -0.01267   -0.00974    0.00460
C12   1    0.138177    0.681791   -0.035805    11.00000    0.02265    0.01560 =
         0.01350   -0.00569   -0.00502   -0.00070
S1    4    0.110818    0.714495   -0.183622    11.00000    0.01670    0.01616 =
         0.01415   -0.00664   -0.00561   -0.00100
O5    3    0.231154    0.615258   -0.219639    11.00000    0.02287    0.01893 =
         0.01544   -0.00732   -0.00860    0.00145
O6    3   -0.108666    0.736462   -0.191678    11.00000    0.01422    0.02401 =
         0.01508   -0.00612   -0.00627   -0.00240
C001  1   -0.500000    1.000000    0.000000    10.50000    0.01666    0.02778 =
         0.02265   -0.00042    0.00653   -0.00248
C004  1   -0.283957    1.004138    0.043787    11.00000    0.07208    0.11518 =
         0.17130   -0.05379   -0.04917    0.00274
C005  1   -0.491357    0.944544    0.120811    11.00000    0.09388    0.25232 =
         0.10961   -0.05934   -0.04955   -0.04380
C002  1   -0.165191    1.035548   -0.075357    11.00000    0.03752    0.08231 =
         0.08876   -0.03945   -0.00023   -0.01294
C003  1   -0.645338    0.963311    0.089061    11.00000    0.16875    0.10336 =
         0.20277   -0.07924   -0.14016    0.02977
H001  2   -0.209471    0.680520    0.584170    11.00000    0.01427
H002  2   -0.141124    0.636877    0.692876    11.00000    0.04446
HKLF    4

REM  S382 in P1
REM R1 =  0.0376 for    3667 Fo > 4sig(Fo)  and  0.0399 for all    3888 data
REM    258 parameters refined using      1 restraints

END

WGHT      0.0536      2.0187

REM Highest difference peak  1.964,  deepest hole -2.373,  1-sigma level  0.254
Q1    1   0.3400  0.5088  0.6458  11.00000  0.05    1.96
Q2    1   0.1284  0.6138  0.4764  11.00000  0.05    1.89
Q3    1   0.3844  0.5729  0.4750  11.00000  0.05    1.42
Q4    1   0.1031  0.5233  0.6600  11.00000  0.05    1.26
Q5    1   0.3540  0.6188  0.5939  11.00000  0.05    1.16
Q6    1   0.2111  0.6853  0.5198  11.00000  0.05    1.07
Q7    1   0.1262  0.4977  0.5355  11.00000  0.05    1.04
Q8    1   0.3098  0.6392  0.5859  11.00000  0.05    0.88
Q9    1   0.1831  0.4827  0.5491  11.00000  0.05    0.88
Q10   1   0.3710  0.6241 -0.3195  11.00000  0.05    0.85
Q11   1   0.4215  0.5822  0.5593  11.00000  0.05    0.83
Q12   1  -0.3295  0.7092  0.2259  11.00000  0.05    0.82
Q13   1   0.2522  0.4347  0.5922  11.00000  0.05    0.82
Q14   1   0.7309  0.5810  0.5172  11.00000  0.05    0.82
Q15   1   0.0645  0.5413  0.5574  11.00000  0.05    0.82
Q16   1   0.5522  0.4811  0.3188  11.00000  0.05    0.81
Q17   1   0.5598  0.6657  0.3791  11.00000  0.05    0.79
Q18   1   0.4532  0.5008  0.2978  11.00000  0.05    0.78
Q19   1   0.2149  0.5772  0.2565  11.00000  0.05    0.74
Q20   1   0.0807  0.7590  0.5103  11.00000  0.05    0.74
Q21   1  -0.6662  0.8392  0.2565  11.00000  0.05    0.74
Q22   1   0.5354  0.6447  0.2544  11.00000  0.05    0.73
Q23   1   0.7166  0.6404  0.3967  11.00000  0.05    0.72
Q24   1   0.0596  0.4999  0.4557  11.00000  0.05    0.71
Q25   1  -0.1391  0.8426  0.1870  11.00000  0.05    0.70
;
_shelx_res_checksum              61984
_shelx_hkl_file
;
  -8  -7 -10 23756.8 3002.48   2
  -8  -7  -9 27997.7 3271.66   2
  -8  -7  -8 10129.2 2011.60   2
  -8  -7  -7 815.456 32.8720   2
  -8  -6 -10 8906.71 1811.67   2
  -8  -6  -9 9700.30 1883.36   2
  -8  -6  -8 1013.99 618.485   2
  -8  -6  -7 16821.6 2536.88   2
  -8  -6  -6 23138.5 3027.81   2
  -8  -5 -10 6754.23 1539.71   2
  -8  -5  -9 1518.87 691.674   2
  -8  -5  -8 21438.6 2825.71   2
  -8  -5  -7 46357.1 4283.77   2
  -8  -5  -6 50447.3 4530.71   1
  -8  -5  -6 56429.5 4779.00   2
  -8  -5  -5 97713.8 6552.86   2
  -8  -5  -5 91214.1 6222.90   1
  -8  -5  -4 54070.2 4668.51   1
  -8  -5  -3 20759.3 2786.15   1
  -8  -5  -2 7628.37 1698.90   1
  -8  -4  -9 26262.9 3177.39   2
  -8  -4  -8 53193.7 4618.52   2
  -8  -4  -7 39921.6 4043.45   1
  -8  -4  -7 50954.6 4447.12   2
  -8  -4  -6 72713.8 5494.07   2
  -8  -4  -6 68830.8 5315.37   1
  -8  -4  -5 70922.7 5413.34   1
  -8  -4  -5 81374.9 5851.33   2
  -8  -4  -4 28102.1 3352.98   2
  -8  -4  -4 27346.9 3278.79   1
  -8  -4  -3 10046.1 1907.10   1
  -8  -4  -2 500.862 465.777   1
  -8  -4  -1 12897.4 2203.18   1
  -8  -4   0 27977.8 3366.76   1
  -8  -3  -9 42005.8 4075.21   2
  -8  -3  -8 45522.1 4286.16   2
  -8  -3  -7 54502.8 4626.66   2
  -8  -3  -7 50142.3 4571.38   1
  -8  -3  -6 77718.8 5662.44   2
  -8  -3  -6 73077.4 5488.03   1
  -8  -3  -5 25607.5 3144.39   2
  -8  -3  -5 24644.9 3054.91   1
  -8  -3  -4 5370.47 1438.34   2
  -8  -3  -4 6228.47 1486.77   1
  -8  -3  -3-302.162 109.961   2
  -8  -3  -3 302.881 200.692   1
  -8  -3  -2 5709.25 1535.39   2
  -8  -3  -2 6140.01 1456.04   1
  -8  -3  -1 38635.2 3889.09   1
  -8  -3   0 34441.1 3645.43   1
  -8  -3   1 56563.1 4857.50   1
  -8  -3   2 55195.3 4840.02   1
  -8  -2  -8 45452.6 4266.29   2
  -8  -2  -7 62139.7 5037.53   2
  -8  -2  -6 15355.7 2383.06   1
  -8  -2  -6 12328.9 2129.45   2
  -8  -2  -5 677.370 441.116   2
  -8  -2  -5 933.097 603.131   1
  -8  -2  -4 837.901 524.940   1
  -8  -2  -4 960.605 967.522   2
  -8  -2  -3 13017.1 2192.56   1
  -8  -2  -3 10752.0 2082.37   2
  -8  -2  -2 45587.8 4356.13   2
  -8  -2  -2 44290.3 4129.68   1
  -8  -2  -1 40558.9 4164.74   2
  -8  -2  -1 38224.9 3854.53   1
  -8  -2   0 55105.5 4627.77   1
  -8  -2   0 47648.9 4606.49   2
  -8  -2   1 53984.6 4627.41   1
  -8  -2   2 35384.4 3710.69   1
  -8  -2   3 5353.05 1425.06   1
  -8  -2   4 5330.26 1457.38   1
  -8  -1  -6 1048.11 589.021   2
  -8  -1  -6 433.874 577.474   1
  -8  -1  -5-310.428 423.045   1
  -8  -1  -5-58.0944 362.285   2
  -8  -1  -4 8653.95 1723.68   1
  -8  -1  -4 7901.68 1666.55   2
  -8  -1  -3 44758.5 4261.96   2
  -8  -1  -3 46981.0 4269.42   1
  -8  -1  -2 61551.9 4893.35   1
  -8  -1  -2 52499.0 4775.82   2
  -8  -1  -1 38307.0 4023.76   2
  -8  -1  -1 34560.2 3647.16   1
  -8  -1   0 84039.6 6186.87   2
  -8  -1   0 78407.5 5643.80   1
  -8  -1   1 38984.9 3886.33   1
  -8  -1   1 41551.7 4292.08   2
  -8  -1   2 4299.23 1346.59   2
  -8  -1   2 4180.75 1174.08   1
  -8  -1   3 220.821 453.591   1
  -8  -1   4 1789.52 774.194   1
  -8   0  -6 5199.61 1478.33   1
  -8   0  -5 6053.89 1518.43   1
  -8   0  -5 7495.24 1699.24   2
  -8   0  -4 35768.9 3862.53   2
  -8   0  -4 43582.1 4175.82   1
  -8   0  -3 58836.5 4977.76   2
  -8   0  -3 59693.8 4857.50   1
  -8   0  -2 52777.0 4493.84   1
  -8   0  -2 49282.3 4528.00   2
  -8   0  -1 41728.4 4239.54   2
  -8   0  -1 47458.6 4254.63   1
  -8   0   0 47161.8 4546.73   2
  -8   0   0 41495.3 3971.75   1
  -8   0   1 2329.41 947.419   2
  -8   0   1 1672.50 777.239   1
  -8   0   2 221.169 84.2542   1
  -8   0   2 706.728 710.554   2
  -8   0   3-394.828 529.145   1
  -8   1  -4 60301.2 5044.52   2
  -8   1  -4 57146.9 4826.84   1
  -8   1  -3 43904.9 4376.97   2
  -8   1  -3 54305.1 4656.22   1
  -8   1  -2 50750.1 4437.35   1
  -8   1  -2 49618.1 4625.56   2
  -8   1  -1 49112.4 4607.33   2
  -8   1  -1 47868.1 4292.15   1
  -8   1   0 5751.57 1460.40   1
  -8   1   0 5020.25 1345.70   2
  -8   1   1-283.576 362.327   2
  -8   1   1-3.58699 350.761   1
  -8   1   2 5947.75 1578.59   2
  -8   1   2 5797.07 1405.14   1
  -8   1   3 23660.9 3162.66   2
  -8   2  -3 28165.2 3339.75   1
  -8   2  -2 29511.4 3371.12   1
  -8   2  -1 18147.1 2621.54   1
  -8   2  -1 21638.3 3040.69   2
  -8   2   0 3683.94 1213.33   2
  -8   2   0 3315.01 1084.78   1
  -8   2   1 3623.40 1131.90   1
  -8   2   1 4793.37 1455.36   2
  -8   2   2 22137.1 3110.08   2
  -8   3   0 11858.2 2045.19   1
  -7 -10  -8 227.807 124.967   1
  -7  -9 -10 8140.43 1739.60   1
  -7  -9 -10 6523.62 1417.98   2
  -7  -9  -9 1031.77 815.771   1
  -7  -9  -8 7177.64 1584.30   1
  -7  -9  -7 35511.3 3630.60   1
  -7  -9  -6 79262.2 5658.17   1
  -7  -9  -5 47201.5 4260.67   1
  -7  -9  -4 31211.7 3459.91   1
  -7  -8 -11 18359.3 2434.72   2
  -7  -8 -11 18269.4 2625.86   1
  -7  -8 -10 1491.34 810.526   1
  -7  -8 -10 920.908 568.131   2
  -7  -8  -9 15451.1 2395.41   1
  -7  -8  -9 15808.0 2309.94   2
  -7  -8  -8 32618.6 3468.45   1
  -7  -8  -7 71526.3 5195.11   1
  -7  -8  -6 87754.7 5810.05   1
  -7  -8  -5 37690.4 3744.29   1
  -7  -8  -4 35013.6 3592.14   1
  -7  -8  -3 15194.7 2321.77   1
  -7  -8  -2 681.418 660.270   1
  -7  -8  -1 4368.43 1279.16   1
  -7  -7 -11 944.677 565.069   2
  -7  -7 -11 935.422 567.217   1
  -7  -7 -10 20050.1 2705.55   1
  -7  -7 -10 18517.8 2461.07   2
  -7  -7  -9 20485.0 2745.69   1
  -7  -7  -9 21980.3 2723.57   2
  -7  -7  -8 51591.9 4252.17   2
  -7  -7  -8 54782.2 4503.06   1
  -7  -7  -7 87874.0 5807.34   1
  -7  -7  -6 65370.1 4865.88   1
  -7  -7  -5 48903.1 4163.15   1
  -7  -7  -4 17274.2 2516.77   1
  -7  -7  -3 240.829 148.865   1
  -7  -7  -2 8638.97 1735.97   1
  -7  -7  -1 21776.9 2893.55   1
  -7  -7   0 35628.6 3830.07   1
  -7  -6 -12 1662.80 762.181   2
  -7  -6 -11 19330.3 2566.43   2
  -7  -6 -11 19569.0 2765.03   1
  -7  -6 -10 39496.0 3885.80   1
  -7  -6 -10 42686.1 3793.89   2
  -7  -6  -9 45313.4 4142.96   1
  -7  -6  -9 46799.5 4007.15   2
  -7  -6  -8 94257.1 6052.26   1
  -7  -6  -8 91926.7 5776.27   2
  -7  -6  -7 78446.6 5349.98   2
  -7  -6  -7 75265.8 5305.62   1
  -7  -6  -6 25295.1 2910.16   1
  -7  -6  -5 33469.5 3331.16   1
  -7  -6  -4 2106.96 844.061   1
  -7  -6  -3 14029.1 2167.55   1
  -7  -6  -2 29177.8 3183.24   1
  -7  -6  -1 47903.2 4225.79   1
  -7  -6   0 97377.0 6386.73   1
  -7  -6   1 32136.8 3603.44   1
  -7  -6   2 34803.5 3866.76   1
  -7  -5 -13 475.541 341.322   6
  -7  -5 -12 13194.6 2099.81   2
  -7  -5 -11 29670.8 3396.74   1
  -7  -5 -11 27180.3 2993.31   2
  -7  -5 -10 27279.4 3019.64   2
  -7  -5 -10 26192.3 3194.55   1
  -7  -5  -9 67513.5 4829.63   2
  -7  -5  -9 73876.9 5331.54   1
  -7  -5  -8 60490.1 4719.45   1
  -7  -5  -8 61211.9 4613.14   2
  -7  -5  -7 31648.2 3313.07   1
  -7  -5  -7 35220.9 3400.19   2
  -7  -5  -6 7717.62 1592.42   2
  -7  -5  -6 7659.13 1523.23   1
  -7  -5  -5 6598.92 1422.56   1
  -7  -5  -4 7232.74 1489.25   1
  -7  -5  -3 34910.6 3427.08   1
  -7  -5  -2 58568.0 4572.05   1
  -7  -5  -1 72230.9 5161.53   1
  -7  -5   0 110929. 6694.32   1
  -7  -5   1 36739.4 3697.04   1
  -7  -5   2 15421.4 2433.96   1
  -7  -5   3 870.255 506.927   1
  -7  -4 -13 10434.2 1973.84   6
  -7  -4 -12 43709.2 4042.02   2
  -7  -4 -12 44249.6 4164.20   6
  -7  -4 -11 45715.3 3974.59   2
  -7  -4 -10 53798.5 4615.32   1
  -7  -4 -10 49809.4 4136.28   2
  -7  -4  -9 71099.4 5060.99   2
  -7  -4  -9 75952.2 5458.00   1
  -7  -4  -8 18789.4 2457.58   2
  -7  -4  -8 17988.5 2476.69   1
  -7  -4  -7 3546.61 1060.30   2
  -7  -4  -7 3164.58 1041.20   1
  -7  -4  -6 1201.44 531.960   1
  -7  -4  -6 887.124 712.107   2
  -7  -4  -5 7761.02 1572.82   1
  -7  -4  -5 7470.08 1474.48   2
  -7  -4  -4 32399.6 3242.09   1
  -7  -4  -3 70820.3 4956.91   1
  -7  -4  -2 99098.4 6056.47   1
  -7  -4  -1 101499. 6133.61   1
  -7  -4   0 57380.4 4517.02   1
  -7  -4   1 14163.3 2172.94   1
  -7  -4   2 1254.94 804.995   1
  -7  -4   3 4327.93 1249.36   1
  -7  -4   4 8580.92 1869.05   1
  -7  -4   5 19617.6 2861.48   1
  -7  -3 -13 31031.4 3511.19   2
  -7  -3 -12 45287.5 4211.01   2
  -7  -3 -12 51833.3 4612.42   6
  -7  -3 -11 72309.0 5281.55   2
  -7  -3 -10 62513.0 4771.21   2
  -7  -3  -9 61530.4 4861.33   1
  -7  -3  -9 59521.4 4577.78   2
  -7  -3  -8 12682.9 2078.20   1
  -7  -3  -8 13654.9 2101.49   2
  -7  -3  -7 1829.35 738.448   2
  -7  -3  -7 1140.12 547.702   1
  -7  -3  -6 6085.25 1343.20   2
  -7  -3  -6 5497.22 1415.69   1
  -7  -3  -5 76565.8 5236.99   1
  -7  -3  -5 80869.9 5386.67   2
  -7  -3  -4 72250.9 5086.18   2
  -7  -3  -4 68952.6 4899.48   1
  -7  -3  -3 70586.6 4902.44   1
  -7  -3  -2 74717.9 5074.46   1
  -7  -3  -1 54792.9 4308.73   1
  -7  -3   0 15125.3 2230.75   1
  -7  -3   1 13976.0 2134.92   1
  -7  -3   2 6833.94 1543.40   1
  -7  -3   3 28326.4 3240.75   1
  -7  -3   4 33799.8 3594.68   1
  -7  -3   5 40932.6 4017.28   1
  -7  -3   6 26050.3 3264.39   1
  -7  -2 -12 35120.4 3742.02   2
  -7  -2 -11 47934.4 4345.96   2
  -7  -2 -11 50209.4 4544.14   6
  -7  -2 -10 51661.0 4386.00   2
  -7  -2  -9 12769.5 2058.05   2
  -7  -2  -8 1601.92 672.029   1
  -7  -2  -8 1334.90 605.678   2
  -7  -2  -7 9904.39 1814.76   2
  -7  -2  -7 9206.87 1745.00   1
  -7  -2  -6 36739.3 3510.03   2
  -7  -2  -6 34351.7 3465.46   1
  -7  -2  -5 86531.2 5636.16   1
  -7  -2  -5 93319.3 5796.66   2
  -7  -2  -4 57706.5 4447.42   1
  -7  -2  -4 65832.5 4796.79   2
  -7  -2  -3 68099.1 4869.26   1
  -7  -2  -3 80181.2 5375.89   2
  -7  -2  -2 42464.2 3888.82   2
  -7  -2  -2 46342.0 3868.41   1
  -7  -2  -1 12374.8 1961.14   1
  -7  -2   0 162.836 303.312   1
  -7  -2   1 4930.82 1186.54   1
  -7  -2   2 42973.3 3840.14   1
  -7  -2   3 44730.1 3984.32   1
  -7  -2   4 37850.2 3681.22   1
  -7  -2   5 40650.5 3883.11   1
  -7  -2   6 31421.1 3439.88   1
  -7  -1 -11 37564.9 3902.91   2
  -7  -1 -10 18735.8 2640.53   2
  -7  -1 -10 23732.7 3070.35   6
  -7  -1  -9 345.503 569.354   2
  -7  -1  -8 6024.62 1495.26   2
  -7  -1  -7 47887.2 4080.00   2
  -7  -1  -7 44246.1 4021.49   1
  -7  -1  -6 104573. 6314.24   2
  -7  -1  -6 102443. 6243.12   1
  -7  -1  -5 116691. 6585.37   2
  -7  -1  -5 107934. 6363.70   1
  -7  -1  -4 144209. 7467.87   2
  -7  -1  -4 124762. 6962.20   1
  -7  -1  -3 52905.6 4309.86   2
  -7  -1  -3 50924.7 4083.89   1
  -7  -1  -2 8343.38 1614.57   1
  -7  -1  -2 5525.78 1361.79   2
  -7  -1  -1 741.562 348.218   1
  -7  -1  -1 1513.38 734.687   2
  -7  -1   0 5069.24 1396.27   2
  -7  -1   0 6092.83 1363.88   1
  -7  -1   1 31031.1 3160.68   1
  -7  -1   2 52200.8 4195.79   1
  -7  -1   3 46681.2 3964.68   1
  -7  -1   4 82075.3 5497.97   1
  -7  -1   5 35699.0 3546.94   1
  -7  -1   6 7874.21 1617.65   1
  -7   0 -10 975.598 604.940   2
  -7   0  -9 13426.1 2284.53   2
  -7   0  -9 11912.1 2207.52   6
  -7   0  -8 31331.1 3416.26   2
  -7   0  -7 77335.8 5403.83   2
  -7   0  -6 102608. 6333.10   1
  -7   0  -6 100939. 6237.33   2
  -7   0  -5 84489.8 5610.69   1
  -7   0  -5 92410.0 5794.42   2
  -7   0  -4 84031.2 5542.40   1
  -7   0  -4 92765.5 5825.49   2
  -7   0  -3 19730.8 2505.19   1
  -7   0  -3 15518.8 2279.45   2
  -7   0  -2 4.96857 139.595   2
  -7   0  -2 775.540 585.105   1
  -7   0  -1 1431.88 686.669   2
  -7   0  -1 1202.90 424.140   1
  -7   0   0 35757.1 3370.25   1
  -7   0   0 35013.0 3547.14   2
  -7   0   1 74396.7 5034.39   1
  -7   0   1 77363.1 5506.67   2
  -7   0   2 48426.8 4357.57   2
  -7   0   2 51125.7 4037.17   1
  -7   0   3 43537.2 3769.91   1
  -7   0   4 63012.5 4649.23   1
  -7   0   5 14606.0 2171.25   1
  -7   1  -9 21908.4 2989.76   2
  -7   1  -8 71873.1 5473.62   2
  -7   1  -7 76201.6 5527.18   2
  -7   1  -6 58937.0 4724.52   2
  -7   1  -5 58838.6 4552.60   2
  -7   1  -5 44486.0 4036.51   1
  -7   1  -4 23952.6 2861.75   2
  -7   1  -4 24239.3 2883.17   1
  -7   1  -3 98.7773 318.674   1
  -7   1  -3 211.550 267.782   2
  -7   1  -2 8710.02 1696.61   2
  -7   1  -2 7053.73 1504.50   1
  -7   1  -1 25640.4 2997.62   2
  -7   1  -1 25417.6 2823.95   1
  -7   1   0 84800.8 5359.00   1
  -7   1   0 84212.6 5757.37   2
  -7   1   1 65766.2 5048.72   2
  -7   1   1 67320.0 4695.43   1
  -7   1   2 43039.8 3682.61   1
  -7   1   2 45211.0 4174.03   2
  -7   1   3 46353.2 4275.34   2
  -7   1   3 45566.2 3840.61   1
  -7   1   4 20613.4 2835.02   2
  -7   1   4 19701.4 2452.72   1
  -7   1   5 1166.90 645.497   2
  -7   1   6 1960.81 804.338   2
  -7   1   7 7217.76 1748.33   2
  -7   2  -8 67402.2 5433.99   2
  -7   2  -7 37021.2 3888.38   2
  -7   2  -6 26832.8 3230.50   2
  -7   2  -5 17406.2 2499.78   2
  -7   2  -4 2338.75 1001.49   2
  -7   2  -3 8532.52 1713.38   1
  -7   2  -3 10007.3 1886.63   2
  -7   2  -2 21266.6 2726.70   2
  -7   2  -2 16365.3 2311.06   1
  -7   2  -1 46022.7 3884.63   1
  -7   2  -1 51847.4 4397.74   2
  -7   2   0 105125. 6068.77   1
  -7   2   0 107172. 6613.52   2
  -7   2   1 64527.3 4593.33   1
  -7   2   1 66136.5 5089.72   2
  -7   2   2 51349.0 4055.09   1
  -7   2   2 57205.9 4731.00   2
  -7   2   3 37675.1 3826.05   2
  -7   2   3 37297.6 3396.57   1
  -7   2   4 789.139 597.311   2
  -7   2   5-763.233 715.377   2
  -7   2   6 9232.27 1910.74   2
  -7   3  -6 16752.1 2579.04   2
  -7   3  -5 319.703 312.950   2
  -7   3  -4 20327.4 2812.98   2
  -7   3  -3 17445.3 2533.30   2
  -7   3  -2 49931.6 4370.90   2
  -7   3  -1 97031.3 5951.87   1
  -7   3  -1 100676. 6413.97   2
  -7   3   0 67553.3 5124.93   2
  -7   3   0 61379.3 4569.78   1
  -7   3   1 48392.5 4296.87   2
  -7   3   1 45587.0 3795.77   1
  -7   3   2 23755.9 2953.94   2
  -7   3   2 24447.2 2685.18   1
  -7   3   3 3983.47 1034.33   1
  -7   3   3 4659.24 1155.59   4
  -7   3   3 5311.26 1386.32   2
  -7   3   4 6834.48 1602.12   2
  -7   3   5 9206.46 1853.39   2
  -7   3   6 21499.2 2903.15   2
  -7   4  -5 19314.0 2828.93   2
  -7   4  -4 31709.0 3640.86   2
  -7   4  -3 38850.2 3984.96   2
  -7   4  -2 68059.0 5356.77   2
  -7   4  -1 70482.9 5370.85   2
  -7   4   0 19495.4 2713.53   2
  -7   4   1 25778.3 2863.21   1
  -7   4   1 32505.7 3520.85   2
  -7   4   2 6787.40 1417.82   1
  -7   4   2 8550.04 1805.24   2
  -7   4   3 4875.87 1372.57   4
  -7   4   3 4733.28 1315.47   2
  -7   4   4 23185.8 3056.17   2
  -7   4   4 20844.7 2972.17   4
  -7   4   5 40972.4 4120.09   2
  -7   4   6 35087.1 3796.45   2
  -7   5  -4 31130.4 3585.17   6
  -7   5  -3 56043.3 5008.23   2
  -7   5  -2 68172.8 5520.53   2
  -7   5  -1 44883.2 4394.20   2
  -7   5   0 10406.5 2032.99   2
  -7   5   1 3557.48 1159.64   2
  -7   5   2 7662.64 1811.61   2
  -7   5   3 42529.0 4317.66   4
  -7   5   3 36716.1 3916.52   2
  -7   5   4 31852.7 3790.78   4
  -7   5   4 28057.1 3401.91   2
  -7   5   5 51941.7 4693.29   2
  -7   5   5 57132.2 5199.94   4
  -7   6  -1 5821.49 1740.73   2
  -7   6   0 1029.72 756.586   2
  -7   6   1 10570.8 2119.65   2
  -7   6   2 20619.6 3007.95   2
  -7   6   3 38866.0 4284.32   4
  -7   6   3 35592.3 4014.45   2
  -7   6   4 47441.3 4802.29   4
  -7   6   4 40404.5 4225.61   2
  -7   6   5 58436.6 5441.33   4
  -7   6   5 51523.7 4806.04   2
  -7   6   6 24726.2 3470.29   4
  -7   7   2 33673.1 3988.95   2
  -7   7   3 43151.0 4494.09   2
  -7   7   4 47204.5 4743.91   2
  -7   8   1 27882.7 3391.16   6
  -6 -12 -11 4518.18 1240.76   1
  -6 -12 -10 1267.47 763.455   1
  -6 -12  -9 526.084 523.934   1
  -6 -12  -8 19499.4 2685.20   1
  -6 -12  -7 42411.7 4035.61   1
  -6 -12  -6 23637.7 3031.44   1
  -6 -11 -12 3436.98 1115.81   1
  -6 -11 -11 1734.76 1045.21   1
  -6 -11 -10 11122.7 1877.48   1
  -6 -11  -9 9547.76 1804.06   1
  -6 -11  -8 61502.0 4778.88   1
  -6 -11  -7 60936.5 4732.05   1
  -6 -11  -6 54849.6 4522.66   1
  -6 -11  -5 55797.0 4629.21   1
  -6 -11  -4 26572.3 3248.32   1
  -6 -11  -3-435.147 593.722   1
  -6 -10 -13 19109.9 2632.87   1
  -6 -10 -12 1928.77 884.512   1
  -6 -10 -11 9712.47 1800.34   1
  -6 -10 -10 39024.7 3694.36   1
  -6 -10  -9 44281.8 3926.21   1
  -6 -10  -8 58650.4 4555.15   1
  -6 -10  -7 58068.1 4503.12   1
  -6 -10  -6 69160.1 5009.52   1
  -6 -10  -5 32043.1 3379.29   1
  -6 -10  -4 24.8101 94.9149   1
  -6 -10  -3 424.119 396.400   1
  -6 -10  -2 7489.74 1616.92   1
  -6 -10  -1 39279.9 4227.15   1
  -6  -9 -13-279.365 426.509   1
  -6  -9 -12 7635.78 1652.67   1
  -6  -9 -11 5772.85 1348.52   1
  -6  -9 -10 30685.3 3205.38   1
  -6  -9  -9 95919.8 5899.78   1
  -6  -9  -8 44066.5 3823.16   1
  -6  -9  -7 60772.3 4540.57   1
  -6  -9  -6 32920.0 3261.40   1
  -6  -9  -5 1450.67 732.666   1
  -6  -9  -4 5833.85 1317.62   1
  -6  -9  -3 20981.4 2711.53   1
  -6  -9  -2 83307.8 5861.93   1
  -6  -9  -1 105093. 6882.73   1
  -6  -9   0 20895.7 2982.96   1
  -6  -8 -13 8427.64 1717.51   1
  -6  -8 -12 14550.7 2241.32   1
  -6  -8 -11 66360.7 4920.85   1
  -6  -8 -11 68146.9 4518.06   2
  -6  -8 -10 105616. 5888.11   2
  -6  -8 -10 114644. 6512.59   1
  -6  -8  -9 100800. 6004.99   1
  -6  -8  -8 24909.3 2773.79   1
  -6  -8  -7 14448.9 2062.65   1
  -6  -8  -6 1484.07 594.216   1
  -6  -8  -5 8860.47 1626.98   1
  -6  -8  -4 22898.4 2669.90   1
  -6  -8  -3 67687.5 4882.75   1
  -6  -8  -2 149206. 7812.39   1
  -6  -8  -1 81095.4 5686.73   1
  -6  -8   0 36767.9 3850.29   1
  -6  -8   1 40744.3 4227.67   1
  -6  -8   2 3243.80 1275.25   1
  -6  -7 -12 37456.3 3713.60   1
  -6  -7 -11 97778.9 5494.46   2
  -6  -7 -11 92254.9 5930.29   1
  -6  -7 -10 62480.6 4685.90   1
  -6  -7 -10 62320.5 4287.76   2
  -6  -7  -9 55141.8 4269.97   1
  -6  -7  -9 49577.2 3815.25   2
  -6  -7  -8 63498.5 4575.94   1
  -6  -7  -7 14190.4 2038.68   1
  -6  -7  -6 16590.1 2198.07   1
  -6  -7  -5 30890.2 3013.25   1
  -6  -7  -4 61878.7 4400.64   1
  -6  -7  -3 126205. 6679.36   1
  -6  -7  -2 67792.7 4820.91   1
  -6  -7  -1 40410.5 3707.81   1
  -6  -7   0 66759.8 5101.38   1
  -6  -7   1 2964.13 1059.52   1
  -6  -7   2 6825.23 1705.57   1
  -6  -7   3 10486.9 2166.66   1
  -6  -6 -14 37144.9 3990.65   3
  -6  -6 -13 31065.2 3113.93   6
  -6  -6 -13 40784.3 4025.42   3
  -6  -6 -12 75593.3 5356.80   1
  -6  -6 -12 75479.1 4784.61   2
  -6  -6 -11 80019.6 5432.81   1
  -6  -6 -11 75351.9 4768.97   2
  -6  -6 -10 29675.5 3102.20   1
  -6  -6 -10 29602.7 2878.30   2
  -6  -6  -9 22925.2 2647.89   1
  -6  -6  -9 18805.4 2261.74   2
  -6  -6  -8 11753.4 1821.07   1
  -6  -6  -8 12463.6 1844.69   2
  -6  -6  -7 44199.8 3634.87   1
  -6  -6  -6 61335.6 4322.29   1
  -6  -6  -5 26489.6 2765.37   1
  -6  -6  -4 70746.8 4668.83   1
  -6  -6  -3 62953.2 4365.39   1
  -6  -6  -2 45862.5 3742.49   1
  -6  -6  -1 20059.8 2499.29   1
  -6  -6   0 30235.3 3206.93   1
  -6  -6   1 13481.1 2142.65   1
  -6  -6   2 30650.1 3429.37   1
  -6  -6   3 31091.0 3601.88   1
  -6  -6   4 78239.6 6062.51   1
  -6  -6   5 66988.2 5734.13   1
  -6  -5 -14 51082.5 4655.21   3
  -6  -5 -13 69613.6 5360.96   3
  -6  -5 -13 67086.7 4827.75   6
  -6  -5 -12 97695.4 5845.89   6
  -6  -5 -12 93412.1 5500.72   2
  -6  -5 -11 36574.5 3246.55   2
  -6  -5 -11 34754.9 3500.04   1
  -6  -5 -10 18507.0 2242.90   2
  -6  -5 -10 22225.5 2705.11   1
  -6  -5  -9 4253.11 1083.86   1
  -6  -5  -9 5244.46 1176.75   2
  -6  -5  -8 12885.5 1850.65   2
  -6  -5  -8 13344.0 1930.22   1
  -6  -5  -7 78631.9 4963.28   1
  -6  -5  -7 72181.5 4675.32   2
  -6  -5  -6 83725.5 5147.13   1
  -6  -5  -5 118369. 6215.04   1
  -6  -5  -4 152053. 7194.08   1
  -6  -5  -3 58292.3 4120.39   1
  -6  -5  -2 8297.61 1458.46   1
  -6  -5  -1 6289.35 1317.33   1
  -6  -5   0 671.810 364.538   1
  -6  -5   1 17076.7 2386.58   1
  -6  -5   2 45903.9 4074.07   1
  -6  -5   3 75970.3 5488.45   1
  -6  -5   4 91557.0 6322.08   1
  -6  -5   5 41456.2 4263.42   1
  -6  -5   6 16217.6 2658.78   1
  -6  -4 -14 45532.8 4267.59   6
  -6  -4 -13 105539. 6391.63   6
  -6  -4 -13 100394. 6446.95   3
  -6  -4 -12 52285.8 4079.94   2
  -6  -4 -12 49859.3 4114.62   6
  -6  -4 -11 10966.0 1745.61   2
  -6  -4 -10 754.103 395.537   1
  -6  -4 -10 1656.09 642.057   2
  -6  -4  -9 8133.47 1612.06   1
  -6  -4  -9 7781.06 1356.26   2
  -6  -4  -8 60166.3 4385.93   1
  -6  -4  -8 61973.1 4250.49   2
  -6  -4  -7 70694.9 4715.95   1
  -6  -4  -7 68177.1 4487.38   2
  -6  -4  -6 65976.7 4457.10   1
  -6  -4  -6 66779.9 4441.92   2
  -6  -4  -5 158742. 7378.17   1
  -6  -4  -4 58382.0 4083.61   1
  -6  -4  -3 11362.6 1705.01   1
  -6  -4  -2 9745.75 1593.15   1
  -6  -4  -1 722.511 524.885   1
  -6  -4   0 36511.7 3234.50   1
  -6  -4   1 18846.0 2373.04   1
  -6  -4   2 77380.6 5207.37   1
  -6  -4   3 81236.5 5531.85   1
  -6  -4   4 57004.6 4650.78   1
  -6  -4   5 23507.4 3025.49   1
  -6  -4   6 10358.9 2015.78   1
  -6  -4   7 2564.85 1100.92   1
  -6  -3 -14 35436.0 3879.84   6
  -6  -3 -13 52079.4 4537.28   6
  -6  -3 -12 3480.25 1106.98   3
  -6  -3 -12 5173.50 1297.53   2
  -6  -3 -12 5479.92 1391.41   6
  -6  -3 -11 874.498 681.900   6
  -6  -3 -11 291.085 160.393   2
  -6  -3 -10 7804.61 1489.39   2
  -6  -3  -9 65928.4 4450.96   2
  -6  -3  -9 70570.2 4910.52   1
  -6  -3  -8 113468. 6289.93   1
  -6  -3  -8 110810. 5966.09   2
  -6  -3  -7 87145.1 5272.67   1
  -6  -3  -7 86526.2 5112.85   2
  -6  -3  -6 132601. 6515.37   2
  -6  -3  -6 125003. 6483.45   1
  -6  -3  -5 105408. 5765.47   1
  -6  -3  -5 110420. 5862.44   2
  -6  -3  -4 19352.0 2231.14   1
  -6  -3  -3 3057.71 831.248   1
  -6  -3  -2 7779.44 1359.36   1
  -6  -3  -1 35424.9 3087.62   1
  -6  -3   0 132788. 6566.45   1
  -6  -3   1 37750.9 3278.48   1
  -6  -3   2 109347. 6009.00   1
  -6  -3   2 99191.8 4839.58   5
  -6  -3   3 59771.9 3871.85   5
  -6  -3   3 60983.7 4511.42   1
  -6  -3   4 16634.9 2096.10   5
  -6  -3   4 16936.8 2379.21   1
  -6  -3   5 4747.15 1265.52   1
  -6  -3   5 4897.44 1199.31   5
  -6  -3   6 298.883 250.221   1
  -6  -3   6 627.963 269.513   5
  -6  -3   7 21371.3 2869.96   1
  -6  -3   7 18692.9 2561.74   5
  -6  -3   8 14441.5 2351.07   5
  -6  -3   8 15005.7 2427.52   1
  -6  -2 -13 4768.94 1429.81   6
  -6  -2 -12 5673.58 1371.72   2
  -6  -2 -12 5523.50 1390.75   6
  -6  -2 -11 10026.0 1823.98   2
  -6  -2 -11 8925.69 1748.95   6
  -6  -2 -10 43017.6 3763.25   6
  -6  -2 -10 40498.0 3641.97   2
  -6  -2  -9 115003. 6171.82   2
  -6  -2  -8 98459.6 5853.41   1
  -6  -2  -8 98781.9 5564.52   2
  -6  -2  -7 108454. 6075.51   1
  -6  -2  -7 112806. 5988.29   2
  -6  -2  -6 92746.8 5291.15   2
  -6  -2  -6 85970.8 5207.69   1
  -6  -2  -5 45026.9 3532.08   2
  -6  -2  -5 45378.1 3565.33   1
  -6  -2  -4 18647.9 2175.00   1
  -6  -2  -4 18329.6 2213.82   2
  -6  -2  -3 719.472 370.654   1
  -6  -2  -3 762.664 310.073   2
  -6  -2  -2 41831.2 3362.01   1
  -6  -2  -1 122018. 6145.43   1
  -6  -2   0 135126. 6573.97   1
  -6  -2   1 150322. 7018.31   1
  -6  -2   1 142454. 5382.56   5
  -6  -2   2 61251.1 4264.97   1
  -6  -2   2 54621.7 3276.12   5
  -6  -2   3 20553.6 2085.67   5
  -6  -2   3 19201.1 2369.91   1
  -6  -2   4 5714.82 1179.99   5
  -6  -2   4 5879.52 1320.80   1
  -6  -2   5 195.221 358.866   5
  -6  -2   5 1206.38 672.593   1
  -6  -2   6 9575.09 1671.84   5
  -6  -2   6 11590.3 1965.91   1
  -6  -2   7 28206.4 3210.77   5
  -6  -2   7 30257.4 3269.71   1
  -6  -2   8 25872.7 3074.21   1
  -6  -2   8 21705.9 2918.42   5
  -6  -2   9 25004.8 3225.51   5
  -6  -1 -12 876.073 667.931   6
  -6  -1 -11 16648.6 2434.56   6
  -6  -1 -11 19503.2 2611.76   2
  -6  -1 -10 77215.4 5347.52   6
  -6  -1 -10 70516.4 5014.37   2
  -6  -1  -9 106950. 6146.74   2
  -6  -1  -8 70504.8 4722.00   2
  -6  -1  -7 54507.2 4145.64   1
  -6  -1  -7 52895.2 3947.33   2
  -6  -1  -6 28455.0 2890.06   1
  -6  -1  -6 32660.6 3002.88   2
  -6  -1  -5 1016.32 584.623   2
  -6  -1  -5 402.899 47.1958   1
  -6  -1  -4 1539.14 606.784   1
  -6  -1  -4 1277.78 335.610   2
  -6  -1  -3 32363.9 2919.62   1
  -6  -1  -3 36462.3 3165.24   2
  -6  -1  -2 101193. 5500.10   1
  -6  -1  -2 97333.4 5566.54   2
  -6  -1  -1 86088.8 4967.91   1
  -6  -1   0 109252. 5739.82   1
  -6  -1   1 157649. 7130.87   1
  -6  -1   1 145572. 5416.93   5
  -6  -1   2 17885.2 1723.53   5
  -6  -1   2 15808.8 2030.12   1
  -6  -1   3 1841.93 647.946   5
  -6  -1   3 2097.86 732.185   1
  -6  -1   4 730.556 490.797   1
  -6  -1   4-128.480 268.371   5
  -6  -1   5 22653.0 2577.03   1
  -6  -1   5 21910.3 2457.50   5
  -6  -1   6 51675.1 4084.12   1
  -6  -1   6 53933.4 4217.45   5
  -6  -1   7 21189.5 2702.02   5
  -6  -1   7 22408.5 2692.84   1
  -6  -1   8 21070.1 2808.92   5
  -6  -1   9 29210.1 3475.40   5
  -6   0 -12 25221.9 3346.65   6
  -6   0 -11 67637.3 5280.83   6
  -6   0 -10 49662.7 4276.99   2
  -6   0 -10 46721.1 4196.35   6
  -6   0  -9 25123.2 2880.36   6
  -6   0  -9 20159.0 2585.96   2
  -6   0  -8 44924.0 3820.52   2
  -6   0  -7 20113.1 2367.03   2
  -6   0  -6 671.862 451.830   2
  -6   0  -6 1614.71 693.408   1
  -6   0  -5 13693.6 1971.06   2
  -6   0  -5 12470.0 1852.13   1
  -6   0  -4 49745.4 3773.28   1
  -6   0  -4 54958.3 3976.23   2
  -6   0  -3 114214. 6052.75   2
  -6   0  -3 113284. 5905.20   1
  -6   0  -2 111832. 5830.22   1
  -6   0  -2 111225. 6007.59   2
  -6   0  -1 173697. 7801.41   2
  -6   0  -1 153553. 7137.28   1
  -6   0   0 133193. 6794.30   2
  -6   0   0 126477. 6248.10   1
  -6   0   1 105538. 5604.55   1
  -6   0   2 1695.96 676.628   1
  -6   0   2 1313.38 450.408   5
  -6   0   3 2477.66 685.866   5
  -6   0   3 2524.73 792.540   1
  -6   0   3 2403.29 678.999   4
  -6   0   4 23102.9 2338.87   5
  -6   0   4 23452.1 2515.87   1
  -6   0   5 63884.4 4364.20   5
  -6   0   5 65583.3 4398.13   1
  -6   0   6 55425.8 4284.45   5
  -6   0   6 50959.1 3929.17   1
  -6   0   7 33366.7 3426.65   5
  -6   0   7 34916.1 3217.04   1
  -6   0   8 56172.0 4738.38   5
  -6   0   9 19805.7 2886.45   5
  -6   1 -11 59772.6 5206.01   6
  -6   1 -10 74018.7 5502.03   6
  -6   1  -9 61940.7 4819.94   6
  -6   1  -9 54609.0 4551.66   2
  -6   1  -8 54590.5 4398.49   2
  -6   1  -8 56624.4 4458.27   6
  -6   1  -7-419.537 223.908   2
  -6   1  -6 19667.3 2389.25   2
  -6   1  -5 51611.3 3913.59   2
  -6   1  -5 48019.8 3822.72   1
  -6   1  -4 117202. 6263.80   1
  -6   1  -4 129466. 6525.57   2
  -6   1  -3 106310. 5889.11   2
  -6   1  -3 107569. 5797.61   1
  -6   1  -2 87586.9 5069.53   1
  -6   1  -2 91454.2 5335.73   2
  -6   1  -1 95773.8 5317.32   1
  -6   1  -1 99807.0 5676.46   2
  -6   1   0 62377.3 4065.55   1
  -6   1   0 50196.6 3945.55   2
  -6   1   1 1793.18 696.455   2
  -6   1   1 1724.67 642.329   1
  -6   1   2 4054.38 1093.41   2
  -6   1   2 2480.75 757.397   4
  -6   1   2 3493.24 945.790   1
  -6   1   3 7699.97 1550.40   2
  -6   1   3 7816.49 1369.54   1
  -6   1   3 8575.86 1449.52   4
  -6   1   4 65857.0 4276.23   4
  -6   1   4 60391.7 4157.65   1
  -6   1   4 65918.3 4126.93   5
  -6   1   5 84985.2 5035.41   1
  -6   1   5 83416.3 5073.01   5
  -6   1   6 50732.8 3798.28   1
  -6   1   6 53130.6 4143.92   5
  -6   1   7 43431.0 4000.85   5
  -6   1   8 32334.9 3520.16   5
  -6   1   9 1608.77 761.056   5
  -6   2 -10 45362.0 4503.87   6
  -6   2  -9 16726.9 2485.08   6
  -6   2  -8 305.472 284.276   2
  -6   2  -8 1186.47 872.342   6
  -6   2  -7 4185.32 1142.58   2
  -6   2  -7 5220.27 1309.10   6
  -6   2  -6 9875.15 1771.23   2
  -6   2  -5 43502.2 3748.38   2
  -6   2  -4 170482. 7954.75   2
  -6   2  -3 88274.8 5223.66   1
  -6   2  -3 85838.9 5275.39   2
  -6   2  -2 51149.4 3841.46   1
  -6   2  -2 57365.3 4149.27   2
  -6   2  -1 22047.8 2551.37   2
  -6   2  -1 28135.7 2671.58   1
  -6   2   0 682.078 425.792   2
  -6   2   0 1211.08 550.324   1
  -6   2   1 13815.6 1975.64   2
  -6   2   1 15263.5 1876.32   1
  -6   2   2 8335.62 1406.53   1
  -6   2   2 9458.49 1614.30   2
  -6   2   2 12314.9 1852.89   4
  -6   2   3 65540.7 4463.14   4
  -6   2   3 57926.9 4452.35   2
  -6   2   3 58036.1 3942.13   1
  -6   2   4 115213. 6212.04   4
  -6   2   4 111794. 6435.78   2
  -6   2   4 112556. 5746.91   1
  -6   2   5 54516.6 4022.14   5
  -6   2   5 55186.8 4381.86   2
  -6   2   5 53664.8 4146.34   4
  -6   2   5 53894.8 3785.16   1
  -6   2   6 33443.6 3382.99   2
  -6   2   6 37804.4 3440.21   5
  -6   2   7 36388.7 3621.92   5
  -6   2   7 36072.0 3535.14   2
  -6   2   8 5396.92 1450.93   5
  -6   2   9 1343.86 750.474   5
  -6   3  -9 1636.34 802.289   6
  -6   3  -8 16613.9 2503.11   6
  -6   3  -7 21767.1 2814.77   6
  -6   3  -7 20699.1 2757.68   2
  -6   3  -6 80333.5 5482.10   6
  -6   3  -6 85850.9 5750.11   2
  -6   3  -5 137561. 7383.78   2
  -6   3  -4 104294. 6173.12   2
  -6   3  -3 40135.7 3574.05   2
  -6   3  -2 21846.9 2540.77   2
  -6   3  -1 439.154 345.564   1
  -6   3  -1 861.383 481.066   2
  -6   3   0 21926.9 2531.40   2
  -6   3   0 20113.2 2270.02   1
  -6   3   1 56592.3 4286.90   4
  -6   3   1 56847.6 3880.78   1
  -6   3   1 53179.4 4153.67   2
  -6   3   2 35048.9 3312.35   2
  -6   3   2 32403.6 2867.50   1
  -6   3   2 38381.9 3504.40   4
  -6   3   3 103554. 5387.95   1
  -6   3   3 99331.3 5977.12   2
  -6   3   3 102979. 6113.72   4
  -6   3   4 76074.8 5167.48   2
  -6   3   4 80636.5 4622.58   1
  -6   3   4 78038.0 5234.01   4
  -6   3   5 78139.1 5295.87   4
  -6   3   5 69588.1 4993.44   2
  -6   3   6 52656.7 4105.38   5
  -6   3   6 50190.0 4255.03   4
  -6   3   6 46462.3 4041.23   2
  -6   3   7 15967.0 2345.89   5
  -6   3   7 13767.7 2145.80   2
  -6   3   8 814.438 503.174   5
  -6   3   9 6551.55 1703.16   5
  -6   4  -8 35010.7 3867.54   6
  -6   4  -7 38283.5 3869.69   6
  -6   4  -6 97339.9 6227.84   6
  -6   4  -5 88658.3 5978.63   2
  -6   4  -5 95723.6 6028.73   6
  -6   4  -4 44202.6 3974.07   2
  -6   4  -3 49944.0 4186.12   2
  -6   4  -2 13407.3 2093.09   2
  -6   4  -1 8739.67 1630.18   2
  -6   4   0 44043.8 3813.41   2
  -6   4   1 45762.4 3498.10   1
  -6   4   1 41653.0 3744.37   2
  -6   4   1 43611.9 3906.06   4
  -6   4   2 99460.7 6164.32   4
  -6   4   2 91965.3 5133.18   1
  -6   4   2 92845.9 5760.96   2
  -6   4   3 78609.0 5349.10   4
  -6   4   3 70989.0 5019.65   2
  -6   4   3 70859.8 4346.62   1
  -6   4   4 47012.5 4136.85   4
  -6   4   4 45632.6 3929.01   2
  -6   4   5 37272.0 3681.67   4
  -6   4   5 33323.3 3338.43   2
  -6   4   6 10218.5 1831.20   2
  -6   4   6 8414.52 1730.32   4
  -6   4   7 278.748 402.033   4
  -6   4   8 10855.7 2114.63   5
  -6   4   9 13079.2 2380.70   5
  -6   5  -7 53262.9 4844.31   6
  -6   5  -6 59899.1 4937.69   6
  -6   5  -5 26482.7 3152.25   6
  -6   5  -4 10154.2 1858.67   6
  -6   5  -4 6731.07 1556.04   2
  -6   5  -3 14493.9 2276.59   2
  -6   5  -2 4064.82 1236.94   2
  -6   5  -1 29492.4 3250.16   2
  -6   5   0 36803.0 3595.24   2
  -6   5   1 82210.6 5639.46   4
  -6   5   1 75700.8 5294.83   2
  -6   5   2 89047.6 5983.73   4
  -6   5   2 82953.8 5544.11   2
  -6   5   3 49325.3 4296.91   4
  -6   5   3 41965.1 3832.37   2
  -6   5   4 9614.33 1881.98   4
  -6   5   4 8966.19 1704.38   2
  -6   5   5 8966.96 1832.09   4
  -6   5   5 6157.35 1444.15   2
  -6   5   6 745.991 333.090   2
  -6   5   6 44.9788 383.529   4
  -6   5   7 14565.2 2466.25   4
  -6   5   8 29896.1 3624.29   4
  -6   6  -5 6469.47 1562.56   6
  -6   6  -4 338.768 305.894   6
  -6   6  -3 3703.16 1213.81   6
  -6   6  -2 26418.4 3261.74   2
  -6   6  -2 24092.8 2861.32   6
  -6   6  -1 47096.1 4306.18   2
  -6   6   0 47491.2 4329.62   2
  -6   6   1 86422.8 5977.23   2
  -6   6   1 94096.8 6319.31   4
  -6   6   2 82505.2 5732.44   2
  -6   6   2 77229.1 5822.27   4
  -6   6   3 27590.3 3303.73   4
  -6   6   3 28886.7 3257.13   2
  -6   6   4 10261.2 1912.82   2
  -6   6   4 13088.1 2258.61   4
  -6   6   5 4389.46 1256.13   2
  -6   6   5 2788.10 1144.33   4
  -6   6   6 17769.6 2712.35   4
  -6   6   6 13460.5 2204.27   2
  -6   6   7 41605.5 4386.73   4
  -6   6   8 43614.0 4543.42   4
  -6   6   9 37375.0 4253.33   4
  -6   7  -4 2415.03 1036.11   6
  -6   7  -3 20760.1 2796.68   6
  -6   7  -2 22985.2 2893.07   6
  -6   7  -1 39142.1 3750.21   6
  -6   7   1 67397.3 5489.86   4
  -6   7   1 63596.6 5305.22   2
  -6   7   2 30104.5 3566.80   4
  -6   7   2 25488.0 3222.85   2
  -6   7   3 8306.21 1797.37   2
  -6   7   3 9323.28 1941.85   4
  -6   7   4-60.5253 184.826   4
  -6   7   4 417.684 46.8367   2
  -6   7   5 23759.4 3035.10   2
  -6   7   5 23480.2 3193.95   4
  -6   7   6 22442.6 3179.32   4
  -6   7   7 27447.1 3628.81   4
  -6   7   8 39392.2 4416.66   4
  -6   8  -3 50754.2 4747.37   6
  -6   8  -2 55710.0 4828.04   6
  -6   8  -1 45964.0 4202.01   6
  -6   8   0 30198.8 3324.78   6
  -6   8   1 3760.55 1164.07   6
  -6   8   1 5457.18 1477.66   4
  -6   8   2 3754.63 1196.90   4
  -6   8   3 147.355 610.514   4
  -6   8   4 7489.38 1796.42   4
  -6   8   4 6477.11 1611.47   2
  -6   8   5 43629.0 4545.74   4
  -6   8   6 38325.2 4319.41   4
  -6   9  -1 28914.8 3528.66   6
  -6   9   0 16935.7 2545.77   6
  -6   9   1-169.837 477.176   6
  -5 -14  -8 13433.7 2220.39   1
  -5 -14  -7 33191.3 3545.38   1
  -5 -13  -9 23273.8 2810.95   1
  -5 -13  -8 27661.2 3125.50   1
  -5 -13  -7 43492.5 3978.49   1
  -5 -13  -6 15063.5 2350.03   1
  -5 -13  -5 633.615 190.247   1
  -5 -13  -4 728.543 687.911   1
  -5 -12 -10 98107.7 5930.55   1
  -5 -12  -9 34067.3 3324.39   1
  -5 -12  -8 44337.3 3843.97   1
  -5 -12  -7 21302.3 2608.17   1
  -5 -12  -6 442.550 301.023   1
  -5 -12  -5 1328.39 559.630   1
  -5 -12  -4 1504.21 697.271   1
  -5 -12  -3 46345.5 4473.81   1
  -5 -12  -2 43398.0 4506.33   1
  -5 -11 -11 77506.0 5106.30   1
  -5 -11 -10 63424.9 4543.04   1
  -5 -11  -9 34944.8 3266.77   1
  -5 -11  -8 32425.3 3170.91   1
  -5 -11  -7 890.029 627.403   1
  -5 -11  -6 3426.08 1001.17   1
  -5 -11  -5 12622.8 2068.21   1
  -5 -11  -4 35127.1 3567.74   1
  -5 -11  -3 67983.1 5226.29   1
  -5 -11  -2 50427.7 4654.32   1
  -5 -11  -1 37353.0 4166.26   1
  -5 -11   0 38167.2 4368.65   1
  -5 -10 -12 88918.3 5501.70   1
  -5 -10 -11 51744.4 4066.38   1
  -5 -10 -10 26386.6 2818.92   1
  -5 -10  -9 51635.3 3993.88   1
  -5 -10  -8 989.655 531.302   1
  -5 -10  -7 10979.4 1768.21   1
  -5 -10  -6 26783.5 2830.84   1
  -5 -10  -5 54368.6 4153.29   1
  -5 -10  -4 93143.2 5763.06   1
  -5 -10  -3 57138.5 4586.31   1
  -5 -10  -2 62177.7 4892.85   1
  -5 -10  -1 60334.6 5072.84   1
  -5 -10   0 4292.72 1390.39   1
  -5 -10   1 3701.55 1393.29   1
  -5  -9 -13 92519.6 5691.57   1
  -5  -9 -13 107460. 7071.41   3
  -5  -9 -12 77981.6 5104.54   1
  -5  -9 -11 44300.8 3708.87   1
  -5  -9 -10 31886.5 3070.29   1
  -5  -9  -9 48328.3 3799.07   1
  -5  -9  -8 5536.67 1216.93   1
  -5  -9  -7 24018.1 2570.15   1
  -5  -9  -6 45000.8 3514.15   1
  -5  -9  -5 109894. 5956.89   1
  -5  -9  -4 105908. 5954.18   1
  -5  -9  -3 39424.1 3543.91   1
  -5  -9  -2 71137.8 5075.35   1
  -5  -9  -1 9137.04 1749.35   1
  -5  -9   0 2929.05 1094.05   1
  -5  -9   1 7321.57 1760.47   1
  -5  -9   2 27737.2 3663.80   1
  -5  -9   3 58132.1 5580.19   1
  -5  -8 -14 88094.5 6357.35   3
  -5  -8 -13 78295.0 5853.98   3
  -5  -8 -12 29318.0 3006.35   1
  -5  -8 -11 19298.4 2318.88   1
  -5  -8 -11 17137.0 1928.34   2
  -5  -8 -10 2455.61 756.375   1
  -5  -8 -10 2163.74 673.356   2
  -5  -8  -9 4252.07 992.819   1
  -5  -8  -8 17691.8 2136.54   1
  -5  -8  -7 20150.0 2314.41   1
  -5  -8  -6 74037.8 4574.70   1
  -5  -8  -5 87308.0 5020.27   1
  -5  -8  -4 68515.8 4442.45   1
  -5  -8  -3 45874.9 3647.85   1
  -5  -8  -2 11565.1 1832.92   1
  -5  -8  -1 6402.00 1381.53   1
  -5  -8   0 20641.4 2706.16   1
  -5  -8   1 23373.1 3027.93   1
  -5  -8   2 117972. 7477.25   1
  -5  -8   3 82659.5 6378.71   1
  -5  -8   4 30023.4 3892.16   1
  -5  -7 -14 97785.9 6662.11   3
  -5  -7 -13 38226.4 3912.11   3
  -5  -7 -12 7094.73 1274.05   6
  -5  -7 -12 8245.73 1574.61   1
  -5  -7 -11 2219.92 791.823   1
  -5  -7 -11 2887.74 797.779   2
  -5  -7 -10 19666.1 2338.21   1
  -5  -7 -10 17808.9 2001.41   2
  -5  -7  -9 73278.7 4385.61   2
  -5  -7  -9 78340.9 4805.99   1
  -5  -7  -8 22442.8 2376.22   1
  -5  -7  -7 155314. 7028.18   1
  -5  -7  -6 201514. 8294.78   1
  -5  -7  -5 84453.1 4830.24   1
  -5  -7  -4 31721.2 2822.66   1
  -5  -7  -3 16764.9 2061.15   1
  -5  -7  -2 11071.2 1740.08   1
  -5  -7  -1 47049.2 3790.43   1
  -5  -7   0 20837.4 2549.89   1
  -5  -7   1 99951.4 6210.75   1
  -5  -7   2 113797. 7001.57   1
  -5  -7   3 53405.7 4807.75   1
  -5  -7   4 25619.0 3351.68   1
  -5  -7   5 31457.0 3926.29   1
  -5  -6 -15 56924.6 5005.70   3
  -5  -6 -14 57497.5 4866.11   3
  -5  -6 -13 10313.4 2005.10   3
  -5  -6 -13 9774.91 1554.74   6
  -5  -6 -12 5167.18 1059.85   2
  -5  -6 -12 6295.88 1242.24   6
  -5  -6 -12 5294.00 1384.33   3
  -5  -6 -11 14923.8 2093.53   1
  -5  -6 -11 12918.3 1671.78   2
  -5  -6 -10 47666.8 3728.12   1
  -5  -6 -10 47388.6 3318.51   2
  -5  -6  -9 131453. 6442.94   1
  -5  -6  -9 122491. 5833.63   2
  -5  -6  -8 90825.7 5118.22   1
  -5  -6  -7 195860. 8127.51   1
  -5  -6  -6 85263.4 4824.87   1
  -5  -6  -5 37076.7 2990.90   1
  -5  -6  -4 68398.7 4206.45   1
  -5  -6  -3 16839.0 1952.29   1
  -5  -6  -2 49066.5 3617.15   1
  -5  -6  -1 53713.3 3915.31   1
  -5  -6   0 89168.5 5343.69   1
  -5  -6   1 115703. 6414.16   1
  -5  -6   2 48971.9 4112.37   1
  -5  -6   3 15527.1 2398.91   1
  -5  -6   4 18539.3 2689.85   1
  -5  -6   5 545.071 31.5177   1
  -5  -6   6 15295.6 2603.24   1
  -5  -6   7 9756.24 2133.86   1
  -5  -5 -15 15947.9 2511.67   3
  -5  -5 -14 597.760 577.049   6
  -5  -5 -14 3389.65 1110.21   3
  -5  -5 -13 7481.80 1590.73   3
  -5  -5 -13 8121.53 1508.15   6
  -5  -5 -12 681.273 523.276   3
  -5  -5 -12 1560.99 652.181   6
  -5  -5 -12 900.178 449.133   2
  -5  -5 -11 37759.5 3103.41   6
  -5  -5 -11 37371.8 2931.80   2
  -5  -5 -10 59743.6 3823.88   2
  -5  -5 -10 62824.4 4324.23   1
  -5  -5  -9 123013. 6249.81   1
  -5  -5  -9 124112. 5822.45   2
  -5  -5  -8 208359. 8557.63   1
  -5  -5  -8 211216. 8211.21   2
  -5  -5  -7 101887. 5394.87   1
  -5  -5  -6 13068.3 1723.77   1
  -5  -5  -5 26395.9 2484.11   1
  -5  -5  -4 958.449 384.033   1
  -5  -5  -3 105658. 5317.73   1
  -5  -5  -2 107860. 5428.56   1
  -5  -5  -1 64233.6 4126.10   1
  -5  -5   0 85621.1 4998.96   1
  -5  -5   1 60176.0 4219.08   1
  -5  -5   2 14107.6 2039.72   1
  -5  -5   3 12853.4 2048.98   1
  -5  -5   4 62.4603 124.678   1
  -5  -5   5 18792.9 2684.19   1
  -5  -5   6 20848.1 2935.60   1
  -5  -5   7 23519.2 3210.95   1
  -5  -5   8 44233.4 4586.26   1
  -5  -4 -14 1062.29 603.906   3
  -5  -4 -14 1513.69 708.212   6
  -5  -4 -13 180.299 225.665   6
  -5  -4 -13 526.732 592.066   3
  -5  -4 -12 38276.4 3147.93   2
  -5  -4 -12 41540.3 3701.03   3
  -5  -4 -12 42942.7 3492.25   6
  -5  -4 -11 89193.2 4968.57   2
  -5  -4 -11 92219.5 5212.15   6
  -5  -4 -10 64387.7 4425.97   1
  -5  -4 -10 64050.2 4036.97   2
  -5  -4  -9 124507. 6289.46   1
  -5  -4  -9 127959. 5957.10   2
  -5  -4  -8 209875. 8184.66   2
  -5  -4  -8 214735. 8652.82   1
  -5  -4  -7 15011.0 1898.27   1
  -5  -4  -7 12990.6 1662.37   2
  -5  -4  -6 4916.48 1076.89   1
  -5  -4  -5 727.485 426.878   1
  -5  -4  -4 87828.1 4715.34   1
  -5  -4  -3 158566. 6757.51   1
  -5  -4  -2 94591.0 4784.67   1
  -5  -4  -2 77344.2 2408.66   5
  -5  -4  -1 180799. 7456.77   1
  -5  -4   0 322521. 11287.1   1
  -5  -4   1 43293.3 3360.56   1
  -5  -4   2 8843.10 1559.83   1
  -5  -4   3 256.826 279.629   1
  -5  -4   4 16691.8 2286.86   1
  -5  -4   5 42517.5 3885.87   1
  -5  -4   6 20092.0 2748.06   1
  -5  -4   7 52251.0 4652.68   1
  -5  -4   8 42111.4 4246.72   1
  -5  -4   9 10718.2 2113.92   1
  -5  -3 -15-247.315 274.301   6
  -5  -3 -14 695.049 217.426   6
  -5  -3 -13 18794.0 2446.43   3
  -5  -3 -13 23130.9 2797.70   6
  -5  -3 -12 72920.4 4710.10   2
  -5  -3 -12 80374.1 5149.61   3
  -5  -3 -12 78807.1 5116.83   6
  -5  -3 -11 43132.3 3424.24   2
  -5  -3 -11 45745.9 3647.36   3
  -5  -3 -11 41974.0 3487.67   6
  -5  -3 -10 98660.3 5293.40   2
  -5  -3 -10 107463. 5655.21   6
  -5  -3  -9 113660. 5651.46   2
  -5  -3  -9 124063. 6272.08   1
  -5  -3  -8 101934. 5211.55   2
  -5  -3  -8 106589. 5630.37   1
  -5  -3  -7 1535.66 538.275   1
  -5  -3  -7 1623.71 668.520   2
  -5  -3  -6 733.948 388.430   2
  -5  -3  -6 336.605 169.025   1
  -5  -3  -5 53726.7 3561.90   2
  -5  -3  -5 57297.8 3684.66   1
  -5  -3  -4 174975. 7209.65   1
  -5  -3  -3 118121. 5578.68   1
  -5  -3  -2 106272. 5208.81   1
  -5  -3  -1 185828. 7222.41   1
  -5  -3  -1 164838. 4925.69   5
  -5  -3   0 56616.2 3678.96   1
  -5  -3   0 59172.3 2806.16   5
  -5  -3   1 14173.2 1811.53   1
  -5  -3   2 3313.81 940.842   1
  -5  -3   3 2288.12 714.754   1
  -5  -3   4 57844.0 4198.55   1
  -5  -3   5 55382.6 4274.32   1
  -5  -3   6 49744.4 4158.11   1
  -5  -3   7 51290.7 4380.76   1
  -5  -3   8 19898.3 2760.42   1
  -5  -3   9 1252.41 518.346   1
  -5  -3  10 1533.59 732.653   1
  -5  -2 -15-503.850 163.803   6
  -5  -2 -14 18265.0 2777.63   6
  -5  -2 -13 87173.0 5942.52   6
  -5  -2 -12 65075.9 4442.93   3
  -5  -2 -12 64921.9 4836.98   6
  -5  -2 -11 34920.9 3114.68   3
  -5  -2 -11 36006.5 3186.30   2
  -5  -2 -11 38688.9 3374.97   6
  -5  -2 -10 78480.2 4886.98   6
  -5  -2 -10 77788.6 4729.21   2
  -5  -2  -9 31910.8 2802.04   2
  -5  -2  -8 1239.31 482.735   1
  -5  -2  -8 2189.91 715.213   2
  -5  -2  -7 1402.94 623.980   1
  -5  -2  -7 579.746 192.251   2
  -5  -2  -6 25822.4 2367.30   2
  -5  -2  -6 19029.5 2114.30   1
  -5  -2  -5 175053. 7178.79   2
  -5  -2  -5 167645. 7108.59   1
  -5  -2  -4 138908. 6262.32   1
  -5  -2  -4 146811. 6409.16   2
  -5  -2  -3 121570. 5650.97   1
  -5  -2  -2 131870. 5922.02   1
  -5  -2  -1 51441.2 3401.88   1
  -5  -2   0 2433.48 707.212   1
  -5  -2   0 2269.91 452.723   5
  -5  -2   1 5068.33 1048.98   1
  -5  -2   1 6359.42 866.434   5
  -5  -2   2 19406.6 1832.73   5
  -5  -2   2 19341.0 2114.10   1
  -5  -2   3 126248. 6083.62   1
  -5  -2   3 115007. 5497.26   5
  -5  -2   4 127533. 6335.22   1
  -5  -2   5 104481. 5824.21   1
  -5  -2   6 88775.7 5465.39   1
  -5  -2   7 23585.5 2733.77   1
  -5  -2   8 3249.90 1005.85   1
  -5  -2   9 51.8913 253.143   1
  -5  -1 -14 46374.7 4793.25   6
  -5  -1 -13 132974. 7989.82   6
  -5  -1 -12 66166.0 5058.86   6
  -5  -1 -11 79878.5 4735.90   3
  -5  -1 -11 90216.8 5635.07   6
  -5  -1 -10 59947.4 4280.40   6
  -5  -1 -10 53431.4 3957.91   2
  -5  -1  -9 2776.14 894.448   2
  -5  -1  -9 3152.37 928.482   6
  -5  -1  -8 29978.4 2730.92   2
  -5  -1  -7 23151.4 2268.43   2
  -5  -1  -7 19720.5 2203.83   1
  -5  -1  -6 120278. 5762.12   2
  -5  -1  -6 121812. 5900.65   1
  -5  -1  -5 194264. 7686.84   2
  -5  -1  -5 185372. 7628.24   1
  -5  -1  -4 133414. 6081.99   2
  -5  -1  -4 130071. 5972.33   1
  -5  -1  -3 122842. 5718.48   2
  -5  -1  -3 112269. 5447.71   1
  -5  -1  -2 68318.5 3965.65   1
  -5  -1  -1 8087.93 1250.00   1
  -5  -1   0 4499.79 919.860   1
  -5  -1   1 2423.88 522.097   5
  -5  -1   1 2129.49 610.179   1
  -5  -1   2 111547. 5433.46   1
  -5  -1   2 117514. 4947.40   5
  -5  -1   3 109184. 4616.51   4
  -5  -1   3 111273. 5228.92   5
  -5  -1   3 120023. 5675.94   1
  -5  -1   4 121821. 5976.81   1
  -5  -1   4 121998. 4959.67   4
  -5  -1   4 124817. 5936.04   5
  -5  -1   5 145720. 6791.51   1
  -5  -1   5 137008. 6720.96   5
  -5  -1   6 98233.6 5855.64   5
  -5  -1   6 109145. 5822.24   1
  -5  -1   7 3898.42 1008.48   1
  -5  -1   7 6470.13 1464.33   5
  -5  -1   8 1587.05 765.225   5
  -5  -1   8 2054.65 824.635   1
  -5  -1   9 1237.68 662.593   1
  -5  -1   9 1279.97 599.436   5
  -5  -1  10 22542.5 3078.39   5
  -5   0 -13 65957.4 5716.77   6
  -5   0 -12 58245.6 4924.96   6
  -5   0 -11 55451.9 4581.56   6
  -5   0 -10 743.739 519.848   6
  -5   0  -9 4994.91 1162.80   2
  -5   0  -9 6360.84 1363.45   6
  -5   0  -8 20616.6 2371.30   2
  -5   0  -8 28990.8 2822.93   6
  -5   0  -7 49045.1 3570.68   2
  -5   0  -6 143741. 6484.69   2
  -5   0  -6 135795. 6455.34   1
  -5   0  -5 100021. 5206.52   1
  -5   0  -5 99732.7 5125.44   2
  -5   0  -4 98948.7 5053.01   1
  -5   0  -4 95396.6 4991.76   2
  -5   0  -3 78966.8 4449.01   2
  -5   0  -3 80164.7 4407.78   1
  -5   0  -2 5083.55 985.934   1
  -5   0  -2 4345.49 976.242   2
  -5   0  -1 3213.04 846.832   2
  -5   0  -1 3884.22 854.210   1
  -5   0   0 22914.1 2157.79   1
  -5   0   1 113604. 4471.45   5
  -5   0   1 117609. 5446.55   1
  -5   0   2 92332.0 4496.38   4
  -5   0   2 92894.9 4759.48   1
  -5   0   2 96779.0 4318.77   5
  -5   0   3 93948.4 4508.28   4
  -5   0   3 91639.7 4789.71   1
  -5   0   3 95146.8 4635.03   5
  -5   0   4 83650.1 4236.48   4
  -5   0   4 77688.1 4448.26   5
  -5   0   4 73602.5 4297.00   1
  -5   0   5 98866.2 5172.66   1
  -5   0   5 99852.2 4836.48   4
  -5   0   5 95280.7 5353.66   5
  -5   0   6 11915.6 1692.41   1
  -5   0   6 10323.5 1692.37   5
  -5   0   7 111.901 156.643   1
  -5   0   7-200.267 430.147   5
  -5   0   8 2569.69 833.787   1
  -5   0   8 2461.65 857.395   5
  -5   0   9 26250.4 3261.11   5
  -5   0  10 44132.2 4363.88   5
  -5   1 -12 28398.4 3634.63   6
  -5   1 -11 3258.35 990.509   6
  -5   1 -10 11112.9 2028.11   6
  -5   1  -9 44665.2 3769.99   6
  -5   1  -8 103074. 5839.99   6
  -5   1  -8 99049.0 5681.48   2
  -5   1  -7 188428. 8172.64   2
  -5   1  -6 72704.9 4501.65   2
  -5   1  -5 26215.7 2494.25   2
  -5   1  -4 61075.4 3916.20   2
  -5   1  -4 60409.6 3871.92   1
  -5   1  -3 9753.33 1441.15   2
  -5   1  -3 8886.81 1345.19   1
  -5   1  -2 4103.78 903.469   2
  -5   1  -2 3706.40 854.382   1
  -5   1  -1 26337.4 2462.48   2
  -5   1  -1 25565.8 2266.75   1
  -5   1   0 107336. 5130.80   1
  -5   1   0 114562. 5644.38   2
  -5   1   1 286355. 10431.4   2
  -5   1   1 292182. 10041.7   4
  -5   1   1 289773. 9860.91   1
  -5   1   2 84079.3 4494.18   4
  -5   1   2 83692.7 4381.21   1
  -5   1   2 80397.9 3914.62   5
  -5   1   3 99012.7 4954.23   4
  -5   1   3 100331. 4928.99   1
  -5   1   3 96877.8 4731.76   5
  -5   1   4 102720. 5153.63   4
  -5   1   4 100818. 5172.73   5
  -5   1   4 104063. 5084.57   1
  -5   1   5 8002.46 1298.47   4
  -5   1   5 8225.97 1276.49   1
  -5   1   5 8503.99 1437.55   5
  -5   1   6 7035.64 1286.14   4
  -5   1   6 5712.01 1286.41   5
  -5   1   6 6344.50 1140.09   1
  -5   1   7 3676.55 835.441   1
  -5   1   7 3022.47 1000.25   5
  -5   1   8 34909.9 3551.10   5
  -5   1   8 35952.3 3001.44   1
  -5   1   9 62047.8 5056.17   5
  -5   1  10 37504.5 3962.73   5
  -5   2 -11 9600.11 1970.08   6
  -5   2 -10 31069.7 3536.12   6
  -5   2  -9 57464.5 4650.25   6
  -5   2  -8 146031. 7386.22   6
  -5   2  -7 113479. 6206.92   6
  -5   2  -7 119393. 6377.39   2
  -5   2  -6 103014. 5709.49   2
  -5   2  -5 103485. 5610.00   2
  -5   2  -4 47429.3 3487.19   2
  -5   2  -3 5573.86 1097.99   1
  -5   2  -3 6915.30 1250.29   2
  -5   2  -2 27663.7 2462.52   1
  -5   2  -2 25958.5 2475.02   2
  -5   2  -1 83774.6 4725.03   2
  -5   2  -1 81144.3 4404.51   1
  -5   2   0 162999. 6709.59   1
  -5   2   0 167075. 7159.71   2
  -5   2   1 264628. 9864.19   2
  -5   2   1 266378. 9220.13   1
  -5   2   1 263313. 9728.96   4
  -5   2   2 55024.4 3707.86   4
  -5   2   2 52193.5 3693.39   2
  -5   2   2 54014.8 3382.79   1
  -5   2   3 99046.4 5357.02   2
  -5   2   3 95348.1 5101.93   4
  -5   2   3 89543.1 4558.50   1
  -5   2   4 9713.16 1551.30   2
  -5   2   4 9991.24 1552.61   4
  -5   2   4 9975.44 1489.49   5
  -5   2   4 8892.39 1305.78   1
  -5   2   5 8536.26 1305.00   1
  -5   2   5 8541.74 1466.77   5
  -5   2   5 10499.8 1611.46   4
  -5   2   6 10006.8 1613.29   4
  -5   2   6 11349.5 1491.79   1
  -5   2   6 11764.2 1787.36   5
  -5   2   7 7152.58 1361.28   4
  -5   2   7 7593.74 1597.09   5
  -5   2   7 5567.41 1047.49   1
  -5   2   8 75706.8 4979.64   4
  -5   2   8 74720.8 5394.49   5
  -5   2   9 66071.1 5283.86   5
  -5   2  10 34522.4 3875.73   5
  -5   2  11 30385.3 3742.04   5
  -5   3 -10 29176.0 3549.61   6
  -5   3  -9 69845.8 5366.47   6
  -5   3  -8 97618.7 6149.36   6
  -5   3  -7 71675.2 4885.80   6
  -5   3  -6 47400.2 3886.92   2
  -5   3  -6 41959.4 3556.40   6
  -5   3  -5 16132.1 2109.69   2
  -5   3  -4 19614.4 2339.87   2
  -5   3  -3 11226.3 1695.39   2
  -5   3  -2 7698.67 1371.62   2
  -5   3  -1 96528.8 4951.24   1
  -5   3  -1 97985.7 5261.90   2
  -5   3   0 161090. 6726.27   1
  -5   3   0 164360. 7392.17   4
  -5   3   0 161434. 7129.34   2
  -5   3   1 95657.2 5190.65   2
  -5   3   1 94611.6 4726.75   1
  -5   3   1 95308.0 5332.63   4
  -5   3   2 83515.3 4377.09   1
  -5   3   2 82356.9 4826.96   2
  -5   3   2 94759.1 5185.81   4
  -5   3   3 6032.43 1165.84   2
  -5   3   3 9157.95 1469.28   4
  -5   3   3 6919.32 1132.42   1
  -5   3   4 9856.06 1326.91   1
  -5   3   4 10135.5 1641.63   4
  -5   3   4 8823.00 1459.49   2
  -5   3   5 52661.7 3888.98   4
  -5   3   5 53428.5 3874.76   2
  -5   3   5 50433.5 3683.16   5
  -5   3   5 48284.5 3134.43   1
  -5   3   6 36568.3 3327.65   4
  -5   3   6 33515.2 2570.16   1
  -5   3   6 31374.0 2971.97   2
  -5   3   6 40371.9 3444.79   5
  -5   3   7 79805.6 5200.97   4
  -5   3   7 94265.6 5749.24   5
  -5   3   7 82211.8 5060.53   2
  -5   3   8 74677.2 4869.59   2
  -5   3   8 88490.7 5592.99   4
  -5   3   8 83176.9 5729.30   5
  -5   3   9 27104.3 3298.36   5
  -5   3  10 26607.8 3398.18   5
  -5   3  11 9823.91 2152.72   5
  -5   4  -9 53400.0 4910.38   6
  -5   4  -8 31752.0 3542.47   6
  -5   4  -7 17915.1 2491.76   6
  -5   4  -6 16697.0 2234.06   6
  -5   4  -5 4225.53 1209.61   2
  -5   4  -5 6548.45 1389.33   6
  -5   4  -4 63435.8 4340.72   6
  -5   4  -4 60761.2 4420.64   2
  -5   4  -3 53129.8 4011.17   2
  -5   4  -2 173206. 7859.83   2
  -5   4  -1 228866. 9223.53   2
  -5   4   0 84348.0 4955.70   2
  -5   4   0 87010.7 5235.32   4
  -5   4   1 10373.0 1438.14   1
  -5   4   1 14660.7 1988.85   4
  -5   4   1 14154.0 1850.41   2
  -5   4   2 52895.9 3909.79   4
  -5   4   2 47998.4 3194.88   1
  -5   4   2 49045.6 3641.43   2
  -5   4   3 2406.17 762.988   2
  -5   4   3 2493.55 664.365   1
  -5   4   3 2407.97 774.777   4
  -5   4   4 45307.7 3683.02   4
  -5   4   4 41995.4 2827.09   1
  -5   4   4 40882.9 3339.75   2
  -5   4   5 44916.2 3518.84   2
  -5   4   5 42117.1 2823.52   1
  -5   4   5 45449.7 3727.23   4
  -5   4   6 92255.9 5662.23   4
  -5   4   6 98170.6 5655.48   5
  -5   4   6 85063.0 5176.21   2
  -5   4   7 113079. 6530.47   4
  -5   4   7 107777. 5931.73   2
  -5   4   7 123395. 6742.26   5
  -5   4   8 43045.1 3962.76   4
  -5   4   8 47550.5 4221.72   5
  -5   4   9 25793.7 3092.48   4
  -5   4   9 27364.1 3378.14   5
  -5   4  10 31106.5 3729.95   5
  -5   5  -8 2660.54 1230.41   6
  -5   5  -7 4809.74 1271.74   6
  -5   5  -6 1263.57 658.088   6
  -5   5  -5 32338.7 3231.02   6
  -5   5  -4 84400.3 5288.84   6
  -5   5  -3 93230.2 5763.92   2
  -5   5  -3 97143.9 5574.82   6
  -5   5  -2 146950. 7358.66   2
  -5   5  -1 74939.1 4933.16   2
  -5   5   0 36103.7 3431.09   4
  -5   5   0 35580.2 3270.98   2
  -5   5   1 26852.1 2778.31   2
  -5   5   1 27983.3 2946.91   4
  -5   5   2 24556.3 2757.46   4
  -5   5   2 26415.6 2749.25   2
  -5   5   3 25030.3 2782.63   4
  -5   5   3 22520.5 2470.28   2
  -5   5   4 36430.5 3427.82   4
  -5   5   4 35572.2 2611.97   1
  -5   5   4 35519.1 3176.63   2
  -5   5   5 64731.5 4430.14   2
  -5   5   5 64735.3 4715.84   4
  -5   5   6 92642.7 5815.15   4
  -5   5   6 84020.3 5149.85   2
  -5   5   7 82792.4 5595.10   4
  -5   5   7 74019.1 4835.88   2
  -5   5   8 21665.5 2828.17   5
  -5   5   8 21857.0 2820.08   4
  -5   5   9 12031.1 2205.11   4
  -5   5   9 16246.4 2578.73   5
  -5   5  10 176.654 124.353   5
  -5   5  10-91.8974 292.122   4
  -5   6  -7 785.572 530.747   6
  -5   6  -6 26081.1 3241.03   6
  -5   6  -5 67023.9 5129.23   6
  -5   6  -4 49528.6 4136.94   6
  -5   6  -3 116255. 6422.89   6
  -5   6  -2 74032.0 4883.16   6
  -5   6  -1 12442.3 2037.66   2
  -5   6   0 2589.43 934.480   4
  -5   6   0 3435.63 990.217   2
  -5   6   1 2001.20 793.502   4
  -5   6   1 3121.97 945.684   2
  -5   6   2 46612.7 3879.16   2
  -5   6   2 45900.4 3952.03   4
  -5   6   3 27285.2 2988.18   4
  -5   6   3 28435.3 2998.42   2
  -5   6   4 37231.9 3627.40   4
  -5   6   4 36031.3 3363.09   2
  -5   6   5 67204.6 4921.93   4
  -5   6   5 57315.0 4317.65   2
  -5   6   6 75456.5 5410.04   4
  -5   6   6 71292.7 4825.95   2
  -5   6   7 30510.8 3417.03   4
  -5   6   8 13082.7 2258.93   4
  -5   6   9 473.402 390.819   4
  -5   6  10 15757.1 2642.98   4
  -5   6  10 18327.9 2911.66   5
  -5   6  11 7594.34 1844.20   4
  -5   7  -6 66587.1 5695.21   6
  -5   7  -5 46468.2 4447.26   6
  -5   7  -4 51978.5 4539.85   6
  -5   7  -3 76477.3 5329.92   6
  -5   7  -2 29018.3 3060.66   6
  -5   7  -1 1244.91 408.614   6
  -5   7   0 987.353 551.130   4
  -5   7   0 2468.11 812.556   6
  -5   7   1 35565.9 3629.35   4
  -5   7   2 86888.6 5855.15   4
  -5   7   2 91031.3 5927.93   2
  -5   7   3 51826.3 4441.68   4
  -5   7   3 52799.7 4394.48   2
  -5   7   4 77816.7 5407.84   2
  -5   7   4 79585.8 5606.25   4
  -5   7   5 100160. 6411.23   4
  -5   7   5 90089.0 5842.06   2
  -5   7   6 36050.7 3538.34   2
  -5   7   6 41540.4 4040.39   4
  -5   7   7 20288.5 2861.97   4
  -5   7   8 4561.89 1382.19   4
  -5   7   9 5697.26 1528.17   4
  -5   7  10 35974.4 4128.77   4
  -5   7  11 16720.1 2797.33   4
  -5   8  -5 47949.9 4849.02   6
  -5   8  -4 38503.8 4086.34   6
  -5   8  -3 29462.4 3419.78   6
  -5   8  -2 1731.33 875.396   6
  -5   8  -1 160.521 136.437   6
  -5   8   0 12179.0 1931.06   6
  -5   8   0 16584.5 2517.18   4
  -5   8   1 46131.5 3812.19   6
  -5   8   1 54300.2 4674.46   4
  -5   8   2 68600.4 4618.81   6
  -5   8   2 66901.6 5287.81   4
  -5   8   3 61200.8 4970.59   4
  -5   8   4 75920.9 5647.40   4
  -5   8   5 21744.0 2945.44   4
  -5   8   6 11832.8 2146.41   4
  -5   8   7 2165.96 1026.15   4
  -5   8   8 2407.31 1205.24   4
  -5   8   9 26210.7 3525.23   4
  -5   9  -3-107.368 440.014   6
  -5   9  -2-678.362 735.447   6
  -5   9  -1 6493.06 1507.45   6
  -5   9   0 28827.2 3248.17   6
  -5   9   1 44296.0 3938.96   6
  -5   9   1 47737.6 4650.50   4
  -5   9   2 66974.0 5416.80   4
  -5   9   2 58311.4 4432.34   6
  -5   9   3 81074.8 5997.07   4
  -5   9   3 79126.3 5109.34   6
  -5   9   4 21973.9 3056.72   4
  -5   9   5 1025.23 782.450   4
  -5   9   6 1128.28 777.828   4
  -5   9   7 8981.70 2029.64   4
  -5  10  -2 5177.23 1573.36   6
  -5  10  -1 18884.6 2959.56   6
  -5  10   0 38436.1 4028.71   6
  -5  10   1 32311.4 3554.23   6
  -5  11  -1 28729.1 3948.39   6
  -4 -14  -7-342.787 630.652   1
  -4 -14  -6 4968.19 1319.94   1
  -4 -14  -5 29799.6 3445.56   1
  -4 -14  -4 28915.8 3556.15   1
  -4 -13 -10 42342.8 4382.48   3
  -4 -13  -8 671.504 560.211   1
  -4 -13  -7 5027.23 1237.76   1
  -4 -13  -6 41490.4 3808.93   1
  -4 -13  -5 58745.0 4708.20   1
  -4 -13  -4 28050.9 3344.81   1
  -4 -13  -3 39490.3 4148.26   1
  -4 -13  -2 35353.8 4133.13   1
  -4 -12 -11 43923.3 4481.76   3
  -4 -12  -9 2076.85 800.750   1
  -4 -12  -8 5700.42 1286.99   1
  -4 -12  -7 39501.3 3415.27   1
  -4 -12  -6 69125.6 4774.92   1
  -4 -12  -5 58435.8 4496.03   1
  -4 -12  -4 43510.9 3979.42   1
  -4 -12  -3 39849.3 3984.68   1
  -4 -12  -2 4595.77 1325.67   1
  -4 -12  -1 2708.33 890.810   1
  -4 -12   0 3839.60 1335.78   1
  -4 -11 -12 31528.2 3642.06   3
  -4 -11 -11 4780.63 1087.58   1
  -4 -11 -11 6569.69 1613.69   3
  -4 -11 -10 3488.76 924.057   1
  -4 -11  -9 6957.16 1284.18   1
  -4 -11  -8 18890.8 2229.15   1
  -4 -11  -7 106256. 5739.21   1
  -4 -11  -6 107063. 5825.21   1
  -4 -11  -5 76020.3 4950.18   1
  -4 -11  -4 46530.3 3901.76   1
  -4 -11  -3 10717.6 1909.38   1
  -4 -11  -2 4236.31 1197.36   1
  -4 -11  -1 9679.04 2011.48   1
  -4 -11   0 27265.9 3519.90   1
  -4 -11   1 65496.7 5897.98   1
  -4 -10 -13 28191.8 3418.30   3
  -4 -10 -12 23633.2 3065.96   3
  -4 -10 -12 18265.3 2135.59   1
  -4 -10 -11 4666.11 1024.80   1
  -4 -10 -11 3996.90 1275.57   3
  -4 -10 -10 35204.5 2967.92   1
  -4 -10  -9 32591.0 2882.50   1
  -4 -10  -8 97774.8 5257.02   1
  -4 -10  -7 106112. 5543.31   1
  -4 -10  -6 56230.2 3890.14   1
  -4 -10  -5 37162.6 3204.72   1
  -4 -10  -4 35007.7 3172.39   1
  -4 -10  -3-402.442 501.133   1
  -4 -10  -2 7430.12 1472.50   1
  -4 -10  -1 32736.6 3511.52   1
  -4 -10   0 66546.6 5320.22   1
  -4 -10   1 71274.4 5843.00   1
  -4 -10   2 47576.2 4958.91   1
  -4 -10   3 26869.2 3833.02   1
  -4  -9 -14 15728.6 2561.19   3
  -4  -9 -13 12791.6 2246.19   3
  -4  -9 -12 1494.51 722.345   3
  -4  -9 -12 3566.90 935.965   1
  -4  -9 -11 71545.9 4434.01   1
  -4  -9 -10 66507.3 4230.13   1
  -4  -9  -9 105292. 5466.84   1
  -4  -9  -8 133916. 6262.76   1
  -4  -9  -7 72745.1 4336.28   1
  -4  -9  -6 31036.6 2700.22   1
  -4  -9  -5 19968.5 2195.55   1
  -4  -9  -4 608.405 299.658   1
  -4  -9  -3 27362.2 2728.24   1
  -4  -9  -2 43885.7 3631.08   1
  -4  -9  -1 68592.5 4890.44   1
  -4  -9   0 109020. 6618.88   1
  -4  -9   1 43779.9 4237.52   1
  -4  -9   2 67203.7 5641.20   1
  -4  -9   3 17526.4 2886.11   1
  -4  -9   4-12.9993 476.963   1
  -4  -8 -15 6797.73 1680.72   3
  -4  -8 -14 9528.39 1876.74   3
  -4  -8 -13 1552.00 801.116   3
  -4  -8 -12 39945.9 3190.73   1
  -4  -8 -12 32896.1 3496.43   3
  -4  -8 -11 17131.2 1812.50   2
  -4  -8 -11 57502.0 3688.61   1
  -4  -8 -10 112370. 5077.14   2
  -4  -8 -10 118612. 5821.71   1
  -4  -8  -9 214803. 8433.02   1
  -4  -8  -8 122206. 5790.01   1
  -4  -8  -7 30039.9 2604.75   1
  -4  -8  -6 15756.2 1845.45   1
  -4  -8  -5 248.438 311.663   1
  -4  -8  -4 20700.0 2159.55   1
  -4  -8  -3 35128.1 2948.63   1
  -4  -8  -2 84526.4 4982.78   1
  -4  -8  -1 125032. 6537.96   1
  -4  -8   0 103959. 6088.24   1
  -4  -8   1 53405.4 4426.72   1
  -4  -8   2 42550.8 4103.58   1
  -4  -8   3 1693.80 756.671   1
  -4  -8   4 14388.4 2500.07   1
  -4  -8   5 6758.43 1778.29   1
  -4  -7 -15 3468.21 1159.48   3
  -4  -7 -14 2015.57 1038.69   3
  -4  -7 -13 25598.7 3079.53   3
  -4  -7 -12 67299.6 4753.49   3
  -4  -7 -12 17694.6 1915.29   6
  -4  -7 -11 77260.2 4613.47   1
  -4  -7 -11 79279.7 3990.64   6
  -4  -7 -11 79627.9 5259.21   3
  -4  -7 -11 82423.5 3999.53   2
  -4  -7 -10 121876. 5891.98   1
  -4  -7 -10 122557. 5265.23   2
  -4  -7  -9 164569. 7020.87   1
  -4  -7  -8 18924.7 2033.92   1
  -4  -7  -7 13883.7 1681.20   1
  -4  -7  -6 3441.75 843.739   1
  -4  -7  -6 2932.75 543.188   5
  -4  -7  -5 46201.0 2392.24   5
  -4  -7  -5 57763.4 3513.30   1
  -4  -7  -4 99181.3 4971.77   1
  -4  -7  -3 52294.2 3512.66   1
  -4  -7  -2 164278. 7088.63   1
  -4  -7  -1 97660.8 5332.41   1
  -4  -7   0 49338.4 3803.68   1
  -4  -7   1 33437.6 3198.92   1
  -4  -7   2 1786.06 845.604   1
  -4  -7   3 10073.6 1919.00   1
  -4  -7   4 19780.3 2832.87   1
  -4  -7   5 25578.7 3448.43   1
  -4  -6 -16 316.309 100.490   3
  -4  -6 -15 86.5146 393.679   3
  -4  -6 -14 27554.7 3237.55   3
  -4  -6 -13 72913.6 5030.55   3
  -4  -6 -13 31947.2 2936.12   6
  -4  -6 -12 65075.0 3842.52   6
  -4  -6 -12 60810.1 4612.73   3
  -4  -6 -11 76976.6 5033.83   3
  -4  -6 -11 72224.4 3900.93   6
  -4  -6 -11 74401.2 3790.18   2
  -4  -6 -11 73163.5 4466.84   1
  -4  -6 -10 78921.9 4553.31   1
  -4  -6 -10 82331.5 4080.87   2
  -4  -6  -9 40345.7 2748.20   2
  -4  -6  -9 39243.6 3037.35   1
  -4  -6  -8 19131.1 2017.95   1
  -4  -6  -7 1475.95 611.110   1
  -4  -6  -6 66805.2 3859.36   1
  -4  -6  -5 139569. 5795.32   1
  -4  -6  -5 118625. 3969.24   5
  -4  -6  -4 156131. 6174.31   1
  -4  -6  -4 132345. 4395.92   5
  -4  -6  -3 234390. 8565.66   1
  -4  -6  -2 223304. 8366.71   1
  -4  -6  -1 76109.8 4408.44   1
  -4  -6   0 17962.2 2111.07   1
  -4  -6   1 6327.32 1247.88   1
  -4  -6   2 37019.2 3367.58   1
  -4  -6   3 48854.5 4074.77   1
  -4  -6   4 50929.4 4420.54   1
  -4  -6   5 76954.9 5799.44   1
  -4  -6   6 54846.8 4987.37   1
  -4  -5 -16 11.0904 460.094   3
  -4  -5 -15 13083.6 2280.34   3
  -4  -5 -14 97103.9 6284.07   3
  -4  -5 -13 67094.5 4393.91   6
  -4  -5 -13 67237.3 4880.93   3
  -4  -5 -12 95708.2 5745.06   3
  -4  -5 -12 90150.4 4445.82   2
  -4  -5 -12 86684.7 4816.50   6
  -4  -5 -11 114832. 5348.29   6
  -4  -5 -11 121758. 6357.24   3
  -4  -5 -11 116826. 5161.77   2
  -4  -5 -10 32587.3 2761.60   1
  -4  -5 -10 32413.8 2494.27   6
  -4  -5 -10 30921.0 2358.41   2
  -4  -5  -9 2186.90 624.249   2
  -4  -5  -9 3607.24 884.773   1
  -4  -5  -8 7072.26 1200.50   1
  -4  -5  -8 6928.31 1097.95   2
  -4  -5  -7 37925.8 2823.40   1
  -4  -5  -6 121115. 5458.35   1
  -4  -5  -5 109341. 5079.04   1
  -4  -5  -4 248831. 8059.02   1
  -4  -5  -4 199081. 5431.60   5
  -4  -5  -3 289024. 9693.67   1
  -4  -5  -2 53966.7 3360.92   1
  -4  -5  -1 16611.0 1802.69   1
  -4  -5   0 17198.0 1909.20   1
  -4  -5   1 4796.25 1084.89   1
  -4  -5   2 80236.0 4845.03   1
  -4  -5   3 94810.6 5592.64   1
  -4  -5   4 81645.8 5382.79   1
  -4  -5   5 116276. 6863.41   1
  -4  -5   6 25903.9 3212.18   1
  -4  -5   7 4471.57 1298.57   1
  -4  -4 -15 47543.2 4415.01   3
  -4  -4 -14 73486.0 5308.57   3
  -4  -4 -14 76670.2 5392.23   6
  -4  -4 -13 73620.6 5092.08   3
  -4  -4 -13 77860.3 5048.92   6
  -4  -4 -12 95365.6 5289.02   6
  -4  -4 -12 102063. 5826.87   3
  -4  -4 -11 25292.8 2228.14   2
  -4  -4 -11 25630.7 2381.53   6
  -4  -4 -11 25917.8 2659.73   3
  -4  -4 -10 1422.00 487.036   2
  -4  -4 -10 1098.78 485.794   6
  -4  -4  -9 8875.19 1377.21   1
  -4  -4  -9 8352.21 1183.51   2
  -4  -4  -8 2267.72 578.291   2
  -4  -4  -8 3692.20 859.297   1
  -4  -4  -7 95042.9 4746.70   1
  -4  -4  -7 95382.2 4507.55   2
  -4  -4  -6 71179.0 3948.70   1
  -4  -4  -5 124021. 5438.61   1
  -4  -4  -4 202471. 7463.96   1
  -4  -4  -3 176998. 6741.13   1
  -4  -4  -2 1627.52 522.638   1
  -4  -4  -1 6800.72 1097.00   1
  -4  -4   0 28962.2 2402.39   1
  -4  -4   1 218407. 8303.10   1
  -4  -4   2 176450. 7436.76   1
  -4  -4   3 99622.0 5420.80   1
  -4  -4   4 87076.3 5268.27   1
  -4  -4   5 56393.3 4322.59   1
  -4  -4   6 7569.83 1552.89   1
  -4  -4   7 2184.18 945.044   1
  -4  -4   8 1796.16 817.260   1
  -4  -4   9 14251.5 2428.35   1
  -4  -4  10 11322.0 2257.71   1
  -4  -3 -15 51919.6 4877.20   6
  -4  -3 -14 37687.1 3713.07   3
  -4  -3 -14 41642.8 4091.70   6
  -4  -3 -13 62039.2 4512.53   3
  -4  -3 -13 61844.1 4698.33   6
  -4  -3 -12 52690.7 3913.57   6
  -4  -3 -12 48971.5 3799.67   3
  -4  -3 -11 257.151 174.660   2
  -4  -3 -11 894.971 406.228   3
  -4  -3 -11 1165.69 559.265   6
  -4  -3 -10 2011.10 677.629   3
  -4  -3 -10 1392.57 542.663   2
  -4  -3 -10 886.501 452.013   6
  -4  -3  -9 27509.5 2255.37   2
  -4  -3  -8 179151. 7327.07   1
  -4  -3  -8 186978. 6907.23   2
  -4  -3  -7 159864. 6524.95   1
  -4  -3  -7 153486. 6135.47   2
  -4  -3  -6 98514.0 4609.20   2
  -4  -3  -6 104210. 4883.85   1
  -4  -3  -5 119538. 5301.79   1
  -4  -3  -4 132631. 5568.93   1
  -4  -3  -3 11894.3 1407.52   1
  -4  -3  -2 824.492 367.724   1
  -4  -3  -1 20670.6 1866.43   1
  -4  -3   0 157432. 6325.71   1
  -4  -3   1 215709. 7978.61   1
  -4  -3   2 101637. 5041.78   1
  -4  -3   3 211880. 8328.61   1
  -4  -3   4 170697. 7474.36   1
  -4  -3   5 33172.4 3059.10   1
  -4  -3   6 1809.60 558.028   1
  -4  -3   7 3027.15 979.377   1
  -4  -3   8 27959.5 3180.75   1
  -4  -3   9 26319.8 3110.90   1
  -4  -3  10 23274.8 3052.34   1
  -4  -3  11 27926.0 3387.11   1
  -4  -2 -15 28952.5 3772.38   6
  -4  -2 -14 32996.8 3768.77   6
  -4  -2 -13 72684.2 5334.46   6
  -4  -2 -13 59144.1 4393.45   3
  -4  -2 -12 1763.77 660.779   3
  -4  -2 -12 1963.80 671.812   6
  -4  -2 -11 5648.06 1225.06   6
  -4  -2 -11 7902.46 1375.61   3
  -4  -2 -10 10291.2 1507.82   3
  -4  -2 -10 13373.4 1742.45   6
  -4  -2 -10 11460.9 1559.23   2
  -4  -2  -9 114895. 5463.61   6
  -4  -2  -9 110025. 5227.53   2
  -4  -2  -8 313626. 10197.7   2
  -4  -2  -7 97483.1 4833.57   1
  -4  -2  -7 89903.7 4389.86   2
  -4  -2  -6 135546. 5788.80   1
  -4  -2  -6 131781. 5512.20   2
  -4  -2  -5 234633. 8217.72   2
  -4  -2  -5 244255. 8438.35   1
  -4  -2  -4 30694.7 2356.34   2
  -4  -2  -4 31058.1 2367.54   1
  -4  -2  -3 2357.66 592.538   1
  -4  -2  -2 6388.89 1020.41   1
  -4  -2  -1 88294.0 4238.85   1
  -4  -2  -1 92841.0 2926.37   5
  -4  -2   0 228992. 8057.03   1
  -4  -2   0 242973. 7022.66   5
  -4  -2   1 131125. 5557.30   1
  -4  -2   2 119119. 5343.99   1
  -4  -2   3 94318.5 3346.07   4
  -4  -2   3 99409.2 4875.56   1
  -4  -2   4 13178.1 1697.53   1
  -4  -2   4 11674.3 1003.61   4
  -4  -2   5 2711.06 521.542   4
  -4  -2   5 3205.06 848.444   1
  -4  -2   6 580.011 269.978   1
  -4  -2   7 13111.0 1929.06   1
  -4  -2   8 36603.2 3392.55   1
  -4  -2   9 39026.0 3680.17   1
  -4  -2  10 46214.6 4101.84   1
  -4  -2  11 23143.0 2916.49   1
  -4  -1 -15 19524.8 3120.90   6
  -4  -1 -14 14457.9 2619.78   6
  -4  -1 -13 1052.86 871.715   6
  -4  -1 -12 9887.09 1630.08   3
  -4  -1 -12 9362.91 1779.60   6
  -4  -1 -11 6220.02 1323.03   6
  -4  -1 -11 6873.59 1230.99   3
  -4  -1 -10 54468.8 3898.43   6
  -4  -1 -10 49269.0 3347.01   3
  -4  -1  -9 131168. 5847.36   3
  -4  -1  -9 145325. 6328.17   2
  -4  -1  -9 141358. 6402.50   6
  -4  -1  -8 282652. 9923.03   2
  -4  -1  -8 300622. 10269.0   6
  -4  -1  -7 77676.1 4071.43   2
  -4  -1  -6 179527. 7111.17   1
  -4  -1  -6 185228. 6967.65   2
  -4  -1  -5 14373.1 1546.79   2
  -4  -1  -5 11254.3 1420.63   1
  -4  -1  -4 30104.9 2318.97   2
  -4  -1  -4 30102.6 2306.43   1
  -4  -1  -3 74559.6 3867.35   2
  -4  -1  -3 73938.2 3813.24   1
  -4  -1  -2 21582.1 1885.97   1
  -4  -1  -1 187611. 6807.89   1
  -4  -1   0 143463. 4604.87   5
  -4  -1   0 147636. 5713.54   1
  -4  -1   1 96761.8 4439.57   1
  -4  -1   1 96600.0 3828.87   5
  -4  -1   2 79991.9 4028.83   1
  -4  -1   2 77542.6 3315.90   4
  -4  -1   2 81041.8 3801.77   5
  -4  -1   3 14623.6 1271.41   4
  -4  -1   3 13032.8 1540.50   1
  -4  -1   4 1962.22 475.427   4
  -4  -1   4 1089.60 503.762   1
  -4  -1   5 5871.95 857.670   4
  -4  -1   5 4969.34 988.615   1
  -4  -1   6 44361.0 2736.35   4
  -4  -1   6 41795.4 3247.28   1
  -4  -1   7 132627. 5514.82   4
  -4  -1   7 112005. 5923.20   1
  -4  -1   8 88624.2 5225.09   1
  -4  -1   9 50030.7 3940.59   1
  -4  -1  10 37746.1 3479.97   1
  -4   0 -14 3035.80 1189.12   6
  -4   0 -13 13841.5 2522.09   6
  -4   0 -12 23120.1 3058.84   6
  -4   0 -11 25988.3 2996.37   6
  -4   0 -10 152090. 6362.16   3
  -4   0 -10 168980. 7824.18   6
  -4   0  -9 152590. 7009.11   6
  -4   0  -9 146768. 6005.13   3
  -4   0  -8 95014.1 4998.76   2
  -4   0  -8 97113.6 5095.23   6
  -4   0  -7 160203. 6680.79   2
  -4   0  -6 40490.2 2829.24   2
  -4   0  -5 9835.83 1345.00   1
  -4   0  -5 9490.80 1295.35   2
  -4   0  -4 83179.5 4152.22   2
  -4   0  -4 76249.6 3995.85   1
  -4   0  -3 112974. 4998.08   1
  -4   0  -3 123137. 5219.51   2
  -4   0  -2 282034. 9318.39   2
  -4   0  -2 278925. 9124.27   1
  -4   0  -1 266684. 8999.96   2
  -4   0  -1 263242. 8650.73   1
  -4   0   0 138850. 5484.15   1
  -4   0   1 122874. 5047.78   1
  -4   0   1 115286. 4373.28   5
  -4   0   1 129087. 4928.11   4
  -4   0   2 27392.2 1950.07   5
  -4   0   2 24391.9 1964.74   1
  -4   0   2 24301.3 1860.11   4
  -4   0   3 807.202 441.189   1
  -4   0   3 920.329 254.039   5
  -4   0   3 1173.18 390.253   4
  -4   0   4 9323.35 1154.57   4
  -4   0   4 8326.65 1198.23   1
  -4   0   4 10084.7 1408.49   5
  -4   0   5 44953.9 2815.27   4
  -4   0   5 43188.7 2982.42   1
  -4   0   5 40783.8 3221.03   5
  -4   0   6 136112. 5632.79   4
  -4   0   6 124098. 6430.30   5
  -4   0   6 127506. 5824.71   1
  -4   0   7 87559.2 4505.97   4
  -4   0   7 71993.8 4945.38   5
  -4   0   7 74528.2 4387.66   1
  -4   0   8 55129.8 3680.63   4
  -4   0   8 55316.9 3808.73   1
  -4   0   8 52816.1 4333.61   5
  -4   0   9 58210.2 4083.09   1
  -4   0   9 67283.2 5115.37   5
  -4   0  10 34031.0 3111.52   1
  -4   0  10 44065.2 4225.27   5
  -4   0  11 1591.45 911.294   5
  -4   1 -13 42241.6 4713.88   6
  -4   1 -12 25924.0 3414.47   6
  -4   1 -11 83444.1 5902.85   6
  -4   1 -10 113051. 6529.75   6
  -4   1  -9 50649.2 2990.91   3
  -4   1  -9 63334.0 4417.16   6
  -4   1  -8 30549.0 2179.89   3
  -4   1  -8 34073.8 2965.62   6
  -4   1  -7 77807.3 4447.99   2
  -4   1  -7 70922.8 4312.90   6
  -4   1  -6 1917.64 634.487   2
  -4   1  -5 57741.5 3540.63   2
  -4   1  -4 55769.5 3402.14   1
  -4   1  -4 60108.5 3489.08   2
  -4   1  -3 215781. 7740.04   1
  -4   1  -3 217546. 7867.92   2
  -4   1  -2 263604. 8958.60   2
  -4   1  -2 268669. 8811.45   1
  -4   1  -1 118433. 5210.76   2
  -4   1  -1 117224. 4924.29   1
  -4   1   0 77090.2 3997.73   2
  -4   1   0 74315.2 3839.38   4
  -4   1   0 70192.3 3583.62   1
  -4   1   1 107411. 4635.27   1
  -4   1   1 115793. 4918.06   4
  -4   1   2 250.874 109.047   1
  -4   1   2 757.208 389.177   4
  -4   1   2 540.569 274.583   5
  -4   1   3 6467.50 999.881   4
  -4   1   3 6132.89 945.558   1
  -4   1   3 6334.41 1030.16   5
  -4   1   4 33617.8 2613.44   5
  -4   1   4 35801.8 2506.58   4
  -4   1   4 31957.1 2347.89   1
  -4   1   5 153309. 6207.16   4
  -4   1   5 139612. 5818.38   1
  -4   1   5 145172. 6519.39   5
  -4   1   6 163581. 6615.51   4
  -4   1   6 156795. 7201.78   5
  -4   1   6 145677. 6147.01   1
  -4   1   7 42608.2 3158.26   4
  -4   1   7 35981.0 2766.64   1
  -4   1   7 36580.1 3351.67   5
  -4   1   8 57339.7 4497.42   5
  -4   1   8 63273.3 4108.91   4
  -4   1   8 58774.6 3694.88   1
  -4   1   9 20802.2 2380.12   4
  -4   1   9 19616.9 2717.19   5
  -4   1   9 17143.9 1955.96   1
  -4   1  10 1624.76 756.484   5
  -4   1  11 7195.71 1735.11   5
  -4   2 -12 44770.7 4816.46   6
  -4   2 -11 100419. 6951.26   6
  -4   2 -10 52942.9 4574.99   6
  -4   2  -9 24644.1 2851.59   6
  -4   2  -8 2911.81 898.303   6
  -4   2  -7 1087.04 562.940   6
  -4   2  -7 361.364 261.308   3
  -4   2  -6 71143.5 4274.71   6
  -4   2  -6 67570.2 4233.78   2
  -4   2  -5 57374.0 3710.49   2
  -4   2  -4 200740. 7753.10   2
  -4   2  -3 224285. 8182.16   2
  -4   2  -2 147044. 5879.68   1
  -4   2  -2 137941. 5914.19   2
  -4   2  -1 46099.8 3022.40   2
  -4   2  -1 44314.9 2782.34   1
  -4   2   0 44683.5 2963.70   2
  -4   2   0 45740.2 2788.86   1
  -4   2   0 52613.5 3262.97   4
  -4   2   1 769.300 362.776   1
  -4   2   1 344.088 304.194   4
  -4   2   1 258.126 146.607   2
  -4   2   2 20772.4 2010.85   2
  -4   2   2 23076.4 2065.02   4
  -4   2   2 21716.8 1793.40   1
  -4   2   3 48273.7 3115.69   4
  -4   2   3 49173.4 3213.63   2
  -4   2   3 52534.8 3075.32   5
  -4   2   3 45856.9 2727.53   1
  -4   2   4 137379. 5851.26   5
  -4   2   4 133304. 5758.14   4
  -4   2   4 126465. 5188.57   1
  -4   2   5 225295. 8335.25   4
  -4   2   5 212259. 7462.68   1
  -4   2   5 227836. 8611.32   5
  -4   2   6 107026. 5326.74   4
  -4   2   6 100940. 4602.57   1
  -4   2   6 115405. 5857.90   5
  -4   2   7 64766.3 4104.86   4
  -4   2   7 64273.6 4527.24   5
  -4   2   7 58605.3 3398.25   1
  -4   2   8 40967.2 3369.82   4
  -4   2   8 37664.4 2754.70   1
  -4   2   8 40995.0 3696.38   5
  -4   2   9-18.1779 94.7598   4
  -4   2   9-282.693 638.046   5
  -4   2  10 26105.8 2893.43   4
  -4   2  10 23358.0 3031.56   5
  -4   2  11 10175.1 2090.49   5
  -4   2  12 41106.8 4401.79   5
  -4   3 -11 62243.2 5728.98   6
  -4   3 -10 9721.58 2040.25   6
  -4   3  -9 4153.15 1184.75   6
  -4   3  -8 8393.02 1616.45   6
  -4   3  -7 94209.4 5547.50   6
  -4   3  -6 52667.3 3761.21   6
  -4   3  -5 110616. 5571.40   6
  -4   3  -5 108981. 5683.67   2
  -4   3  -4 167703. 7169.45   2
  -4   3  -3 105782. 5278.31   2
  -4   3  -2 67372.1 3944.35   2
  -4   3  -1 110072. 5190.89   2
  -4   3   0 12529.4 1408.11   1
  -4   3   0 11645.4 1570.63   4
  -4   3   0 10722.8 1456.47   2
  -4   3   1 70496.1 3573.21   1
  -4   3   1 75032.8 4189.20   4
  -4   3   1 72844.5 4000.18   2
  -4   3   2 35290.1 2625.92   2
  -4   3   2 33692.4 2728.28   4
  -4   3   2 33833.8 2265.46   1
  -4   3   3 131727. 5743.34   2
  -4   3   3 129288. 5800.78   4
  -4   3   3 123773. 4984.04   1
  -4   3   4 238628. 8599.68   2
  -4   3   4 230667. 8640.77   4
  -4   3   4 229376. 7639.80   1
  -4   3   4 236272. 8511.05   5
  -4   3   5 154818. 6778.78   4
  -4   3   5 157415. 5765.37   1
  -4   3   5 161980. 6981.81   5
  -4   3   5 153464. 6531.89   2
  -4   3   6 67328.6 4241.01   4
  -4   3   6 63953.9 3907.40   2
  -4   3   6 64615.0 3316.90   1
  -4   3   6 73348.5 4552.76   5
  -4   3   7 74883.8 3627.64   1
  -4   3   7 69658.5 4194.80   2
  -4   3   7 74311.4 4614.65   4
  -4   3   7 77824.1 4981.89   5
  -4   3   8 884.883 514.319   4
  -4   3   8 713.002 536.970   5
  -4   3   9 18938.6 2409.94   4
  -4   3   9 18970.1 2609.36   5
  -4   3  10 20633.7 2602.36   4
  -4   3  10 16537.2 2535.13   5
  -4   3  11 22821.7 3179.73   5
  -4   3  11 21503.3 2794.92   4
  -4   3  12 49956.0 4963.56   5
  -4   4 -11 19660.4 3320.54   6
  -4   4 -10 12000.9 2493.80   6
  -4   4  -9 2425.68 1013.44   6
  -4   4  -8 32981.6 3557.85   6
  -4   4  -7 90936.0 5749.19   6
  -4   4  -6 58598.1 4268.46   6
  -4   4  -5 97850.7 5380.16   6
  -4   4  -4 118575. 5832.54   6
  -4   4  -3 22026.8 2320.21   2
  -4   4  -2 32499.4 2796.87   2
  -4   4  -1 978.396 447.105   2
  -4   4  -1 997.356 475.208   4
  -4   4   0 60283.2 3926.18   4
  -4   4   0 53976.4 3539.34   2
  -4   4   1 112279. 5625.19   4
  -4   4   1 115277. 5397.38   2
  -4   4   2 26615.0 2450.26   4
  -4   4   2 25030.9 1965.09   1
  -4   4   2 21700.3 2135.85   2
  -4   4   3 159931. 6921.95   4
  -4   4   3 156384. 5802.03   1
  -4   4   3 160854. 6666.30   2
  -4   4   4 167482. 7210.41   4
  -4   4   4 165505. 5912.93   1
  -4   4   4 166983. 6847.84   2
  -4   4   5 47488.5 3255.92   2
  -4   4   5 49275.6 3569.64   4
  -4   4   5 47032.8 2608.84   1
  -4   4   5 49675.0 3517.70   5
  -4   4   6 29589.1 2571.10   2
  -4   4   6 36318.8 3121.66   4
  -4   4   6 31208.4 2053.64   1
  -4   4   6 34823.1 3091.68   5
  -4   4   7 17908.9 2255.13   4
  -4   4   7 15544.5 1844.87   2
  -4   4   7 21724.6 2517.19   5
  -4   4   8 20313.4 2525.91   4
  -4   4   8 20103.2 2099.84   2
  -4   4   8 22724.3 2738.99   5
  -4   4   9 31770.8 3241.59   4
  -4   4   9 28987.2 3305.00   5
  -4   4  10 31726.3 3348.43   4
  -4   4  10 34653.7 3821.29   5
  -4   4  11 62868.4 5048.06   4
  -4   4  11 81251.2 6209.03   5
  -4   4  12 37811.5 3935.32   4
  -4   4  12 51236.6 5016.71   5
  -4   5 -10-519.497 528.306   6
  -4   5  -9 26921.4 3667.30   6
  -4   5  -8 58004.4 5132.53   6
  -4   5  -7 62581.9 4998.52   6
  -4   5  -6 72627.4 5116.92   6
  -4   5  -5 104236. 5967.89   6
  -4   5  -4 10352.9 1626.90   6
  -4   5  -3 7282.52 1300.56   6
  -4   5  -2 94.3281 128.703   6
  -4   5  -2-167.282 407.348   2
  -4   5  -1 27985.1 2755.31   4
  -4   5  -1 30641.6 2811.85   2
  -4   5   0 96670.3 5413.39   4
  -4   5   0 94986.7 5183.77   2
  -4   5   1 110084. 5690.30   4
  -4   5   1 105287. 5477.78   2
  -4   5   2 279326. 10275.1   4
  -4   5   2 268139. 9861.76   2
  -4   5   3 241142. 9269.90   4
  -4   5   3 229393. 8769.88   2
  -4   5   4 62128.0 4107.25   4
  -4   5   4 50268.7 3478.80   2
  -4   5   5 2365.31 502.098   1
  -4   5   5 2220.67 664.782   2
  -4   5   5 2215.62 711.792   4
  -4   5   6 1982.56 656.978   2
  -4   5   6 594.835 133.869   4
  -4   5   7 7519.00 1504.36   4
  -4   5   7 7786.13 1303.69   2
  -4   5   7 7645.12 1540.45   5
  -4   5   8 41867.7 3722.26   4
  -4   5   8 45574.6 3982.75   5
  -4   5   8 40272.4 3064.28   2
  -4   5   9 41345.7 3833.44   4
  -4   5   9 50164.2 4379.26   5
  -4   5  10 60237.8 4843.64   4
  -4   5  10 62764.4 5266.47   5
  -4   5  11 60273.5 5054.34   4
  -4   5  11 79306.6 6117.18   5
  -4   5  12 15933.0 2555.73   4
  -4   5  12 23616.2 3367.09   5
  -4   6  -8 34679.4 4228.11   6
  -4   6  -7 85143.6 6379.18   6
  -4   6  -6 157764. 8552.36   6
  -4   6  -5 48727.1 4145.40   6
  -4   6  -4 2534.91 825.212   6
  -4   6  -3 2831.06 885.625   6
  -4   6  -2 13320.9 1817.03   6
  -4   6  -1 118588. 5830.69   6
  -4   6  -1 117700. 6327.54   4
  -4   6   0 103628. 5836.84   4
  -4   6   0 106743. 5856.69   2
  -4   6   1 96689.8 5493.63   4
  -4   6   1 95254.7 5446.33   2
  -4   6   2 230673. 9454.43   4
  -4   6   2 239207. 9452.87   2
  -4   6   3 27501.6 2767.65   4
  -4   6   3 29819.6 2765.21   2
  -4   6   4 11211.3 1746.02   4
  -4   6   4 10458.2 1610.92   2
  -4   6   5 9303.05 1469.62   2
  -4   6   5 12821.4 1887.61   4
  -4   6   6 797.090 509.342   2
  -4   6   6 1929.34 843.202   4
  -4   6   7 51312.5 3684.38   2
  -4   6   7 63245.8 4635.70   4
  -4   6   8 41548.8 3887.74   4
  -4   6   9 64435.5 4985.98   4
  -4   6   9 56994.7 4834.34   5
  -4   6  10 60631.7 5039.86   4
  -4   6  10 71035.1 5609.49   5
  -4   6  11 29755.1 3543.27   4
  -4   6  11 32147.8 3883.20   5
  -4   6  12 11960.3 2310.02   4
  -4   6  13 3731.74 1343.03   4
  -4   7  -7 50698.1 5209.48   6
  -4   7  -6 37877.3 4212.84   6
  -4   7  -5 6377.38 1510.37   6
  -4   7  -4 784.938 323.173   6
  -4   7  -3 1574.34 753.863   6
  -4   7  -2 72951.0 4852.58   6
  -4   7  -1 83186.0 5373.60   4
  -4   7  -1 76943.4 4771.96   6
  -4   7   0 75811.2 5088.82   4
  -4   7   0 74551.2 4536.82   6
  -4   7   1 71963.6 4316.90   6
  -4   7   1 67817.0 4725.64   4
  -4   7   2 105244. 6065.32   4
  -4   7   3 4575.47 1129.61   4
  -4   7   3 2897.98 844.169   2
  -4   7   4 1007.57 587.199   4
  -4   7   4 625.270 388.829   2
  -4   7   5 20253.5 2502.36   4
  -4   7   5 17217.9 2244.92   2
  -4   7   6 105005. 6176.95   4
  -4   7   6 91828.6 5520.07   2
  -4   7   7 91193.9 5917.40   4
  -4   7   7 91049.0 5388.60   2
  -4   7   8 31016.1 3410.78   4
  -4   7   9 55433.0 4771.44   4
  -4   7  10 31142.4 3654.02   4
  -4   7  11 8801.21 2077.61   5
  -4   7  11 12259.6 2294.22   4
  -4   7  12 3585.94 1320.86   4
  -4   8  -6 660.896 253.447   6
  -4   8  -5 1053.91 787.872   6
  -4   8  -4 775.568 372.017   6
  -4   8  -3 81762.5 5843.76   6
  -4   8  -2 108463. 6510.15   6
  -4   8  -1 68241.3 4848.30   6
  -4   8   0 63748.3 4811.55   4
  -4   8   0 62944.5 4417.16   6
  -4   8   1 51571.1 4270.04   4
  -4   8   1 49444.5 3691.32   6
  -4   8   2 3937.01 1085.80   4
  -4   8   2 4851.51 1085.49   6
  -4   8   3 179.945 149.331   4
  -4   8   3 896.795 667.931   6
  -4   8   4 13406.7 2116.61   4
  -4   8   5 47562.7 4110.80   4
  -4   8   6 74631.7 5389.42   4
  -4   8   7 71987.6 5412.64   4
  -4   8   8 102079. 6643.85   4
  -4   8   9 72183.5 5654.82   4
  -4   8  10 8884.48 1947.75   4
  -4   8  11 1679.26 906.366   4
  -4   9  -5 1144.03 782.578   6
  -4   9  -4 18851.4 3139.74   6
  -4   9  -3 85519.9 6581.10   6
  -4   9  -2 62166.5 5250.92   6
  -4   9  -1 54857.3 4619.75   6
  -4   9   0 66233.3 4909.85   6
  -4   9   0 64988.0 5097.95   4
  -4   9   1 16321.1 2258.06   6
  -4   9   1 14993.1 2326.98   4
  -4   9   2 4482.24 1056.56   6
  -4   9   2 4814.75 1214.40   4
  -4   9   3 1422.22 799.154   4
  -4   9   3 62.5169 102.200   6
  -4   9   4 35883.7 3660.26   4
  -4   9   4 29949.9 2753.08   6
  -4   9   5 53575.4 4568.40   4
  -4   9   6 46225.0 4274.88   4
  -4   9   7 64616.1 5232.97   4
  -4   9   8 62670.1 5219.30   4
  -4   9   9 6113.49 1613.06   4
  -4   9  10-36.9405 302.891   4
  -4  10  -4 36758.9 4759.06   6
  -4  10  -3 40588.4 4829.61   6
  -4  10  -2 25749.5 3607.94   6
  -4  10  -1 33163.3 3951.74   6
  -4  10   0 5208.82 1424.20   4
  -4  10   0 4456.83 1244.92   6
  -4  10   1 1302.86 676.716   4
  -4  10   1 48.8091 290.782   6
  -4  10   2 12765.2 2239.51   4
  -4  10   2 11860.8 2018.05   6
  -4  10   3 13828.0 2323.39   4
  -4  10   4 47496.1 4440.45   4
  -4  10   5 38222.1 4018.11   4
  -4  10   6 40196.8 4132.68   4
  -4  10   7 41087.3 4284.53   4
  -4  10   8 15260.1 2615.33   4
  -4  11  -2 29153.3 4202.05   6
  -4  11  -1 3405.22 1307.99   6
  -4  11   0 3559.85 1336.80   6
  -4  11   1 7732.29 1862.78   4
  -4  11   2 19685.5 2923.13   4
  -4  11   3 67748.9 5542.73   4
  -4  11   4 44933.6 4482.87   4
  -4  11   5 27796.1 3507.09   4
  -4  11   6 36701.0 4053.10   4
  -3 -15  -8 34756.7 4321.75   3
  -3 -15  -7 22273.5 3389.37   3
  -3 -15  -4 13279.4 2438.85   1
  -3 -14 -10 4246.05 1462.33   3
  -3 -14  -9 32492.0 3933.99   3
  -3 -14  -8 53260.8 5042.21   3
  -3 -14  -7 38262.2 4291.64   3
  -3 -14  -6 39668.5 3649.41   1
  -3 -14  -5 36282.0 3656.10   1
  -3 -14  -4 4630.20 1336.52   1
  -3 -14  -3 474.933 551.379   1
  -3 -14  -2-225.330 210.086   1
  -3 -13 -11 9002.48 2059.85   3
  -3 -13 -10 42372.0 4329.65   3
  -3 -13  -9 63239.3 5353.74   3
  -3 -13  -8 48338.8 4603.72   3
  -3 -13  -7 54237.8 3967.45   1
  -3 -13  -6 42452.8 3632.90   1
  -3 -13  -5 4478.88 1158.78   1
  -3 -13  -4 327.214 398.578   1
  -3 -13  -3 868.415 621.220   1
  -3 -13  -2 18003.0 2809.02   1
  -3 -13  -1 46269.7 4783.74   1
  -3 -13   0 38956.7 4585.39   1
  -3 -12 -12 11876.6 2249.83   3
  -3 -12 -11 32113.5 3721.49   3
  -3 -12 -10 76144.1 5778.57   3
  -3 -12  -9 81803.4 5613.42   3
  -3 -12  -9 17578.5 2150.23   1
  -3 -12  -8 36339.3 2982.15   1
  -3 -12  -7 79239.7 4708.97   1
  -3 -12  -6 16245.9 2085.78   1
  -3 -12  -5 797.168 353.686   1
  -3 -12  -4 880.809 626.146   1
  -3 -12  -3 13642.7 2178.71   1
  -3 -12  -2 95652.4 6409.50   1
  -3 -12  -1 47533.7 4614.25   1
  -3 -12   0 45040.4 4722.39   1
  -3 -12   1 47847.5 5103.50   1
  -3 -11 -13 19043.7 2859.98   3
  -3 -11 -12 30811.4 3504.31   3
  -3 -11 -11 83577.1 5956.68   3
  -3 -11 -10 89791.6 6047.02   3
  -3 -11  -9 53790.0 4441.83   3
  -3 -11  -9 55781.9 3614.01   1
  -3 -11  -8 43317.1 3168.60   1
  -3 -11  -7 23262.2 2299.20   1
  -3 -11  -6-212.570 303.159   1
  -3 -11  -5 14629.3 1931.28   1
  -3 -11  -4 20136.0 2330.07   1
  -3 -11  -3 60943.0 4473.43   1
  -3 -11  -2 104921. 6332.16   1
  -3 -11  -1 49361.7 4410.74   1
  -3 -11   0 53933.4 4912.01   1
  -3 -10 -14 16031.2 2608.86   3
  -3 -10 -13 25828.3 3236.61   3
  -3 -10 -12 45949.8 4239.99   3
  -3 -10 -11 132029. 7254.07   3
  -3 -10 -11 113918. 5302.31   1
  -3 -10 -10 48138.2 4174.10   3
  -3 -10 -10 52774.6 3365.60   1
  -3 -10  -9 34221.7 2704.43   1
  -3 -10  -8 20159.3 2034.58   1
  -3 -10  -7 1738.73 582.591   1
  -3 -10  -6 22380.1 2211.66   1
  -3 -10  -5 37326.1 2995.02   1
  -3 -10  -4 93230.7 5123.35   1
  -3 -10  -3 131901. 6616.60   1
  -3 -10  -2 106011. 6057.82   1
  -3 -10  -1 78576.9 5362.05   1
  -3 -10   0 29802.9 3388.75   1
  -3  -9 -14 28021.9 3402.44   3
  -3  -9 -13 70698.4 5385.74   3
  -3  -9 -12 98875.2 6306.91   3
  -3  -9 -11 60948.5 3616.60   1
  -3  -9 -11 65199.4 4802.70   3
  -3  -9 -10 23699.6 2169.01   1
  -3  -9 -10 22562.5 2708.96   3
  -3  -9  -9 15972.0 1765.08   1
  -3  -9  -8 9809.13 1365.65   1
  -3  -9  -7 47009.1 3125.87   1
  -3  -9  -6 56219.2 3464.53   1
  -3  -9  -5 144026. 6219.24   1
  -3  -9  -4 180309. 7354.16   1
  -3  -9  -3 150426. 6790.14   1
  -3  -9  -2 42464.5 3390.99   1
  -3  -9  -1 37577.8 3378.21   1
  -3  -9   0 585.886 286.377   1
  -3  -8 -15 33664.1 3865.85   3
  -3  -8 -14 39194.0 4085.63   3
  -3  -8 -13 87997.2 5945.74   3
  -3  -8 -12 95965.7 5994.78   3
  -3  -8 -11 45112.5 3049.94   1
  -3  -8 -11 41317.2 3691.98   3
  -3  -8 -10 33685.9 2111.24   2
  -3  -8 -10 32909.3 3149.23   3
  -3  -8 -10 33070.3 2528.14   1
  -3  -8 -10 29975.4 1776.85   6
  -3  -8  -9 6903.67 1133.95   1
  -3  -8  -8 19942.8 1711.45   6
  -3  -8  -8 28232.1 2287.16   1
  -3  -8  -7 112411. 4953.98   1
  -3  -8  -7 94003.6 4387.70   6
  -3  -8  -6 123825. 5429.67   6
  -3  -8  -6 131359. 5535.91   1
  -3  -8  -5 141143. 5883.69   1
  -3  -8  -4 158719. 6476.06   1
  -3  -8  -3 63696.5 3843.44   1
  -3  -8  -2 31109.0 2707.99   1
  -3  -8  -1 1080.43 541.871   1
  -3  -8   0 20461.4 2407.47   1
  -3  -7 -15 45828.3 4557.80   3
  -3  -7 -14 49391.6 4506.36   3
  -3  -7 -13 73611.7 5298.30   3
  -3  -7 -12 67352.5 4822.63   3
  -3  -7 -11 4317.55 647.388   2
  -3  -7 -11 7028.79 935.767   6
  -3  -7 -11 8266.63 1572.27   3
  -3  -7 -10 2935.53 914.317   3
  -3  -7 -10 2226.29 485.839   6
  -3  -7 -10 2695.30 680.568   1
  -3  -7 -10 2714.86 529.018   2
  -3  -7  -9 20431.6 1652.54   2
  -3  -7  -9 20949.7 1960.11   1
  -3  -7  -8 74427.6 3911.20   1
  -3  -7  -7 75818.3 3654.76   6
  -3  -7  -7 72679.5 3708.65   5
  -3  -7  -6 150462. 5827.63   1
  -3  -7  -6 132791. 5236.93   5
  -3  -7  -6 140896. 5604.60   6
  -3  -7  -5 175894. 6622.94   6
  -3  -7  -5 163864. 6066.81   5
  -3  -7  -4 111165. 4971.23   1
  -3  -7  -3 36054.0 2624.23   1
  -3  -7  -2 613.779 332.859   1
  -3  -7  -1 44241.1 3212.72   1
  -3  -7   0 81487.8 4784.43   1
  -3  -6 -15 26136.2 3299.42   3
  -3  -6 -14 79774.9 5782.13   3
  -3  -6 -13 52835.0 4365.85   3
  -3  -6 -12 13709.7 1679.71   6
  -3  -6 -12 14622.2 2114.24   3
  -3  -6 -11 207.023 160.902   2
  -3  -6 -11 202.361 211.213   6
  -3  -6 -11 309.343 155.225   3
  -3  -6 -10 14835.7 1357.76   6
  -3  -6 -10 16176.1 2090.16   3
  -3  -6 -10 14174.7 1594.98   1
  -3  -6 -10 14787.0 1289.47   2
  -3  -6  -9 82326.1 3627.98   2
  -3  -6  -9 88819.3 4273.34   1
  -3  -6  -8 156988. 6159.05   1
  -3  -6  -7 182071. 6744.81   1
  -3  -6  -6 188353. 6483.83   5
  -3  -6  -6 226869. 7422.57   1
  -3  -6  -5 56518.9 3113.36   6
  -3  -6  -5 52925.1 2635.00   5
  -3  -6  -4 29947.9 2211.70   1
  -3  -6  -4 27492.2 2159.24   6
  -3  -6  -3 1936.03 545.980   1
  -3  -6  -2 15780.3 1659.53   1
  -3  -6  -1 81768.1 4274.02   1
  -3  -6   0 112133. 5457.55   1
  -3  -6   1 163438. 7182.56   1
  -3  -5 -14 39088.0 3868.29   3
  -3  -5 -13 1245.95 685.855   3
  -3  -5 -13 132.960 174.325   6
  -3  -5 -12 3255.58 888.086   6
  -3  -5 -12 2868.79 1009.91   3
  -3  -5 -11 14408.6 1610.28   6
  -3  -5 -11 17762.0 2177.83   3
  -3  -5 -10 85480.3 3990.60   6
  -3  -5 -10 91736.1 5073.78   3
  -3  -5 -10 84362.3 3652.65   2
  -3  -5  -9 187122. 7029.65   1
  -3  -5  -9 184188. 6411.91   6
  -3  -5  -9 190182. 6295.02   2
  -3  -5  -8 178484. 6087.27   2
  -3  -5  -8 172492. 6558.62   1
  -3  -5  -7 173347. 6447.93   1
  -3  -5  -6 66774.9 3467.89   1
  -3  -5  -5 27916.6 2064.80   1
  -3  -5  -5 22701.1 1424.96   5
  -3  -5  -4 228.967 227.000   1
  -3  -5  -4 747.672 228.474   5
  -3  -5  -3 1955.76 521.496   6
  -3  -5  -3 1139.67 355.895   1
  -3  -5  -2 129358. 5282.15   1
  -3  -5  -1 87952.9 4260.80   1
  -3  -5   0 138394. 5859.46   1
  -3  -5   1 222323. 8375.22   1
  -3  -4 -14 2199.72 964.795   3
  -3  -4 -14 3611.48 1070.22   6
  -3  -4 -13 1620.04 724.697   6
  -3  -4 -13 1284.17 512.754   3
  -3  -4 -12 21628.7 2523.80   3
  -3  -4 -12 20424.2 2307.01   6
  -3  -4 -11 77476.4 4757.37   3
  -3  -4 -11 79559.6 4385.41   6
  -3  -4 -10 198040. 8058.44   3
  -3  -4 -10 208975. 7441.34   6
  -3  -4 -10 191688. 6690.26   2
  -3  -4  -9 190112. 6667.90   6
  -3  -4  -9 188243. 7488.00   3
  -3  -4  -9 182112. 6282.61   2
  -3  -4  -8 211673. 7493.79   1
  -3  -4  -8 206306. 6808.96   2
  -3  -4  -7 133233. 5030.52   2
  -3  -4  -7 138994. 5501.27   1
  -3  -4  -6 23347.5 1908.24   1
  -3  -4  -5 187.744 246.407   1
  -3  -4  -4 23170.9 1810.53   1
  -3  -4  -4 19908.4 1068.77   5
  -3  -4  -3 116921. 4704.59   1
  -3  -4  -2 133795. 5146.63   1
  -3  -4  -2 123692. 5172.86   6
  -3  -4  -1 103152. 4473.70   1
  -3  -4   0 158341. 6123.28   1
  -3  -4   1 199552. 7416.34   1
  -3  -4   2 19103.7 1978.15   1
  -3  -3 -15 5788.99 1438.03   6
  -3  -3 -14 3061.27 902.080   6
  -3  -3 -13 12583.6 2069.18   6
  -3  -3 -13 11898.1 1899.73   3
  -3  -3 -12 79497.1 5034.45   6
  -3  -3 -12 75094.5 4843.86   3
  -3  -3 -11 154982. 6919.63   6
  -3  -3 -11 154266. 7021.24   3
  -3  -3 -10 122087. 5846.67   3
  -3  -3 -10 119649. 5468.56   6
  -3  -3  -9 140362. 6109.05   3
  -3  -3  -9 138822. 5551.67   6
  -3  -3  -9 130940. 5221.76   2
  -3  -3  -8 156523. 5781.05   6
  -3  -3  -8 146297. 5454.02   2
  -3  -3  -7 17667.3 1505.14   2
  -3  -3  -7 20417.2 1815.68   1
  -3  -3  -6 5627.19 834.224   2
  -3  -3  -6 4236.31 794.497   1
  -3  -3  -5 8962.67 1140.77   1
  -3  -3  -4 112449. 4579.31   1
  -3  -3  -3 200186. 6757.26   1
  -3  -3  -2 152224. 5507.69   1
  -3  -3  -1 155417. 5773.95   1
  -3  -3  -1 169323. 6200.27   6
  -3  -3   0 156812. 5824.36   1
  -3  -3   1 54323.6 3082.88   1
  -3  -3   2 434.982 247.820   1
  -3  -3   3 271.961 199.852   1
  -3  -3   4 35437.5 1576.96   4
  -3  -3   5 140207. 4845.70   4
  -3  -2 -15 128.046 476.015   6
  -3  -2 -14 9568.87 1932.02   6
  -3  -2 -13 36485.0 3794.17   6
  -3  -2 -12 123871. 6513.55   3
  -3  -2 -12 138458. 7279.11   6
  -3  -2 -11 102586. 5478.89   3
  -3  -2 -11 115686. 6043.18   6
  -3  -2 -10 74273.6 4289.52   6
  -3  -2 -10 71898.2 4151.90   3
  -3  -2  -9 49803.5 3206.47   6
  -3  -2  -9 54136.2 3364.51   3
  -3  -2  -9 53724.3 3116.62   2
  -3  -2  -8 46025.2 2856.31   6
  -3  -2  -8 43757.2 2656.72   2
  -3  -2  -7 13161.3 1317.54   2
  -3  -2  -6 9793.10 1100.53   2
  -3  -2  -6 8409.81 1127.20   1
  -3  -2  -5 88640.0 3823.01   2
  -3  -2  -5 91703.9 4050.57   1
  -3  -2  -4 358216. 10546.8   1
  -3  -2  -3 601451. 16098.9   1
  -3  -2  -2 127720. 4840.66   1
  -3  -2  -1 274282. 8390.60   1
  -3  -2   0 60586.6 3064.43   1
  -3  -2   0 63565.2 3357.78   6
  -3  -2   1 531.955 389.656   1
  -3  -2   2 18611.3 1673.75   1
  -3  -2   2 17567.4 922.628   4
  -3  -2   3 87310.7 2914.25   4
  -3  -2   3 88899.6 4282.39   1
  -3  -2   4 116696. 5278.49   1
  -3  -2   4 112414. 3848.54   4
  -3  -2   5 126344. 4571.60   4
  -3  -2   6 70740.2 3434.94   4
  -3  -1 -16 1575.84 839.921   6
  -3  -1 -15 15494.7 2598.13   6
  -3  -1 -14 24823.3 3363.71   6
  -3  -1 -13 78895.5 5970.40   6
  -3  -1 -12 80339.4 5652.94   6
  -3  -1 -11 42897.4 3280.89   3
  -3  -1 -11 44701.6 3811.02   6
  -3  -1 -10 49326.4 3320.85   3
  -3  -1 -10 57322.5 3916.90   6
  -3  -1  -9 29718.4 2358.10   3
  -3  -1  -9 33069.2 2719.78   6
  -3  -1  -8 9612.84 1226.69   3
  -3  -1  -8 8449.48 1166.22   2
  -3  -1  -8 9155.83 1258.78   6
  -3  -1  -7 33262.7 2396.16   6
  -3  -1  -7 32484.7 2286.35   2
  -3  -1  -6 69845.3 3378.13   2
  -3  -1  -5 227510. 7532.13   1
  -3  -1  -5 215564. 7198.27   2
  -3  -1  -4 380595. 10738.2   2
  -3  -1  -4 357846. 10776.2   1
  -3  -1  -3 268452. 8361.87   1
  -3  -1  -3 274191. 8398.83   2
  -3  -1  -2 267235. 8209.75   1
  -3  -1  -1 232733. 7341.36   1
  -3  -1   0 42433.3 2389.42   1
  -3  -1   0 45028.8 1893.43   5
  -3  -1   1 60182.8 2464.42   4
  -3  -1   1 57344.0 2936.35   1
  -3  -1   2 65766.7 2583.20   4
  -3  -1   2 63409.1 3181.10   1
  -3  -1   3 233247. 6736.64   4
  -3  -1   3 231018. 7737.35   1
  -3  -1   4 175249. 5676.98   4
  -3  -1   4 175402. 6564.07   1
  -3  -1   5 122570. 4640.84   4
  -3  -1   5 113729. 5228.81   1
  -3  -1   6 89149.9 4134.79   4
  -3  -1   7 29207.3 2400.34   4
  -3   0 -15 18767.3 2957.94   6
  -3   0 -14 44335.5 4498.66   6
  -3   0 -13 106197. 7257.28   6
  -3   0 -12 56507.3 4905.70   6
  -3   0 -11 38245.7 3724.53   6
  -3   0 -10 31180.8 3051.00   6
  -3   0 -10 23427.0 2144.41   3
  -3   0  -9 3552.64 736.683   3
  -3   0  -9 4905.96 1061.59   6
  -3   0  -8 90574.4 4720.92   6
  -3   0  -8 84116.4 3981.78   3
  -3   0  -7 19764.5 1858.82   2
  -3   0  -7 20565.0 1924.48   6
  -3   0  -6 101207. 4547.94   6
  -3   0  -6 93377.2 4318.72   2
  -3   0  -5 230162. 7616.81   2
  -3   0  -4 188783. 6698.22   1
  -3   0  -4 199223. 6667.21   2
  -3   0  -3 172447. 6010.30   2
  -3   0  -3 168082. 5933.92   1
  -3   0  -2 192231. 6510.69   2
  -3   0  -2 191835. 6387.69   1
  -3   0  -1 5268.65 757.224   1
  -3   0   0 89314.2 3647.77   1
  -3   0   0 86029.4 3520.76   4
  -3   0   0 88504.2 3050.96   5
  -3   0   1 147459. 4921.83   4
  -3   0   1 143835. 4734.00   5
  -3   0   1 137872. 4994.41   1
  -3   0   2 166068. 5389.64   4
  -3   0   2 162550. 5661.84   5
  -3   0   2 166227. 5720.56   1
  -3   0   3 238112. 7347.30   4
  -3   0   3 251484. 8139.04   5
  -3   0   3 244140. 7745.01   1
  -3   0   4 195420. 6715.55   1
  -3   0   4 192567. 6365.65   4
  -3   0   5 75769.9 3789.99   1
  -3   0   5 79741.9 3698.26   4
  -3   0   6 31680.0 2452.64   1
  -3   0   6 39031.1 2594.88   4
  -3   0   7 446.131 374.588   4
  -3   0   7 543.060 139.650   1
  -3   0   8 3395.41 812.243   4
  -3   0   9 4657.97 1128.22   4
  -3   0  10 41132.1 3435.88   4
  -3   1 -14 63939.1 5702.40   6
  -3   1 -13 52829.9 5211.04   6
  -3   1 -12 11861.7 2294.89   6
  -3   1 -11 18126.3 2678.79   6
  -3   1 -10 721.905 562.266   6
  -3   1  -9 13943.4 1904.99   6
  -3   1  -9 10391.2 1269.11   3
  -3   1  -8 102056. 5305.59   6
  -3   1  -8 88181.2 3969.52   3
  -3   1  -7 60248.5 2921.13   3
  -3   1  -7 60499.4 3737.56   6
  -3   1  -6 262431. 9102.88   6
  -3   1  -6 274242. 9182.73   2
  -3   1  -5 175799. 6587.85   2
  -3   1  -4 53701.8 2991.31   2
  -3   1  -3 11500.8 1263.76   1
  -3   1  -3 11933.0 1268.41   2
  -3   1  -2 25154.7 1883.30   2
  -3   1  -2 23687.4 1747.51   1
  -3   1  -1 78319.1 3600.55   2
  -3   1  -1 81174.4 3477.19   1
  -3   1   0 95719.3 4065.64   2
  -3   1   0 92840.0 3964.90   4
  -3   1   0 92294.9 3749.20   1
  -3   1   1 215395. 7076.39   4
  -3   1   1 221355. 6673.55   5
  -3   1   1 228241. 6943.43   1
  -3   1   2 373937. 10900.3   4
  -3   1   2 408871. 10859.1   1
  -3   1   2 377373. 10851.1   5
  -3   1   3 334996. 10022.5   4
  -3   1   3 345069. 9849.20   1
  -3   1   3 351230. 10417.4   5
  -3   1   4 227370. 7360.05   4
  -3   1   4 215528. 7038.29   1
  -3   1   4 216202. 7811.91   5
  -3   1   5 59872.3 3209.86   4
  -3   1   5 55676.2 3581.18   5
  -3   1   5 50362.9 2822.55   1
  -3   1   6 6881.87 1012.79   1
  -3   1   6 6378.71 1230.86   5
  -3   1   6 6835.74 1092.72   4
  -3   1   7 7061.98 1173.23   4
  -3   1   7 5618.42 948.014   1
  -3   1   7 9168.91 1568.63   5
  -3   1   8 15560.3 1687.22   1
  -3   1   8 17455.9 2040.06   4
  -3   1   9 54620.1 3488.75   1
  -3   1   9 54849.0 3967.68   4
  -3   1  10 70601.2 4207.93   1
  -3   1  10 71224.1 4774.25   4
  -3   1  11 36394.5 3893.34   5
  -3   1  11 27044.2 2927.63   4
  -3   1  12 35838.8 4058.49   5
  -3   2 -13 7373.15 1967.52   6
  -3   2 -12 6379.75 1669.88   6
  -3   2 -11 2865.24 954.634   6
  -3   2 -10 27022.6 3275.50   6
  -3   2  -9 68191.5 4923.42   6
  -3   2  -8 103081. 5750.21   6
  -3   2  -7 211018. 8384.68   6
  -3   2  -7 199327. 6366.64   3
  -3   2  -6 147206. 6404.03   6
  -3   2  -6 153308. 4934.46   3
  -3   2  -5 67446.6 3774.16   6
  -3   2  -5 73335.7 3991.52   2
  -3   2  -4 23188.4 2018.57   2
  -3   2  -3 559.629 181.281   2
  -3   2  -2 33712.7 2285.22   2
  -3   2  -1 117563. 4501.43   1
  -3   2  -1 115084. 4886.09   4
  -3   2  -1 106083. 4573.09   2
  -3   2   0 176429. 6280.23   2
  -3   2   0 188221. 6557.42   4
  -3   2   0 178405. 5954.75   1
  -3   2   1 237943. 7151.58   1
  -3   2   1 243624. 7801.86   4
  -3   2   2 231055. 7671.21   4
  -3   2   2 228353. 7627.71   2
  -3   2   2 241934. 7158.02   1
  -3   2   2 239302. 7485.03   5
  -3   2   3 79783.4 3775.57   4
  -3   2   3 83018.7 3388.59   1
  -3   2   3 84623.5 3866.25   5
  -3   2   4 102629. 4518.74   4
  -3   2   4 101847. 3919.50   1
  -3   2   4 103445. 4739.53   5
  -3   2   5 29147.6 2253.38   4
  -3   2   5 27606.0 2383.77   5
  -3   2   5 28473.8 1875.82   1
  -3   2   6 1600.93 553.684   4
  -3   2   6 2751.02 595.727   1
  -3   2   6 1889.46 614.063   5
  -3   2   7 16787.1 2082.37   5
  -3   2   7 14180.8 1423.31   1
  -3   2   7 15783.1 1843.67   4
  -3   2   8 51283.2 3024.69   1
  -3   2   8 54660.8 4247.66   5
  -3   2   8 58236.4 3913.07   4
  -3   2   9 103965. 4850.05   1
  -3   2   9 120499. 6204.59   4
  -3   2   9 122452. 6864.55   5
  -3   2  10 61469.8 3653.40   1
  -3   2  10 67999.8 5233.74   5
  -3   2  10 70741.4 4733.99   4
  -3   2  11 36153.7 3922.21   5
  -3   2  11 33944.9 3362.03   4
  -3   2  12 41201.8 4335.06   5
  -3   2  12 29736.2 3238.19   4
  -3   3 -12 1184.22 863.835   6
  -3   3 -11 12540.1 2445.88   6
  -3   3 -10 64674.3 5542.58   6
  -3   3  -9 64516.5 5139.71   6
  -3   3  -8 91743.2 5802.39   6
  -3   3  -7 270925. 10541.2   6
  -3   3  -6 74006.5 2769.67   3
  -3   3  -6 88671.0 4902.65   6
  -3   3  -5 37133.7 2852.54   6
  -3   3  -5 38583.7 1665.18   3
  -3   3  -4 1413.61 460.235   6
  -3   3  -3 57557.7 3480.50   2
  -3   3  -2 163712. 6413.28   2
  -3   3  -1 110484. 4984.14   4
  -3   3  -1 104707. 4694.73   2
  -3   3   0 188587. 6884.38   4
  -3   3   0 177439. 6516.99   2
  -3   3   1 173602. 5834.24   1
  -3   3   1 183524. 6700.51   4
  -3   3   1 174021. 6323.04   2
  -3   3   2 45152.0 2665.65   2
  -3   3   2 45203.4 2795.13   4
  -3   3   2 44747.7 2299.28   1
  -3   3   3 39564.2 2507.61   2
  -3   3   3 43214.9 2754.29   4
  -3   3   3 42955.1 2167.43   1
  -3   3   3 40429.2 2594.15   5
  -3   3   4 14350.7 1576.61   4
  -3   3   4 13136.3 1391.33   2
  -3   3   4 12773.9 1102.80   1
  -3   3   4 15443.1 1611.00   5
  -3   3   5 10979.4 1482.03   4
  -3   3   5 10846.3 1244.50   2
  -3   3   5 12664.9 1086.17   1
  -3   3   5 11581.0 1517.18   5
  -3   3   6 77813.8 4285.17   4
  -3   3   6 76346.5 3199.80   1
  -3   3   6 71769.3 4312.02   5
  -3   3   7 61703.8 2962.80   1
  -3   3   7 65024.9 4310.94   5
  -3   3   7 67753.5 4188.08   4
  -3   3   8 135293. 5117.71   1
  -3   3   8 146469. 6862.85   4
  -3   3   9 127612. 7008.11   5
  -3   3   9 111374. 4695.80   1
  -3   3   9 122642. 6404.01   4
  -3   3  10 53092.6 4566.37   5
  -3   3  10 50128.1 4050.43   4
  -3   3  11 28759.2 3473.22   5
  -3   3  11 32033.7 3290.30   4
  -3   3  12 9181.74 1809.78   4
  -3   3  12 9856.62 2026.13   5
  -3   3  13 176.385 276.342   4
  -3   3  13-730.636 806.195   5
  -3   4 -11 62506.2 5983.23   6
  -3   4 -10 51666.7 5184.32   6
  -3   4  -9 95292.9 6803.55   6
  -3   4  -8 93223.9 6305.68   6
  -3   4  -7 127119. 7051.09   6
  -3   4  -6 9695.42 1638.97   6
  -3   4  -5 4875.65 1097.83   6
  -3   4  -4 25157.4 2334.65   6
  -3   4  -3 98245.1 4794.43   6
  -3   4  -2 186006. 6913.14   6
  -3   4  -2 171825. 7116.69   2
  -3   4  -1 156001. 6413.80   4
  -3   4  -1 140854. 6071.73   2
  -3   4   0 206411. 7632.41   4
  -3   4   0 196061. 7375.95   2
  -3   4   1 47053.4 2930.78   2
  -3   4   1 47997.2 3115.49   4
  -3   4   2 23447.8 2072.76   4
  -3   4   2 22412.1 1917.13   2
  -3   4   3 15460.3 1681.63   4
  -3   4   3 16173.8 1294.07   1
  -3   4   3 15839.9 1570.01   2
  -3   4   4 7215.95 1195.50   4
  -3   4   4 8921.68 867.168   1
  -3   4   4 8001.22 1094.31   2
  -3   4   5 81526.3 3947.90   6
  -3   4   5 79117.5 3858.61   2
  -3   4   5 81809.2 4436.87   4
  -3   4   5 82521.7 3111.89   1
  -3   4   5 86534.7 4482.87   5
  -3   4   6 91786.6 4889.96   4
  -3   4   6 80069.0 3940.16   2
  -3   4   6 86461.8 3202.69   1
  -3   4   6 91213.2 4973.01   5
  -3   4   7 123365. 6054.24   4
  -3   4   7 115857. 4985.23   2
  -3   4   7 124981. 6287.49   5
  -3   4   7 120001. 4095.67   1
  -3   4   8 187107. 5861.09   1
  -3   4   8 183783. 6813.85   2
  -3   4   8 208163. 8913.63   5
  -3   4   8 196615. 8362.70   4
  -3   4   9 92558.5 4350.37   2
  -3   4   9 105028. 6302.94   5
  -3   4   9 101196. 5851.04   4
  -3   4  10 31144.3 3441.61   5
  -3   4  10 31202.6 3239.19   4
  -3   4  11 24102.6 3140.59   5
  -3   4  11 17591.2 2596.37   4
  -3   4  12 3665.12 1256.32   5
  -3   4  12 3018.39 1033.93   4
  -3   4  13 8875.86 1862.50   4
  -3   4  13 11529.3 2334.76   5
  -3   4  14 7918.07 1819.45   4
  -3   5 -10 48764.0 5204.29   6
  -3   5  -9 91231.1 6997.11   6
  -3   5  -8 37031.3 4114.19   6
  -3   5  -7 4238.66 1193.22   6
  -3   5  -6 8959.84 1697.54   6
  -3   5  -5 7063.28 1376.13   6
  -3   5  -4 80433.9 4813.84   6
  -3   5  -3 111698. 5534.31   6
  -3   5  -2 119457. 3699.11   3
  -3   5  -2 148884. 6011.12   6
  -3   5  -1 222327. 7641.74   6
  -3   5  -1 219532. 8162.70   4
  -3   5   0 103117. 5207.79   2
  -3   5   0 104388. 5269.77   4
  -3   5   1 13768.6 1693.66   4
  -3   5   1 14152.6 1678.91   2
  -3   5   2 14951.7 1735.94   4
  -3   5   2 13317.7 1603.88   2
  -3   5   3 12822.9 1592.29   4
  -3   5   3 10367.5 1386.89   2
  -3   5   4 133858. 6070.78   4
  -3   5   4 133438. 5602.66   2
  -3   5   5 88033.9 4876.50   4
  -3   5   5 93581.9 4395.22   2
  -3   5   6 78681.6 4525.90   4
  -3   5   6 63096.2 3442.17   6
  -3   5   6 73587.7 4364.65   5
  -3   5   6 64171.8 3567.43   2
  -3   5   7 161227. 7088.32   4
  -3   5   7 158707. 7050.20   5
  -3   5   7 150377. 5710.40   2
  -3   5   8 90611.4 5372.21   4
  -3   5   8 90358.1 5433.98   5
  -3   5   8 74345.3 3833.07   2
  -3   5   9 25117.4 2910.82   5
  -3   5   9 22362.0 2702.33   4
  -3   5  10 3906.01 1178.47   5
  -3   5  10 6057.96 1436.09   4
  -3   5  11 764.273 493.144   4
  -3   5  11 176.378 86.9790   5
  -3   5  12 18513.7 2699.83   4
  -3   5  12 25570.4 3461.07   5
  -3   5  13 30960.3 3950.09   5
  -3   5  13 22782.1 3110.08   4
  -3   5  14 13329.9 2453.90   4
  -3   6  -9 34633.5 4489.11   6
  -3   6  -8 1200.02 569.616   6
  -3   6  -7 5932.78 1582.79   6
  -3   6  -6 2259.58 1005.20   6
  -3   6  -5 89457.2 5927.31   6
  -3   6  -4 106514. 6099.77   6
  -3   6  -3 67227.4 4467.99   6
  -3   6  -2 133102. 6301.46   6
  -3   6  -1 153515. 6815.40   4
  -3   6  -1 144713. 6150.48   6
  -3   6   0 16442.7 1369.78   3
  -3   6   0 18950.7 2134.92   4
  -3   6   0 20394.4 1965.56   6
  -3   6   1-95.0503 260.070   4
  -3   6   1 338.230 242.861   3
  -3   6   1 594.728 352.759   6
  -3   6   2 1216.26 507.932   4
  -3   6   2 1300.44 493.748   3
  -3   6   3 82475.4 4576.43   4
  -3   6   3 70724.2 4307.70   2
  -3   6   4 112169. 5685.03   4
  -3   6   4 118869. 5620.22   2
  -3   6   5 107127. 5611.14   4
  -3   6   5 100561. 5075.76   2
  -3   6   6 168712. 7415.26   4
  -3   6   6 146743. 5818.96   6
  -3   6   6 163867. 6672.99   2
  -3   6   7 182977. 8048.32   4
  -3   6   7 164009. 6768.72   2
  -3   6   8 14268.9 2075.09   4
  -3   6   8 11154.2 1429.08   2
  -3   6   8 10525.1 1789.78   5
  -3   6   9 87.8029 279.937   4
  -3   6   9-99.6516 259.847   5
  -3   6  10 3837.09 1140.34   4
  -3   6  10 3896.79 1211.56   5
  -3   6  11 36161.0 3936.11   5
  -3   6  11 29678.0 3430.22   4
  -3   6  12 50917.3 4952.52   5
  -3   6  12 39404.0 4090.98   4
  -3   6  13 41261.2 4346.44   4
  -3   6  14 23541.2 3273.11   4
  -3   7  -8 2072.58 1002.40   6
  -3   7  -7 25074.7 3573.77   6
  -3   7  -6 44194.3 4681.17   6
  -3   7  -5 102059. 6924.73   6
  -3   7  -4 51568.7 4510.23   6
  -3   7  -3 92791.5 5847.78   6
  -3   7  -2 123891. 6505.69   6
  -3   7  -1 38799.5 3370.04   4
  -3   7  -1 44414.6 3453.01   6
  -3   7   0 819.290 453.490   4
  -3   7   0 633.473 496.219   6
  -3   7   1 769.560 385.296   6
  -3   7   1 711.115 310.150   3
  -3   7   1 282.904 375.658   4
  -3   7   2 43376.0 3411.12   4
  -3   7   2 42662.8 2911.75   6
  -3   7   3 120354. 6155.59   4
  -3   7   4 140226. 6712.28   4
  -3   7   5 116336. 6065.91   4
  -3   7   6 103888. 5856.75   4
  -3   7   7 19466.5 2446.22   4
  -3   7   8-386.469 493.262   4
  -3   7   9-817.975 778.094   4
  -3   7  10 10988.2 2046.58   5
  -3   7  10 12051.3 2129.17   4
  -3   7  11 65437.3 5336.49   4
  -3   7  11 77442.9 5923.22   5
  -3   7  12 44009.8 4465.72   4
  -3   7  12 50454.9 4968.25   5
  -3   7  13 48528.5 4760.83   4
  -3   8  -7 23398.2 3699.68   6
  -3   8  -6 93616.3 7442.73   6
  -3   8  -5 66031.1 5871.84   6
  -3   8  -4 45827.4 4672.58   6
  -3   8  -3 59743.9 5070.15   6
  -3   8  -2 9442.95 1753.38   6
  -3   8  -1 2286.46 901.425   4
  -3   8  -1 2591.26 753.714   6
  -3   8   0 1030.82 481.802   4
  -3   8   0 393.332 360.915   6
  -3   8   1 8204.06 1532.80   4
  -3   8   1 9431.97 1524.34   6
  -3   8   2 140988. 7025.93   4
  -3   8   2 144762. 6475.31   6
  -3   8   3 85938.6 5215.50   4
  -3   8   3 83732.8 4417.32   6
  -3   8   4 82282.7 5093.86   4
  -3   8   4 76347.2 4086.69   6
  -3   8   5 85402.7 5264.71   4
  -3   8   5 80467.9 4071.37   6
  -3   8   6 37392.0 3413.35   4
  -3   8   7 2220.41 747.623   4
  -3   8   8-146.011 242.885   4
  -3   8   9 46021.4 4188.54   4
  -3   8  10 78455.5 5871.56   4
  -3   8  11 61070.9 5221.98   4
  -3   8  12 29245.6 3701.59   4
  -3   8  12 43373.8 4513.16   5
  -3   8  13 22153.3 3261.53   4
  -3   9  -6 76360.4 6958.38   6
  -3   9  -5 24659.1 3716.21   6
  -3   9  -4 25497.4 3759.03   6
  -3   9  -3 16607.9 2906.39   6
  -3   9  -2 1593.38 744.569   6
  -3   9  -1 14968.6 2451.52   6
  -3   9   0 28453.4 3199.09   6
  -3   9   0 26703.0 3032.50   4
  -3   9   1 95023.7 5854.38   4
  -3   9   1 97041.8 5960.76   6
  -3   9   2 176614. 8279.58   4
  -3   9   2 159481. 7635.64   6
  -3   9   3 66688.8 4777.58   4
  -3   9   3 61197.4 4137.68   6
  -3   9   4 62225.9 4555.82   4
  -3   9   4 58544.1 3900.41   6
  -3   9   5 34523.6 3390.74   4
  -3   9   6 718.101 592.453   4
  -3   9   7 9223.86 1806.99   4
  -3   9   8 12825.1 2227.16   4
  -3   9   9 56900.4 4859.29   4
  -3   9  10 32435.3 3752.38   4
  -3   9  11 34592.5 3956.96   4
  -3   9  12 60932.2 5537.43   4
  -3  10  -5 22535.6 3789.66   6
  -3  10  -4 24754.0 3887.57   6
  -3  10  -3-153.677 460.646   6
  -3  10  -2 13027.9 2552.81   6
  -3  10  -1 27028.8 3652.16   6
  -3  10   0 69334.8 5760.76   6
  -3  10   0 67058.1 5163.44   4
  -3  10   1 86345.5 5853.92   4
  -3  10   1 83774.7 6125.24   6
  -3  10   2 54413.6 4439.35   4
  -3  10   2 48803.1 4352.15   6
  -3  10   3 67977.6 5022.39   4
  -3  10   3 63394.2 4791.98   6
  -3  10   4 26807.8 3085.28   4
  -3  10   5 3094.47 1075.35   4
  -3  10   6 5318.51 1362.70   4
  -3  10   7 12685.4 2212.77   4
  -3  10   8 44038.6 4296.51   4
  -3  10   9 49753.0 4692.72   4
  -3  10  10 38890.9 4235.57   4
  -3  10  11 38252.8 4253.72   4
  -3  11  -3 9207.24 2405.83   6
  -3  11  -2 14600.6 2901.87   6
  -3  11  -1 42164.4 5024.59   6
  -3  11   0 72456.3 6414.38   6
  -3  11   0 68999.1 5468.17   4
  -3  11   1 51898.2 4686.48   4
  -3  11   1 49430.4 5067.74   6
  -3  11   2 15077.1 2411.15   4
  -3  11   3 34860.8 3746.78   4
  -3  11   4 1832.15 732.762   4
  -3  11   5 9855.19 1911.26   4
  -3  11   6 12287.0 2201.10   4
  -3  11   7 41847.5 4198.01   4
  -3  11   8 66650.0 5573.40   4
  -3  11   9 28385.6 3596.58   4
  -3  12  -2 20003.0 3454.46   6
  -3  12  -1 47712.9 5410.67   6
  -3  12   1 30845.9 3705.25   4
  -3  12   2 8929.06 1974.56   4
  -3  12   3 60.3912 531.783   4
  -3  12   4 12773.0 2279.30   4
  -3  12   5 13440.0 2415.24   4
  -3  12   6 35665.4 3967.34   4
  -3  12   7 67539.7 5616.63   4
  -2 -15  -9 43469.1 4890.81   3
  -2 -15  -8 41638.8 4686.40   3
  -2 -15  -3 12349.4 2464.20   1
  -2 -14 -11 47648.2 5010.13   3
  -2 -14 -10 39558.1 4500.72   3
  -2 -14  -9 39297.2 4384.13   3
  -2 -14  -8 10243.6 2150.71   3
  -2 -14  -7 29.3485 562.813   3
  -2 -14  -6 759.671 636.717   3
  -2 -14  -5 6091.67 1575.02   1
  -2 -14  -4 68890.5 5176.84   1
  -2 -14  -3 43704.9 4296.06   1
  -2 -14  -2 33488.1 3923.16   1
  -2 -14  -1 23413.0 3382.76   1
  -2 -13 -12 52867.3 5248.77   3
  -2 -13 -11 37086.7 4210.88   3
  -2 -13 -10 31113.5 3742.42   3
  -2 -13  -9 7788.51 1814.82   3
  -2 -13  -8 1342.19 780.762   3
  -2 -13  -7-266.376 341.192   3
  -2 -13  -6 20942.5 2942.49   3
  -2 -13  -6 19955.9 2282.56   1
  -2 -13  -5 75143.9 5486.27   3
  -2 -13  -5 72166.9 4766.85   1
  -2 -13  -4 54623.1 4280.43   1
  -2 -13  -3 38114.9 3784.72   1
  -2 -13  -2 92721.0 6373.53   1
  -2 -12 -13 53073.3 5172.34   3
  -2 -12 -12 38726.3 4221.83   3
  -2 -12 -11 40230.5 4160.41   3
  -2 -12 -10 42868.7 4226.21   3
  -2 -12  -9-482.393 497.852   3
  -2 -12  -8 15654.6 2341.74   3
  -2 -12  -7 28487.0 2505.69   1
  -2 -12  -7 32183.5 3429.61   3
  -2 -12  -6 75885.9 4475.24   1
  -2 -12  -6 85147.3 5703.84   3
  -2 -12  -5 70400.2 4428.37   1
  -2 -12  -4 38872.9 3387.06   1
  -2 -12  -3 47043.5 3970.03   1
  -2 -12  -2 67977.1 5085.90   1
  -2 -11 -13 55287.8 5075.87   3
  -2 -11 -12 39991.6 4137.81   3
  -2 -11 -11 28414.0 3336.53   3
  -2 -11 -10 3739.30 1034.77   3
  -2 -11  -9 36171.4 3587.39   3
  -2 -11  -8 29251.4 2323.60   1
  -2 -11  -8 36753.0 3535.84   3
  -2 -11  -7 83469.1 5374.35   3
  -2 -11  -7 76536.3 4123.49   1
  -2 -11  -6 100293. 4976.70   1
  -2 -11  -5 57804.4 3771.58   1
  -2 -11  -4 52059.2 3696.51   1
  -2 -11  -3 38983.3 3412.49   1
  -2 -10 -14 51591.1 4959.11   3
  -2 -10 -13 41012.2 4249.25   3
  -2 -10 -12 38815.8 3941.19   3
  -2 -10 -11 2437.71 962.076   3
  -2 -10 -10 6566.88 1003.38   1
  -2 -10 -10 22644.1 2696.94   3
  -2 -10  -9 32333.1 3256.28   3
  -2 -10  -9 32536.5 2286.67   1
  -2 -10  -8 59475.7 3338.24   1
  -2 -10  -8 67002.8 4615.37   3
  -2 -10  -7 221855. 7860.75   1
  -2 -10  -7 234059. 9496.96   3
  -2 -10  -6 105758. 4897.72   1
  -2 -10  -5 38484.2 2833.67   1
  -2 -10  -4 31049.2 2636.08   1
  -2 -10  -3 5725.28 1199.83   1
  -2  -9 -15 54197.7 5220.21   3
  -2  -9 -14 14055.4 2497.54   3
  -2  -9 -13 16209.4 2566.27   3
  -2  -9 -12 2042.04 753.169   3
  -2  -9 -11 20794.3 2641.35   3
  -2  -9 -10 34049.8 2212.18   1
  -2  -9 -10 32823.1 3256.92   3
  -2  -9  -9 40542.9 3526.45   3
  -2  -9  -9 38833.2 2457.61   1
  -2  -9  -8 121381. 6291.55   3
  -2  -9  -8 123680. 5032.93   1
  -2  -9  -7 134053. 5326.71   6
  -2  -9  -7 157967. 5809.57   1
  -2  -9  -6 51863.4 3040.85   1
  -2  -9  -6 43611.3 3083.34   6
  -2  -9  -5 27413.2 2682.60   6
  -2  -9  -5 30537.6 2324.32   1
  -2  -9  -4 8387.65 1262.27   1
  -2  -9  -4 4845.69 1203.35   6
  -2  -9  -3 7850.29 1261.35   1
  -2  -8 -14 4030.24 1243.97   3
  -2  -8 -13-1249.12 909.416   3
  -2  -8 -12 17896.7 2495.81   3
  -2  -8 -11 86121.3 5475.57   3
  -2  -8 -10 66155.7 3108.00   1
  -2  -8 -10 66000.4 4424.87   3
  -2  -8  -9 145808. 5448.01   1
  -2  -8  -9 145034. 6972.93   3
  -2  -8  -8 192461. 6069.27   1
  -2  -8  -8 186428. 7512.25   3
  -2  -8  -7 65602.4 3287.83   1
  -2  -8  -7 58426.0 2763.61   6
  -2  -8  -6 57218.7 3049.50   1
  -2  -8  -6 52985.3 2942.77   6
  -2  -8  -5 18336.1 1836.77   6
  -2  -8  -5 18958.4 1669.29   1
  -2  -8  -4 6048.53 986.601   1
  -2  -8  -4 6942.38 1234.28   6
  -2  -8  -3 60591.1 3510.79   1
  -2  -8  -2 116407. 5429.50   1
  -2  -8   1 74404.8 3689.41   4
  -2  -7 -14-167.639 519.000   3
  -2  -7 -13 15890.3 2406.95   3
  -2  -7 -12 68771.0 4982.20   3
  -2  -7 -11 54164.8 2723.97   6
  -2  -7 -11 81516.8 5034.11   3
  -2  -7 -10 99004.4 3750.58   6
  -2  -7 -10 88354.7 2807.63   2
  -2  -7  -9 126419. 4135.64   2
  -2  -7  -9 135453. 5033.95   1
  -2  -7  -9 125766. 4110.13   6
  -2  -7  -9 141384. 6536.40   3
  -2  -7  -8 113222. 3462.75   6
  -2  -7  -8 119426. 5723.94   3
  -2  -7  -8 119710. 4597.62   1
  -2  -7  -7 27844.8 1641.74   6
  -2  -7  -7 30446.3 2048.47   1
  -2  -7  -6 73743.9 3473.19   1
  -2  -7  -6 79969.1 3320.61   6
  -2  -7  -5 611.906 172.078   1
  -2  -7  -5 1327.05 414.974   6
  -2  -7  -4 55158.1 3136.32   6
  -2  -7  -4 51869.7 2911.45   1
  -2  -7  -3 126466. 5237.55   1
  -2  -7  -3 137899. 5837.82   6
  -2  -7  -2 144022. 5889.98   1
  -2  -7   1 38934.0 2309.62   4
  -2  -7   2 15921.9 1372.76   4
  -2  -6 -13 63342.1 4957.02   3
  -2  -6 -12 123951. 6879.70   3
  -2  -6 -12 130171. 5486.81   6
  -2  -6 -11 113760. 5048.25   6
  -2  -6 -11 118078. 6263.35   3
  -2  -6 -10 120225. 6066.35   3
  -2  -6 -10 112146. 4620.91   6
  -2  -6  -9 70913.9 4301.14   3
  -2  -6  -9 71223.4 3363.84   1
  -2  -6  -9 68231.8 2914.79   6
  -2  -6  -9 68952.0 2529.39   2
  -2  -6  -8 29969.3 1624.70   2
  -2  -6  -8 28102.0 2481.46   3
  -2  -6  -8 28407.1 1945.34   1
  -2  -6  -8 27710.0 1492.40   6
  -2  -6  -7 467.058 314.878   1
  -2  -6  -6 16602.6 1289.63   6
  -2  -6  -6 17460.1 1596.88   5
  -2  -6  -6 18907.3 1520.22   1
  -2  -6  -5 85306.8 3586.95   6
  -2  -6  -5 82935.2 3798.36   5
  -2  -6  -5 94424.0 3828.64   1
  -2  -6  -4 109581. 4300.97   6
  -2  -6  -4 103979. 4245.20   1
  -2  -6  -3 183267. 6464.19   6
  -2  -6  -3 172346. 6163.26   1
  -2  -6  -2 189766. 6722.44   1
  -2  -6  -2 189116. 7047.25   6
  -2  -6   1 8022.56 848.262   4
  -2  -6   2 10892.9 975.383   4
  -2  -6   3 65890.0 2908.84   4
  -2  -5 -13 76138.2 5537.15   3
  -2  -5 -13 83289.3 4613.50   6
  -2  -5 -12 81673.2 4521.12   6
  -2  -5 -12 76232.4 5182.00   3
  -2  -5 -11 53072.5 3459.33   6
  -2  -5 -11 54441.5 4011.24   3
  -2  -5 -10 127762. 5287.48   6
  -2  -5 -10 117600. 5985.02   3
  -2  -5  -9 37600.9 2951.99   3
  -2  -5  -9 36284.0 2166.33   6
  -2  -5  -9 37510.0 1760.14   2
  -2  -5  -8 2509.48 410.277   2
  -2  -5  -8 3039.29 762.490   3
  -2  -5  -8 1935.83 402.627   6
  -2  -5  -8 1869.10 450.600   1
  -2  -5  -7 22956.5 1686.76   1
  -2  -5  -6 231564. 7243.00   1
  -2  -5  -5 178534. 5766.51   1
  -2  -5  -5 158822. 5542.06   5
  -2  -5  -4 323906. 9091.49   6
  -2  -5  -4 327768. 9267.00   1
  -2  -5  -4 301925. 8964.00   5
  -2  -5  -3 500922. 13736.7   1
  -2  -5  -3 522071. 13839.1   6
  -2  -5  -2 272412. 8421.00   6
  -2  -5  -2 257512. 8178.06   1
  -2  -5  -1 36836.5 2532.82   6
  -2  -5  -1 38258.7 2414.57   1
  -2  -5   1 3572.09 507.687   4
  -2  -5   2 83500.1 2883.29   4
  -2  -5   3 46320.6 2124.73   4
  -2  -5   4 54334.8 2608.04   4
  -2  -5   5 85187.5 3748.85   4
  -2  -4 -14 54443.1 3989.25   6
  -2  -4 -13 70651.3 4516.68   6
  -2  -4 -12 113862. 6475.67   3
  -2  -4 -12 130334. 6324.37   6
  -2  -4 -11 137284. 6447.34   6
  -2  -4 -11 144184. 6978.06   3
  -2  -4 -10 40581.3 3180.19   3
  -2  -4 -10 41470.7 2911.01   6
  -2  -4  -9 1035.56 337.581   6
  -2  -4  -9 572.327 295.754   3
  -2  -4  -8 38744.7 2824.39   3
  -2  -4  -8 40922.6 2217.60   6
  -2  -4  -8 37723.4 1869.23   2
  -2  -4  -7 91359.2 3317.81   2
  -2  -4  -7 96608.8 3908.01   1
  -2  -4  -7 93816.9 3491.07   6
  -2  -4  -6 310721. 9040.77   1
  -2  -4  -5 238107. 7283.16   1
  -2  -4  -4 368586. 10040.4   1
  -2  -4  -4 348452. 9519.45   5
  -2  -4  -3 221097. 6748.53   1
  -2  -4  -3 213476. 6614.56   6
  -2  -4  -2 31155.4 1942.05   6
  -2  -4  -2 26785.1 1772.35   1
  -2  -4  -1 1788.45 444.297   1
  -2  -4  -1 2204.23 515.262   6
  -2  -4   0 25319.8 1977.23   6
  -2  -4   2 172596. 4617.62   4
  -2  -4   3 104057. 3440.44   4
  -2  -4   4 77746.5 3125.51   4
  -2  -3 -15 13912.5 2180.02   6
  -2  -3 -14 65412.8 4640.98   6
  -2  -3 -13 52838.4 4071.30   6
  -2  -3 -12 59958.1 4383.31   6
  -2  -3 -11 14429.2 1954.11   3
  -2  -3 -11 19913.4 2284.64   6
  -2  -3 -10 107.267 220.589   6
  -2  -3 -10 397.400 82.5714   3
  -2  -3  -9 1396.91 377.471   6
  -2  -3  -9 1348.93 504.102   3
  -2  -3  -8 40785.2 2820.69   3
  -2  -3  -8 45009.6 2561.45   6
  -2  -3  -8 42155.6 2166.20   2
  -2  -3  -7 211229. 6456.03   6
  -2  -3  -7 196094. 7172.44   3
  -2  -3  -7 199017. 6041.64   2
  -2  -3  -6 326929. 8867.56   2
  -2  -3  -6 320730. 9392.91   1
  -2  -3  -5 338061. 9568.84   1
  -2  -3  -4 266861. 7813.04   1
  -2  -3  -3 35446.5 1936.20   1
  -2  -3  -3 35016.5 1444.41   5
  -2  -3  -2 2606.21 487.345   1
  -2  -3  -1 16188.4 1342.08   6
  -2  -3  -1 18322.0 1374.16   1
  -2  -3   0 132940. 4767.90   1
  -2  -3   0 126760. 4861.53   6
  -2  -3   1 368413. 10939.9   6
  -2  -2 -15 73312.0 5219.74   6
  -2  -2 -14 56439.8 4441.26   6
  -2  -2 -13 54219.8 4312.73   6
  -2  -2 -12 14375.4 2141.51   6
  -2  -2 -11 540.066 483.830   6
  -2  -2 -10 14379.3 1851.77   6
  -2  -2 -10 12930.4 1699.54   3
  -2  -2  -9 51062.1 3326.54   6
  -2  -2  -9 45534.3 3149.24   3
  -2  -2  -8 262735. 8625.21   6
  -2  -2  -8 260709. 8740.66   3
  -2  -2  -7 252533. 7903.44   6
  -2  -2  -7 246099. 7490.00   2
  -2  -2  -7 255657. 8245.00   3
  -2  -2  -6 123629. 4447.19   6
  -2  -2  -6 117203. 4139.47   2
  -2  -2  -5 237439. 6847.19   2
  -2  -2  -5 232802. 7209.05   1
  -2  -2  -4 61163.0 2580.05   2
  -2  -2  -4 60164.4 2709.66   1
  -2  -2  -3 1072.85 320.036   1
  -2  -2  -2 30547.2 1727.00   1
  -2  -2  -1 63111.3 2694.62   1
  -2  -2   0 276387. 8033.23   1
  -2  -2   0 282386. 8294.84   6
  -2  -2   1 314685. 9434.11   6
  -2  -2   1 327642. 9286.96   1
  -2  -2   2 219928. 7248.79   6
  -2  -2   2 212664. 5409.71   4
  -2  -1 -16 49440.5 4475.02   6
  -2  -1 -15 43325.1 4115.76   6
  -2  -1 -14 35098.7 3583.95   6
  -2  -1 -13 28050.6 3166.68   6
  -2  -1 -12 247.526 353.355   6
  -2  -1 -11 14708.4 2216.15   6
  -2  -1 -10 34674.2 3214.04   6
  -2  -1  -9 122057. 5714.58   3
  -2  -1  -9 152830. 6626.28   6
  -2  -1  -8 183112. 7088.88   6
  -2  -1  -8 183112. 6759.62   3
  -2  -1  -7 136193. 5387.98   6
  -2  -1  -7 127850. 5111.95   3
  -2  -1  -6 92295.8 3839.21   6
  -2  -1  -6 84903.2 3706.40   3
  -2  -1  -6 89552.7 3623.55   2
  -2  -1  -5 109007. 3960.50   2
  -2  -1  -4 764.260 243.768   2
  -2  -1  -4 519.357 176.498   1
  -2  -1  -3 56551.7 2473.09   2
  -2  -1  -3 54937.1 2490.04   1
  -2  -1  -2 38484.1 1954.42   1
  -2  -1  -1 192794. 5781.66   1
  -2  -1   0 371830. 9988.82   1
  -2  -1   1 325815. 8970.75   1
  -2  -1   1 320246. 8057.29   4
  -2  -1   1 322225. 9267.66   6
  -2  -1   2 208411. 5596.27   4
  -2  -1   2 211610. 6532.80   1
  -2  -1   2 208075. 6785.34   6
  -2  -1   3 182119. 6306.69   6
  -2  -1   3 175759. 5317.39   4
  -2   0 -15 13075.9 2268.32   6
  -2   0 -14 16431.7 2556.25   6
  -2   0 -13 1042.26 668.398   6
  -2   0 -12 33332.8 3572.00   6
  -2   0 -11 70141.9 5290.80   6
  -2   0 -10 110767. 6410.17   6
  -2   0  -9 203006. 8706.73   6
  -2   0  -8 140264. 5628.07   3
  -2   0  -8 146133. 6507.37   6
  -2   0  -7 48524.4 3051.79   6
  -2   0  -7 38559.6 2418.56   3
  -2   0  -6 59418.5 2802.80   3
  -2   0  -6 51759.8 2997.59   6
  -2   0  -5 2862.18 609.645   2
  -2   0  -5 3627.35 679.603   6
  -2   0  -4 45889.4 2319.64   2
  -2   0  -3 96583.7 3752.03   1
  -2   0  -3 102925. 3735.13   2
  -2   0  -2 116468. 4075.95   2
  -2   0  -2 117104. 4043.29   1
  -2   0  -1 403237. 10609.0   1
  -2   0   0 270541. 7080.60   5
  -2   0   0 266839. 7540.04   4
  -2   0   1 133286. 4212.40   4
  -2   0   1 140965. 4468.80   1
  -2   0   1 143554. 4379.81   5
  -2   0   2 131126. 4231.89   4
  -2   0   2 148310. 4991.53   6
  -2   0   2 141787. 4561.68   1
  -2   0   3 31682.5 2016.24   6
  -2   0   3 32181.8 1858.27   1
  -2   0   3 34488.8 1796.61   4
  -2   0   4 7176.30 974.919   6
  -2   1 -14 2363.87 878.233   6
  -2   1 -13 21274.2 2905.45   6
  -2   1 -12 53989.9 4777.89   6
  -2   1 -11 110743. 6952.39   6
  -2   1 -10 154081. 8174.58   6
  -2   1  -9 204106. 9184.79   6
  -2   1  -8 97239.7 5478.71   6
  -2   1  -7 64732.1 3198.54   3
  -2   1  -7 71067.5 4158.37   6
  -2   1  -6 9717.90 994.903   3
  -2   1  -6 9323.53 1243.64   6
  -2   1  -5 39810.4 2516.42   6
  -2   1  -5 40641.3 1982.93   3
  -2   1  -4 88772.2 3783.55   6
  -2   1  -4 84872.2 3758.91   2
  -2   1  -3 137264. 4908.39   2
  -2   1  -2 140545. 4806.57   1
  -2   1  -2 146348. 4896.00   2
  -2   1  -1 311850. 8844.03   2
  -2   1  -1 321979. 8725.48   1
  -2   1   0 251283. 7527.37   2
  -2   1   0 261789. 7585.88   4
  -2   1   0 272339. 7325.18   1
  -2   1   1 94250.1 3561.03   4
  -2   1   1 98634.8 3448.72   5
  -2   1   1 105559. 3428.35   1
  -2   1   2 43161.4 2123.48   4
  -2   1   2 46933.0 2006.51   1
  -2   1   2 42523.5 2187.69   5
  -2   1   3 64169.3 2931.42   6
  -2   1   3 59297.9 2981.48   5
  -2   1   3 61370.0 2507.18   1
  -2   1   3 60052.7 2738.68   4
  -2   1   4 61305.9 2997.58   6
  -2   1   4 63547.9 2723.88   1
  -2   1   4 63636.1 3006.47   4
  -2   1   5 161091. 6085.77   6
  -2   1   5 178511. 6234.98   4
  -2   2 -14 15031.6 2595.74   6
  -2   2 -13 57665.2 5124.46   6
  -2   2 -12 45484.2 4436.65   6
  -2   2 -11 90176.1 6447.37   6
  -2   2 -10 144239. 8187.07   6
  -2   2  -9 62108.1 4911.97   6
  -2   2  -8 14869.9 2168.76   6
  -2   2  -7 9122.92 1499.56   6
  -2   2  -6 7714.47 1195.08   6
  -2   2  -5 61645.1 2477.09   3
  -2   2  -5 70280.5 3761.50   6
  -2   2  -4 95074.0 4312.43   6
  -2   2  -4 101706. 3159.12   3
  -2   2  -3 199921. 6697.42   6
  -2   2  -3 199154. 6851.67   2
  -2   2  -2 408978. 11572.8   2
  -2   2  -1 194664. 6494.62   4
  -2   2  -1 196171. 6285.76   2
  -2   2   0 121673. 4553.78   4
  -2   2   0 122463. 4121.38   1
  -2   2   0 126650. 4430.78   2
  -2   2   1 2089.56 363.017   1
  -2   2   1 2174.64 454.004   4
  -2   2   1 1147.48 291.740   2
  -2   2   2 40248.8 2205.99   4
  -2   2   2 43080.7 2164.92   2
  -2   2   2 42154.1 1823.08   1
  -2   2   2 39347.3 2123.47   5
  -2   2   3 112727. 4427.12   4
  -2   2   3 124182. 3830.73   1
  -2   2   3 124537. 4625.18   5
  -2   2   4 197506. 5610.45   1
  -2   2   4 187356. 6676.84   5
  -2   2   4 186662. 6197.95   6
  -2   2   4 190663. 6526.15   4
  -2   2   5 165036. 5055.12   1
  -2   2   5 151480. 5521.71   6
  -2   2   5 156500. 6290.83   5
  -2   2   5 162991. 6104.88   4
  -2   2   6 212130. 6507.56   1
  -2   2   6 202984. 8047.26   5
  -2   2   6 224327. 7843.60   4
  -2   2   6 212360. 7304.01   6
  -2   2   7 108764. 5674.68   5
  -2   2   8 77298.2 4979.76   5
  -2   2   9 22679.4 2735.82   5
  -2   2  10-377.636 628.875   5
  -2   2  11 13562.3 2285.50   5
  -2   2  12 25434.4 3357.12   5
  -2   2  13 72608.2 6157.18   5
  -2   3 -13 23758.5 3329.01   6
  -2   3 -12 28114.4 3604.56   6
  -2   3 -11 81764.1 6270.80   6
  -2   3 -10 64702.9 5421.72   6
  -2   3  -9 6817.92 1664.31   6
  -2   3  -8-475.796 419.296   6
  -2   3  -7 1178.53 603.349   6
  -2   3  -6 116836. 6103.86   6
  -2   3  -5 201929. 7918.07   6
  -2   3  -4 292613. 9824.73   6
  -2   3  -3 264611. 8637.14   6
  -2   3  -2 259458. 8196.89   6
  -2   3  -1 73304.2 3589.19   4
  -2   3  -1 71059.1 3466.61   2
  -2   3   0 33744.2 2253.75   4
  -2   3   0 39870.1 2331.05   2
  -2   3   1 8037.64 1003.81   4
  -2   3   1 7134.18 876.803   2
  -2   3   2 103809. 4203.47   4
  -2   3   2 103716. 3465.28   1
  -2   3   2 104686. 3958.26   2
  -2   3   3 193290. 5930.29   2
  -2   3   3 176987. 6299.29   4
  -2   3   3 182485. 5189.26   1
  -2   3   3 186860. 6303.07   5
  -2   3   4 425581. 12526.8   4
  -2   3   4 433498. 11661.0   2
  -2   3   4 445395. 11813.0   6
  -2   3   4 432921. 12535.7   5
  -2   3   4 430291. 10823.2   1
  -2   3   5 219622. 6767.46   2
  -2   3   5 226853. 6102.17   1
  -2   3   5 216945. 6918.83   6
  -2   3   5 217281. 7860.55   5
  -2   3   5 226800. 7809.31   4
  -2   3   6 64410.0 2472.62   1
  -2   3   6 55998.4 3691.07   5
  -2   3   6 60008.2 3021.63   6
  -2   3   6 64227.7 3701.33   4
  -2   3   7 25915.6 1538.49   1
  -2   3   7 24479.2 1978.16   6
  -2   3   7 22717.8 2359.48   5
  -2   3   7 24993.5 2456.61   4
  -2   3   8 8008.62 917.101   1
  -2   3   8 8644.03 1528.89   5
  -2   3   8 10115.7 1558.50   4
  -2   3   9 1449.47 477.755   5
  -2   3  10 8164.99 1679.26   5
  -2   3  11 22465.3 2996.97   5
  -2   3  12 66004.1 5527.22   5
  -2   3  13 87370.6 6716.33   5
  -2   4 -12 54444.8 5203.96   6
  -2   4 -11 25513.2 3459.74   6
  -2   4 -10 2065.68 840.892   6
  -2   4  -9-412.023 626.726   6
  -2   4  -8 3973.45 1235.35   6
  -2   4  -7 58341.0 4788.09   6
  -2   4  -6 108190. 6269.14   6
  -2   4  -5 159842. 7424.10   6
  -2   4  -4 187994. 7666.06   6
  -2   4  -3 170254. 6821.41   6
  -2   4  -2 177314. 6576.27   6
  -2   4  -1 56303.4 2968.69   6
  -2   4  -1 51473.3 2060.82   3
  -2   4  -1 54623.4 3169.13   4
  -2   4   0 2944.05 676.929   4
  -2   4   0 2885.65 644.678   2
  -2   4   0 2280.89 446.982   3
  -2   4   1 83779.4 3915.01   4
  -2   4   1 82730.5 3873.59   2
  -2   4   2 177721. 6444.68   4
  -2   4   2 187359. 6373.69   2
  -2   4   3 161257. 6037.36   4
  -2   4   3 152234. 7253.37   3
  -2   4   3 169204. 5725.58   2
  -2   4   4 326798. 10403.6   4
  -2   4   4 348928. 10432.0   5
  -2   4   4 331000. 9566.75   2
  -2   4   5 87534.0 3530.49   6
  -2   4   5 83216.1 2594.04   1
  -2   4   5 94505.4 4456.31   5
  -2   4   5 91450.4 3572.34   2
  -2   4   5 95535.5 4522.75   4
  -2   4   6 33290.1 1955.33   6
  -2   4   6 26387.7 1140.06   1
  -2   4   6 30951.2 2552.91   5
  -2   4   6 32874.6 2602.30   4
  -2   4   6 31885.8 1840.11   2
  -2   4   7 10196.2 1006.25   2
  -2   4   7 9124.87 665.504   1
  -2   4   7 10268.2 1573.67   5
  -2   4   7 10277.4 1179.43   6
  -2   4   7 11223.5 1596.23   4
  -2   4   8 466.841 193.293   1
  -2   4   8 181.131 107.681   6
  -2   4   8 359.814 376.000   4
  -2   4   8 222.502 76.3697   2
  -2   4   9 74732.4 3152.78   2
  -2   4   9 88338.3 5382.25   5
  -2   4   9 80843.3 4996.60   4
  -2   4   9 68714.4 2852.87   1
  -2   4  10 30930.2 3328.28   5
  -2   4  10 34379.0 3358.51   4
  -2   4  11 71639.9 5436.97   5
  -2   4  11 67191.6 4979.49   4
  -2   4  12 86725.3 6376.35   5
  -2   4  13 64369.4 5639.72   5
  -2   4  14 19926.8 3188.42   5
  -2   4  14 14159.3 2479.01   4
  -2   4  15 9399.14 2028.08   4
  -2   5 -11 9309.64 2144.23   6
  -2   5 -10 1205.83 715.386   6
  -2   5  -9 1857.13 1051.22   6
  -2   5  -8 29632.6 3757.38   6
  -2   5  -7 134338. 8045.98   6
  -2   5  -6 78972.3 5725.31   6
  -2   5  -5 131806. 7144.01   6
  -2   5  -4 111928. 6107.88   6
  -2   5  -3 34051.8 2884.18   6
  -2   5  -2 696.319 371.695   6
  -2   5  -1 8653.58 1252.03   4
  -2   5  -1 9052.24 1229.39   6
  -2   5   0 132594. 5607.35   4
  -2   5   0 134121. 5195.58   6
  -2   5   0 127531. 4238.28   3
  -2   5   1 106779. 4754.98   4
  -2   5   1 96156.5 4014.46   3
  -2   5   1 102337. 4183.00   6
  -2   5   2 131862. 5416.58   4
  -2   5   2 118417. 5206.90   3
  -2   5   3 220816. 7869.97   4
  -2   5   3 233227. 7767.34   2
  -2   5   4 177315. 6892.05   4
  -2   5   4 184403. 6570.90   2
  -2   5   5 77711.2 4245.76   4
  -2   5   5 77614.3 3604.10   2
  -2   5   6 7913.55 909.405   6
  -2   5   6 7189.02 1236.51   4
  -2   5   6 7447.23 954.674   2
  -2   5   6 7766.60 1248.15   5
  -2   5   7 1762.54 685.836   4
  -2   5   7 1557.82 409.289   2
  -2   5   7 480.339 254.150   6
  -2   5   7 693.216 459.527   5
  -2   5   8 62760.0 3246.66   6
  -2   5   8 64003.8 4319.62   5
  -2   5   8 61385.6 2843.93   2
  -2   5   8 68711.3 4469.77   4
  -2   5   9 85164.6 5465.71   5
  -2   5   9 94718.9 5605.31   4
  -2   5  10 64700.6 4904.90   5
  -2   5  10 62326.9 4647.34   4
  -2   5  11 82188.2 5822.46   5
  -2   5  11 68079.2 5154.15   4
  -2   5  12 86281.9 6294.65   5
  -2   5  12 66160.1 5283.86   4
  -2   5  13 36059.0 4201.97   5
  -2   5  13 28466.1 3400.13   4
  -2   5  14 6159.24 1583.79   4
  -2   5  14 9613.50 2299.61   5
  -2   5  15 58.2493 432.630   4
  -2   6 -10 9165.34 2261.15   6
  -2   6  -9 39119.2 4413.53   6
  -2   6  -8 51489.1 5118.84   6
  -2   6  -7 94718.6 7013.36   6
  -2   6  -6 61287.2 5344.14   6
  -2   6  -5 101124. 6675.11   6
  -2   6  -4 19092.7 2570.26   6
  -2   6  -3 79.2633 301.077   6
  -2   6  -2 24060.7 2500.45   6
  -2   6  -1 56274.3 3680.53   4
  -2   6  -1 60176.7 3801.40   6
  -2   6   0 194367. 7655.63   4
  -2   6   0 205682. 7611.35   6
  -2   6   1 162032. 6559.34   4
  -2   6   1 166173. 6149.67   6
  -2   6   1 146767. 5194.87   3
  -2   6   2 177507. 7020.53   4
  -2   6   2 188354. 6424.10   6
  -2   6   2 176641. 6450.64   3
  -2   6   3 201379. 7400.08   4
  -2   6   3 175166. 7102.22   3
  -2   6   4 54406.9 3448.26   4
  -2   6   5 26602.1 2426.79   4
  -2   6   6 6820.76 809.630   6
  -2   6   6 6993.97 1227.23   4
  -2   6   7 23707.9 2388.81   5
  -2   6   7 20120.7 1419.33   6
  -2   6   7 21294.5 2339.41   4
  -2   6   8 98876.0 5560.05   5
  -2   6   8 99617.7 5694.72   4
  -2   6   9 116493. 6390.30   5
  -2   6   9 105410. 6187.50   4
  -2   6  10 93371.6 5991.54   5
  -2   6  10 91754.9 5930.92   4
  -2   6  11 108773. 6881.92   5
  -2   6  11 100586. 6515.84   4
  -2   6  12 23038.8 3180.99   5
  -2   6  12 21154.6 2934.25   4
  -2   6  13 3443.09 1169.72   4
  -2   6  13 5104.31 1605.22   5
  -2   6  14-121.151 233.992   4
  -2   7  -9 61109.5 5790.16   6
  -2   7  -8 64557.0 5847.27   6
  -2   7  -7 66867.5 5974.17   6
  -2   7  -6 105512. 7453.47   6
  -2   7  -5 16841.3 2805.45   6
  -2   7  -4 285.811 207.107   6
  -2   7  -3 6463.85 1517.76   6
  -2   7  -2 66048.9 4834.28   6
  -2   7  -1 167280. 7357.74   4
  -2   7  -1 168927. 7846.53   6
  -2   7   0 141521. 6505.25   4
  -2   7   0 148606. 6757.48   6
  -2   7   1 91100.0 4924.14   4
  -2   7   1 94300.6 4830.51   6
  -2   7   2 104747. 5251.47   4
  -2   7   2 105359. 4914.63   6
  -2   7   3 51846.6 3516.21   4
  -2   7   3 54953.3 3108.65   6
  -2   7   4 917.894 552.929   4
  -2   7   4 1725.99 447.624   6
  -2   7   5 1866.41 655.726   4
  -2   7   5 2078.19 483.228   6
  -2   7   6 7178.09 1290.38   4
  -2   7   7 69812.2 4550.01   4
  -2   7   8 93573.6 5649.69   4
  -2   7   9 92610.8 5682.74   5
  -2   7   9 92414.9 5792.05   4
  -2   7  10 143580. 7708.51   5
  -2   7  10 136106. 7541.53   4
  -2   7  11 48115.6 4471.60   5
  -2   7  11 51920.1 4610.06   4
  -2   7  12 5449.29 1499.95   4
  -2   7  12 4671.92 1543.80   5
  -2   7  13 745.505 689.710   4
  -2   7  13 1303.08 921.308   5
  -2   7  14 3789.39 1293.67   4
  -2   8  -8 41572.8 4837.91   6
  -2   8  -7 23441.6 3535.95   6
  -2   8  -6 47832.6 4959.27   6
  -2   8  -5 498.185 329.921   6
  -2   8  -4 7498.39 1875.53   6
  -2   8  -3 26035.0 3446.68   6
  -2   8  -2 108048. 6994.81   6
  -2   8  -1 165059. 8490.32   6
  -2   8  -1 155375. 7368.29   4
  -2   8   0 65694.0 4788.61   6
  -2   8   0 62615.5 4219.13   4
  -2   8   1 81542.3 4841.00   4
  -2   8   1 84938.0 5179.92   6
  -2   8   2 61743.2 4050.89   4
  -2   8   2 58130.1 3987.34   6
  -2   8   3 473.423 193.972   6
  -2   8   3 326.577 320.780   4
  -2   8   4 11092.3 1648.02   4
  -2   8   4 10325.6 1318.23   6
  -2   8   5 30166.8 2841.31   4
  -2   8   5 25569.8 2048.74   6
  -2   8   6 64383.9 4316.77   4
  -2   8   6 58810.8 3000.50   6
  -2   8   7 156241. 7570.78   4
  -2   8   8 84860.2 5431.95   4
  -2   8   9 118633. 6859.46   4
  -2   8  10 45035.9 4189.23   4
  -2   8  11 4250.18 1342.71   5
  -2   8  11 5453.57 1489.88   4
  -2   8  12 178.460 166.509   4
  -2   8  12 780.910 639.443   5
  -2   8  13 6636.04 1696.04   4
  -2   8  13 6171.05 1734.67   5
  -2   9  -7 4071.60 1477.44   6
  -2   9  -6 74.6513 508.204   6
  -2   9  -5 10418.7 2366.85   6
  -2   9  -4 14727.3 2727.66   6
  -2   9  -3 59609.6 5579.74   6
  -2   9  -2 97562.2 7185.01   6
  -2   9  -1 99411.7 5870.79   4
  -2   9  -1 95304.8 6790.53   6
  -2   9   0 49630.1 4595.17   6
  -2   9   0 51271.9 3999.03   4
  -2   9   1 50737.9 3883.43   4
  -2   9   1 46896.6 4295.00   6
  -2   9   2 1607.54 614.781   4
  -2   9   2 2606.03 902.890   6
  -2   9   3 15686.9 2073.40   4
  -2   9   3 14109.4 2049.21   6
  -2   9   4 28119.1 2806.48   4
  -2   9   4 25530.0 2634.31   6
  -2   9   5 69303.1 4567.63   4
  -2   9   5 54308.8 3672.46   6
  -2   9   6 121246. 6628.70   4
  -2   9   7 107730. 6206.87   4
  -2   9   8 69556.0 5048.26   4
  -2   9   9 36760.5 3677.22   4
  -2   9  10 13343.7 2373.05   4
  -2   9  11 1070.43 920.065   4
  -2   9  12 157.869 54.1368   4
  -2   9  13 45538.1 4813.61   4
  -2  10  -5 8952.64 2274.83   6
  -2  10  -4 33888.3 4343.01   6
  -2  10  -3 89627.6 7050.79   6
  -2  10  -2 50327.9 5227.80   6
  -2  10  -1 33293.0 4175.01   6
  -2  10   0 31771.6 3940.32   6
  -2  10   0 28868.7 3133.44   4
  -2  10   1 7473.73 1718.40   6
  -2  10   1 9181.72 1691.96   4
  -2  10   2 5170.12 1262.19   4
  -2  10   2 5140.91 1521.84   6
  -2  10   3 14486.7 2116.01   4
  -2  10   3 9143.18 1865.93   6
  -2  10   4 55361.4 4343.12   4
  -2  10   4 44231.9 3979.31   6
  -2  10   5 143881. 7386.04   4
  -2  10   6 123298. 6840.71   4
  -2  10   7 57765.1 4651.64   4
  -2  10   8 36093.5 3637.90   4
  -2  10   9 3463.32 1201.43   4
  -2  10  10 1369.43 707.297   4
  -2  10  11 9932.58 2150.17   4
  -2  10  12 29962.6 3817.24   4
  -2  11  -4 46054.1 5156.62   6
  -2  11  -3 49677.3 5324.78   6
  -2  11  -2 21141.3 3335.77   6
  -2  11  -1 14400.1 2679.13   6
  -2  11   0 17153.7 2525.19   4
  -2  11   0 13454.7 2547.49   6
  -2  11   1 1470.00 679.653   4
  -2  11   1 160.394 519.204   6
  -2  11   2 27901.0 3174.20   4
  -2  11   2 26693.6 3505.73   6
  -2  11   3 40145.4 3810.60   4
  -2  11   4 84155.7 5653.33   4
  -2  11   5 74049.7 5350.35   4
  -2  11   6 46066.2 4169.41   4
  -2  11   7 25665.0 3128.06   4
  -2  11   8 13542.8 2357.81   4
  -2  11   9 6623.06 1617.52   4
  -2  11  10 14873.8 2593.44   4
  -2  11  11 31196.3 3893.27   4
  -2  12  -3 23679.3 3709.89   6
  -2  12  -2 13320.6 2669.28   6
  -2  12  -1 935.571 818.689   6
  -2  12   0 1788.58 875.127   4
  -2  12   0 1608.01 1013.09   6
  -2  12   1 19364.9 2813.65   4
  -2  12   2 20771.2 2895.25   4
  -2  12   3 55959.4 4773.07   4
  -2  12   4 50998.7 4590.48   4
  -2  12   5 44126.1 4171.19   4
  -2  12   6 31615.0 3575.32   4
  -2  12   7 7343.74 1682.33   4
  -2  12   8 4544.18 1320.76   4
  -2  12   9 16274.6 2757.19   4
  -2  13  -2 1127.47 916.272   6
  -2  13   1 20919.4 3065.07   4
  -2  13   2 32900.4 3821.41   4
  -2  13   3 67433.6 5504.30   4
  -2  13   4 20122.0 2965.08   4
  -2  13   5 9666.78 2064.45   4
  -2  13   6 5193.56 1472.09   4
  -2  13   7 1674.54 981.702   4
  -1 -15 -10 12.6293 174.646   3
  -1 -15  -9 940.814 317.572   3
  -1 -14 -11 1691.41 636.049   3
  -1 -14 -10 49.9669 644.636   3
  -1 -14  -9 6087.59 1813.09   3
  -1 -14  -8 37724.0 4400.69   3
  -1 -14  -7 42926.6 4634.58   3
  -1 -14  -6 15388.3 2816.89   3
  -1 -14  -3 868.183 489.225   1
  -1 -13 -12 85.1188 147.071   3
  -1 -13 -11 19493.2 3201.43   3
  -1 -13 -10 3455.80 1208.44   3
  -1 -13  -9 34293.1 3992.14   3
  -1 -13  -8 62483.0 5366.38   3
  -1 -13  -7 52882.7 4799.61   3
  -1 -13  -6 51763.3 4701.29   3
  -1 -13  -5 26310.7 2612.96   1
  -1 -13  -5 29215.3 3415.71   3
  -1 -13  -4 32.5286 154.054   3
  -1 -13  -4-116.721 346.298   1
  -1 -12 -13-252.495 303.138   3
  -1 -12 -12 2695.44 948.724   3
  -1 -12 -11 25241.5 3437.73   3
  -1 -12 -10 40560.4 4300.56   3
  -1 -12  -9 143544. 8312.77   3
  -1 -12  -8 125119. 7451.84   3
  -1 -12  -7 71815.8 5303.03   3
  -1 -12  -6 41274.6 3849.40   3
  -1 -12  -6 32851.0 2597.76   1
  -1 -12  -5 4651.20 1254.12   3
  -1 -12  -5 3266.10 843.110   1
  -1 -12  -4 13466.7 1885.19   1
  -1 -12  -4 16543.8 2315.75   3
  -1 -12  -3 9228.51 1626.27   3
  -1 -11 -13 6751.78 1797.08   3
  -1 -11 -12 12733.4 2367.43   3
  -1 -11 -11 42890.8 4341.34   3
  -1 -11 -10 116973. 7232.97   3
  -1 -11  -9 68381.5 5232.12   3
  -1 -11  -8 32815.1 3431.79   3
  -1 -11  -7 72982.2 3668.06   1
  -1 -11  -7 85977.8 5503.64   3
  -1 -11  -6 45679.3 3858.47   3
  -1 -11  -6 41993.2 2803.48   1
  -1 -11  -5 1417.79 546.950   3
  -1 -11  -5 924.561 286.343   1
  -1 -11  -4 24810.9 2394.16   1
  -1 -11  -4 22195.8 2562.14   3
  -1 -11  -3 65198.8 4315.90   3
  -1 -10 -13 21479.5 3120.01   3
  -1 -10 -12 41229.2 4319.95   3
  -1 -10 -11 94698.2 6465.20   3
  -1 -10 -10 168140. 8643.42   3
  -1 -10  -9 32399.8 3336.24   3
  -1 -10  -8 48456.5 3946.25   3
  -1 -10  -8 45263.0 2397.79   1
  -1 -10  -7 20508.1 1659.94   1
  -1 -10  -7 24554.2 2707.48   3
  -1 -10  -6 21865.7 2481.96   3
  -1 -10  -6 19999.2 1746.90   1
  -1 -10  -5 73152.3 3868.46   1
  -1 -10  -5 84562.0 4991.37   3
  -1 -10  -4 31682.9 2537.79   6
  -1 -10  -4 40054.5 2865.28   1
  -1 -10  -4 41683.1 3311.43   3
  -1  -9 -12 98267.1 6661.52   3
  -1  -9 -11 122974. 7258.07   3
  -1  -9 -10 82808.2 5544.67   3
  -1  -9  -9 21008.6 1331.11   1
  -1  -9  -9 24334.9 2748.79   3
  -1  -9  -8 18997.1 2347.52   3
  -1  -9  -8 20372.5 1437.55   1
  -1  -9  -7 7828.25 911.401   1
  -1  -9  -7 11755.0 1757.61   3
  -1  -9  -6 62555.9 3111.46   1
  -1  -9  -6 67033.0 4245.47   3
  -1  -9  -5 29057.3 1850.09   6
  -1  -9  -5 32628.1 2805.22   3
  -1  -9  -5 30399.7 2161.63   1
  -1  -9  -4 94097.8 4320.17   1
  -1  -9  -4 82411.5 4218.62   6
  -1  -9  -3 231579. 8898.63   6
  -1  -8 -12 129038. 7570.88   3
  -1  -8 -11 83113.3 5640.72   3
  -1  -8 -10 14808.2 2121.04   3
  -1  -8  -9 11093.9 1774.75   3
  -1  -8  -8 8128.34 829.508   1
  -1  -8  -8 6394.44 1219.70   3
  -1  -8  -7 163521. 7200.36   3
  -1  -8  -7 167942. 5441.93   1
  -1  -8  -6 86907.2 3572.26   1
  -1  -8  -6 87617.1 4771.26   3
  -1  -8  -5 81569.1 3295.81   6
  -1  -8  -5 91828.1 4637.76   3
  -1  -8  -5 87346.1 3670.70   1
  -1  -8  -4 151038. 5624.38   1
  -1  -8  -4 158279. 6009.25   6
  -1  -8  -3 95095.4 4971.78   6
  -1  -7 -12 80048.1 5689.38   3
  -1  -7 -11 6824.61 1318.50   3
  -1  -7 -10 659.325 126.580   3
  -1  -7  -9 912.964 489.266   3
  -1  -7  -8 120847. 4082.42   1
  -1  -7  -8 128565. 6119.76   3
  -1  -7  -7 247447. 9262.26   3
  -1  -7  -7 257866. 7343.42   1
  -1  -7  -6 188486. 5952.76   1
  -1  -7  -6 199432. 7604.76   3
  -1  -7  -5 219392. 6683.63   1
  -1  -7  -5 215205. 6349.37   6
  -1  -7  -4 178876. 5829.16   1
  -1  -7  -4 165840. 6177.06   6
  -1  -7  -3 27657.8 2393.38   6
  -1  -7  -2 1933.37 564.200   6
  -1  -7  -1 23578.2 1984.65   4
  -1  -7   0 42468.8 2706.40   4
  -1  -7   1 102436. 4587.44   4
  -1  -7   2 95830.6 4470.31   4
  -1  -7   3 144886. 5996.57   4
  -1  -6 -11 137.485 132.705   6
  -1  -6 -11 650.713 227.617   3
  -1  -6 -10 1348.86 341.037   6
  -1  -6 -10 1054.29 489.241   3
  -1  -6  -9 28886.0 1328.30   6
  -1  -6  -9 42517.3 3306.51   3
  -1  -6  -8 171764. 7268.31   3
  -1  -6  -7 171718. 5226.67   1
  -1  -6  -7 167200. 6908.18   3
  -1  -6  -6 272151. 9186.93   3
  -1  -6  -6 263922. 7533.23   1
  -1  -6  -5 226793. 6425.00   1
  -1  -6  -5 202918. 6033.68   6
  -1  -6  -5 213371. 7460.00   5
  -1  -6  -4 43534.8 2669.32   5
  -1  -6  -4 47708.6 2244.29   1
  -1  -6  -3 18635.1 1706.93   6
  -1  -6  -3 17122.5 1368.61   1
  -1  -6  -2 1267.01 507.222   6
  -1  -6  -1 47084.5 3542.26   6
  -1  -6  -1 49783.4 2705.36   4
  -1  -6   0 50242.5 2691.30   4
  -1  -6   1 123437. 4780.73   4
  -1  -6   2 172948. 6199.87   4
  -1  -6   3 159489. 6045.95   4
  -1  -6   4 57214.0 3339.74   4
  -1  -5 -12-149.441 252.101   6
  -1  -5 -11 150.449 568.974   3
  -1  -5 -11 572.782 266.353   6
  -1  -5 -10 8840.68 1063.77   6
  -1  -5 -10 8960.22 1481.85   3
  -1  -5  -9 109757. 4207.16   6
  -1  -5  -9 111541. 5670.99   3
  -1  -5  -8 141614. 4654.45   6
  -1  -5  -8 130996. 6062.01   3
  -1  -5  -7 83399.0 2991.95   1
  -1  -5  -7 88311.1 2937.50   6
  -1  -5  -7 84969.8 4269.09   3
  -1  -5  -6 237349. 6097.54   6
  -1  -5  -6 251676. 8398.67   3
  -1  -5  -6 250043. 6869.60   1
  -1  -5  -6 237989. 8043.95   5
  -1  -5  -5 53784.7 2942.69   5
  -1  -5  -5 52049.5 1852.55   6
  -1  -5  -4 11173.3 936.786   1
  -1  -5  -4 9851.60 795.140   6
  -1  -5  -4 11788.8 1200.16   5
  -1  -5  -3 16516.4 1203.04   1
  -1  -5  -3 16420.3 1261.76   6
  -1  -5  -2 116418. 4674.11   6
  -1  -5  -1 636563. 17463.6   6
  -1  -5  -1 613250. 16105.8   4
  -1  -5   0 80903.0 4488.60   6
  -1  -5   0 73614.3 3087.61   4
  -1  -5   1 215965. 6654.81   4
  -1  -5   1 224322. 9253.66   6
  -1  -5   2 224514. 7052.51   4
  -1  -5   3 66817.0 3258.37   4
  -1  -5   4 5277.65 886.131   4
  -1  -5   5 9846.63 1304.25   4
  -1  -4 -13 1085.52 395.978   6
  -1  -4 -12 15047.2 1763.52   6
  -1  -4 -11 61660.2 3671.57   6
  -1  -4 -10 227139. 7753.25   6
  -1  -4 -10 181517. 8379.96   3
  -1  -4  -9 150121. 6999.01   3
  -1  -4  -9 177014. 6327.78   6
  -1  -4  -8 71147.5 3415.05   6
  -1  -4  -8 65277.7 3894.89   3
  -1  -4  -7 74895.3 3205.02   6
  -1  -4  -7 79964.9 4056.49   3
  -1  -4  -6 92145.3 2713.42   2
  -1  -4  -6 96143.3 3335.60   1
  -1  -4  -6 100619. 3164.98   6
  -1  -4  -6 90741.0 4330.23   3
  -1  -4  -5 48356.6 2723.70   3
  -1  -4  -5 50687.1 2104.88   1
  -1  -4  -5 46470.4 2547.08   5
  -1  -4  -4 3542.42 479.221   1
  -1  -4  -4 3934.17 403.523   6
  -1  -4  -4 4005.72 622.530   5
  -1  -4  -3 94234.6 3107.64   6
  -1  -4  -3 93284.9 3239.12   1
  -1  -4  -3 91076.1 3506.85   5
  -1  -4  -2 353601. 9592.82   6
  -1  -4  -2 352829. 9499.63   1
  -1  -4  -1 662898. 17268.8   6
  -1  -4   0 360135. 10550.5   6
  -1  -4   0 329787. 8920.76   4
  -1  -4   1 578951. 14675.7   4
  -1  -4   1 604875. 17110.5   6
  -1  -4   2 174066. 5528.45   4
  -1  -4   2 187634. 7903.67   6
  -1  -4   3 3528.23 592.152   4
  -1  -4   4 375.441 164.760   4
  -1  -3 -14-503.253 262.501   6
  -1  -3 -13 16647.5 2110.39   6
  -1  -3 -12 47743.5 3521.47   6
  -1  -3 -11 104952. 5349.05   6
  -1  -3 -10 158443. 6640.14   6
  -1  -3  -9 124115. 5490.50   6
  -1  -3  -9 110251. 5664.86   3
  -1  -3  -8 245035. 8342.66   6
  -1  -3  -8 221505. 8566.14   3
  -1  -3  -7 244471. 7848.96   6
  -1  -3  -7 247676. 8420.72   3
  -1  -3  -6 7604.63 784.903   6
  -1  -3  -6 7637.59 1039.80   3
  -1  -3  -6 6704.19 529.091   2
  -1  -3  -5 5991.75 468.602   2
  -1  -3  -5 6540.93 667.045   1
  -1  -3  -5 6485.99 562.029   6
  -1  -3  -5 6853.07 933.735   3
  -1  -3  -4 9694.81 950.061   5
  -1  -3  -4 10806.4 814.671   1
  -1  -3  -3 266688. 7063.41   1
  -1  -3  -3 256167. 7189.11   5
  -1  -3  -2 210978. 5812.30   6
  -1  -3  -2 210006. 5896.22   1
  -1  -3  -1 275642. 7652.75   6
  -1  -3   0 682387. 17118.8   6
  -1  -3   0 655050. 15851.0   4
  -1  -3   1 69336.7 2359.93   4
  -1  -3   1 73814.5 3550.19   6
  -1  -3   2 7572.41 713.027   4
  -1  -3   2 9106.06 1290.04   6
  -1  -3   3 7126.19 1277.07   6
  -1  -2 -15 744.190 376.845   6
  -1  -2 -14 16413.8 2256.34   6
  -1  -2 -13 25971.1 2766.50   6
  -1  -2 -12 88048.7 5198.79   6
  -1  -2 -11 146507. 6838.25   6
  -1  -2 -10 133091. 6357.52   6
  -1  -2  -9 147700. 6589.88   6
  -1  -2  -8 51963.4 3362.95   6
  -1  -2  -8 43611.9 3143.03   3
  -1  -2  -7 3513.07 734.846   6
  -1  -2  -7 4148.08 928.770   3
  -1  -2  -6 98493.2 3916.34   6
  -1  -2  -6 85711.0 4015.66   3
  -1  -2  -5 10693.5 917.971   6
  -1  -2  -5 11011.1 1113.33   3
  -1  -2  -5 12342.6 800.866   2
  -1  -2  -4 60390.1 2020.64   2
  -1  -2  -4 58607.1 2304.45   1
  -1  -2  -3 234858. 6359.15   1
  -1  -2  -2 363369. 8861.66   1
  -1  -2  -2 333172. 8559.32   5
  -1  -2  -1 94840.5 3054.12   1
  -1  -2  -1 92694.4 3026.99   6
  -1  -2   0 615470. 15366.9   6
  -1  -2   1 21473.4 1491.90   6
  -1  -2   2 86350.3 3835.93   6
  -1  -2   3 49153.1 3102.10   6
  -1  -2   4 257708. 9583.83   6
  -1  -1 -15 12531.9 2140.12   6
  -1  -1 -14 27666.7 3085.76   6
  -1  -1 -13 46123.9 3934.30   6
  -1  -1 -12 123265. 6572.45   6
  -1  -1 -11 131192. 6663.52   6
  -1  -1 -10 84892.2 5059.86   6
  -1  -1  -9 118706. 6055.97   6
  -1  -1  -8 6381.81 1193.56   6
  -1  -1  -7 15704.7 1593.94   3
  -1  -1  -7 18489.9 1925.83   6
  -1  -1  -6 75413.8 3546.00   3
  -1  -1  -6 76373.0 3711.06   6
  -1  -1  -5 459456. 12358.8   6
  -1  -1  -5 450952. 12305.2   3
  -1  -1  -4 995940. 23370.1   6
  -1  -1  -4 916554. 23575.6   3
  -1  -1  -4 973357. 23071.8   2
  -1  -1  -3 453503. 11368.2   1
  -1  -1  -3 446690. 11078.5   2
  -1  -1  -2 75924.1 2523.71   1
  -1  -1  -1 87968.9 2745.89   1
  -1  -1   0 81103.0 2584.58   1
  -1  -1   0 75202.9 2603.40   6
  -1  -1   1 16491.8 1100.43   6
  -1  -1   2 26380.4 1650.11   6
  -1  -1   3 141620. 5272.31   6
  -1  -1   4 300830. 9865.44   6
  -1  -1   5 193690. 7909.26   6
  -1   0 -15 19483.1 2801.34   6
  -1   0 -14 30530.3 3349.15   6
  -1   0 -13 92494.0 5932.92   6
  -1   0 -12 99182.1 6008.55   6
  -1   0 -11 63105.7 4562.47   6
  -1   0 -10 46527.1 3823.12   6
  -1   0  -9 33325.7 3072.57   6
  -1   0  -8 20183.8 2343.67   6
  -1   0  -7 67823.8 4173.83   6
  -1   0  -6 114841. 4676.90   3
  -1   0  -6 115392. 5256.57   6
  -1   0  -5 675258. 18115.6   6
  -1   0  -5 681964. 17521.1   3
  -1   0  -4 377043. 10506.9   6
  -1   0  -4 379571. 10025.7   3
  -1   0  -3 76524.7 2864.44   6
  -1   0  -3 75450.5 2788.50   2
  -1   0  -2 244996. 6601.74   1
  -1   0  -2 241820. 6491.71   2
  -1   0  -1 143688. 3970.10   2
  -1   0  -1 133170. 3885.60   1
  -1   0   0 15127.0 784.407   1
  -1   0   0 13800.1 736.685   4
  -1   0   0 14308.4 625.338   5
  -1   0   1 27013.0 1159.43   1
  -1   0   1 25156.6 1263.56   6
  -1   0   1 25986.0 1056.68   4
  -1   0   2 44018.0 1948.44   6
  -1   0   3 225168. 6809.12   6
  -1   0   4 250165. 7971.40   6
  -1   0   5 116636. 5266.48   6
  -1   0   6 75273.2 4566.72   6
  -1   1 -15 11632.0 2184.31   6
  -1   1 -14 39091.4 3965.98   6
  -1   1 -13 68151.5 5253.34   6
  -1   1 -12 18561.3 2526.33   6
  -1   1 -11 20385.3 2649.92   6
  -1   1 -10 14240.9 2153.56   6
  -1   1  -9 12327.3 1896.32   6
  -1   1  -8 73671.7 4945.02   6
  -1   1  -7 134935. 6690.32   6
  -1   1  -6 220834. 8620.87   6
  -1   1  -5 602174. 17054.3   6
  -1   1  -4 169907. 5296.22   3
  -1   1  -4 180843. 6231.93   6
  -1   1  -3 98566.6 3776.31   6
  -1   1  -3 96583.2 2995.61   3
  -1   1  -2 7040.95 730.881   6
  -1   1  -2 6320.83 695.606   2
  -1   1  -1 54125.4 2163.94   2
  -1   1   0 537109. 12978.2   2
  -1   1   0 521887. 13078.6   4
  -1   1   0 527315. 12761.9   1
  -1   1   1 29985.0 1410.61   4
  -1   1   1 31760.8 1361.73   2
  -1   1   1 32011.5 1406.59   5
  -1   1   1 32798.5 1203.35   1
  -1   1   2 183107. 4735.32   1
  -1   1   2 173045. 5320.25   5
  -1   1   2 179374. 5067.11   6
  -1   1   2 181204. 5260.97   4
  -1   1   3 354675. 9365.10   6
  -1   1   4 221307. 6738.37   6
  -1   1   5 119369. 4806.91   6
  -1   1   6 45683.8 3105.78   6
  -1   2 -14 53503.9 4831.43   6
  -1   2 -13 32303.8 3630.83   6
  -1   2 -12 5332.18 1482.31   6
  -1   2 -11 5552.05 1457.50   6
  -1   2 -10 3678.65 1236.41   6
  -1   2  -9 121826. 6908.22   6
  -1   2  -8 101413. 6096.42   6
  -1   2  -7 147142. 7490.21   6
  -1   2  -6 258350. 10077.2   6
  -1   2  -5 196173. 7953.57   6
  -1   2  -4 144752. 6018.12   6
  -1   2  -3 62236.9 3158.73   6
  -1   2  -2 962.977 295.660   6
  -1   2  -1 193896. 6048.17   4
  -1   2  -1 206004. 5974.16   6
  -1   2   0 188874. 5840.71   4
  -1   2   0 210988. 6024.76   2
  -1   2   1 330826. 9567.80   4
  -1   2   1 391665. 9456.87   2
  -1   2   2 431028. 10664.8   2
  -1   2   2 436370. 10167.8   1
  -1   2   2 414086. 11143.5   5
  -1   2   2 407095. 11158.9   4
  -1   2   3 269485. 6971.03   2
  -1   2   3 266914. 6573.11   1
  -1   2   3 267973. 7094.83   6
  -1   2   3 257307. 7767.04   5
  -1   2   3 276275. 7881.34   4
  -1   2   4 307089. 8130.09   6
  -1   2   4 284203. 8975.99   5
  -1   2   5 127966. 4570.26   6
  -1   2   5 118489. 5131.15   5
  -1   2   6 2281.03 594.776   6
  -1   2   7 46038.3 3304.04   6
  -1   3 -13 14464.5 2472.86   6
  -1   3 -12 12394.5 2250.15   6
  -1   3 -11 779.203 505.172   6
  -1   3 -10 49698.2 4437.03   6
  -1   3  -9 128834. 7431.06   6
  -1   3  -8 90108.1 5882.31   6
  -1   3  -7 137426. 7490.00   6
  -1   3  -6 110575. 6367.20   6
  -1   3  -5 12426.6 1823.53   6
  -1   3  -4 10622.2 1522.02   6
  -1   3  -3 1773.66 610.040   6
  -1   3  -2 52704.8 2934.51   6
  -1   3  -1 74396.1 3338.38   4
  -1   3  -1 85644.5 3534.07   6
  -1   3   0 257000. 7557.43   4
  -1   3   0 247917. 6631.74   3
  -1   3   0 259860. 7294.96   6
  -1   3   1 349150. 9543.61   4
  -1   3   1 335189. 9422.38   3
  -1   3   2 343867. 9939.54   4
  -1   3   2 326001. 10449.8   3
  -1   3   3 83835.2 4459.37   3
  -1   3   3 95382.0 3771.09   5
  -1   3   3 95085.1 3891.01   4
  -1   3   4 122237. 3882.06   6
  -1   3   4 129525. 6145.03   3
  -1   3   4 127900. 4842.17   5
  -1   3   4 138685. 5058.47   4
  -1   3   4 131533. 3828.65   2
  -1   3   5 1197.02 187.159   1
  -1   3   5 1729.47 346.337   6
  -1   3   5 1331.67 670.304   3
  -1   3   5 1302.85 238.386   2
  -1   3   5 1342.45 393.989   5
  -1   3   6 66029.1 3050.74   6
  -1   3   6 61892.2 3564.26   5
  -1   3   7 95965.4 4577.75   6
  -1   3   7 91473.6 4832.02   5
  -1   3   8 86930.1 4856.18   6
  -1   3   8 81059.0 4854.31   5
  -1   3   9 373800. 12647.5   6
  -1   3   9 319202. 12368.0   5
  -1   3  10 49805.3 4200.62   5
  -1   3  11 36489.7 3798.45   5
  -1   3  12 12423.0 2270.40   5
  -1   3  13 122.587 195.621   5
  -1   3  14 17892.3 3096.55   5
  -1   4 -12 4177.31 1423.23   6
  -1   4 -11 47128.9 4606.45   6
  -1   4 -10 78095.1 5820.69   6
  -1   4  -9 58373.9 4957.39   6
  -1   4  -8 94396.0 6306.89   6
  -1   4  -7 106014. 6534.71   6
  -1   4  -6 23535.1 2905.16   6
  -1   4  -5 3774.20 1059.21   6
  -1   4  -4 9449.16 1566.43   6
  -1   4  -3 73837.7 4485.01   6
  -1   4  -2 126905. 5692.89   6
  -1   4  -1 278455. 8663.49   4
  -1   4  -1 283991. 9105.28   6
  -1   4   0 435041. 12478.5   4
  -1   4   0 464102. 12554.3   6
  -1   4   1 389948. 11198.0   4
  -1   4   1 418583. 10863.2   6
  -1   4   1 395779. 10573.3   3
  -1   4   2 84398.8 3637.82   4
  -1   4   2 87903.0 3702.52   3
  -1   4   2 92771.3 3155.69   6
  -1   4   3 46840.7 2576.86   4
  -1   4   3 43940.9 2785.50   3
  -1   4   4 249.996 214.382   4
  -1   4   4 524.224 251.015   5
  -1   4   5 55488.2 2106.23   6
  -1   4   5 59053.5 2370.04   2
  -1   4   5 60182.7 3207.08   5
  -1   4   5 58739.2 3359.43   4
  -1   4   6 108890. 3722.37   6
  -1   4   6 98020.6 3210.59   2
  -1   4   6 100774. 4740.79   5
  -1   4   6 110177. 5036.99   4
  -1   4   7 143878. 6159.33   5
  -1   4   7 123759. 3708.83   1
  -1   4   8 254461. 7499.38   1
  -1   4   8 278813. 10140.6   5
  -1   4   9 302117. 9770.86   6
  -1   4   9 258039. 9917.01   5
  -1   4  10 50859.3 4216.68   5
  -1   4  11 3174.26 1124.75   5
  -1   4  12 2471.22 961.985   5
  -1   4  13 20515.1 3106.90   5
  -1   4  14 33733.1 4232.27   5
  -1   5 -11 61253.2 5384.98   6
  -1   5 -10 112201. 7419.69   6
  -1   5  -9 130585. 7896.12   6
  -1   5  -8 140383. 8166.48   6
  -1   5  -7 36136.5 3825.86   6
  -1   5  -6 826.031 538.008   6
  -1   5  -5 6823.62 1426.51   6
  -1   5  -4 50881.6 4280.03   6
  -1   5  -3 89349.2 5491.29   6
  -1   5  -2 171719. 7661.25   6
  -1   5  -1 155799. 5927.51   4
  -1   5  -1 148832. 6546.80   6
  -1   5   0 259395. 8314.95   4
  -1   5   0 248616. 8677.37   6
  -1   5   1 70662.8 3476.41   4
  -1   5   1 78426.5 3587.96   6
  -1   5   2 97183.7 4283.69   4
  -1   5   2 112599. 4123.46   6
  -1   5   3 23823.4 1895.92   4
  -1   5   3 29518.8 1577.99   6
  -1   5   3 27967.3 2094.00   3
  -1   5   4 121895. 5079.93   4
  -1   5   4 120273. 5410.34   3
  -1   5   5 143711. 4099.27   6
  -1   5   5 155694. 6117.89   4
  -1   5   6 141195. 4182.21   6
  -1   5   6 136973. 5804.06   5
  -1   5   6 145408. 6195.47   4
  -1   5   7 199411. 6154.94   6
  -1   5   7 187204. 7745.15   4
  -1   5   8 232875. 7469.95   6
  -1   5   8 178888. 8004.45   5
  -1   5   9 22230.6 948.003   1
  -1   5   9 18394.4 885.443   1
  -1   5  10 42707.5 3767.43   5
  -1   5  11 12755.3 2142.44   5
  -1   5  12 3864.11 1220.36   5
  -1   5  13 46580.0 4791.53   5
  -1   5  14 40487.7 4706.37   5
  -1   6 -10 56709.1 5274.72   6
  -1   6  -9 40873.2 4342.00   6
  -1   6  -8 23211.2 3189.08   6
  -1   6  -7 12363.4 2314.75   6
  -1   6  -6 5171.71 1485.88   6
  -1   6  -5 18642.6 2661.77   6
  -1   6  -4 133330. 7717.49   6
  -1   6  -3 137738. 7627.57   6
  -1   6  -2 140267. 7316.22   6
  -1   6  -1 148407. 6100.82   4
  -1   6  -1 152944. 7324.93   6
  -1   6   0 31055.8 2391.55   4
  -1   6   0 32554.7 2845.43   6
  -1   6   1 8319.02 1152.23   4
  -1   6   1 11546.6 1503.55   6
  -1   6   2 10349.4 1269.56   4
  -1   6   2 12871.9 1420.92   6
  -1   6   3 65867.2 3554.19   4
  -1   6   3 67209.2 3211.95   6
  -1   6   4 345993. 10778.4   4
  -1   6   4 341702. 9406.50   6
  -1   6   4 319994. 10632.2   3
  -1   6   5 129191. 4023.03   6
  -1   6   5 131221. 5745.98   4
  -1   6   6 89845.0 2695.03   6
  -1   6   6 88849.4 2634.94   6
  -1   6   7 159645. 6863.32   5
  -1   6   7 179603. 7527.78   4
  -1   6   8 81694.7 2910.19   6
  -1   6   8 78868.2 4632.14   5
  -1   6   8 80859.6 4950.24   4
  -1   6   9 1561.38 662.270   4
  -1   6   9 1575.08 714.030   5
  -1   6  10 30968.7 3131.95   5
  -1   6  10 28447.9 3109.18   4
  -1   6  11 6876.06 1553.05   5
  -1   6  12 46082.6 4458.87   5
  -1   6  13 60064.7 5363.94   5
  -1   6  14 41658.5 4653.07   5
  -1   7  -9 19711.2 3101.18   6
  -1   7  -8 4497.73 1598.76   6
  -1   7  -7 8947.89 1952.29   6
  -1   7  -6 30617.2 3762.20   6
  -1   7  -5 132130. 8022.43   6
  -1   7  -4 134038. 7943.73   6
  -1   7  -3 105482. 6889.00   6
  -1   7  -2 161015. 8575.67   6
  -1   7  -1 86567.6 4627.07   4
  -1   7  -1 85734.8 5723.11   6
  -1   7   0 1017.39 442.262   4
  -1   7   0 1303.48 645.837   6
  -1   7   1 3856.62 833.850   4
  -1   7   1 5701.36 1200.41   6
  -1   7   2 28744.4 2354.41   4
  -1   7   2 28117.1 2621.72   6
  -1   7   3 168656. 6596.99   4
  -1   7   3 145880. 6363.17   6
  -1   7   4 201976. 7363.71   4
  -1   7   4 163487. 6437.78   6
  -1   7   5 198168. 7764.13   4
  -1   7   5 198198. 6488.85   6
  -1   7   6 194877. 7959.09   4
  -1   7   7 103772. 5576.86   4
  -1   7   8 4314.30 1129.82   4
  -1   7   9 2066.10 864.581   4
  -1   7   9 2862.41 906.355   5
  -1   7  10 1484.19 757.793   4
  -1   7  10 2514.63 891.666   5
  -1   7  11 22269.5 2851.13   5
  -1   7  11 23992.1 3021.79   4
  -1   7  12 71833.6 5564.73   5
  -1   7  12 71108.4 5608.90   4
  -1   7  13 53553.1 5079.08   5
  -1   7  13 47172.9 4606.58   4
  -1   7  14 85427.9 6691.01   5
  -1   7  14 56532.1 5310.72   4
  -1   7  15 46014.2 4810.38   4
  -1   8  -8 1938.95 900.837   6
  -1   8  -7 23985.3 3395.27   6
  -1   8  -6 42267.3 4516.26   6
  -1   8  -5 101120. 7073.97   6
  -1   8  -4 106121. 7231.71   6
  -1   8  -3 174993. 9306.98   6
  -1   8  -2 111800. 7148.46   6
  -1   8  -1 20566.7 2248.17   4
  -1   8  -1 25593.4 3079.13   6
  -1   8   0 17773.1 2580.48   6
  -1   8   0 16371.5 1958.91   4
  -1   8   1 10195.9 1477.42   4
  -1   8   1 7680.71 1624.47   6
  -1   8   2 91040.3 4725.70   4
  -1   8   2 75980.8 5078.38   6
  -1   8   3 160673. 6593.09   4
  -1   8   3 122154. 6459.22   6
  -1   8   4 83081.4 4714.25   4
  -1   8   4 91622.0 4780.61   6
  -1   8   5 115871. 5834.45   4
  -1   8   5 134254. 5151.22   6
  -1   8   6 62628.0 4108.10   4
  -1   8   6 61006.2 2155.17   6
  -1   8   7 6990.43 1304.91   4
  -1   8   8 3258.00 1087.44   4
  -1   8   9 5510.88 1360.12   4
  -1   8  10 62277.5 4848.31   4
  -1   8  11 58552.0 4772.43   5
  -1   8  11 75458.9 5573.09   4
  -1   8  12 46940.2 4466.87   5
  -1   8  12 51879.5 4753.04   4
  -1   8  13 67240.5 5632.28   5
  -1   8  13 59683.7 5357.05   4
  -1   8  14 50710.8 5094.08   5
  -1   8  14 44397.0 4676.19   4
  -1   9  -7 29450.5 3956.10   6
  -1   9  -6 77675.7 6392.01   6
  -1   9  -5 52732.0 5170.74   6
  -1   9  -4 44780.3 4703.85   6
  -1   9  -3 41565.5 4374.59   6
  -1   9  -2 4106.70 1370.46   6
  -1   9  -1 4607.83 1145.62   4
  -1   9  -1 5781.15 1536.02   6
  -1   9   0 7103.17 1356.96   4
  -1   9   0 7710.67 1746.85   6
  -1   9   1 49655.7 4363.55   6
  -1   9   1 60407.3 4052.00   4
  -1   9   2 94383.3 5960.17   6
  -1   9   2 112727. 5727.44   4
  -1   9   3 123823. 6055.74   4
  -1   9   3 115543. 6299.20   6
  -1   9   4 29762.7 2754.51   4
  -1   9   4 37943.4 2995.36   6
  -1   9   5 75010.8 4776.57   4
  -1   9   5 88738.6 4102.06   6
  -1   9   6 21696.1 2432.25   4
  -1   9   7 1841.15 738.130   4
  -1   9   8 18686.0 2441.49   4
  -1   9   9 63441.1 4855.56   4
  -1   9  10 160356. 8465.47   4
  -1   9  11 74545.1 5724.78   4
  -1   9  12 60743.1 5377.97   4
  -1   9  13 40144.8 4429.76   5
  -1   9  13 40663.8 4468.42   4
  -1   9  14 8087.70 2061.89   4
  -1   9  14 12388.4 2441.58   5
  -1  10  -6 76625.3 6610.66   6
  -1  10  -5 24197.7 3542.11   6
  -1  10  -4 16004.4 2843.45   6
  -1  10  -3 4532.40 1439.31   6
  -1  10  -2 8612.08 2115.59   6
  -1  10  -1 32347.8 3857.76   6
  -1  10   0 42801.6 3626.78   4
  -1  10   0 39253.0 4147.65   6
  -1  10   1 125382. 6420.33   4
  -1  10   1 96970.3 6584.91   6
  -1  10   2 128966. 6528.28   4
  -1  10   2 112796. 6850.10   6
  -1  10   3 60588.7 4240.85   4
  -1  10   3 56168.8 4323.93   6
  -1  10   4 51052.0 3930.79   4
  -1  10   4 57521.9 3925.81   6
  -1  10   5 14585.4 2024.30   4
  -1  10   6 1471.77 598.948   4
  -1  10   7 11703.6 1869.24   4
  -1  10   8 29869.1 3221.31   4
  -1  10   9 85004.9 5817.22   4
  -1  10  10 110668. 6993.75   4
  -1  10  11 79170.6 6047.00   4
  -1  10  12 44328.0 4610.88   4
  -1  10  13 12907.6 2532.50   4
  -1  11  -4 4887.63 1729.47   6
  -1  11  -3 2837.78 1076.97   6
  -1  11  -2 18870.2 3098.40   6
  -1  11  -1 49694.9 4956.50   6
  -1  11   0 47785.7 4084.53   4
  -1  11   0 41581.2 4390.25   6
  -1  11   1 107928. 6212.03   4
  -1  11   1 86897.9 6397.38   6
  -1  11   2 50250.2 4088.39   4
  -1  11   2 47106.2 4359.29   6
  -1  11   3 36960.5 3510.04   4
  -1  11   3 31351.5 3252.75   6
  -1  11   4 15377.1 2208.74   4
  -1  11   5 877.475 518.348   4
  -1  11   6 6442.96 1477.69   4
  -1  11   7 18306.4 2522.66   4
  -1  11   8 50254.1 4354.13   4
  -1  11   9 85814.4 6026.97   4
  -1  11  10 61519.8 5176.88   4
  -1  11  11 50356.2 4847.31   4
  -1  11  12 12758.3 2464.63   4
  -1  12  -3 23268.5 3620.48   6
  -1  12  -2 35451.7 4357.42   6
  -1  12  -1 36567.4 4333.31   6
  -1  12   0 60559.4 4774.54   4
  -1  12   0 45399.5 4736.12   6
  -1  12   1 25222.9 3345.75   6
  -1  12   1 30366.9 3356.37   4
  -1  12   2 23004.8 2808.93   4
  -1  12   3 5462.04 1416.38   4
  -1  12   4-117.745 141.612   4
  -1  12   5 21914.0 2904.13   4
  -1  12   6 36779.4 3664.66   4
  -1  12   7 58397.7 4793.39   4
  -1  12   8 71345.8 5514.97   4
  -1  12   9 26428.8 3354.08   4
  -1  12  10 21259.2 3069.32   4
  -1  12  11 19778.3 3014.88   4
  -1  13  -2 22399.2 3599.69   6
  -1  13  -1 27194.0 3832.28   6
  -1  13   1 20398.8 2921.47   4
  -1  13   2 5448.28 1385.31   4
  -1  13   3 468.423 393.015   4
  -1  13   4 20483.8 2851.58   4
  -1  13   5 31570.2 3499.82   4
  -1  13   6 61656.6 5127.37   4
  -1  13   7 62544.5 5175.72   4
  -1  13   8 47825.1 4595.37   4
  -1  13   9 19182.0 2971.49   4
  -1  14   2 23.9958 227.752   4
  -1  14   3 8795.33 1897.61   4
  -1  14   4 16844.1 2656.92   4
  -1  14   5 31366.4 3704.35   4
  -1  14   6 56792.8 5064.12   4
  -1  14   7 55505.2 5081.19   4
   0 -13  -8 11695.0 2450.50   3
   0 -13  -7 483.782 571.704   3
   0 -13  -6 5982.30 1630.50   3
   0 -12  -9 3473.33 1053.80   3
   0 -12  -8 5596.04 1613.61   3
   0 -12  -7 20168.1 2961.17   3
   0 -12  -6 41091.5 4132.89   3
   0 -12  -5 49213.5 4356.11   3
   0 -12  -5 40239.4 2948.83   1
   0 -12  -4 83793.0 5645.84   3
   0 -11  -9 4661.04 1158.07   3
   0 -11  -8 30241.9 3500.12   3
   0 -11  -7 40798.3 4035.92   3
   0 -11  -6 93934.0 6152.83   3
   0 -11  -6 91902.7 4059.93   1
   0 -11  -5 199783. 9258.18   3
   0 -11  -5 193045. 7177.81   1
   0 -11  -4 76176.0 5072.09   3
   0 -11  -3 78091.7 4919.29   3
   0 -11  -2 36378.0 3075.97   3
   0 -10  -9 34936.0 3752.81   3
   0 -10  -8 35710.3 3660.59   3
   0 -10  -7 72994.1 2897.90   1
   0 -10  -7 84833.1 5573.34   3
   0 -10  -6 169752. 8005.82   3
   0 -10  -6 146340. 5232.85   1
   0 -10  -5 85276.4 3944.41   1
   0 -10  -5 92796.9 5493.58   3
   0 -10  -4 14837.2 1971.67   3
   0 -10  -3 35494.5 2994.25   3
   0 -10  -2 14440.7 1826.39   3
   0 -10  -1 7365.12 1161.03   3
   0 -10   0 18235.9 1755.07   3
   0  -9  -9 36541.9 3784.08   3
   0  -9  -8 75855.6 5311.23   3
   0  -9  -7 131419. 5131.13   2
   0  -9  -7 151308. 4385.04   1
   0  -9  -6 115617. 6108.36   3
   0  -9  -6 108743. 3860.67   1
   0  -9  -5 44779.3 2420.57   1
   0  -9  -5 43494.9 3442.51   3
   0  -9  -4 12068.7 1699.46   3
   0  -9  -3 1217.36 494.397   3
   0  -9  -2 134394. 5891.13   3
   0  -9  -1 129672. 5481.96   3
   0  -9   0 62859.6 3335.28   3
   0  -9   1 88039.8 3874.01   3
   0  -8  -9 67539.5 4944.80   3
   0  -8  -8 104581. 3225.75   2
   0  -8  -8 148020. 7183.91   3
   0  -8  -7 143918. 3991.07   1
   0  -8  -7 155023. 4842.59   2
   0  -8  -6 58538.3 2331.71   1
   0  -8  -6 54459.1 2861.90   2
   0  -8  -5 7883.03 821.679   1
   0  -8  -5 7753.24 1299.95   3
   0  -8  -4 16295.0 1839.06   3
   0  -8  -3 106304. 4898.98   3
   0  -8  -3 93743.3 4029.36   6
   0  -8  -2 151081. 6230.17   6
   0  -8  -2 183007. 6589.82   3
   0  -8  -1 83368.6 3934.89   3
   0  -7  -9 69909.0 4947.16   3
   0  -7  -8 222109. 9411.88   3
   0  -7  -7 100779. 5397.75   3
   0  -7  -7 80682.9 2707.13   2
   0  -7  -6 9404.56 1432.79   3
   0  -7  -6 7949.91 818.179   2
   0  -7  -6 7564.45 591.261   1
   0  -7  -5 3262.08 741.734   3
   0  -7  -5 2984.05 433.394   1
   0  -7  -4 25178.1 2181.96   3
   0  -7  -3 168689. 5592.16   6
   0  -7  -3 181824. 6637.54   3
   0  -7  -2 226170. 7639.48   6
   0  -7  -2 245096. 7898.70   3
   0  -7  -1 138873. 5928.26   6
   0  -6  -8 81723.4 5085.44   3
   0  -6  -7 2113.69 614.094   3
   0  -6  -6 8407.87 494.767   1
   0  -6  -6 10490.1 1499.32   3
   0  -6  -6 8574.03 660.240   2
   0  -6  -5 22731.9 1120.48   1
   0  -6  -5 25493.0 2226.55   3
   0  -6  -4 125835. 3967.58   1
   0  -6  -4 125504. 5277.26   3
   0  -6  -3 285775. 7938.53   6
   0  -6  -3 306077. 9288.93   3
   0  -6  -2 124707. 4689.65   6
   0  -6  -2 132676. 4868.57   3
   0  -6  -2 127544. 5302.74   4
   0  -6  -1 366673. 11362.1   6
   0  -6  -1 374134. 11290.9   4
   0  -6   0 84029.1 4099.04   4
   0  -6   0 85029.9 4569.76   6
   0  -6   1 10499.2 1315.39   4
   0  -5 -12 123386. 5417.66   6
   0  -5 -11 98415.5 4411.98   6
   0  -5 -10 92584.3 3880.34   6
   0  -5  -9 204463. 6275.57   6
   0  -5  -8 8755.14 1402.34   3
   0  -5  -7 10423.7 1494.76   3
   0  -5  -6 9973.08 1428.05   3
   0  -5  -5 128449. 5394.47   3
   0  -5  -5 116980. 3232.34   1
   0  -5  -5 118959. 5028.78   5
   0  -5  -5 121264. 3576.30   2
   0  -5  -4 364760. 10923.0   3
   0  -5  -4 358077. 9016.70   1
   0  -5  -4 365963. 10885.0   5
   0  -5  -3 122298. 4715.50   3
   0  -5  -2 190317. 5827.40   6
   0  -5  -2 206768. 6220.85   3
   0  -5  -1 237838. 7689.80   6
   0  -5  -1 240341. 7639.35   4
   0  -5   0 63424.3 3111.57   4
   0  -5   0 58831.3 3445.35   6
   0  -5   1 2474.05 705.336   6
   0  -5   1 2512.52 586.296   4
   0  -5   2 9613.04 1187.60   4
   0  -5   3 108644. 4910.85   4
   0  -5   6 151143. 5992.65   3
   0  -4 -13 124545. 6085.87   6
   0  -4 -12 70045.2 4211.28   6
   0  -4 -11 65145.8 3780.34   6
   0  -4 -10 51130.5 3068.59   6
   0  -4  -9 14275.4 1395.03   6
   0  -4  -8 20113.3 1504.90   6
   0  -4  -7 15740.3 1084.86   6
   0  -4  -7 14065.4 1860.83   3
   0  -4  -6 106861. 3144.90   6
   0  -4  -6 115398. 5352.72   3
   0  -4  -5 256941. 8635.19   3
   0  -4  -5 248978. 8153.65   5
   0  -4  -4 132609. 5039.44   3
   0  -4  -4 125840. 4774.40   5
   0  -4  -4 124064. 3333.23   1
   0  -4  -3 103287. 4011.95   3
   0  -4  -3 97007.3 2908.96   1
   0  -4  -3 100914. 3961.84   5
   0  -4  -2 42423.9 1723.22   6
   0  -4  -2 39515.5 2046.35   3
   0  -4  -2 36031.3 2140.85   4
   0  -4  -1 60375.5 2735.32   6
   0  -4  -1 57892.6 2739.31   4
   0  -4   0 18336.0 1384.87   4
   0  -4   0 16676.1 1597.84   6
   0  -4   1 2905.74 555.719   4
   0  -4   1 2772.48 692.645   6
   0  -4   2 116139. 4554.09   4
   0  -4   2 110152. 5578.22   6
   0  -4   3 260871. 8483.57   4
   0  -4   4 174413. 6697.78   4
   0  -4   6 132391. 5777.02   3
   0  -4   7 9803.08 1413.19   3
   0  -3 -14 104242. 5943.14   6
   0  -3 -13 104695. 5760.20   6
   0  -3 -12 45450.4 3445.75   6
   0  -3 -11 45940.1 3318.90   6
   0  -3 -10 2146.90 634.923   6
   0  -3  -9 47204.0 2990.56   6
   0  -3  -8 53922.7 2972.52   6
   0  -3  -7 183071. 6124.48   6
   0  -3  -6 517301. 15548.2   3
   0  -3  -6 532531. 13629.1   6
   0  -3  -5 377827. 9440.39   6
   0  -3  -5 358836. 11340.5   3
   0  -3  -4 182934. 6225.09   3
   0  -3  -4 167404. 5794.60   5
   0  -3  -3 81479.1 2268.33   1
   0  -3  -3 89155.0 3464.43   3
   0  -3  -3 84529.1 3275.63   5
   0  -3  -2 97263.9 2696.25   6
   0  -3  -2 104524. 3548.86   3
   0  -3  -1 153904. 4743.93   6
   0  -3  -1 161413. 4906.55   4
   0  -3   0 91302.3 3215.60   4
   0  -3   0 80849.6 3563.13   6
   0  -3   1 137389. 4431.38   4
   0  -3   1 113868. 5065.50   6
   0  -3   2 251894. 7477.63   4
   0  -3   2 238318. 8805.59   6
   0  -3   3 216968. 7129.78   4
   0  -3   3 225317. 8762.25   6
   0  -3   6 43760.9 3046.12   3
   0  -3   7 1514.53 560.596   3
   0  -2 -14 111812. 6403.72   6
   0  -2 -13 48915.6 3922.46   6
   0  -2 -12 37472.7 3291.82   6
   0  -2 -11 12263.7 1741.94   6
   0  -2 -10 11112.7 1588.00   6
   0  -2  -9 93183.8 4701.13   6
   0  -2  -8 90505.4 4376.40   6
   0  -2  -7 219085. 7420.69   6
   0  -2  -6 231155. 7317.42   6
   0  -2  -5 190921. 6872.57   3
   0  -2  -5 182222. 5742.89   6
   0  -2  -4 453364. 11712.4   6
   0  -2  -4 500236. 13205.9   3
   0  -2  -3 418704. 10796.5   3
   0  -2  -3 368202. 10259.3   5
   0  -2  -2 1141.90 270.761   3
   0  -2  -2 1285.65 286.137   5
   0  -2  -1 94424.5 2724.72   6
   0  -2  -1 91943.9 3012.17   4
   0  -2   0 68120.4 2286.59   4
   0  -2   0 57326.8 2534.23   6
   0  -2   1 207042. 5528.00   4
   0  -2   1 162105. 6114.36   6
   0  -2   2 242151. 8250.42   6
   0  -2   3 103462. 5047.56   6
   0  -2   4 185473. 7737.05   6
   0  -2   5 172496. 6746.25   3
   0  -2   6 24618.2 2359.47   3
   0  -2   7 21339.7 2250.40   3
   0  -1 -15 44075.3 4108.07   6
   0  -1 -14 26050.5 3019.25   6
   0  -1 -13 25328.4 2871.04   6
   0  -1 -12 22498.5 2632.53   6
   0  -1 -11 1300.55 430.518   6
   0  -1 -10 43926.6 3410.81   6
   0  -1  -9 70684.8 4211.62   6
   0  -1  -8 153291. 6452.97   6
   0  -1  -7 203943. 7528.85   6
   0  -1  -6 63443.6 3390.17   6
   0  -1  -5 203130. 6780.26   6
   0  -1  -4 58896.0 2706.22   6
   0  -1  -3 144883. 4635.19   6
   0  -1  -3 168869. 5342.42   3
   0  -1  -2 110624. 3189.65   6
   0  -1  -2 120936. 3815.45   3
   0  -1   1 336666. 9269.43   6
   0  -1   2 153368. 5541.52   6
   0  -1   3 92200.6 4341.90   6
   0  -1   4 88129.4 4605.61   6
   0  -1   5 4502.77 998.986   3
   0  -1   5 5324.97 1088.85   6
   0  -1   6 48768.2 3393.51   3
   0  -1   7 53792.6 3770.73   3
   0   0 -15 27511.7 3295.10   6
   0   0 -14 4840.99 1381.43   6
   0   0 -13 7736.02 1646.52   6
   0   0 -12 10362.7 1837.27   6
   0   0 -11 71450.5 4853.40   6
   0   0 -10 45683.5 3618.00   6
   0   0  -9 115346. 5923.50   6
   0   0  -8 221259. 8626.98   6
   0   0  -7 113217. 5439.31   6
   0   0  -6 28327.1 2344.82   6
   0   0  -5 97891.4 4498.53   6
   0   0  -4 2326.84 590.455   6
   0   0  -3 43158.6 2335.81   6
   0   0  -2 146571. 4694.07   6
   0   0   2 151776. 4755.42   3
   0   0   2 136347. 4677.02   6
   0   0   3 51473.9 2655.76   3
   0   0   3 46029.5 2612.34   6
   0   0   4 3128.09 686.911   6
   0   0   4 2610.64 680.102   3
   0   0   5 108184. 5216.21   6
   0   0   5 118221. 5496.92   3
   0   0   6 23469.8 2354.94   6
   0   0   6 27678.1 2502.98   3
   0   1 -15 5869.23 1606.17   6
   0   1 -14 1475.23 758.196   6
   0   1 -13 2186.87 943.348   6
   0   1 -12 35144.7 3560.65   6
   0   1 -11 43128.6 3853.95   6
   0   1 -10 78410.9 5082.13   6
   0   1  -9 225846. 9365.70   6
   0   1  -8 188832. 8097.32   6
   0   1  -7 48710.6 3558.07   6
   0   1  -6 40694.1 3081.02   6
   0   1  -5 5431.99 1073.28   6
   0   1  -4 83911.3 4204.42   6
   0   1  -3 91455.1 4125.96   6
   0   1  -2 158405. 5605.41   6
   0   1  -1 359840. 9776.30   6
   0   1   2 89979.8 2904.93   6
   0   1   2 112392. 3555.07   3
   0   1   3 153232. 4980.90   6
   0   1   3 160698. 5394.64   3
   0   1   4 63272.0 3025.37   6
   0   1   4 57695.7 3255.55   3
   0   1   5 233615. 7968.78   6
   0   1   5 231830. 8365.07   3
   0   1   6 71940.2 4034.42   6
   0   1   6 72226.8 4361.27   3
   0   1   7 209099. 8299.68   6
   0   1  10 55773.0 3979.79   2
   0   2 -14-59.8535 286.602   6
   0   2 -13 34023.9 3789.83   6
   0   2 -12 58766.6 4879.38   6
   0   2 -11 61967.7 4880.71   6
   0   2 -10 104055. 6265.08   6
   0   2  -9 125348. 6740.53   6
   0   2  -8 15497.3 2062.47   6
   0   2  -7 20323.2 2373.32   6
   0   2  -6 27818.0 2686.82   6
   0   2  -5 151293. 6746.77   6
   0   2  -4 183599. 7375.88   6
   0   2  -3 102741. 4844.24   6
   0   2  -2 280543. 9159.87   6
   0   2  -1 170950. 5959.29   6
   0   2   0 71134.4 2266.84   4
   0   2   0 53309.2 2568.56   6
   0   2   1 65956.2 2451.35   6
   0   2   1 96384.0 2726.57   4
   0   2   2 1767.87 363.163   3
   0   2   2 1523.34 294.782   5
   0   2   3 397137. 11154.9   3
   0   2   3 400996. 9607.88   1
   0   2   3 417764. 10588.3   5
   0   2   4 501740. 11633.9   1
   0   2   4 459287. 13264.5   3
   0   2   4 482082. 12701.9   5
   0   2   5 192841. 6364.10   6
   0   2   5 178280. 7135.41   3
   0   2   5 196475. 5149.14   2
   0   2   6 228603. 8912.48   3
   0   2   6 228537. 6666.49   2
   0   2   7 247158. 8509.95   6
   0   2   7 228683. 7078.17   2
   0   2   8 103834. 5263.06   6
   0   2   8 99350.1 4193.00   2
   0   2   9 109806. 4792.33   2
   0   2  10 13662.8 1599.93   2
   0   3 -13 55872.7 5099.96   6
   0   3 -12 45552.9 4455.16   6
   0   3 -11 89391.5 6140.57   6
   0   3 -10 128530. 7348.89   6
   0   3  -9 30245.6 3241.07   6
   0   3  -8 10482.1 1835.38   6
   0   3  -7 944.120 499.525   6
   0   3  -6 39908.4 3440.40   6
   0   3  -5 437675. 14464.7   6
   0   3  -4 231545. 9039.19   6
   0   3  -3 225447. 8554.17   6
   0   3  -2 236858. 8526.27   6
   0   3  -1 123928. 5363.56   6
   0   3  -1 143299. 4465.18   4
   0   3   0 91310.0 3072.48   4
   0   3   0 70429.4 3481.64   6
   0   3   1 164091. 4628.38   4
   0   3   1 131213. 4715.87   6
   0   3   2 97151.2 2990.60   6
   0   3   2 114754. 3713.48   4
   0   3   3 79769.3 3093.15   5
   0   3   4 168462. 4383.74   1
   0   3   4 174687. 6303.10   3
   0   3   4 183536. 5684.24   5
   0   3   5 336991. 9277.03   6
   0   3   5 334484. 11208.8   3
   0   3   5 374228. 9005.64   1
   0   3   5 380718. 10507.5   5
   0   3   6 549725. 13423.4   1
   0   3   6 574263. 15185.2   5
   0   3   7 195428. 6317.23   1
   0   3   7 193717. 6796.55   6
   0   3   7 212768. 7725.70   5
   0   3   8 52505.2 2917.38   1
   0   3   8 58715.5 3386.05   6
   0   3   8 55182.8 3704.96   5
   0   3   8 45911.5 1799.21   2
   0   3   9 39733.3 2835.17   1
   0   3   9 46739.5 3224.72   6
   0   3   9 41737.4 3458.91   5
   0   3   9 37713.1 1832.07   2
   0   3  10 2170.07 441.200   2
   0   3  13 118839. 7939.13   5
   0   3  14 127712. 8716.61   5
   0   3  15 20144.3 3465.79   5
   0   4 -12 38949.4 4240.13   6
   0   4 -11 81737.0 6117.87   6
   0   4 -10 45380.2 4310.13   6
   0   4  -9 2344.53 949.912   6
   0   4  -8 2661.47 930.755   6
   0   4  -7 9665.74 1752.34   6
   0   4  -6 134781. 7072.97   6
   0   4  -5 169148. 7956.42   6
   0   4  -4 202181. 8567.71   6
   0   4  -3 281507. 10473.0   6
   0   4  -2 108063. 5419.77   6
   0   4  -1 2201.04 442.126   4
   0   4  -1 2333.52 698.335   6
   0   4   0 19085.7 1346.44   4
   0   4   0 13891.7 1518.51   6
   0   4   1 60660.8 2620.09   4
   0   4   1 54490.3 2845.75   6
   0   4   2 38397.7 2035.01   4
   0   4   2 40333.4 1933.52   6
   0   4   3 101543. 4046.02   4
   0   4   4 123113. 4511.34   5
   0   4   5 221398. 5710.34   1
   0   4   5 247869. 7478.74   5
   0   4   6 114876. 3349.27   1
   0   4   6 115625. 4923.83   5
   0   4   7 15423.2 1149.55   6
   0   4   7 14160.8 1599.42   5
   0   4   7 15933.6 1020.05   1
   0   4   8 17827.1 1504.20   6
   0   4   8 19336.9 1346.43   1
   0   4   8 20511.7 2135.32   5
   0   4   9 13260.9 1489.54   6
   0   4   9 14353.4 1335.52   1
   0   4   9 12886.3 1831.83   5
   0   4  10 47214.8 2944.07   1
   0   4  10 52112.0 3439.68   6
   0   4  10 57403.4 4241.27   5
   0   4  11 62196.3 4925.77   5
   0   4  12 74834.7 5671.89   5
   0   4  13 127115. 8149.07   5
   0   4  14 54849.7 5429.64   5
   0   4  15 12597.2 2612.64   5
   0   5 -11 21810.3 3159.22   6
   0   5 -10 2305.35 992.442   6
   0   5  -9 11498.8 2144.64   6
   0   5  -8 20591.6 2836.44   6
   0   5  -7 128568. 7371.48   6
   0   5  -6 145694. 7666.17   6
   0   5  -5 67022.5 4880.20   6
   0   5  -4 208719. 9220.79   6
   0   5  -3 120498. 6377.87   6
   0   5  -2 7417.98 1393.50   6
   0   5  -1 2819.06 604.421   4
   0   5  -1 3316.12 861.306   6
   0   5   0 64283.7 2962.86   4
   0   5   0 49328.7 3307.66   6
   0   5   1 230535. 7015.14   4
   0   5   1 210875. 7611.14   6
   0   5   2 180994. 6043.92   4
   0   5   2 188901. 6175.39   6
   0   5   3 124327. 3838.22   6
   0   5   3 112506. 4550.77   4
   0   5   4 354490. 10624.7   4
   0   5   5 131325. 5482.20   4
   0   5   6 12500.4 1404.33   5
   0   5   7 10168.5 1367.48   5
   0   5   7 7199.93 542.001   1
   0   5   8 9623.56 741.536   1
   0   5   8 11186.3 1570.89   5
   0   5   9 223652. 8764.61   5
   0   5   9 202058. 6041.66   1
   0   5  10 99057.3 5752.73   5
   0   5  11 116070. 6726.29   5
   0   5  12 141379. 8003.39   5
   0   5  13 99028.3 6981.42   5
   0   5  14 11818.6 2455.09   5
   0   5  15 11317.7 2610.78   5
   0   6 -10 5485.21 1562.09   6
   0   6  -9 14072.9 2456.94   6
   0   6  -8 69784.6 5514.83   6
   0   6  -7 113259. 7075.04   6
   0   6  -6 144143. 7985.81   6
   0   6  -5 123514. 7067.16   6
   0   6  -4 152277. 7894.18   6
   0   6  -3 15382.9 2200.91   6
   0   6  -2 620.644 395.635   6
   0   6  -1 8390.26 1469.87   6
   0   6  -1 9470.11 1192.84   4
   0   6   0 91955.7 3957.59   4
   0   6   0 67069.9 4301.02   6
   0   6   1 348905. 10314.1   4
   0   6   1 344896. 11184.7   6
   0   6   2 123194. 4958.52   4
   0   6   2 137668. 5314.36   6
   0   6   3 286123. 9267.71   4
   0   6   3 316500. 8781.85   6
   0   6   4 119602. 3522.14   6
   0   6   4 117433. 5011.81   4
   0   6   5 21918.5 2089.72   4
   0   6   6 7484.73 1287.20   4
   0   6   7 2381.01 713.405   5
   0   6   8 79945.9 4450.81   5
   0   6   9 147016. 4275.25   1
   0   6   9 252021. 8505.75   5
   0   6  10 88348.9 5349.81   5
   0   6  11 92753.7 5862.84   5
   0   6  12 105459. 6641.70   5
   0   6  13 6022.77 1790.28   5
   0   6  14 246.729 445.643   5
   0   6  15 6240.97 1806.41   5
   0   7  -9 25335.7 3481.37   6
   0   7  -8 87274.0 6601.39   6
   0   7  -7 80274.3 6049.87   6
   0   7  -6 46708.7 4468.69   6
   0   7  -5 27668.4 3260.59   6
   0   7  -4 758.388 829.440   6
   0   7  -3 128.379 502.141   6
   0   7  -2 782.504 323.637   6
   0   7  -1 28933.7 2942.43   6
   0   7  -1 31983.6 2403.51   4
   0   7   0 176042. 6445.67   4
   0   7   0 144923. 7091.25   6
   0   7   1 145487. 5683.12   4
   0   7   1 132115. 6277.65   6
   0   7   2 226930. 7905.67   4
   0   7   2 242987. 8490.50   6
   0   7   3 163794. 6575.95   4
   0   7   3 209574. 6645.67   6
   0   7   4 17561.0 1779.26   4
   0   7   4 24315.2 1430.50   6
   0   7   5 2395.88 243.344   6
   0   7   5 1954.23 544.534   4
   0   7   6 8283.54 1285.60   4
   0   7   7 100671. 5371.02   4
   0   7   8 247191. 9865.20   4
   0   7   9 73650.5 4503.59   5
   0   7  10 123446. 6459.17   5
   0   7  11 65348.0 4769.77   5
   0   7  12 17116.4 2539.24   5
   0   7  13 3023.50 1183.47   5
   0   7  14 1754.70 793.729   5
   0   7  15 17807.1 3162.19   5
   0   8  -8 50514.9 5119.83   6
   0   8  -7 22923.1 3340.00   6
   0   8  -6 25928.3 3466.81   6
   0   8  -5 7065.78 1665.74   6
   0   8  -4 16998.3 2660.39   6
   0   8  -3 24489.0 3109.16   6
   0   8  -2 105902. 6503.83   6
   0   8  -1 177915. 8892.41   6
   0   8  -1 216980. 7888.82   4
   0   8   0 120609. 5340.09   4
   0   8   0 93895.6 5812.09   6
   0   8   1 78349.1 4162.54   4
   0   8   1 74798.6 4710.80   6
   0   8   2 160420. 6565.33   4
   0   8   2 176759. 7167.96   6
   0   8   3 97878.0 4840.32   4
   0   8   3 116638. 4947.05   6
   0   8   4 13206.3 1637.01   4
   0   8   4 20101.2 1512.93   6
   0   8   5 7811.76 1281.65   4
   0   8   5 6683.47 613.443   6
   0   8   6 60179.2 3912.60   4
   0   8   7 178423. 7829.09   4
   0   8   8 151757. 7313.34   4
   0   8   9 71868.3 4964.23   4
   0   8  10 192270. 9166.93   4
   0   8  11 33771.8 3371.12   5
   0   8  11 29034.7 3313.72   4
   0   8  12 1593.33 705.741   5
   0   8  13 8853.56 1914.12   5
   0   8  14 18245.9 2975.45   5
   0   8  15 59770.0 5836.56   5
   0   9  -7 24402.8 3573.09   6
   0   9  -6 7649.98 1926.98   6
   0   9  -5 4047.33 1372.58   6
   0   9  -4 34530.9 3948.18   6
   0   9  -3 37815.2 4013.08   6
   0   9  -2 86729.9 6176.57   6
   0   9  -1 83580.0 5791.31   6
   0   9   0 63510.6 3954.65   4
   0   9   0 52871.7 4385.47   6
   0   9   1 124733. 5865.67   4
   0   9   1 124912. 6628.50   6
   0   9   2 125256. 5848.80   4
   0   9   2 130155. 6371.60   6
   0   9   3 115.958 178.448   4
   0   9   3 626.730 291.931   6
   0   9   4 11299.6 1591.79   4
   0   9   4 16070.2 1540.17   6
   0   9   5 41714.0 3214.88   4
   0   9   5 43545.0 2124.24   6
   0   9   6 112826. 5790.14   4
   0   9   7 169639. 7732.56   4
   0   9   8 69464.1 4779.94   4
   0   9   9 39548.6 3688.39   4
   0   9  10 41403.9 3940.53   4
   0   9  11 865.729 405.868   4
   0   9  12 4836.56 1465.99   4
   0   9  13 3285.66 1190.42   4
   0   9  13 4959.09 1458.92   5
   0   9  14 56868.7 5274.16   5
   0   9  14 47703.8 4977.50   4
   0   9  15 67006.5 6133.80   5
   0  10  -6-258.013 235.133   6
   0  10  -5 15692.1 2877.30   6
   0  10  -4 14915.6 2693.48   6
   0  10  -3 64408.2 5686.95   6
   0  10  -2 102122. 6999.94   6
   0  10  -1 53610.0 4836.23   6
   0  10   0 17576.4 2142.80   4
   0  10   0 16343.4 2414.70   6
   0  10   1 8473.11 1431.46   4
   0  10   1 8340.12 1699.99   6
   0  10   2 15226.7 1990.28   4
   0  10   2 14332.9 2048.47   6
   0  10   3 30804.9 2784.23   4
   0  10   3 35858.8 3028.78   6
   0  10   4 14712.4 1931.17   4
   0  10   4 17591.3 1781.23   6
   0  10   5 83214.9 4964.47   4
   0  10   5 85897.6 3634.82   6
   0  10   6 162893. 7501.73   4
   0  10   7 74680.9 4908.14   4
   0  10   8 32053.5 3232.03   4
   0  10   9 33866.2 3488.64   4
   0  10  10 543.560 518.540   4
   0  10  11 676.935 412.883   4
   0  10  12 19553.3 3002.36   4
   0  10  13 49349.8 5053.53   4
   0  10  14 70309.4 6204.90   4
   0  11  -5 10299.3 2340.42   6
   0  11  -4 27951.4 3951.78   6
   0  11  -3 86155.0 6880.74   6
   0  11  -2 47578.1 4943.66   6
   0  11  -1 17720.1 2852.10   6
   0  11   0 12040.3 1850.92   4
   0  11   0 10852.6 2179.24   6
   0  11   1 839.786 578.964   4
   0  11   1 789.414 393.995   6
   0  11   2 37941.8 3365.12   4
   0  11   2 36803.1 3587.75   6
   0  11   3 71108.3 4703.89   4
   0  11   3 79586.3 4990.21   6
   0  11   4 70851.7 4735.88   4
   0  11   4 83120.5 4482.54   6
   0  11   5 198033. 8691.79   4
   0  11   6 98053.9 5801.38   4
   0  11   7 39117.0 3587.60   4
   0  11   8 28568.1 3168.00   4
   0  11   9 7225.30 1606.70   4
   0  11  10 19619.5 2842.21   4
   0  11  11 9566.07 2018.74   4
   0  11  12 28509.1 3672.59   4
   0  11  13 51431.6 5225.99   4
   0  12  -3 43216.0 5030.25   6
   0  12  -2 16007.4 2885.23   6
   0  12  -1 6608.00 1769.41   6
   0  12   0 2359.53 1118.87   6
   0  12   1 16177.5 2316.31   4
   0  12   1 18536.2 2840.52   6
   0  12   2 44506.7 3866.57   4
   0  12   2 45466.8 4233.70   6
   0  12   3 44844.2 3880.95   4
   0  12   4 73986.7 5067.26   4
   0  12   5 43126.1 3823.10   4
   0  12   6 35046.3 3435.47   4
   0  12   7 22359.4 2858.76   4
   0  12   8 4852.48 1348.41   4
   0  12   9 3778.96 1230.82   4
   0  12  10 26153.2 3397.19   4
   0  12  11 27737.2 3601.16   4
   0  12  12 53074.3 5231.78   4
   0  13  -2 2102.18 930.895   6
   0  13  -1-2.71168 712.479   6
   0  13   0 2392.42 1013.56   6
   0  13   1 32142.5 3448.49   4
   0  13   2 35894.3 3650.62   4
   0  13   3 58901.8 4704.87   4
   0  13   4 55273.7 4591.36   4
   0  13   5 10423.4 1916.52   4
   0  13   6 7128.53 1554.09   4
   0  13   7 388.391 251.944   4
   0  13   8 12485.5 2212.65   4
   0  13   9 24812.9 3236.57   4
   0  13  10 29862.1 3688.57   4
   0  13  11 103580. 7427.68   4
   0  14   2 29900.9 3495.26   4
   0  14   3 38964.6 3979.41   4
   0  14   4 25676.9 3232.74   4
   0  14   5 4245.45 1374.07   4
   0  14   6 2472.98 992.659   4
   0  14   7 8651.07 1847.69   4
   0  14   8 23482.1 3208.50   4
   0  14   9 25836.8 3456.79   4
   0  15   4 2585.58 1056.44   4
   0  15   5 1179.92 709.752   4
   0  15   6 3581.73 1221.19   4
   1  -9  -6 13732.9 850.166   1
   1  -9  -6 18276.0 978.689   1
   1  -8  -7 7483.81 832.949   2
   1  -8  -6 52408.6 2704.63   2
   1  -8  -5 97759.0 4310.93   2
   1  -7  -6 180520. 5685.40   2
   1  -7  -5 175436. 4632.97   1
   1  -7  -5 166293. 4595.01   1
   1  -7  -4 183422. 6517.06   2
   1  -6  -5 120149. 4124.39   2
   1  -6  -4 326566. 9397.76   2
   1  -6  -3 71866.4 3494.81   2
   1  -6  -2 11509.0 1401.63   2
   1  -5  -4 113762. 3910.10   2
   1  -5  -3 24779.9 1651.10   2
   1  -5  -2 106085. 4371.62   2
   1  -5  -2 97070.2 4516.97   4
   1  -5  -1 69383.0 3613.02   4
   1  -5  -1 71220.5 3748.72   2
   1  -5   0 229194. 8065.52   4
   1  -5   0 236035. 8659.60   2
   1  -5   1 142379. 5886.49   6
   1  -4 -12 1944.10 704.347   6
   1  -4 -11 3591.91 844.653   6
   1  -4 -10 53845.5 3244.43   6
   1  -4  -9 251279. 8271.61   6
   1  -4  -4 215.691 92.2432   2
   1  -4  -4 411.371 229.185   5
   1  -4  -3 41639.9 1440.65   1
   1  -4  -3 46199.3 2634.09   5
   1  -4  -3 50164.1 2794.87   4
   1  -4  -3 46012.8 2046.10   2
   1  -4  -2 85844.4 3390.51   2
   1  -4  -2 84621.6 3830.48   4
   1  -4  -1 395679. 11564.1   4
   1  -4  -1 414978. 11622.5   2
   1  -4   0 434805. 12607.8   4
   1  -4   0 458746. 13162.0   2
   1  -4   1 266618. 8552.19   4
   1  -4   1 252592. 9114.05   2
   1  -4   2 119520. 5137.93   4
   1  -4   2 119223. 5317.31   6
   1  -3 -13-127.841 360.193   6
   1  -3 -12 11207.6 1803.31   6
   1  -3 -11 38715.3 3178.47   6
   1  -3 -10 52118.4 3508.97   6
   1  -3  -9 346223. 11090.2   6
   1  -3  -8 82748.4 4026.49   6
   1  -3  -7 92531.5 3874.34   6
   1  -3  -4 127018. 4971.69   5
   1  -3  -3 96081.3 3146.65   2
   1  -3  -3 102863. 4026.52   5
   1  -3  -2 364495. 9053.13   1
   1  -3  -2 398402. 10442.3   5
   1  -3  -2 371773. 10471.5   4
   1  -3  -2 367688. 9698.33   2
   1  -3  -1 360153. 10400.9   4
   1  -3  -1 384853. 10188.3   2
   1  -3   0 257282. 7937.32   4
   1  -3   0 274944. 8203.38   2
   1  -3   1 73266.5 3357.71   4
   1  -3   1 75154.4 3709.71   2
   1  -3   2 52316.2 2883.08   4
   1  -3   2 54592.0 3066.29   6
   1  -3   2 53026.2 3289.81   2
   1  -3   3 1561.43 467.158   4
   1  -3   3 2106.54 631.270   6
   1  -3   3 995.025 445.148   2
   1  -3   4 11111.9 1429.25   4
   1  -2 -14 437.204 506.225   6
   1  -2 -13 41217.8 3761.87   6
   1  -2 -12 28653.8 2996.50   6
   1  -2 -11 53586.1 3941.56   6
   1  -2 -10 107484. 5557.70   6
   1  -2  -9 152874. 6643.53   6
   1  -2  -8 99663.2 4732.08   6
   1  -2  -7 41263.8 2667.42   6
   1  -2  -6 2068.86 523.865   6
   1  -2  -5 123164. 4386.32   6
   1  -2  -3 270869. 8021.18   5
   1  -2  -2 448368. 11511.3   5
   1  -2  -2 467066. 11671.1   4
   1  -2  -1 387117. 10016.6   4
   1  -2  -1 368060. 9606.07   2
   1  -2  -1 366682. 9190.25   1
   1  -2  -1 380394. 9895.02   5
   1  -2   0 196833. 6053.07   4
   1  -2   0 206780. 6032.08   2
   1  -2   1 196149. 6244.69   4
   1  -2   1 204537. 6467.12   2
   1  -2   2 570.328 261.113   2
   1  -2   2 349.278 190.144   4
   1  -2   3 60645.9 3295.37   6
   1  -2   3 62727.8 3554.35   2
   1  -2   4 121013. 5446.43   6
   1  -2   4 120014. 5665.48   2
   1  -1 -15 131.894 384.925   6
   1  -1 -14 44465.7 4185.13   6
   1  -1 -13 57706.5 4609.11   6
   1  -1 -12 59099.2 4533.89   6
   1  -1 -11 165027. 7830.83   6
   1  -1 -10 117365. 6138.32   6
   1  -1  -9 51629.6 3660.82   6
   1  -1  -8 41892.5 3076.29   6
   1  -1  -7 4760.14 936.895   6
   1  -1  -6 38411.6 2568.20   6
   1  -1  -5 111634. 4406.45   6
   1  -1  -4 226255. 6850.54   6
   1  -1  -3 359977. 9517.07   6
   1  -1  -1 32720.4 1230.70   1
   1  -1  -1 31533.6 1442.45   5
   1  -1  -1 30768.5 1477.38   4
   1  -1   0 520464. 12887.9   2
   1  -1   0 529952. 13007.1   4
   1  -1   0 518235. 12648.6   1
   1  -1   1 56449.2 2244.07   1
   1  -1   1 59840.5 2333.15   2
   1  -1   2 6548.35 776.532   2
   1  -1   3 95836.4 4050.14   2
   1  -1   4 175925. 6488.32   6
   1  -1   4 174622. 6527.52   2
   1  -1   5 506396. 14897.0   6
   1  -1   5 482798. 14764.3   2
   1  -1   6 196611. 8041.03   2
   1   0 -15 4822.51 1384.10   6
   1   0 -14 44467.8 4233.03   6
   1   0 -13 55077.5 4669.29   6
   1   0 -12 115331. 6772.72   6
   1   0 -11 83276.7 5426.55   6
   1   0 -10 52204.0 4034.97   6
   1   0  -9 453.519 249.081   6
   1   0  -8 25573.3 2498.34   6
   1   0  -7 29996.5 2580.77   6
   1   0  -6 60880.9 3573.60   6
   1   0  -5 103289. 4542.93   6
   1   0  -4 233595. 7458.42   6
   1   0  -3 224556. 6758.63   6
   1   0  -2 46512.1 2037.94   6
   1   0  -1 26034.5 1098.21   4
   1   0   0 14174.1 767.329   4
   1   0   0 14352.1 802.363   1
   1   0   0 15458.4 670.126   5
   1   0   1 127446. 3720.20   1
   1   0   2 238274. 6632.76   2
   1   0   2 249386. 6764.54   1
   1   0   3 75283.3 3140.97   1
   1   0   3 79390.1 3025.46   2
   1   0   4 362514. 10241.1   2
   1   0   5 645873. 17947.4   6
   1   0   5 668904. 17719.9   2
   1   0   6 107190. 5124.62   6
   1   0   6 108422. 5001.60   2
   1   0   7 63086.0 3912.91   2
   1   0   8 17558.8 2113.58   2
   1   1 -14 34982.0 3912.00   6
   1   1 -13 60719.4 5049.82   6
   1   1 -12 101131. 6523.81   6
   1   1 -11 34727.9 3486.67   6
   1   1 -10 6285.29 1385.55   6
   1   1  -9 3515.50 1045.21   6
   1   1  -8 90140.6 5283.87   6
   1   1  -7 156562. 7014.02   6
   1   1  -6 105641. 5304.20   6
   1   1  -5 167231. 6657.58   6
   1   1  -4 264741. 8659.81   6
   1   1  -3 133228. 4994.56   6
   1   1  -2 26413.8 1642.01   6
   1   1  -1 17554.0 1134.63   6
   1   1   0 70447.1 2425.91   1
   1   1   1 84953.6 2738.03   1
   1   1   2 79130.0 2652.79   1
   1   1   3 447233. 11196.2   2
   1   1   3 447839. 11458.8   1
   1   1   4 981536. 23805.1   2
   1   1   4 999999. 24349.1   1
   1   1   5 437589. 12540.6   1
   1   1   5 454218. 11937.3   2
   1   1   6 69694.9 3723.28   1
   1   1   6 71989.3 3284.49   2
   1   1   7 18444.8 2013.44   1
   1   1   7 16840.2 1847.99   6
   1   1   7 19587.7 1735.61   2
   1   1   8 4737.83 935.207   2
   1   1   9 103070. 5259.91   2
   1   2 -13 69672.1 5630.49   6
   1   2 -12 35014.4 3776.29   6
   1   2 -11 2310.99 1007.30   6
   1   2 -10 429.153 323.905   6
   1   2  -9 35304.1 3430.94   6
   1   2  -8 149164. 7409.78   6
   1   2  -7 112974. 6070.16   6
   1   2  -6 107289. 5627.17   6
   1   2  -5 363558. 12067.1   6
   1   2  -4 208144. 7756.28   6
   1   2  -3 44856.9 2787.92   6
   1   2  -2 77893.9 3494.94   6
   1   2  -1 22140.4 1478.78   6
   1   2   0 618467. 15362.1   6
   1   2   1 91000.5 3061.54   1
   1   2   2 347845. 8970.28   1
   1   2   3 239176. 6442.70   1
   1   2   3 232581. 6284.06   5
   1   2   4 62492.1 2541.86   5
   1   2   4 55861.9 2348.35   1
   1   2   5 11143.5 1020.57   1
   1   2   6 93814.2 3321.59   2
   1   2   6 89463.6 3859.54   1
   1   2   7 4093.43 602.732   2
   1   2   7 2725.11 650.474   1
   1   2   8 52107.1 2721.46   2
   1   2   8 45006.4 3197.30   1
   1   2   9 117483. 4959.56   2
   1   2  10 112359. 5161.89   2
   1   3 -12 584.435 377.511   6
   1   3 -11 934.820 732.145   6
   1   3 -10 4921.57 1351.84   6
   1   3  -9 57774.8 4655.23   6
   1   3  -8 188662. 8895.11   6
   1   3  -7 86358.3 5432.86   6
   1   3  -6 194178. 8507.02   6
   1   3  -5 76108.7 4647.62   6
   1   3  -4 1235.44 387.122   6
   1   3  -3 5715.85 1018.47   6
   1   3  -2 13623.0 1468.29   6
   1   3  -1 73562.8 3387.24   6
   1   3   0 687441. 16219.2   4
   1   3   0 668532. 17229.6   6
   1   3   1 266584. 7383.32   6
   1   3   1 276499. 7125.51   4
   1   3   3 265426. 7226.41   1
   1   3   4 10844.0 846.175   1
   1   3   4 9789.72 885.317   5
   1   3   5 7392.78 851.286   5
   1   3   5 5951.86 662.542   1
   1   3   6 7149.78 942.492   5
   1   3   6 7057.97 798.136   1
   1   3   7 241171. 7650.45   1
   1   3   7 248397. 8473.89   5
   1   3   8 227545. 7776.86   1
   1   3   9 102738. 4984.58   1
   1   3  10 133879. 4870.12   2
   1   3  15 18436.3 3459.36   5
   1   4 -12 1301.84 663.917   6
   1   4 -11 2644.38 1018.82   6
   1   4 -10 57534.1 4994.24   6
   1   4  -9 114554. 7074.95   6
   1   4  -8 59045.6 4762.28   6
   1   4  -7 115797. 6743.08   6
   1   4  -6 123527. 6757.01   6
   1   4  -5 9078.47 1615.58   6
   1   4  -4 254.213 149.607   6
   1   4  -3 3472.13 876.210   6
   1   4  -2 166170. 6736.04   6
   1   4  -1 561853. 15778.9   6
   1   4   0 340166. 8882.77   4
   1   4   0 338851. 9938.34   6
   1   4   1 616495. 15424.0   4
   1   4   1 636644. 15947.9   6
   1   4   2 340781. 8970.70   6
   1   4   2 345099. 9334.64   4
   1   4   4 3559.41 506.150   1
   1   4   5 50520.8 2231.17   1
   1   4   5 47087.2 2437.07   5
   1   4   6 83921.3 3244.47   1
   1   4   6 92022.4 3861.06   5
   1   4   7 71650.8 3638.11   5
   1   4   7 67461.9 2959.23   1
   1   4   8 71645.7 3949.13   5
   1   4   8 65972.8 3137.34   1
   1   4   9 162195. 7074.78   5
   1   4   9 152548. 5868.98   1
   1   4  10 205745. 8841.67   5
   1   4  11 57193.3 4540.61   5
   1   4  12 12626.7 2219.03   5
   1   4  13 1991.69 714.205   5
   1   4  14 26383.6 3714.99   5
   1   4  15 34950.3 4576.24   5
   1   4  16 46184.3 5611.00   5
   1   5 -11 23020.4 3275.94   6
   1   5 -10 67692.7 5664.20   6
   1   5  -9 39671.8 4179.89   6
   1   5  -8 57352.6 4899.45   6
   1   5  -7 90080.1 6111.08   6
   1   5  -6 45874.7 4107.55   6
   1   5  -5 13029.9 2034.00   6
   1   5  -4 5491.47 1330.61   6
   1   5  -3 52619.3 3855.48   6
   1   5  -2 208543. 8282.50   6
   1   5  -1 204718. 7794.65   6
   1   5   0 74089.5 2992.32   4
   1   5   0 81576.7 3888.95   6
   1   5   1 638423. 16199.2   4
   1   5   1 646997. 16911.6   6
   1   5   2 115912. 4011.50   6
   1   5   2 110406. 4049.49   4
   1   5   3 17629.4 1065.00   6
   1   5   3 17307.5 1441.52   4
   1   5   5 59634.6 2565.79   1
   1   5   6 240774. 7754.77   5
   1   5   6 242087. 6995.54   1
   1   5   7 82406.7 3252.36   1
   1   5   7 79317.2 3883.28   5
   1   5   8 122629. 4463.99   1
   1   5   8 136440. 5688.57   5
   1   5   9 93568.5 3956.27   1
   1   5   9 112796. 5375.01   5
   1   5  10 7166.59 1332.46   5
   1   5  10 7567.68 1037.42   1
   1   5  11 782.627 415.403   5
   1   5  12 182.200 236.698   5
   1   5  13 16973.3 2687.70   5
   1   5  14 73270.9 6222.53   5
   1   5  15 44079.5 5044.54   5
   1   5  16 56594.8 6067.56   5
   1   6 -10 63432.4 5645.13   6
   1   6  -9 27242.4 3546.79   6
   1   6  -8 28984.0 3555.62   6
   1   6  -7 23283.2 3110.71   6
   1   6  -6 5398.70 1482.15   6
   1   6  -5 11695.6 2051.35   6
   1   6  -4 58544.1 4516.77   6
   1   6  -3 156232. 7646.08   6
   1   6  -2 154993. 7282.86   6
   1   6  -1 125267. 6049.67   6
   1   6   0 48564.9 2527.94   4
   1   6   0 50182.2 3264.26   6
   1   6   1 51056.3 2576.02   4
   1   6   1 55114.6 3077.05   6
   1   6   2 729.049 271.816   4
   1   6   2 1054.49 373.308   6
   1   6   3 19154.5 1313.05   6
   1   6   3 17674.3 1499.60   4
   1   6   4 45799.4 2755.65   4
   1   6   7 160355. 5186.02   1
   1   6   8 182716. 6896.10   5
   1   6   8 168856. 5546.25   1
   1   6   9 39024.8 2206.48   1
   1   6   9 49211.8 3361.87   5
   1   6  10 1434.70 409.965   1
   1   6  10 1550.30 681.143   5
   1   6  11 26.4103 90.7412   5
   1   6  12 22663.0 2824.39   5
   1   6  13 127445. 7701.55   5
   1   6  14 95819.3 7039.38   5
   1   6  15 59746.2 5812.20   5
   1   6  16 61306.3 6277.51   5
   1   7  -9 20353.8 3143.63   6
   1   7  -8 19125.4 2996.78   6
   1   7  -7 2779.46 1098.02   6
   1   7  -6 12363.5 2264.41   6
   1   7  -5 27851.7 3352.09   6
   1   7  -4 132139. 7534.72   6
   1   7  -3 134686. 7398.19   6
   1   7  -2 109847. 6251.44   6
   1   7  -1 94462.5 5479.07   6
   1   7   0 47717.8 2701.71   4
   1   7   0 47210.6 3444.57   6
   1   7   1 30130.5 2061.40   4
   1   7   1 32904.1 2523.80   6
   1   7   2 1500.19 417.042   4
   1   7   2 2235.81 587.104   6
   1   7   3 35403.0 2345.66   4
   1   7   3 40411.4 2246.00   6
   1   7   4 176198. 5340.19   6
   1   7   4 174636. 6557.36   4
   1   7   5 207284. 7761.55   4
   1   7   6 203544. 7913.26   4
   1   7   9 1438.04 345.263   1
   1   7   9 1383.63 555.125   5
   1   7  10 704.682 471.250   5
   1   7  11 7514.67 1501.46   5
   1   7  12 88920.9 5812.37   5
   1   7  13 102749. 6747.24   5
   1   7  14 36292.6 4121.21   5
   1   7  15 69915.3 6220.23   5
   1   7  16 21976.8 3628.71   5
   1   8  -8 164.347 126.122   6
   1   8  -7 14290.8 2654.30   6
   1   8  -6 37094.5 4241.15   6
   1   8  -5 35329.6 4041.34   6
   1   8  -4 124160. 7653.37   6
   1   8  -3 56310.7 4731.07   6
   1   8  -2 45455.7 4048.84   6
   1   8  -1 16844.1 2329.17   6
   1   8   0 2855.36 646.298   4
   1   8   0 2502.43 812.796   6
   1   8   1 73090.6 3784.01   4
   1   8   1 80321.7 4506.33   6
   1   8   2 6337.64 997.726   4
   1   8   2 6539.15 1083.10   6
   1   8   3 106550. 4722.65   4
   1   8   3 103135. 4434.30   6
   1   8   4 150548. 6122.87   4
   1   8   4 158010. 5295.38   6
   1   8   5 84252.9 4407.75   4
   1   8   6 107704. 5390.19   4
   1   8   7 153523. 7012.63   4
   1   8   8 8627.30 1560.93   4
   1   8  11 78183.5 5052.37   5
   1   8  12 143545. 7610.74   5
   1   8  13 49808.4 4526.22   5
   1   8  14 34351.7 4011.60   5
   1   8  15 39943.9 4601.90   5
   1   8  16-49.5183 810.633   5
   1   9  -7 19411.5 3141.01   6
   1   9  -6 40624.8 4535.23   6
   1   9  -5 91447.0 6934.10   6
   1   9  -4 35077.7 4030.92   6
   1   9  -3 25648.8 3371.64   6
   1   9  -2 19366.4 2778.79   6
   1   9  -1-179.561 258.812   6
   1   9   0 15182.9 1708.16   4
   1   9   0 19090.0 2425.74   6
   1   9   1 68293.4 3893.48   4
   1   9   1 71892.2 4601.73   6
   1   9   2 166875. 6779.15   4
   1   9   2 188502. 7557.09   6
   1   9   3 259523. 9140.43   4
   1   9   3 273750. 9108.10   6
   1   9   4 96239.2 4088.08   6
   1   9   4 90692.2 4640.78   4
   1   9   5 30975.6 2650.98   4
   1   9   6 57130.9 3824.06   4
   1   9   7 9132.02 1570.19   4
   1   9   8 22579.2 2591.79   4
   1   9   9 27940.9 3059.69   4
   1   9  10 89212.5 5975.16   4
   1   9  14 51835.2 4842.28   5
   1   9  15 8582.24 2058.85   5
   1  10  -6 87048.5 7129.80   6
   1  10  -5 58016.6 5578.70   6
   1  10  -4 11582.2 2371.05   6
   1  10  -3 21021.3 3195.63   6
   1  10  -2 5289.29 1500.60   6
   1  10  -1 17192.5 2684.91   6
   1  10   0 34582.6 2838.34   4
   1  10   0 34553.5 3603.68   6
   1  10   1 34418.2 2858.73   4
   1  10   1 41611.4 3664.79   6
   1  10   2 182975. 7542.65   4
   1  10   2 196542. 8335.19   6
   1  10   3 99230.0 5102.18   4
   1  10   3 105885. 5208.22   6
   1  10   4 39673.2 3084.05   4
   1  10   4 38393.9 2640.53   6
   1  10   5 77095.2 4501.25   4
   1  10   5 73556.7 3359.94   6
   1  10   6 20024.5 2254.82   4
   1  10   7 20471.8 2398.12   4
   1  10   8 48571.4 3961.36   4
   1  10   9 35037.0 3496.36   4
   1  10  10 165286. 8656.85   4
   1  10  11 103196. 6829.69   4
   1  10  12 41714.5 4405.17   4
   1  10  13 23337.1 3382.16   4
   1  10  14 3738.86 1400.76   4
   1  11  -4 4006.53 1322.11   6
   1  11  -3 5375.22 1620.43   6
   1  11  -2 8279.20 1912.14   6
   1  11  -1 22102.7 3179.59   6
   1  11   0 14953.7 2456.94   6
   1  11   1 52617.1 3765.94   4
   1  11   1 54472.4 4598.00   6
   1  11   2 146909. 6985.52   4
   1  11   2 166836. 7876.54   6
   1  11   3 55203.7 3887.86   4
   1  11   3 61073.3 4119.44   6
   1  11   4 20510.2 2278.04   4
   1  11   4 21235.6 2092.30   6
   1  11   5 1672.61 738.939   4
   1  11   6 39127.5 3379.29   4
   1  11   7 74619.1 5006.51   4
   1  11   8 35566.9 3490.33   4
   1  11   9 64998.5 5002.27   4
   1  11  10 115076. 7121.45   4
   1  11  11 40645.7 4275.46   4
   1  11  12 14615.7 2579.36   4
   1  11  13 7938.83 2076.90   4
   1  12  -3 18117.6 3218.55   6
   1  12  -2 36193.6 4450.77   6
   1  12  -1 24775.8 3560.83   6
   1  12   0 41490.3 4421.44   6
   1  12   1 83610.1 5146.72   4
   1  12   1 80700.2 6008.25   6
   1  12   2 35938.3 3307.41   4
   1  12   2 41762.7 3910.87   6
   1  12   3 9917.67 1700.30   4
   1  12   3 9742.42 1685.01   6
   1  12   4 14811.8 2056.36   4
   1  12   5 1783.78 667.911   4
   1  12   6 36505.0 3395.83   4
   1  12   7 59804.8 4559.13   4
   1  12   8 99792.7 6264.94   4
   1  12   9 138750. 7784.45   4
   1  12  10 35366.3 3830.92   4
   1  12  11 20648.5 3068.94   4
   1  12  12 3256.31 1263.37   4
   1  12  13-119.082 593.464   4
   1  13  -2 21924.4 3569.70   6
   1  13  -1 30041.8 4112.69   6
   1  13   0 70387.7 6144.83   6
   1  13   1 42654.5 4480.42   6
   1  13   2 4023.86 1185.20   4
   1  13   3 7350.57 1508.14   4
   1  13   4 806.335 375.525   4
   1  13   5 28176.3 3079.03   4
   1  13   6 39349.3 3695.40   4
   1  13   7 47576.2 4276.19   4
   1  13   8 60580.4 4875.47   4
   1  13   9 31332.1 3543.18   4
   1  13  10 1835.52 868.047   4
   1  13  11 21848.6 3237.79   4
   1  13  12 1253.30 854.103   4
   1  14   4 16308.4 2415.70   4
   1  14   5 24999.8 3016.76   4
   1  14   6 31124.7 3452.12   4
   1  14   7 41101.2 4020.98   4
   1  14   8 34923.4 3796.72   4
   1  14   9 9145.75 2008.07   4
   1  14  10 979.617 641.675   4
   1  15   6 33065.4 3659.60   4
   1  15   7 25523.8 3293.47   4
   1  15   8 9917.68 2063.73   4
   1  15   9 1542.15 863.705   4
   2  -8  -6 44090.9 2703.23   2
   2  -8  -5 22340.4 1202.70   1
   2  -8  -4 10247.9 1001.12   1
   2  -8  -3 651.006 301.409   1
   2  -7  -5 1984.31 511.314   2
   2  -7  -5 1742.20 246.220   1
   2  -7  -4 1260.78 292.025   1
   2  -7  -3 50578.6 2538.67   1
   2  -7  -2 92984.1 4167.52   1
   2  -6  -4 45507.5 2628.74   2
   2  -6  -4 44333.4 1841.74   1
   2  -6  -3 184110. 6660.90   2
   2  -6  -3 187235. 5684.90   1
   2  -6  -2 179469. 6052.80   1
   2  -6  -1 156873. 5991.31   1
   2  -5  -4 170597. 4735.43   1
   2  -5  -3 220195. 7208.45   2
   2  -5  -3 219890. 6225.90   1
   2  -5  -2 131348. 5220.48   2
   2  -5  -2 134102. 4526.64   1
   2  -5  -1 96757.0 4021.68   1
   2  -5   0 129784. 5397.22   1
   2  -4  -4 317294. 8047.60   1
   2  -4  -3 166968. 4840.92   1
   2  -4  -2 186407. 6255.32   2
   2  -4  -2 183828. 5512.75   1
   2  -4  -2 189752. 6657.14   5
   2  -4  -1 78913.4 3654.86   2
   2  -4  -1 71986.3 3138.52   1
   2  -4   0 2974.26 676.000   2
   2  -4   0 3285.62 667.269   1
   2  -4   1 56043.9 3273.24   1
   2  -3  -3 185646. 6594.61   5
   2  -3  -3 191044. 5406.03   1
   2  -3  -3 200162. 6889.99   4
   2  -3  -2 101823. 3423.53   1
   2  -3  -2 103426. 4221.28   5
   2  -3  -2 102549. 4454.22   4
   2  -3  -1 7223.19 979.699   4
   2  -3  -1 7377.09 894.950   2
   2  -3  -1 7103.09 755.906   1
   2  -3  -1 6259.02 850.717   5
   2  -3   0 42186.5 2473.33   2
   2  -3   0 41211.6 2581.16   4
   2  -3   0 39272.1 2150.23   1
   2  -3   1 78304.5 3539.33   1
   2  -3   1 77290.6 3752.69   2
   2  -3   2 256473. 8953.24   4
   2  -3   2 271623. 8950.40   1
   2  -2 -13 69264.9 5183.99   6
   2  -2 -12 27027.0 3047.32   6
   2  -2 -11 15727.4 2265.76   6
   2  -2 -10 581.309 435.843   6
   2  -2  -9 28219.5 2647.51   6
   2  -2  -8 85769.9 4613.28   6
   2  -2  -2 45407.5 1957.59   1
   2  -2  -2 42104.6 2282.54   5
   2  -2  -2 42839.0 2369.85   4
   2  -2  -1 1923.91 447.717   4
   2  -2  -1 2249.41 389.350   1
   2  -2  -1 2435.69 464.674   5
   2  -2   0 128528. 4688.48   4
   2  -2   0 119693. 4468.33   2
   2  -2   0 121095. 4147.00   1
   2  -2   1 211835. 6868.67   2
   2  -2   1 215795. 7014.36   4
   2  -2   1 197884. 6452.93   1
   2  -2   2 443963. 12547.2   2
   2  -2   2 444231. 12310.8   1
   2  -2   3 196244. 7113.26   1
   2  -2   3 190744. 7056.29   2
   2  -1 -14 48673.3 4560.70   6
   2  -1 -13 11241.3 2124.15   6
   2  -1 -12 3281.36 1069.33   6
   2  -1 -11 891.782 494.482   6
   2  -1 -10 3124.52 986.490   6
   2  -1  -9 153105. 7281.47   6
   2  -1  -8 94304.4 5170.86   6
   2  -1  -7 204392. 7858.66   6
   2  -1  -6 166217. 6510.85   6
   2  -1  -2 47787.3 2149.75   1
   2  -1  -2 49104.2 2360.84   4
   2  -1  -1 102268. 3746.79   4
   2  -1  -1 109420. 3658.06   1
   2  -1  -1 102172. 3586.36   5
   2  -1   0 262299. 7491.78   1
   2  -1   0 269243. 7812.56   4
   2  -1   0 271185. 7255.12   5
   2  -1   1 310967. 8881.27   2
   2  -1   1 312891. 8963.68   4
   2  -1   1 296138. 8557.15   1
   2  -1   2 158884. 5412.99   2
   2  -1   2 141203. 5388.55   4
   2  -1   2 145877. 5127.14   1
   2  -1   3 138189. 5308.89   2
   2  -1   3 136720. 5262.23   1
   2  -1   4 80703.8 4180.41   1
   2  -1   4 93978.5 4358.28   2
   2  -1   5 38457.8 2835.13   2
   2   0 -14 16560.5 2725.96   6
   2   0 -13 6751.42 1691.42   6
   2   0 -12 4183.78 1257.25   6
   2   0 -11 7618.80 1624.52   6
   2   0 -10 47171.6 4046.13   6
   2   0  -9 142179. 7176.21   6
   2   0  -8 174118. 7805.50   6
   2   0  -7 223466. 8780.40   6
   2   0  -6 181335. 7284.62   6
   2   0  -5 46925.5 2987.18   6
   2   0  -4 5339.93 886.122   6
   2   0  -1 147058. 4475.05   4
   2   0  -1 153105. 4815.40   1
   2   0   0 273555. 7641.84   4
   2   0   0 292690. 7966.53   1
   2   0   1 366450. 10211.9   1
   2   0   1 390708. 10307.9   4
   2   0   1 388083. 9359.96   5
   2   0   2 113287. 4053.63   1
   2   0   3 110093. 4212.74   2
   2   0   3 103535. 4100.25   1
   2   0   4 47180.1 2651.71   2
   2   0   4 45894.5 2685.51   1
   2   0   5 3427.58 728.325   2
   2   0   5 2434.13 638.082   1
   2   0   6 56740.7 3448.82   2
   2   1 -14 1033.63 580.359   6
   2   1 -13 52.8276 567.016   6
   2   1 -12 5648.75 1622.97   6
   2   1 -11 38262.8 3961.06   6
   2   1 -10 42082.2 3962.38   6
   2   1  -9 74377.3 5127.95   6
   2   1  -8 161672. 7731.25   6
   2   1  -7 129977. 6517.78   6
   2   1  -6 35639.0 2963.75   6
   2   1  -5 7211.82 1226.37   6
   2   1  -4 56757.8 3310.24   6
   2   1  -3 183151. 6459.30   6
   2   1  -1 317333. 7998.19   4
   2   1   0 389458. 10294.9   1
   2   1   0 370239. 9381.20   4
   2   1   1 179659. 5640.68   1
   2   1   2 32851.3 1824.89   1
   2   1   3 55400.1 2602.39   1
   2   1   4 614.027 261.658   1
   2   1   5 119676. 4636.06   2
   2   1   5 117373. 4817.30   1
   2   1   6 90365.0 4117.01   2
   2   1   7 135755. 5686.56   2
   2   1   8 171950. 7028.10   2
   2   2 -13 2774.04 1227.02   6
   2   2 -12 32304.8 3802.74   6
   2   2 -11 52409.1 4739.60   6
   2   2 -10 74364.7 5530.12   6
   2   2  -9 43939.0 4035.33   6
   2   2  -8 121467. 6739.75   6
   2   2  -7 8590.63 1545.16   6
   2   2  -6 3664.00 922.341   6
   2   2  -5 20513.8 2170.01   6
   2   2  -4 189779. 7405.79   6
   2   2  -3 439256. 13070.0   6
   2   2  -2 206568. 7005.08   6
   2   2  -1 305398. 8989.61   6
   2   2   1 60392.2 2733.42   1
   2   2   2 26935.9 1693.60   1
   2   2   3 1334.79 180.686   5
   2   2   3 477.328 210.967   1
   2   2   4 58439.4 2777.34   1
   2   2   4 59430.1 2206.66   5
   2   2   5 226005. 7239.78   1
   2   2   6 121655. 4983.37   1
   2   2   8 259765. 8623.17   2
   2   2   9 43718.6 2988.76   2
   2   2  10 12752.0 1681.30   2
   2   3 -12 62691.5 5549.28   6
   2   3 -11 48981.6 4738.05   6
   2   3 -10 84237.6 6120.99   6
   2   3  -9 37853.4 3829.45   6
   2   3  -8 9599.44 1767.85   6
   2   3  -7 105.354 505.310   6
   2   3  -6 4410.40 1065.08   6
   2   3  -5 59783.9 4068.49   6
   2   3  -4 179579. 7473.06   6
   2   3  -3 174756. 6974.55   6
   2   3  -2 211903. 7530.07   6
   2   3  -1 354361. 10523.0   6
   2   3   2 2781.12 552.011   1
   2   3   3 35926.7 2062.71   1
   2   3   4 238258. 7407.57   1
   2   3   4 248567. 6559.71   5
   2   3   5 328442. 9566.33   1
   2   3   5 333939. 8955.78   5
   2   3   6 321374. 9202.77   5
   2   3   6 315056. 9545.99   1
   2   3   7 208381. 7096.22   5
   2   3   7 197714. 7045.16   1
   2   3  16 24107.7 4045.18   5
   2   4 -11 45145.8 4680.27   6
   2   4 -10 51122.4 4845.51   6
   2   4  -9 7791.62 1711.05   6
   2   4  -8 10813.7 2046.31   6
   2   4  -7 1289.97 429.616   6
   2   4  -6 17154.1 2346.59   6
   2   4  -5 108174. 6053.19   6
   2   4  -4 85963.3 5048.43   6
   2   4  -3 112554. 5570.21   6
   2   4  -2 173952. 6942.11   6
   2   4  -1 71606.5 3712.43   6
   2   4   0 22418.2 889.760   4
   2   4   0 23789.2 1815.38   6
   2   4   1 2312.39 305.647   4
   2   4   3 217018. 6941.38   1
   2   4   4 367460. 10470.8   1
   2   4   5 231642. 7311.26   1
   2   4   6 270653. 8519.18   1
   2   4   6 292206. 8270.07   5
   2   4   7 83710.8 3834.59   1
   2   4   7 89346.4 3839.50   5
   2   4   8 35802.7 2503.17   5
   2   4   9 1080.69 531.080   5
   2   4  10 38289.7 3212.77   5
   2   4  11 152206. 7663.11   5
   2   4  12 127469. 7473.34   5
   2   4  13 71168.6 5811.68   5
   2   4  14 60185.1 5684.70   5
   2   4  15 25225.2 3932.87   5
   2   4  16 6188.16 2073.83   5
   2   5 -10 17792.3 2910.20   6
   2   5  -9 90.7103 133.377   6
   2   5  -8 31252.3 3660.64   6
   2   5  -7 21169.3 2876.04   6
   2   5  -6 108037. 6635.12   6
   2   5  -5 95058.8 5916.74   6
   2   5  -4 49686.7 3943.86   6
   2   5  -3 48636.8 3676.02   6
   2   5  -2 86676.9 4788.73   6
   2   5  -1 7035.62 1141.22   6
   2   5   0 19207.9 1029.84   4
   2   5   0 20722.9 1841.31   6
   2   5   1 37440.7 1649.74   4
   2   5   1 36788.8 2309.06   6
   2   5   2 287887. 8034.89   4
   2   5   4 306870. 9262.56   1
   2   5   5 166081. 5856.44   1
   2   5   6 197817. 6652.84   1
   2   5   7 21822.1 1747.87   1
   2   5   7 21289.1 1686.55   5
   2   5   8 2106.85 570.782   5
   2   5   8 1097.44 399.732   1
   2   5   9 32856.2 2560.75   5
   2   5  10 119126. 5875.16   5
   2   5  11 54558.2 4071.80   5
   2   5  12 86252.4 5715.75   5
   2   5  13 81809.0 5989.48   5
   2   5  14 54564.6 5244.29   5
   2   5  15 8582.62 2158.03   5
   2   5  16 2221.16 1288.63   5
   2   6  -9 9148.58 2093.84   6
   2   6  -8 29662.2 3712.94   6
   2   6  -7 70692.3 5670.19   6
   2   6  -6 106638. 6839.23   6
   2   6  -5 53054.9 4501.81   6
   2   6  -4 45457.1 3999.98   6
   2   6  -3 67300.1 4689.49   6
   2   6  -2 12290.0 1793.15   6
   2   6  -1 10813.8 1561.35   6
   2   6   0 42649.3 1930.29   4
   2   6   0 39070.7 2870.03   6
   2   6   1 202552. 6004.14   4
   2   6   1 200884. 7176.12   6
   2   6   2 180840. 5622.67   4
   2   6   2 173203. 6109.55   6
   2   6   3 177563. 5997.64   4
   2   6   6 19474.8 1654.74   1
   2   6   7 188.322 177.061   1
   2   6   8 24151.8 1928.12   1
   2   6   8 27262.3 2104.58   5
   2   6   9 63725.5 3432.12   1
   2   6   9 68273.4 3828.97   5
   2   6  10 120826. 5811.57   5
   2   6  11 113361. 6030.83   5
   2   6  12 129513. 7038.82   5
   2   6  13 78147.3 5655.41   5
   2   6  14 360.192 417.956   5
   2   6  15 1313.46 955.991   5
   2   6  16 2681.50 1022.64   5
   2   7  -8 18166.9 3007.43   6
   2   7  -7 109772. 7567.01   6
   2   7  -6 86615.7 6418.06   6
   2   7  -5 33124.4 3680.31   6
   2   7  -4 38093.2 3861.32   6
   2   7  -3 1505.74 619.914   6
   2   7  -2 16129.5 2222.00   6
   2   7  -1 46064.4 3599.11   6
   2   7   0 48015.4 2325.19   4
   2   7   0 45175.0 3326.16   6
   2   7   1 285340. 8319.18   4
   2   7   1 285064. 9746.54   6
   2   7   2 148474. 5127.00   4
   2   7   2 141160. 5655.06   6
   2   7   3 129725. 4902.51   4
   2   7   4 50536.2 2964.58   4
   2   7   7 28056.4 2122.74   1
   2   7   8 108098. 4639.74   1
   2   7   9 105851. 4685.29   1
   2   7  10 113597. 5593.52   5
   2   7  11 86179.0 5036.68   5
   2   7  12 75295.5 5048.23   5
   2   7  13 18012.7 2611.53   5
   2   7  14-265.368 356.751   5
   2   7  15 596.023 322.445   5
   2   7  16 23523.1 3759.31   5
   2   8  -7 67205.1 6026.27   6
   2   8  -6 22283.3 3258.99   6
   2   8  -5 17741.1 2762.24   6
   2   8  -4 3619.59 1166.30   6
   2   8  -3 6017.45 1447.90   6
   2   8  -2 41757.6 3906.63   6
   2   8  -1 95952.4 5751.05   6
   2   8   0 144654. 6876.72   6
   2   8   0 137816. 5045.30   4
   2   8   1 204008. 6836.21   4
   2   8   1 213706. 8316.52   6
   2   8   2 108084. 4409.95   4
   2   8   2 108858. 5105.13   6
   2   8   3 59289.7 3105.39   4
   2   8   3 55074.3 3129.23   6
   2   8   4 6690.64 1058.87   4
   2   8   5 25391.4 2187.62   4
   2   8   6 60394.0 3772.79   4
   2   8  12 18089.1 2383.95   5
   2   8  13 68.7181 100.804   5
   2   8  14 3899.29 1304.62   5
   2   8  15 16956.9 2847.12   5
   2   8  16 55040.6 5627.39   5
   2   9  -6 12113.3 2502.97   6
   2   9  -5 8535.17 2014.64   6
   2   9  -4 5761.40 1614.49   6
   2   9  -3 31576.3 3739.37   6
   2   9  -2 56456.4 4830.26   6
   2   9  -1 126188. 7240.72   6
   2   9   0 141613. 7257.38   6
   2   9   1 41581.8 2642.10   4
   2   9   1 45992.7 3621.94   6
   2   9   2 88056.9 4143.00   4
   2   9   2 85525.1 4790.66   6
   2   9   3 6965.17 1068.15   4
   2   9   3 6425.71 1059.54   6
   2   9   4 9352.44 1254.56   4
   2   9   5 32310.2 2570.94   4
   2   9   6 50770.0 3550.06   4
   2   9   7 153374. 7212.45   4
   2   9   8 115533. 6374.90   4
   2   9  15 67954.0 5754.75   5
   2   9  16 47045.5 5094.09   5
   2  10  -5 2393.44 1100.21   6
   2  10  -4 31517.9 4147.47   6
   2  10  -3 30730.5 3886.02   6
   2  10  -2 75163.5 5953.83   6
   2  10  -1 108695. 6970.49   6
   2  10   0 65466.9 5059.09   6
   2  10   1 3295.02 776.994   4
   2  10   1 4744.38 1159.95   6
   2  10   2 26646.3 2261.03   4
   2  10   2 29996.3 2843.31   6
   2  10   3 5313.70 981.154   4
   2  10   3 5425.72 1063.34   6
   2  10   4 30838.7 2580.40   4
   2  10   5 41320.7 3101.88   4
   2  10   6 107727. 5580.29   4
   2  10   7 227410. 9261.11   4
   2  10   8 62310.6 4500.98   4
   2  10   9 28346.1 3123.12   4
   2  10  10 20927.7 2784.87   4
   2  11  -4 20926.6 3480.73   6
   2  11  -3 39232.9 4662.59   6
   2  11  -2 80452.7 6569.61   6
   2  11  -1 46922.8 4682.85   6
   2  11   0 14783.9 2446.78   6
   2  11   1 2268.61 710.258   4
   2  11   1 2062.80 925.248   6
   2  11   2 1621.73 573.888   4
   2  11   2 1802.49 734.410   6
   2  11   3 40178.4 3052.46   4
   2  11   3 39964.1 3285.13   6
   2  11   4 50694.9 3542.80   4
   2  11   5 53106.8 3739.55   4
   2  11   6 97013.0 5394.95   4
   2  11   7 76063.2 4915.40   4
   2  11   8 31557.1 3219.28   4
   2  11   9 32933.0 3423.66   4
   2  11  10 1496.79 745.694   4
   2  11  11 25253.9 3399.78   4
   2  11  12 39109.8 4462.69   4
   2  11  13 53341.6 5317.59   4
   2  11  14 66495.2 6203.28   4
   2  12  -3 26459.9 3946.83   6
   2  12  -2 18020.0 3184.69   6
   2  12  -1 1922.11 839.439   6
   2  12   0 2243.60 961.809   6
   2  12   1 457.619 435.045   6
   2  12   2 67679.2 5081.78   6
   2  12   3 40853.1 3264.98   4
   2  12   3 43410.4 3683.64   6
   2  12   4 34116.7 2991.99   4
   2  12   5 70327.0 4532.71   4
   2  12   6 78248.3 4968.98   4
   2  12   7 29463.0 3056.89   4
   2  12   8 13394.8 2109.43   4
   2  12   9 402.576 346.283   4
   2  12  10 43380.0 4226.33   4
   2  12  11 36716.0 4133.68   4
   2  12  12 35693.7 4288.13   4
   2  12  13 54882.8 5462.50   4
   2  13  -1-1276.20 833.367   6
   2  13   0 1608.95 849.255   6
   2  13   1 19113.3 3015.91   6
   2  13   4 53327.7 4052.62   4
   2  13   5 63641.1 4496.31   4
   2  13   6 17015.4 2262.46   4
   2  13   7 137.542 313.289   4
   2  13   8 31.0281 282.051   4
   2  13   9 6425.45 1575.09   4
   2  13  10 24459.9 3196.17   4
   2  13  11 39793.5 4312.05   4
   2  13  12 65231.0 5866.87   4
   2  14   6 1058.11 602.245   4
   2  14   7 624.813 424.856   4
   2  14   8 6919.01 1617.74   4
   2  14   9 33618.6 3713.97   4
   2  14  10 34651.7 3931.60   4
   2  14  11 42875.0 4530.08   4
   2  15   8 31139.9 3560.96   4
   2  15   9 31923.7 3723.32   4
   2  15  10 13960.8 2484.47   4
   3  -7  -5 91571.9 3195.54   1
   3  -7  -4 122940. 4387.78   1
   3  -7  -3 103778. 4190.29   1
   3  -6  -5 93196.3 3191.40   1
   3  -6  -4 107680. 3907.18   1
   3  -6  -3 69393.2 3126.86   1
   3  -6  -2 914.103 336.077   1
   3  -5  -4 133158. 4565.19   1
   3  -5  -3 9970.97 1001.41   1
   3  -5  -2 13618.9 1269.91   1
   3  -5  -1 13386.8 1356.19   1
   3  -4  -4 7834.85 832.827   1
   3  -4  -3 16132.1 1302.27   1
   3  -4  -2 21654.7 1586.09   1
   3  -4  -1 45312.2 2524.13   1
   3  -4   0 192126. 6753.94   1
   3  -3  -3 43680.6 2291.41   1
   3  -3  -2 44651.0 2396.33   1
   3  -3  -2 44707.4 2693.54   5
   3  -3  -1 183295. 6127.71   1
   3  -3  -1 186712. 6464.28   5
   3  -3   0 174216. 6110.59   1
   3  -3   0 177720. 6149.38   5
   3  -3   1 105114. 4574.71   1
   3  -2  -3 79347.5 3564.15   1
   3  -2  -3 91193.8 4173.64   4
   3  -2  -2 229779. 7569.04   5
   3  -2  -2 241520. 7324.86   1
   3  -2  -2 227240. 7823.07   4
   3  -2  -1 235588. 7844.62   4
   3  -2  -1 231826. 7234.90   1
   3  -2  -1 229241. 7273.62   5
   3  -2   0 185741. 6185.07   1
   3  -2   0 180247. 6635.26   4
   3  -2   0 182523. 5966.59   5
   3  -2   1 113862. 5046.98   4
   3  -2   1 116607. 4641.08   1
   3  -1  -2 420663. 11605.7   1
   3  -1  -2 403878. 11636.5   4
   3  -1  -1 227974. 7296.97   4
   3  -1  -1 226456. 7286.90   1
   3  -1   0 98348.0 4059.98   4
   3  -1   0 90783.1 3815.98   1
   3  -1   0 93035.0 3435.51   5
   3  -1   1 76048.5 3522.10   1
   3  -1   1 83045.2 3811.98   4
   3  -1   1 84458.1 3057.52   5
   3  -1   2 27195.6 2140.89   4
   3  -1   2 27038.3 1994.08   1
   3   0 -12 69841.4 5652.50   6
   3   0 -11 90730.1 6389.13   6
   3   0 -10 51563.0 4565.47   6
   3   0  -9 9219.74 1711.09   6
   3   0  -2 168004. 5607.68   4
   3   0  -1 152181. 5122.57   4
   3   0  -1 160598. 5650.79   1
   3   0   0 91790.9 3635.62   4
   3   0   0 93170.2 3935.85   1
   3   0   1 5308.45 806.377   4
   3   0   1 6477.81 886.388   1
   3   0   1 5302.96 518.403   5
   3   0   2 178664. 6429.47   1
   3   0   2 199109. 6732.02   4
   3   0   2 194980. 5228.58   5
   3   1 -13 26004.2 3611.85   6
   3   1 -12 33245.3 4002.65   6
   3   1 -11 25321.0 3324.45   6
   3   1 -10 15573.6 2458.83   6
   3   1  -9 1736.40 681.300   6
   3   1  -8 3461.99 1067.60   6
   3   1  -7 40436.6 3518.65   6
   3   1  -6 101655. 5589.19   6
   3   1  -1 57472.1 3092.87   1
   3   1  -1 64226.0 2478.17   4
   3   1   0 38796.7 2460.12   1
   3   1   0 46119.2 2056.04   4
   3   1   1 235817. 7122.32   4
   3   1   1 246349. 7773.37   1
   3   1   2 263236. 8015.35   4
   3   1   2 263407. 8264.16   1
   3   1   3 261108. 8305.04   1
   3   2 -12 28599.3 3730.87   6
   3   2 -11 15845.1 2720.25   6
   3   2 -10 3458.23 1186.69   6
   3   2  -9 9285.56 1938.66   6
   3   2  -8 49893.8 4384.97   6
   3   2  -7 101749. 6131.74   6
   3   2  -6 82699.8 5192.65   6
   3   2  -5 144010. 6796.42   6
   3   2  -4 114861. 5618.96   6
   3   2   0 65103.9 2298.26   4
   3   2   0 64050.7 3332.94   1
   3   2   1 269655. 8499.05   1
   3   2   1 260265. 7300.50   4
   3   2   2 144581. 5452.09   1
   3   2   3 601873. 16289.0   1
   3   3 -11 229.917 111.123   6
   3   3 -10 532.454 151.390   6
   3   3  -9 18021.8 2777.68   6
   3   3  -8 74019.1 5599.79   6
   3   3  -7 72548.7 5305.16   6
   3   3  -6 135123. 7228.62   6
   3   3  -5 187545. 8387.84   6
   3   3  -4 45802.3 3495.07   6
   3   3  -3 403.487 370.063   6
   3   3   1 152547. 4400.24   4
   3   3   5 8216.53 602.644   5
   3   3   6 4735.80 584.050   5
   3   3   7 19630.3 1518.30   5
   3   3   8 161081. 6188.98   5
   3   3  15 6657.03 2086.48   5
   3   3  16 46034.7 5813.45   5
   3   4 -10 17083.7 2919.80   6
   3   4  -9 42621.0 4582.96   6
   3   4  -8 119551. 7611.93   6
   3   4  -7 75575.0 5667.79   6
   3   4  -6 109871. 6694.36   6
   3   4  -5 43760.4 3831.14   6
   3   4  -4 870.423 586.106   6
   3   4  -3 14408.7 1914.09   6
   3   4  -2 18460.7 2027.77   6
   3   4   6 22558.5 1320.76   5
   3   4   7 125830. 4465.53   5
   3   4   8 198390. 6754.81   5
   3   4   9 187577. 7050.50   5
   3   4  10 201611. 8098.57   5
   3   4  11 81967.2 5129.15   5
   3   4  12 21024.7 2723.02   5
   3   4  13 1312.28 760.957   5
   3   4  14 3191.38 1200.42   5
   3   4  15 48862.4 5445.63   5
   3   4  16 29488.0 4477.85   5
   3   5  -9 51856.6 5203.91   6
   3   5  -8 73656.2 6054.09   6
   3   5  -7 64265.9 5420.91   6
   3   5  -6 49897.8 4546.54   6
   3   5  -5 3767.57 1117.29   6
   3   5  -4 5181.10 1237.50   6
   3   5  -3 52001.5 3943.54   6
   3   5  -2 120170. 6007.42   6
   3   5  -1 218660. 8334.99   6
   3   5   1 88798.4 2606.17   4
   3   5   8 159890. 5673.61   5
   3   5   9 179247. 6641.53   5
   3   5  10 89360.5 4614.15   5
   3   5  11 15733.0 1992.08   5
   3   5  12 4121.81 1143.58   5
   3   5  13 1757.89 856.634   5
   3   5  14 46201.2 4628.15   5
   3   5  15 68920.4 6232.05   5
   3   5  16 38730.8 4952.80   5
   3   6  -8 11676.0 2365.81   6
   3   6  -7 31526.4 3925.55   6
   3   6  -6 3477.77 1188.15   6
   3   6  -5 4514.71 1276.72   6
   3   6  -4 16710.9 2472.22   6
   3   6  -3 77172.4 5220.38   6
   3   6  -2 214553. 9121.17   6
   3   6  -1 172232. 7443.84   6
   3   6   0 105938. 5219.54   6
   3   6   1 76841.7 2474.59   4
   3   6   2 16599.0 1127.64   4
   3   6   9 77205.1 3810.59   5
   3   6  10 14084.1 1638.67   5
   3   6  11-18.1453 250.925   5
   3   6  12 15547.2 2106.18   5
   3   6  13 59320.7 4680.87   5
   3   6  14 81544.5 6024.87   5
   3   6  15 30887.9 3918.75   5
   3   6  16 35049.2 4522.82   5
   3   7  -7 5676.26 1764.54   6
   3   7  -6 11798.6 2361.25   6
   3   7  -5 28638.7 3581.98   6
   3   7  -4 48295.7 4523.56   6
   3   7  -3 101521. 6446.65   6
   3   7  -2 157375. 7882.47   6
   3   7  -1 85287.0 5231.61   6
   3   7   0 81945.8 4761.77   6
   3   7   1 39868.6 1751.68   4
   3   7   2 149.232 98.8744   4
   3   7   3 40869.6 2257.53   4
   3   7  11 7679.53 1287.64   5
   3   7  12 64904.8 4389.33   5
   3   7  13 74432.8 5175.15   5
   3   7  14 53923.0 4688.18   5
   3   7  15 47304.4 4792.69   5
   3   7  16 58172.8 5723.48   5
   3   8  -6 20548.7 3370.78   6
   3   8  -5 22485.8 3310.29   6
   3   8  -4 47007.0 4690.64   6
   3   8  -3 71120.3 5617.28   6
   3   8  -2 81878.9 5738.20   6
   3   8  -1 54587.2 4369.23   6
   3   8   0 22537.9 2505.39   6
   3   8   1 1548.81 627.133   6
   3   8   1 1501.33 337.219   4
   3   8   2 27851.5 1736.16   4
   3   8   3 65381.5 3127.80   4
   3   8   4 181664. 6525.96   4
   3   8   5 145434. 6048.00   4
   3   8  13 87808.3 5520.08   5
   3   8  14 34144.7 3586.09   5
   3   8  15 34753.2 3933.94   5
   3   8  16 11666.2 2401.29   5
   3   9  -5 27234.0 3896.03   6
   3   9  -4 61958.0 5760.73   6
   3   9  -3 28955.2 3693.75   6
   3   9  -2 9931.52 2080.69   6
   3   9  -1 5416.74 1382.04   6
   3   9   0 1277.55 552.483   6
   3   9   1 32689.1 3037.36   6
   3   9   1 32531.4 1874.78   4
   3   9   2 41332.8 2361.73   4
   3   9   3 146440. 5501.08   4
   3   9   4 173377. 6479.99   4
   3   9   5 147718. 6122.59   4
   3   9   6 57141.8 3688.09   4
   3  10  -4 34707.3 4477.60   6
   3  10  -3 7913.65 2079.26   6
   3  10  -2 2798.02 1220.50   6
   3  10  -1 913.652 461.101   6
   3  10   0 26005.9 3127.59   6
   3  10   1 79007.3 5313.14   6
   3  10   2 100039. 4305.96   4
   3  10   3 129335. 5303.99   4
   3  10   4 83116.5 4190.81   4
   3  10   5 33290.6 2630.71   4
   3  10   6 22211.0 2258.19   4
   3  10   7 1588.44 699.286   4
   3  10   8 23160.9 2606.46   4
   3  11  -3 2684.78 1351.49   6
   3  11  -2 1155.93 811.519   6
   3  11  -1 27531.4 3675.55   6
   3  11   0 52849.6 4812.60   6
   3  11   1 44246.8 4122.67   6
   3  11   3 24372.6 2162.76   4
   3  11   4 21945.0 2111.44   4
   3  11   5 11299.3 1562.90   4
   3  11   6 284.814 36.5228   4
   3  11   7 26283.3 2680.12   4
   3  11   8 43056.1 3734.24   4
   3  11   9 57463.0 4578.60   4
   3  11  10 94746.8 6368.99   4
   3  11  11 87255.6 6512.37   4
   3  12  -2 14578.5 2946.01   6
   3  12  -1 37307.3 4529.49   6
   3  12   0 49667.8 4957.91   6
   3  12   1 44567.7 4426.57   6
   3  12   5 424.774 250.201   4
   3  12   6 13696.9 1859.06   4
   3  12   7 75963.9 4885.71   4
   3  12   8 37803.8 3544.10   4
   3  12   9 75775.1 5365.55   4
   3  12  10 73677.1 5581.51   4
   3  12  11 28954.2 3596.27   4
   3  12  12 13892.4 2573.04   4
   3  12  13 1507.41 940.019   4
   3  13  -1 25269.3 3860.17   6
   3  13   0 37779.7 4543.11   6
   3  13   1 45470.8 4726.86   6
   3  13   7 54082.5 4142.72   4
   3  13   8 38748.2 3638.37   4
   3  13   9 53121.1 4514.33   4
   3  13  10 35361.5 3803.68   4
   3  13  11 7772.68 1878.84   4
   3  13  12 1920.02 827.647   4
   3  14   9 24232.5 3035.47   4
   3  14  10 2778.03 1139.22   4
   3  14  11-1527.27 814.251   4
   3  14  12 4986.27 1571.03   4
   4  -5  -4 52134.8 2860.43   1
   4  -5  -3 203641. 7091.06   1
   4  -4  -4 150371. 5660.47   1
   4  -4  -3 147417. 5669.90   1
   4  -3  -3 128222. 5220.23   1
   4  -3   0 10655.0 1268.55   5
   4  -3   1 113473. 4714.47   5
   4  -2  -1 445.264 156.223   5
   4  -2   0 45274.1 2557.38   5
   4  -2   1 45419.0 2482.79   5
   4  -1  -3 6379.35 1050.61   4
   4  -1  -2 819.996 300.273   4
   4  -1  -1 108961. 4776.80   4
   4  -1   0 70965.1 3160.74   5
   4  -1   1 116512. 4178.07   5
   4  -1   2 252076. 7356.03   5
   4   0  -2 26212.3 1975.25   4
   4   0  -1 120395. 4761.09   4
   4   0   0 127032. 5022.40   4
   4   0   1 258870. 8463.51   4
   4   0   2 282961. 7575.49   5
   4   0   3 113467. 3590.62   5
   4   1  -1 104861. 4008.39   4
   4   1   0 145650. 5164.08   4
   4   1   1 181267. 6205.47   4
   4   1   2 22238.1 1834.24   4
   4   1   3 65444.6 3647.30   4
   4   1   4 26070.8 1043.02   5
   4   2  -1 125254. 4185.73   4
   4   2   0 256653. 7351.52   4
   4   2   1 91575.9 3602.93   4
   4   2   2 5164.18 772.483   4
   4   3   0 171976. 4830.37   4
   4   3   1 20961.3 1315.29   4
   4   3   2 741.592 258.324   4
   4   3   7 154214. 4766.88   5
   4   3   8 190290. 6329.10   5
   4   3   9 27025.5 2218.80   5
   4   3  14 54753.2 5531.04   5
   4   4  -9 30067.0 3884.07   6
   4   4  -8 2759.65 1180.23   6
   4   4  -7 3239.27 1339.82   6
   4   4   1 5484.03 521.589   4
   4   4   8 2905.58 506.857   5
   4   4   9 7881.79 1011.48   5
   4   4  10 1260.10 452.815   5
   4   4  11 27740.8 2641.68   5
   4   4  12 100677. 5941.22   5
   4   4  13 78688.7 5758.82   5
   4   5  -8 4347.52 1430.51   6
   4   5  -7 6002.70 1537.12   6
   4   5  -6 24762.5 3255.02   6
   4   5  -5 127594. 7521.75   6
   4   5   9 2229.63 502.429   5
   4   5  10 33424.1 2380.84   5
   4   5  11 115851. 5497.51   5
   4   5  12 94289.0 5342.69   5
   4   5  13 64372.0 4778.15   5
   4   6  -7 14014.0 2674.09   6
   4   6  -6 71983.0 6000.90   6
   4   6  -5 83281.9 6196.63   6
   4   6  -4 56599.0 4792.26   6
   4   6   2 229081. 6293.07   4
   4   6  11 67584.0 3817.70   5
   4   6  12 62620.4 4047.97   5
   4   7  -6 64521.5 5867.59   6
   4   7  -5 29173.7 3792.91   6
   4   7  -4 20319.9 3008.76   6
   4   7  -3 14544.5 2376.64   6
   4   7   2 144959. 4194.58   4
   4   7   3 52784.8 2484.72   4
   4   8  -5 8392.38 2077.05   6
   4   8  -4 11723.3 2375.19   6
   4   8  -3 2264.85 1053.64   6
   4   8   2 57465.7 2104.49   4
   4   8   3 35482.9 1952.66   4
   4   8   4 22735.0 1806.62   4
   4   9  -4 149.879 660.556   6
   4   9  -3 21341.0 3234.96   6
   4   9  -2 57114.3 5130.04   6
   4   9   3 25835.4 1678.57   4
   4   9   4 137.857 99.8432   4
   4   9   5 22889.1 2060.17   4
   4   9   6 33881.5 2748.65   4
   4  10  -3 29520.2 4016.95   6
   4  10  -2 41935.5 4627.49   6
   4  10   5 34561.6 2563.12   4
   4  10   6 56667.8 3639.86   4
   4  10   7 117161. 5980.24   4
   4  11  -2 47734.6 5218.43   6
   4  11   6 109507. 5381.81   4
   4  11   7 120867. 6109.45   4
   4  11   8 19088.0 2377.94   4
   4  11   9 6230.35 1405.61   4
   4  12   8 4229.08 1151.30   4
   4  12   9 1569.47 696.074   4
   4  12  10 4636.19 1403.07   4
   4  12  11 45436.3 4571.42   4
   4  12  12 27946.7 3687.44   4
   4  13  10 31270.3 3483.37   4
   4  13  11 40000.5 4252.22   4
   4  13  12 24892.3 3478.66   4
   5  -2   0 144677. 5668.49   5
   5  -2   1 66364.2 3349.91   5
   5  -2   2 22295.1 1766.38   5
   5  -2   3 4536.00 758.706   5
   5  -1   2 3768.00 614.665   5
   5  -1   3 5895.23 757.860   5
   5   0  -2 84489.0 4253.68   4
   5   0   3 70186.8 2663.71   5
   5   0   4 86909.8 3070.67   5
   5   1  -1 1211.39 420.483   4
   5   1   0 4805.95 837.946   4
   5   1   1 7253.09 1037.80   4
   5   2  -1 3439.88 698.382   4
   5   2   0 2583.31 517.146   4
   5   2   1 46041.0 2636.64   4
   5   2   2 108296. 4677.58   4
   5   2   7 1164.30 244.866   5
   5   3   0 61397.8 2606.67   4
   5   3   1 164995. 5511.21   4
   5   3   2 90833.6 3912.12   4
   5   3   3 102340. 4571.19   4
   5   4   1 174631. 5218.76   4
   5   4   2 87563.7 3528.11   4
   5   4   3 136207. 5190.64   4
   5   5   2 98788.4 3468.52   4
   5   5   3 80684.6 3483.32   4
   5   6   2 19434.7 966.319   4
   5   6   3 10400.0 973.065   4
   5   7   3 14052.2 1104.60   4
   5   8   4 31011.7 2047.68   4
   5  10   7 9869.06 1617.43   4
   5  11   9 29542.0 3246.92   4
   0   0   0    0.00    0.00   0
TITL S382 in P1
REM P1 (#1 in standard setting)
CELL 0.71073   6.598032  11.288791  12.435182  66.9604  78.3054  81.5806
ZERR    2.00   0.000308   0.000568   0.000582   0.0047   0.0042   0.0040
LATT -1
SFAC C H O S Pb
UNIT 24.00 24.00 8.00 4.00 4.00
TREF
HKLF 4
END
;
_shelx_hkl_checksum              63935
loop_
_space_group_symop_operation_xyz
'x, y, z'
'-x, -y, -z'
loop_
_atom_site_label
_atom_site_type_symbol
_atom_site_fract_x
_atom_site_fract_y
_atom_site_fract_z
_atom_site_U_iso_or_equiv
_atom_site_adp_type
_atom_site_occupancy
_atom_site_site_symmetry_order
_atom_site_calc_flag
_atom_site_refinement_flags_posn
_atom_site_refinement_flags_adp
_atom_site_refinement_flags_occupancy
_atom_site_disorder_assembly
_atom_site_disorder_group
Pb1 Pb 0.23482(3) 0.56296(2) 0.56003(2) 0.01418(9) Uani 1 1 d . . . . .
O3 O 0.4010(7) 0.5998(5) 0.3384(4) 0.0194(10) Uani 1 1 d . . . . .
O4 O 0.0591(7) 0.6150(4) 0.3924(4) 0.0164(9) Uani 1 1 d . . . . .
O1 O 0.5843(7) 0.6860(4) 0.4988(4) 0.0187(9) Uani 1 1 d . . . . .
O2 O 0.2785(7) 0.7919(5) 0.4635(4) 0.0194(9) Uani 1 1 d . . . . .
C10 C 0.3594(10) 0.6178(7) 0.1123(6) 0.0196(13) Uani 1 1 d . . . . .
H10 H 0.4890 0.5903 0.1357 0.023 Uiso 1 1 calc R U . . .
C9 C 0.1883(10) 0.6391(6) 0.1921(6) 0.0156(12) Uani 1 1 d . . . . .
C1 C 0.4742(10) 0.7873(6) 0.4552(6) 0.0164(12) Uani 1 1 d . . . . .
C4 C 0.8918(10) 1.0228(7) 0.2955(6) 0.0180(13) Uani 1 1 d . . . . .
H4 H 1.0354 1.0210 0.2740 0.022 Uiso 1 1 calc R U . . .
C7 C 0.4601(10) 1.0308(7) 0.3594(6) 0.0198(13) Uani 1 1 d . . . . .
H7 H 0.3165 1.0330 0.3807 0.024 Uiso 1 1 calc R U . . .
C5 C 0.7716(9) 1.1391(6) 0.2654(5) 0.0137(12) Uani 1 1 d . . . . .
C6 C 0.5555(10) 1.1436(7) 0.2987(6) 0.0179(13) Uani 1 1 d . . . . .
H6 H 0.4775 1.2225 0.2797 0.022 Uiso 1 1 calc R U . . .
C13 C -0.0319(10) 0.7027(7) 0.0432(6) 0.0188(13) Uani 1 1 d . . . . .
H13 H -0.1618 0.7304 0.0203 0.023 Uiso 1 1 calc R U . . .
C14 C -0.0030(10) 0.6815(6) 0.1564(6) 0.0180(13) Uani 1 1 d . . . . .
H14 H -0.1150 0.6961 0.2097 0.022 Uiso 1 1 calc R U . . .
C3 C 0.7942(10) 0.9092(7) 0.3582(6) 0.0183(13) Uani 1 1 d . . . . .
H3 H 0.8731 0.8306 0.3797 0.022 Uiso 1 1 calc R U . . .
C8 C 0.2217(9) 0.6178(6) 0.3135(5) 0.0139(12) Uani 1 1 d . . . . .
C11 C 0.3339(10) 0.6380(7) -0.0010(6) 0.0193(13) Uani 1 1 d . . . . .
H11 H 0.4457 0.6227 -0.0541 0.023 Uiso 1 1 calc R U . . .
C2 C 0.5789(10) 0.9119(6) 0.3893(6) 0.0166(12) Uani 1 1 d . . . . .
OW1 O -0.1109(7) 0.6534(5) 0.6198(4) 0.0217(10) Uani 1 1 d D . . . .
C12 C 0.1382(10) 0.6818(6) -0.0358(6) 0.0169(12) Uani 1 1 d . . . . .
S1 S 0.1108(2) 0.71449(15) -0.18362(14) 0.0149(3) Uani 1 1 d . . . . .
O5 O 0.2312(7) 0.6153(4) -0.2196(4) 0.0183(9) Uani 1 1 d . . . . .
O6 O -0.1087(7) 0.7365(5) -0.1917(4) 0.0174(9) Uani 1 1 d . . . . .
C001 C -0.5000 1.0000 0.0000 0.027(2) Uani 1 2 d S . P . .
C004 C -0.284(3) 1.004(2) 0.044(2) 0.116(7) Uani 1 1 d . . . . .
C005 C -0.491(3) 0.945(3) 0.1208(19) 0.146(10) Uani 1 1 d . . . . .
C002 C -0.1652(17) 1.0355(14) -0.0754(13) 0.068(3) Uani 1 1 d . . . . .
C003 C -0.645(4) 0.9633(19) 0.089(2) 0.139(9) Uani 1 1 d . . . . .
H001 H -0.209(12) 0.681(7) 0.584(7) 0.014(18) Uiso 1 1 d . . . . .
H002 H -0.141(15) 0.637(9) 0.693(2) 0.04(3) Uiso 1 1 d D . . . .
loop_
_atom_site_aniso_label
_atom_site_aniso_U_11
_atom_site_aniso_U_22
_atom_site_aniso_U_33
_atom_site_aniso_U_23
_atom_site_aniso_U_13
_atom_site_aniso_U_12
Pb1 0.01309(13) 0.01676(14) 0.01441(14) -0.00660(11) -0.00483(9) -0.00049(9)
O3 0.016(2) 0.026(3) 0.018(2) -0.009(2) -0.0063(17) 0.0008(19)
O4 0.018(2) 0.018(2) 0.015(2) -0.008(2) -0.0035(17) -0.0012(18)
O1 0.019(2) 0.017(2) 0.021(2) -0.006(2) -0.0072(18) -0.0032(19)
O2 0.017(2) 0.022(2) 0.019(2) -0.008(2) -0.0056(18) 0.0020(19)
C10 0.018(3) 0.026(3) 0.018(3) -0.013(3) -0.004(2) 0.004(3)
C9 0.019(3) 0.015(3) 0.014(3) -0.005(3) -0.008(2) 0.000(2)
C1 0.018(3) 0.018(3) 0.015(3) -0.005(3) -0.011(2) -0.001(3)
C4 0.017(3) 0.024(3) 0.017(3) -0.013(3) -0.002(2) -0.002(3)
C7 0.018(3) 0.025(3) 0.021(3) -0.014(3) -0.004(2) 0.004(3)
C5 0.016(3) 0.018(3) 0.008(3) -0.006(3) -0.005(2) -0.001(2)
C6 0.019(3) 0.017(3) 0.018(3) -0.008(3) -0.003(2) 0.001(3)
C13 0.014(3) 0.028(4) 0.020(3) -0.014(3) -0.006(2) 0.001(3)
C14 0.018(3) 0.019(3) 0.018(3) -0.009(3) -0.001(2) -0.002(3)
C3 0.018(3) 0.022(3) 0.016(3) -0.010(3) -0.004(2) 0.002(3)
C8 0.019(3) 0.013(3) 0.009(3) -0.002(2) -0.002(2) -0.004(2)
C11 0.016(3) 0.022(3) 0.020(3) -0.011(3) -0.002(2) 0.005(3)
C2 0.019(3) 0.019(3) 0.012(3) -0.004(3) -0.005(2) -0.004(3)
OW1 0.018(2) 0.034(3) 0.017(3) -0.013(2) -0.0097(19) 0.005(2)
C12 0.023(3) 0.016(3) 0.014(3) -0.006(3) -0.005(2) -0.001(3)
S1 0.0167(7) 0.0162(7) 0.0141(7) -0.0066(6) -0.0056(5) -0.0010(6)
O5 0.023(2) 0.019(2) 0.015(2) -0.007(2) -0.0086(18) 0.0015(19)
O6 0.014(2) 0.024(2) 0.015(2) -0.006(2) -0.0063(16) -0.0024(18)
C001 0.017(5) 0.028(6) 0.023(6) 0.000(5) 0.007(4) -0.002(4)
C004 0.072(10) 0.115(15) 0.17(2) -0.054(15) -0.049(12) 0.003(10)
C005 0.094(13) 0.25(3) 0.110(17) -0.059(18) -0.050(12) -0.044(16)
C002 0.038(6) 0.082(9) 0.089(10) -0.039(8) 0.000(6) -0.013(6)
C003 0.17(2) 0.103(15) 0.20(2) -0.079(17) -0.140(19) 0.030(14)
loop_
_atom_type_symbol
_atom_type_description
_atom_type_scat_dispersion_real
_atom_type_scat_dispersion_imag
_atom_type_scat_source
C C 0.0033 0.0016 'International Tables Vol C Tables 4.2.6.8 and 6.1.1.4'
H H 0.0000 0.0000 'International Tables Vol C Tables 4.2.6.8 and 6.1.1.4'
O O 0.0106 0.0060 'International Tables Vol C Tables 4.2.6.8 and 6.1.1.4'
S S 0.1246 0.1234 'International Tables Vol C Tables 4.2.6.8 and 6.1.1.4'
Pb Pb -3.3944 10.1111 'International Tables Vol C Tables 4.2.6.8 and 6.1.1.4'
loop_
_geom_angle_atom_site_label_1
_geom_angle_atom_site_label_2
_geom_angle_atom_site_label_3
_geom_angle
_geom_angle_site_symmetry_1
_geom_angle_site_symmetry_3
O2 Pb1 O4 79.69(15) . .
O2 Pb1 OW1 78.94(17) . .
O4 Pb1 OW1 75.85(15) . .
O2 Pb1 O3 74.38(15) . .
O4 Pb1 O3 51.81(14) . .
OW1 Pb1 O3 124.16(15) . .
O2 Pb1 O1 51.24(14) . .
O4 Pb1 O1 111.77(15) . .
OW1 Pb1 O1 124.42(16) . .
O3 Pb1 O1 69.50(14) . .
C8 O3 Pb1 88.7(4) . .
C8 O4 Pb1 98.0(4) . .
C1 O1 Pb1 86.4(4) . .
C1 O2 Pb1 98.4(4) . .
C11 C10 C9 119.5(6) . .
C11 C10 H10 120.2 . .
C9 C10 H10 120.2 . .
C14 C9 C10 119.9(6) . .
C14 C9 C8 121.9(6) . .
C10 C9 C8 118.2(6) . .
O1 C1 O2 123.8(6) . .
O1 C1 C2 118.4(5) . .
O2 C1 C2 117.8(6) . .
C3 C4 C5 118.8(6) . .
C3 C4 H4 120.6 . .
C5 C4 H4 120.6 . .
C6 C7 C2 120.1(6) . .
C6 C7 H7 120.0 . .
C2 C7 H7 120.0 . .
C4 C5 C6 121.3(6) . .
C4 C5 S1 120.3(5) . 2_675
C6 C5 S1 118.4(5) . 2_675
C7 C6 C5 119.5(6) . .
C7 C6 H6 120.3 . .
C5 C6 H6 120.3 . .
C14 C13 C12 118.4(6) . .
C14 C13 H13 120.8 . .
C12 C13 H13 120.8 . .
C13 C14 C9 121.5(6) . .
C13 C14 H14 119.2 . .
C9 C14 H14 119.2 . .
C4 C3 C2 120.6(6) . .
C4 C3 H3 119.7 . .
C2 C3 H3 119.7 . .
O3 C8 O4 121.5(6) . .
O3 C8 C9 120.8(6) . .
O4 C8 C9 117.6(5) . .
C10 C11 C12 119.7(6) . .
C10 C11 H11 120.2 . .
C12 C11 H11 120.2 . .
C3 C2 C7 119.7(6) . .
C3 C2 C1 120.0(6) . .
C7 C2 C1 120.3(6) . .
Pb1 OW1 H001 130(5) . .
Pb1 OW1 H002 114(7) . .
H001 OW1 H002 114(8) . .
C13 C12 C11 120.9(6) . .
C13 C12 S1 120.0(5) . .
C11 C12 S1 119.1(5) . .
O5 S1 O6 118.6(3) . .
O5 S1 C5 108.2(3) . 2_675
O6 S1 C5 108.6(3) . 2_675
O5 S1 C12 108.3(3) . .
O6 S1 C12 108.2(3) . .
C5 S1 C12 103.9(3) 2_675 .
C003 C001 C003 180.0(16) . 2_475
C003 C001 C005 49.6(10) . .
C003 C001 C005 130.4(10) 2_475 .
C003 C001 C005 130.4(10) . 2_475
C003 C001 C005 49.6(10) 2_475 2_475
C005 C001 C005 180.0(16) . 2_475
C003 C001 C004 69.7(11) . 2_475
C003 C001 C004 110.3(11) 2_475 2_475
C005 C001 C004 118.1(11) . 2_475
C005 C001 C004 61.9(11) 2_475 2_475
C003 C001 C004 110.3(11) . .
C003 C001 C004 69.7(11) 2_475 .
C005 C001 C004 61.9(11) . .
C005 C001 C004 118.1(11) 2_475 .
C004 C001 C004 180.0 2_475 .
C002 C004 C005 141.2(16) . .
C002 C004 C001 92.7(12) . .
C005 C004 C001 51.3(8) . .
C002 C004 C003 47.7(12) . 2_475
C005 C004 C003 96.0(14) . 2_475
C001 C004 C003 45.2(10) . 2_475
C003 C005 C001 60.1(17) . .
C003 C005 C004 125(3) . .
C001 C005 C004 66.7(13) . .
C003 C002 C004 75.6(14) 2_475 .
C005 C003 C001 70.3(19) . .
C005 C003 C002 167(3) . 2_475
C001 C003 C002 121.4(17) . 2_475
C005 C003 C004 134(3) . 2_475
C001 C003 C004 65.1(13) . 2_475
C002 C003 C004 56.7(10) 2_475 2_475
loop_
_geom_bond_atom_site_label_1
_geom_bond_atom_site_label_2
_geom_bond_distance
_geom_bond_site_symmetry_2
Pb1 O2 2.420(5) .
Pb1 O4 2.420(4) .
Pb1 OW1 2.454(5) .
Pb1 O3 2.642(5) .
Pb1 O1 2.688(5) .
O3 C8 1.251(7) .
O4 C8 1.293(7) .
O1 C1 1.250(8) .
O2 C1 1.269(8) .
C10 C11 1.377(9) .
C10 C9 1.404(9) .
C10 H10 0.9300 .
C9 C14 1.380(9) .
C9 C8 1.489(8) .
C1 C2 1.509(9) .
C4 C3 1.386(10) .
C4 C5 1.387(9) .
C4 H4 0.9300 .
C7 C6 1.370(10) .
C7 C2 1.405(9) .
C7 H7 0.9300 .
C5 C6 1.401(9) .
C5 S1 1.763(7) 2_675
C6 H6 0.9300 .
C13 C14 1.380(9) .
C13 C12 1.392(9) .
C13 H13 0.9300 .
C14 H14 0.9300 .
C3 C2 1.394(9) .
C3 H3 0.9300 .
C11 C12 1.404(9) .
C11 H11 0.9300 .
OW1 H001 0.82(8) .
OW1 H002 0.84(2) .
C12 S1 1.770(6) .
S1 O5 1.440(5) .
S1 O6 1.450(4) .
S1 C5 1.763(7) 2_675
C001 C003 1.28(3) .
C001 C003 1.28(3) 2_475
C001 C005 1.39(2) .
C001 C005 1.39(2) 2_475
C001 C004 1.638(17) 2_475
C001 C004 1.638(17) .
C004 C002 1.46(3) .
C004 C005 1.57(3) .
C004 C003 1.69(3) 2_475
C005 C003 1.13(2) .
C002 C003 1.29(2) 2_475
C003 C002 1.29(2) 2_475
C003 C004 1.69(3) 2_475
