#------------------------------------------------------------------------------
#$Date: 2021-03-25 11:50:10 +0200 (Thu, 25 Mar 2021) $
#$Revision: 263316 $
#$URL: file:///home/coder/svn-repositories/cod/cif/1/56/12/1561252.cif $
#------------------------------------------------------------------------------
#
# This file is available in the Crystallography Open Database (COD),
# http://www.crystallography.net/
#
# All data on this site have been placed in the public domain by the
# contributors.
#
data_1561252
loop_
_publ_author_name
'Xu, Ning'
'Li, Yanyan'
'Cheng, Qian'
'Zhang, Guoan'
_publ_section_title
;
 Structures and properties of two coordination polymers constructed by the
 semirigid bi-functional 5-((1-methyl-1H-tetrazol-5-yl)thio)isophthalic
 acid ligand
;
_journal_name_full               'Journal of Solid State Chemistry'
_journal_page_first              453
_journal_page_last               459
_journal_paper_doi               10.1016/j.jssc.2017.11.007
_journal_volume                  258
_journal_year                    2018
_chemical_formula_sum            'C10 H8 Cd N4 O5 S'
_chemical_formula_weight         408.66
_space_group_crystal_system      triclinic
_space_group_IT_number           2
_space_group_name_Hall           '-P 1'
_space_group_name_H-M_alt        'P -1'
_atom_sites_solution_hydrogens   mixed
_cell_angle_alpha                113.1960(10)
_cell_angle_beta                 104.0430(10)
_cell_angle_gamma                102.8260(10)
_cell_formula_units_Z            2
_cell_length_a                   8.1568(8)
_cell_length_b                   9.2652(9)
_cell_length_c                   10.2933(10)
_cell_measurement_reflns_used    7548
_cell_measurement_temperature    298(2)
_cell_measurement_theta_max      32.05
_cell_measurement_theta_min      2.32
_cell_volume                     648.18(11)
_computing_structure_refinement  'SHELXL-2014/7 (Sheldrick, 2014)'
_diffrn_ambient_temperature      298(2)
_diffrn_measured_fraction_theta_full 0.982
_diffrn_measured_fraction_theta_max 0.978
_diffrn_measurement_device_type  CCD
_diffrn_radiation_type           MoK\a
_diffrn_radiation_wavelength     0.71073
_diffrn_reflns_av_R_equivalents  0.0224
_diffrn_reflns_av_unetI/netI     0.0284
_diffrn_reflns_Laue_measured_fraction_full 0.982
_diffrn_reflns_Laue_measured_fraction_max 0.978
_diffrn_reflns_limit_h_max       10
_diffrn_reflns_limit_h_min       -11
_diffrn_reflns_limit_k_max       12
_diffrn_reflns_limit_k_min       -12
_diffrn_reflns_limit_l_max       14
_diffrn_reflns_limit_l_min       -14
_diffrn_reflns_number            7601
_diffrn_reflns_point_group_measured_fraction_full 0.982
_diffrn_reflns_point_group_measured_fraction_max 0.978
_diffrn_reflns_theta_full        25.242
_diffrn_reflns_theta_max         28.999
_diffrn_reflns_theta_min         2.315
_exptl_absorpt_coefficient_mu    1.874
_exptl_absorpt_correction_type   multi-scan
_exptl_absorpt_process_details   sadabs
_exptl_crystal_colour            colorless
_exptl_crystal_density_diffrn    2.094
_exptl_crystal_description       block
_exptl_crystal_F_000             400
_exptl_crystal_size_max          0.100
_exptl_crystal_size_mid          0.100
_exptl_crystal_size_min          0.100
_exptl_transmission_factor_max   0.864
_exptl_transmission_factor_min   0.864
_refine_diff_density_max         0.545
_refine_diff_density_min         -0.579
_refine_diff_density_rms         0.097
_refine_ls_extinction_coef       0.073(2)
_refine_ls_extinction_expression Fc^*^=kFc[1+0.001xFc^2^\l^3^/sin(2\q)]^-1/4^
_refine_ls_extinction_method     'SHELXL-2014/7 (Sheldrick 2014'
_refine_ls_goodness_of_fit_ref   1.169
_refine_ls_hydrogen_treatment    constr
_refine_ls_matrix_type           full
_refine_ls_number_parameters     192
_refine_ls_number_reflns         3365
_refine_ls_number_restraints     0
_refine_ls_restrained_S_all      1.169
_refine_ls_R_factor_all          0.0209
_refine_ls_R_factor_gt           0.0204
_refine_ls_shift/su_max          0.001
_refine_ls_shift/su_mean         0.000
_refine_ls_structure_factor_coef Fsqd
_refine_ls_weighting_details
'w=1/[\s^2^(Fo^2^)+(0.0233P)^2^+0.3363P] where P=(Fo^2^+2Fc^2^)/3'
_refine_ls_weighting_scheme      calc
_refine_ls_wR_factor_gt          0.0558
_refine_ls_wR_factor_ref         0.0562
_reflns_Friedel_coverage         0.000
_reflns_Friedel_fraction_full    .
_reflns_Friedel_fraction_max     .
_reflns_number_gt                3296
_reflns_number_total             3365
_reflns_threshold_expression     'I > 2\s(I)'
_cod_data_source_file            JSSC-2018-258-453.cif
_cod_data_source_block           compound1
_cod_database_code               1561252
_shelx_space_group_comment
;
The symmetry employed for this shelxl refinement is uniquely defined
by the following loop, which should always be used as a source of
symmetry information in preference to the above space-group names.
They are only intended as comments.
;
_shelx_estimated_absorpt_t_min   0.835
_shelx_estimated_absorpt_t_max   0.835
_shelx_res_file
;

    mo_161209A_0m.res created by SHELXL-2014/7

TITL mo_161209A_0m in P-1
CELL 0.71073   8.1568   9.2652  10.2933 113.196 104.043 102.826
ZERR    2.00   0.0008   0.0009   0.0010   0.001   0.001   0.001
LATT 1
SFAC C  H  N  O  S  Cd
UNIT 20 16 8 10 2 2
OMIT -5 0 6
OMIT 2 -5 6
OMIT -2 2 6
OMIT -3 3 0
OMIT 4 0 2
OMIT 0 5 1
OMIT 3 1 1
OMIT 3 -6 2
OMIT -2 0 4
OMIT 0 4 2
OMIT  -3.00  58.00
L.S. 40
ACTA
BOND $H
FMAP 2
PLAN 20
size 0.10 0.10 0.10
conf
FREE Cd1  C1
TEMP 25.000
WGHT    0.023300    0.336300
EXTI    0.073224
FVAR       0.24629
C1    1    0.719331    0.076681   -0.131613    11.00000    0.02312    0.01814 =
         0.01820    0.00352    0.00342    0.00335
C2    1    0.815425    0.254252   -0.004461    11.00000    0.01963    0.01680 =
         0.01660    0.00415    0.00489    0.00408
C3    1    0.968385    0.293665    0.116412    11.00000    0.02034    0.01545 =
         0.01841    0.00630    0.00520    0.00562
AFIX  43
H3    2    1.010177    0.209541    0.120968    11.00000   -1.20000
AFIX   0
C4    1    1.059672    0.459895    0.231367    11.00000    0.01755    0.01735 =
         0.01568    0.00564    0.00308    0.00486
C5    1    0.999411    0.586265    0.222675    11.00000    0.02048    0.01628 =
         0.01767    0.00503    0.00336    0.00519
AFIX  43
H5    2    1.063235    0.697742    0.296205    11.00000   -1.20000
AFIX   0
C6    1    0.842890    0.544546    0.103095    11.00000    0.02198    0.02062 =
         0.01816    0.00916    0.00657    0.01056
C7    1    0.749995    0.379693   -0.011500    11.00000    0.01860    0.02415 =
         0.01853    0.00823    0.00457    0.00779
AFIX  43
H7    2    0.646174    0.353080   -0.091495    11.00000   -1.20000
AFIX   0
C8    1    1.226610    0.507278    0.363585    11.00000    0.01790    0.02185 =
         0.01899    0.00651    0.00318    0.00715
C9    1    0.748529    0.795654    0.266585    11.00000    0.02248    0.02070 =
         0.02360    0.01031    0.00842    0.01061
C10   1    0.864283    1.098794    0.322185    11.00000    0.04076    0.02332 =
         0.04746    0.01975    0.02027    0.00913
AFIX 137
H10A  2    0.764420    1.110490    0.260419    11.00000   -1.50000
H10B  2    0.944722    1.074643    0.269132    11.00000   -1.50000
H10C  2    0.928047    1.201474    0.416066    11.00000   -1.50000
AFIX   0
CD1   6    0.572459   -0.232559   -0.366337    11.00000    0.01942    0.01686 =
         0.01731    0.00418    0.00118    0.00443
N1    3    0.796916    0.961715    0.353995    11.00000    0.02472    0.02010 =
         0.02625    0.01078    0.01030    0.00980
N2    3    0.764997    0.988509    0.481892    11.00000    0.03296    0.02499 =
         0.02645    0.00961    0.01247    0.01121
N3    3    0.701622    0.841717    0.470742    11.00000    0.03660    0.02503 =
         0.02694    0.01190    0.01504    0.01256
N4    3    0.687316    0.717556    0.337789    11.00000    0.03867    0.02243 =
         0.02719    0.01234    0.01521    0.01185
O1    4    0.797219   -0.026807   -0.140463    11.00000    0.03985    0.02272 =
         0.04263   -0.00356   -0.01103    0.01350
O2    4    0.567555    0.038401   -0.225563    11.00000    0.02971    0.02596 =
         0.03618   -0.00258   -0.00940    0.00712
O3    4    1.258397    0.394274    0.391172    11.00000    0.03704    0.02970 =
         0.03438    0.01231    0.00190    0.01812
O4    4    1.319092    0.661395    0.441469    11.00000    0.02985    0.02477 =
         0.03749    0.01071   -0.01265   -0.00145
O5    4    0.426577   -0.358374   -0.250063    11.00000    0.07805    0.03348 =
         0.04124    0.01461    0.03131    0.00286
AFIX   3
H5A   2    0.407557   -0.459584   -0.280473    11.00000   -1.50000
H5B   2    0.452807   -0.310394   -0.158443    11.00000   -1.50000
AFIX   0
S1    5    0.767510    0.706578    0.089990    11.00000    0.04057    0.03014 =
         0.02262    0.01529    0.01373    0.02257
HKLF 4

REM  mo_161209A_0m in P-1
REM R1 =  0.0204 for    3296 Fo > 4sig(Fo)  and  0.0209 for all    3365 data
REM    192 parameters refined using      0 restraints

END

WGHT      0.0227      0.3338

REM Highest difference peak  0.545,  deepest hole -0.579,  1-sigma level  0.097
Q1    1   0.5260 -0.3039 -0.4420  11.00000  0.05    0.54
Q2    1   0.6190 -0.1602 -0.2775  11.00000  0.05    0.48
Q3    1   1.3085  0.4107  0.3481  11.00000  0.05    0.46
Q4    1   1.0115  0.3827  0.1710  11.00000  0.05    0.38
Q5    1   0.5672 -0.2676 -0.2997  11.00000  0.05    0.36
Q6    1   1.0382  0.5199  0.2169  11.00000  0.05    0.34
Q7    1   0.8113  1.0564  0.2442  11.00000  0.05    0.33
Q8    1   0.8056  0.6033  0.0907  11.00000  0.05    0.33
Q9    1   0.8294  1.1714  0.3444  11.00000  0.05    0.33
Q10   1   1.1369  0.4840  0.2931  11.00000  0.05    0.32
Q11   1   0.7747  0.9783  0.4090  11.00000  0.05    0.31
Q12   1   1.2226  0.4195  0.5033  11.00000  0.05    0.30
Q13   1   0.5653 -0.1827 -0.4061  11.00000  0.05    0.28
Q14   1   0.7940  0.4668  0.0557  11.00000  0.05    0.28
Q15   1   0.8160  1.0276  0.3345  11.00000  0.05    0.28
Q16   1   0.7496  0.8432  0.0166  11.00000  0.05    0.27
Q17   1   0.5443  0.1268 -0.3853  11.00000  0.05    0.27
Q18   1   1.0000  0.5000  0.0000  10.50000  0.05    0.27
Q19   1   0.7681  0.3236  0.0058  11.00000  0.05    0.27
Q20   1   0.8684 -0.1214 -0.2237  11.00000  0.05    0.26
;
_shelx_res_checksum              95491
_shelx_hkl_file
;
  -1   0   0  115.90    3.31
  -2   0   0  113.34    3.24
  -2   0   0  115.65    4.29
  -2   0   0  113.88    3.26
   2   0   0  111.55    4.02
  -3   0   0   14.94    0.58
  -3   0   0   14.70    0.49
  -3   0   0   14.83    0.46
   3   0   0   14.86    0.56
  -4   0   0   70.72    2.03
  -4   0   0   70.42    2.07
  -4   0   0   68.86    2.65
  -5   0   0  155.73    4.33
  -5   0   0  144.21    5.67
  -5   0   0  155.45    4.39
   5   0   0  148.10    5.32
  -6   0   0  160.55    4.69
  -6   0   0  163.30    4.61
   6   0   0  157.44    5.67
  -7   0   0   77.52    2.27
  -7   0   0   76.55    2.36
   7   0   0   77.02    2.77
  -8   0   0   37.83    1.29
  -8   0   0   39.09    1.20
  -9   0   0   21.86    0.83
  -9   0   0   20.90    0.72
 -10   0   0    2.47    0.27
 -10   0   0    2.31    0.18
 -10   1   0   40.75    1.41
 -10   1   0   40.05    1.28
  -9   1   0   14.90    0.64
  -9   1   0   14.48    0.53
  -8   1   0    0.17    0.07
  -8   1   0    0.26    0.12
   7  -1   0    3.03    0.18
  -7   1   0    4.31    0.19
  -7   1   0    4.32    0.26
   6  -1   0   27.04    0.99
  -6   1   0   26.48    1.03
  -5   1   0  191.06    7.19
   4  -1   0  212.94    7.58
  -4   1   0  216.81    8.09
   2  -1   0  239.65    9.17
  -2   1   0  254.78   10.09
  -2   1   0  260.79    7.49
  -2   1   0  282.66    7.40
   1  -1   0  105.92    3.69
  -1   1   0   98.90    2.98
  -1   1   0  104.91    3.95
  -1   1   0  106.89    2.98
   0   1   0    0.00    0.02
   0   1   0   -0.02    0.01
   1   1   0  301.27   10.76
   1   1   0  282.90   11.19
  -2  -1   0  130.22    3.74
  -2  -1   0  132.77    3.71
   2   1   0  128.13    4.61
  -3  -1   0  143.72    4.14
  -3  -1   0  143.74    4.10
  -4  -1   0  131.05    3.68
  -4  -1   0  130.26    3.73
  -4  -1   0  127.69    4.84
   4   1   0  124.54    4.54
  -5  -1   0   95.20    3.64
  -5  -1   0   98.13    2.85
  -5  -1   0   97.58    2.79
   5   1   0   94.65    3.43
  -6  -1   0    4.73    0.26
  -6  -1   0    4.38    0.20
   6   1   0    4.59    0.23
  -7  -1   0   13.38    0.47
  -7  -1   0   13.95    0.56
   7   1   0   13.28    0.55
  -8  -1   0   14.45    0.59
  -8  -1   0   13.28    0.49
  -9  -1   0   21.39    0.73
  -9  -1   0   22.08    0.84
 -10  -1   0   13.53    0.63
 -10  -1   0   13.70    0.52
 -11   2   0    0.96    0.20
 -11   2   0    0.69    0.12
 -10   2   0    4.83    0.26
 -10   2   0    4.90    0.35
  -9   2   0   29.45    0.94
  -9   2   0   28.85    1.05
  -8   2   0   38.33    1.19
  -8   2   0   38.65    1.29
   7  -2   0   54.34    2.02
  -7   2   0   58.04    1.76
  -7   2   0   55.89    1.67
   6  -2   0   76.05    2.71
   5  -2   0   14.33    0.57
  -5   2   0   15.37    0.54
  -5   2   0   14.69    0.59
  -5   2   0   15.82    0.49
   4  -2   0    0.23    0.05
  -4   2   0    0.18    0.04
  -4   2   0    0.05    0.04
  -4   2   0    0.06    0.06
   2  -2   0  323.02   10.79
  -2   2   0  311.14    8.72
  -2   2   0  305.78   11.55
  -2   2   0  285.21    8.84
  -1   2   0  299.48    8.42
  -1   2   0  283.25   10.93
  -1   2   0  287.29    8.33
   0   2   0  239.29    6.20
   0   2   0  187.95    8.52
   1   2   0  234.73    7.85
   1   2   0  209.94    8.39
  -2  -2   0    2.14    0.11
  -2  -2   0    2.13    0.09
   2   2   0    2.58    0.12
  -3  -2   0   26.93    0.85
  -3  -2   0   27.41    0.82
   3   2   0   27.98    1.01
  -4  -2   0   20.80    0.64
  -4  -2   0   21.30    0.69
   4   2   0   20.46    0.78
  -5  -2   0   40.31    1.26
  -5  -2   0   39.83    1.54
  -5  -2   0   40.00    1.19
   5   2   0   39.42    1.46
  -6  -2   0   58.05    1.78
  -6  -2   0   57.14    1.70
   6   2   0   56.44    2.08
  -7  -2   0   67.11    1.98
  -7  -2   0   66.32    2.07
   7   2   0   67.03    2.43
  -8  -2   0   23.58    0.88
  -8  -2   0   24.06    0.78
  -9  -2   0    2.54    0.18
  -9  -2   0    2.37    0.26
 -10  -2   0    0.35    0.17
 -10  -2   0    0.80    0.13
 -11   3   0   20.01    0.72
 -11   3   0   21.21    0.86
 -10   3   0   30.90    0.99
 -10   3   0   29.67    1.10
  -9   3   0   24.59    0.91
  -9   3   0   23.98    0.80
  -8   3   0    0.81    0.15
  -8   3   0    0.71    0.10
   7  -3   0    0.80    0.09
  -7   3   0    0.74    0.09
  -7   3   0    0.84    0.14
   6  -3   0   66.57    2.39
  -6   3   0   66.83    1.96
  -6   3   0   64.54    2.02
  -6   3   0   68.89    2.55
   5  -3   0  100.48    3.56
  -5   3   0   99.00    2.90
  -5   3   0  103.93    3.81
  -5   3   0   98.85    2.95
  -4   3   0  331.19    9.52
  -4   3   0  333.98    9.54
  -4   3   0  336.33   12.60
  -3   3   0   85.23    2.41
  -3   3   0   82.89    2.44
   2  -3   0  107.52    3.84
  -2   3   0  107.87    4.11
  -2   3   0  109.10    3.12
  -2   3   0  110.89    3.10
  -1   3   0   94.25    2.84
  -1   3   0   99.20    2.84
  -1   3   0  106.70    3.53
   0   3   0   45.20    1.73
   1   3   0  109.69    3.88
  -2  -3   0  458.57   13.02
  -2  -3   0  448.84   13.01
   2   3   0  467.58   16.18
  -3  -3   0  135.45    3.73
  -3  -3   0  134.14    3.77
   3   3   0  118.53    4.93
   3   3   0  134.00    4.63
  -4  -3   0   42.80    1.25
  -4  -3   0   42.50    1.30
   4   3   0   41.62    1.55
  -5  -3   0   79.67    2.30
  -5  -3   0   79.97    2.37
   5   3   0   77.46    2.85
  -6  -3   0   13.96    0.47
  -6  -3   0   13.88    0.54
   6   3   0   13.27    0.57
  -7  -3   0   25.64    0.90
  -7  -3   0   25.37    0.81
   7   3   0   24.61    0.98
  -8  -3   0   12.36    0.46
  -8  -3   0   12.44    0.55
  -9  -3   0    7.22    0.32
  -9  -3   0    6.33    0.41
 -11   4   0    0.23    0.09
 -11   4   0   -0.04    0.14
 -10   4   0    3.14    0.20
 -10   4   0    3.72    0.31
  -9   4   0   37.29    1.18
  -9   4   0   38.27    1.29
  -8   4   0  171.74    5.02
  -8   4   0  169.37    4.92
   7  -4   0    6.52    0.29
  -7   4   0    6.40    0.33
  -7   4   0    6.35    0.30
  -7   4   0    6.56    0.26
   6  -4   0   11.68    0.45
  -6   4   0   11.48    0.39
  -6   4   0   11.09    0.45
  -6   4   0   11.14    0.48
   5  -4   0   77.47    2.76
  -5   4   0   77.09    2.25
  -5   4   0   75.88    2.30
  -5   4   0   79.49    2.96
   4  -4   0    0.03    0.03
  -4   4   0    0.04    0.04
  -4   4   0    0.19    0.06
  -4   4   0    0.13    0.04
  -3   4   0  421.41   13.59
  -3   4   0  319.10   10.23
  -3   4   0  335.99   10.20
   2  -4   0  152.82    5.40
  -2   4   0  147.28    4.36
  -2   4   0  155.73    5.78
  -2   4   0  156.10    4.36
  -1   4   0  171.88    6.92
  -1   4   0  194.35    5.19
  -1   4   0  179.52    5.22
  -1   4   0  186.69    6.46
   0   4   0  258.97    9.76
   0   4   0  256.32    9.08
   1   4   0   22.01    0.83
   1   4   0   22.51    0.89
  -2  -4   0    3.59    0.16
  -2  -4   0    3.22    0.12
   2   4   0    3.32    0.18
   2   4   0    3.02    0.17
  -3  -4   0   10.09    0.33
  -3  -4   0    9.97    0.37
   3   4   0   10.76    0.44
   3   4   0   10.56    0.44
  -4  -4   0    5.82    0.27
  -4  -4   0    5.89    0.22
   4   4   0    6.13    0.29
  -5  -4   0  123.18    3.52
  -5  -4   0  124.77    3.59
   5   4   0  118.28    4.36
  -6  -4   0   99.14    2.89
  -6  -4   0   95.22    2.81
   6   4   0   94.94    3.48
  -7  -4   0   20.49    0.75
  -7  -4   0   20.57    0.67
   7   4   0   19.33    0.82
 -11   5   0    8.35    0.47
 -11   5   0    8.33    0.37
 -10   5   0   20.94    0.73
 -10   5   0   21.90    0.85
  -9   5   0    7.01    0.31
  -9   5   0    7.28    0.39
  -8   5   0    0.75    0.15
  -8   5   0    1.23    0.12
   7  -5   0   34.95    1.29
  -7   5   0   35.35    1.38
  -7   5   0   34.73    1.07
  -7   5   0   35.05    1.15
   6  -5   0   39.58    1.43
  -6   5   0   38.94    1.24
  -6   5   0   38.73    1.17
  -6   5   0   39.48    1.53
   5  -5   0  149.81    5.32
  -5   5   0  150.44    5.70
  -5   5   0  150.86    4.36
  -5   5   0  151.16    4.31
   4  -5   0  123.13    4.42
  -4   5   0  124.61    3.57
  -4   5   0  126.13    3.61
  -4   5   0  125.36    4.74
   3  -5   0   65.35    2.42
  -3   5   0   68.63    1.94
  -3   5   0   68.41    1.97
  -3   5   0   67.64    2.59
   2  -5   0    6.03    0.27
  -2   5   0    6.17    0.19
  -2   5   0    6.08    0.21
  -1   5   0    3.71    0.11
  -1   5   0    3.55    0.18
  -1   5   0    3.77    0.20
   0   5   0   33.87    1.23
   0   5   0   33.02    1.32
  -1  -5   0  226.74    6.25
  -1  -5   0  228.22    6.23
   1   5   0  215.02    8.30
   1   5   0  208.95    7.75
  -2  -5   0  117.90    3.41
  -2  -5   0  120.68    3.44
   2   5   0  118.93    4.55
   2   5   0  120.67    4.26
  -3  -5   0   85.32    2.46
  -3  -5   0   84.36    2.41
   3   5   0   79.76    3.01
   3   5   0   85.70    3.21
   4   5   0   47.22    1.75
   5   5   0    2.25    0.18
   6   5   0    5.63    0.31
   7   5   0   10.64    0.51
 -11   6   0    2.09    0.18
 -11   6   0    1.72    0.25
 -10   6   0    9.12    0.38
 -10   6   0    8.82    0.48
  -9   6   0   19.99    0.68
  -9   6   0   20.18    0.78
  -8   6   0   39.49    1.23
  -8   6   0   40.47    1.32
  -7   6   0   64.90    1.91
  -7   6   0   63.34    2.51
  -7   6   0   66.39    2.00
   6  -6   0   21.86    0.84
  -6   6   0   22.35    0.70
  -6   6   0   21.81    0.91
  -6   6   0   22.63    0.76
   5  -6   0    2.51    0.15
  -5   6   0    2.31    0.17
  -5   6   0    3.15    0.18
  -5   6   0    2.37    0.12
   4  -6   0   17.43    0.69
  -4   6   0   18.26    0.59
  -4   6   0   17.33    0.74
  -4   6   0   18.11    0.55
   3  -6   0   57.04    2.10
  -3   6   0   60.67    2.25
  -3   6   0   57.26    1.66
  -3   6   0   56.63    1.69
  -1   6   0   49.84    1.82
  -1   6   0   50.35    1.96
   0   6   0   58.35    2.27
   1   6   0   22.51    0.89
   1   6   0   20.10    0.82
   2   6   0   13.73    0.56
   2   6   0   11.31    0.52
   3   6   0    7.75    0.38
   3   6   0    8.68    0.40
   4   6   0   42.91    1.62
   5   6   0   35.11    1.36
   6   6   0   14.46    0.64
   7   6   0   24.96    1.03
 -11   7   0    6.95    0.43
 -11   7   0    6.22    0.31
 -10   7   0    9.72    0.40
 -10   7   0   10.39    0.51
  -9   7   0    5.15    0.34
  -9   7   0    4.77    0.24
  -8   7   0    1.94    0.14
  -8   7   0    1.72    0.16
  -8   7   0    2.08    0.21
  -7   7   0   37.34    1.18
  -7   7   0   34.20    1.44
  -7   7   0   36.38    1.10
   6  -7   0  100.36    3.70
  -6   7   0  106.10    3.00
  -6   7   0  100.48    3.97
  -6   7   0  107.65    3.07
   5  -7   0   56.13    2.06
  -5   7   0   58.78    1.66
  -5   7   0   57.81    1.71
  -5   7   0   54.16    2.21
   4  -7   0   77.18    2.80
  -4   7   0   77.81    2.99
   3  -7   0   58.93    2.22
  -3   7   0   63.00    2.38
   2  -7   0   18.69    0.76
  -2   7   0   19.33    0.81
  -1   7   0   86.02    3.32
   0   7   0   22.48    0.94
   0   7   0   22.41    0.87
   1   7   0   56.71    2.06
   1   7   0   55.55    2.20
   2   7   0  139.49    5.09
   2   7   0  145.34    5.44
   3   7   0   64.90    2.47
   3   7   0   69.54    2.63
   4   7   0    1.81    0.17
   5   7   0    2.20    0.20
   6   7   0    2.73    0.23
  -8   8   0   58.33    2.30
  -7   8   0    8.87    0.44
   6  -8   0    3.65    0.21
  -6   8   0    3.40    0.23
   5  -8   0    0.15    0.07
  -5   8   0    0.20    0.08
   4  -8   0   14.98    0.64
  -4   8   0   15.86    0.69
   3  -8   0  188.03    6.77
  -3   8   0  192.84    7.24
   2  -8   0   52.89    1.96
  -2   8   0   52.27    2.08
   1  -8   0   10.22    0.48
  -1   8   0   10.26    0.49
   0   8   0   20.23    0.82
   0   8   0   21.31    0.90
   1   8   0   46.73    1.83
   1   8   0   44.32    1.70
   2   8   0    2.60    0.20
   2   8   0    2.49    0.19
   3   8   0   33.28    1.30
   4   8   0   27.52    1.11
   5   8   0   33.75    1.34
  -8   9   0    2.92    0.23
  -7   9   0   51.75    2.07
   6  -9   0   22.54    0.88
  -6   9   0   21.56    0.95
   5  -9   0   16.26    0.68
  -5   9   0   15.87    0.73
   4  -9   0   49.94    1.87
  -4   9   0   49.80    1.99
   3  -9   0   11.79    0.53
  -3   9   0   11.31    0.55
   2  -9   0   19.19    0.81
  -2   9   0   19.51    0.85
   1  -9   0   15.99    0.71
  -1   9   0   15.90    0.73
   0   9   0   14.20    0.66
   1   9   0   33.74    1.38
   1   9   0   32.27    1.28
   2   9   0   35.69    1.46
   2   9   0   34.23    1.36
   3   9   0   21.82    0.91
   4   9   0    0.99    0.16
  -8  10   0   53.14    2.14
  -7  10   0   14.05    0.67
   6 -10   0    1.22    0.14
  -6  10   0    1.03    0.15
   5 -10   0   12.83    0.57
  -5  10   0   12.74    0.62
   4 -10   0    5.09    0.30
  -4  10   0    5.14    0.32
   3 -10   0   29.69    1.19
  -3  10   0   30.26    1.27
   2 -10   0   46.91    1.86
  -2  10   0   50.48    1.98
   1 -10   0   42.86    1.70
  -1  10   0   43.78    1.78
   0 -10   0    2.95    0.25
   0  10   0    3.05    0.25
   1  10   0    0.67    0.14
  -9  11   0    4.01    0.30
  -8  11   0    1.03    0.17
  -7  11   0   24.80    1.09
  -6  11   0   36.64    1.54
   5 -11   0   19.25    0.82
  -5  11   0   18.86    0.87
   4 -11   0    1.30    0.17
  -4  11   0    0.78    0.14
   3 -11   0   14.77    0.68
  -3  11   0   14.85    0.71
   2 -11   0    2.66    0.24
  -2  11   0    2.71    0.24
   1 -11   0   41.47    1.68
  -1  11   0   43.72    1.78
   0 -11   0   14.79    0.75
   0  11   0   16.51    0.77
   1  11   0    8.41    0.48
  -6  12   0   10.06    0.55
   5 -12   0   11.82    0.57
  -5  12   0   11.30    0.60
   4 -12   0    7.17    0.42
  -4  12   0    7.49    0.44
   3 -12   0   21.39    0.93
  -3  12   0   20.97    0.98
   2 -12   0   22.56    1.02
  -2  12   0   25.01    1.09
   0  12  -1   28.79    1.27
  -1  12  -1   11.06    0.57
   1 -12   1    9.68    0.54
  -2  12  -1   10.54    0.55
   2 -12   1    9.41    0.52
  -3  12  -1   18.51    0.86
   3 -12   1   17.96    0.81
  -4  12  -1    3.52    0.27
   4 -12   1    3.26    0.26
  -5  12  -1    2.25    0.23
  -6  12  -1    8.75    0.49
  -7  12  -1    7.24    0.44
   1  11  -1   16.66    0.79
   0  11  -1    6.69    0.40
   0 -11   1    6.45    0.41
  -1  11  -1   10.51    0.54
   1 -11   1    9.95    0.53
  -2  11  -1    5.57    0.35
   2 -11   1    5.47    0.34
  -3  11  -1   15.14    0.72
   3 -11   1   14.66    0.67
  -4  11  -1   60.45    2.44
   4 -11   1   61.49    2.29
  -5  11  -1   21.55    0.97
   5 -11   1   21.75    0.90
  -6  11  -1    7.08    0.42
  -7  11  -1    2.75    0.24
  -8  11  -1    0.32    0.12
  -9  11  -1   12.62    0.63
   3  10  -1    1.68    0.19
   2  10  -1    1.25    0.16
   1  10  -1   38.90    1.52
   1  10  -1   40.50    1.64
   0  10  -1   36.56    1.52
  -1  10  -1   28.51    1.17
   1 -10   1   26.11    1.12
  -2  10  -1    6.77    0.39
   2 -10   1    7.35    0.39
  -3  10  -1    4.68    0.30
   3 -10   1    4.29    0.27
  -4  10  -1   12.94    0.63
   4 -10   1   13.48    0.59
  -5  10  -1   10.62    0.54
   5 -10   1   10.99    0.50
  -6  10  -1   32.64    1.36
  -7  10  -1   18.99    0.85
  -8  10  -1   13.72    0.66
   4   9  -1   19.93    0.86
   3   9  -1   30.85    1.22
   2   9  -1   28.09    1.14
   2   9  -1   25.17    1.06
   1   9  -1   24.31    0.98
   1   9  -1   25.02    1.05
   0   9  -1    0.36    0.08
   0   9  -1    0.54    0.11
  -1   9  -1   13.12    0.61
  -2   9  -1   23.35    1.00
   2  -9   1   23.19    0.94
  -3   9  -1   20.79    0.88
   3  -9   1   19.72    0.82
  -4   9  -1   69.26    2.71
   4  -9   1   68.67    2.52
  -5   9  -1   58.80    2.32
   5  -9   1   58.36    2.15
  -6   9  -1    4.54    0.28
  -7   9  -1    0.09    0.08
  -8   9  -1   -0.13    0.07
   6   8  -1   26.02    1.08
   5   8  -1   18.12    0.79
   4   8  -1    2.83    0.22
   3   8  -1   -0.02    0.06
   2   8  -1   21.01    0.90
   2   8  -1   20.80    0.85
   1   8  -1   85.54    3.32
   1   8  -1   85.57    3.10
   0   8  -1  143.67    5.60
   0   8  -1  149.56    5.23
  -1   8  -1   24.16    1.01
  -1   8  -1   24.14    0.93
  -2   8  -1   46.01    1.82
   2  -8   1   45.24    1.71
  -3   8  -1   15.00    0.66
   3  -8   1   14.61    0.61
  -4   8  -1    0.94    0.13
   4  -8   1    1.10    0.11
  -5   8  -1   38.73    1.56
   5  -8   1   38.62    1.44
  -6   8  -1   78.43    3.04
  -7   8  -1   51.53    2.04
  -8   8  -1   14.31    0.65
  -9   8  -1   35.66    1.21
  -9   8  -1   33.95    1.09
 -10   8  -1    0.54    0.16
 -10   8  -1    0.65    0.12
 -11   8  -1    5.92    0.40
 -11   8  -1    6.13    0.31
   7   7  -1    2.78    0.24
   6   7  -1    7.78    0.42
   5   7  -1   17.06    0.73
   4   7  -1   46.55    1.76
   3   7  -1   19.03    0.78
   3   7  -1   17.45    0.75
   2   7  -1   59.55    2.33
   2   7  -1   59.87    2.19
   1   7  -1   27.65    1.12
   1   7  -1   27.43    1.05
   0   7  -1    0.77    0.11
   0   7  -1    1.18    0.11
  -1   7  -1  169.02    6.57
  -1   7  -1  176.98    6.13
  -2   7  -1   43.62    1.74
   2  -7   1   44.57    1.64
  -3   7  -1   32.48    1.33
   3  -7   1   34.18    1.25
  -4   7  -1   62.56    2.41
   4  -7   1   61.39    2.24
  -5   7  -1  108.40    4.26
  -5   7  -1  113.28    3.26
  -5   7  -1  114.86    3.21
   5  -7   1  109.55    3.97
  -6   7  -1    1.20    0.14
  -6   7  -1    1.09    0.10
  -7   7  -1   14.02    0.63
  -7   7  -1   14.30    0.56
  -7   7  -1   14.98    0.49
  -8   7  -1    9.64    0.46
  -8   7  -1   10.03    0.45
  -8   7  -1    9.72    0.37
  -9   7  -1   10.36    0.50
  -9   7  -1   10.76    0.41
 -10   7  -1   31.26    1.02
 -10   7  -1   31.66    1.14
 -11   7  -1   24.77    0.96
 -11   7  -1   23.58    0.82
   8   6  -1   17.71    0.78
   7   6  -1   15.97    0.71
   6   6  -1   18.56    0.79
   5   6  -1   17.76    0.74
   4   6  -1   10.78    0.48
   3   6  -1   50.67    1.94
   3   6  -1   54.53    2.05
   2   6  -1  100.46    3.83
   2   6  -1  100.14    3.59
   0   6  -1   76.50    2.69
   0   6  -1   73.51    2.88
  -1   6  -1  242.10    8.28
  -1   6  -1  227.55    8.86
  -2   6  -1    4.18    0.14
  -2   6  -1    4.28    0.13
   2  -6   1    3.74    0.21
  -3   6  -1    3.11    0.20
  -3   6  -1    3.61    0.16
  -3   6  -1    3.75    0.13
   3  -6   1    3.71    0.18
  -4   6  -1    2.90    0.16
  -4   6  -1    2.81    0.12
  -4   6  -1    2.66    0.18
   4  -6   1    2.99    0.16
  -5   6  -1   44.24    1.75
  -5   6  -1   45.21    1.32
  -5   6  -1   45.31    1.38
   5  -6   1   44.14    1.62
  -6   6  -1  122.57    3.48
  -6   6  -1  120.26    4.60
  -6   6  -1  120.75    3.55
   6  -6   1  118.77    4.27
  -7   6  -1   92.32    2.73
  -7   6  -1   95.19    3.59
  -7   6  -1   92.85    2.81
  -8   6  -1    2.77    0.17
  -8   6  -1    2.90    0.25
  -8   6  -1    2.98    0.19
  -9   6  -1    1.82    0.22
  -9   6  -1    1.87    0.15
 -10   6  -1    1.53    0.15
 -10   6  -1    1.51    0.21
 -11   6  -1    0.74    0.12
 -11   6  -1    0.85    0.19
   8   5  -1    0.29    0.11
   7   5  -1    3.73    0.26
   6   5  -1    8.50    0.42
   5   5  -1   21.09    0.84
   4   5  -1  139.88    5.17
  -4  -5   1  146.17    4.15
  -4  -5   1  149.07    4.20
   3   5  -1  124.28    4.62
   3   5  -1  120.58    4.34
  -3  -5   1  121.67    3.51
  -3  -5   1  120.51    3.48
   2   5  -1   21.14    0.82
   2   5  -1   17.24    0.77
  -2  -5   1   21.32    0.62
  -2  -5   1   21.19    0.60
   1   5  -1   39.02    1.59
  -1  -5   1   41.53    1.17
  -1  -5   1   41.74    1.18
   0   5  -1   17.89    0.72
   0   5  -1   17.25    0.67
  -1   5  -1  107.68    3.74
  -1   5  -1  103.70    4.01
  -2   5  -1  274.23    7.86
  -2   5  -1  259.76    7.87
   2  -5   1  295.96    9.74
  -3   5  -1  134.69    4.87
  -3   5  -1  122.97    3.68
  -3   5  -1  125.47    3.65
   3  -5   1  129.84    4.54
  -4   5  -1   38.27    1.48
  -4   5  -1   38.02    1.16
  -4   5  -1   38.45    1.12
   4  -5   1   37.06    1.37
  -5   5  -1   74.41    2.14
  -5   5  -1   73.65    2.82
  -5   5  -1   74.60    2.20
   5  -5   1   71.96    2.62
  -6   5  -1   17.03    0.55
  -6   5  -1   17.21    0.71
  -6   5  -1   17.58    0.62
   6  -5   1   16.74    0.64
  -7   5  -1    0.20    0.06
  -7   5  -1    0.15    0.06
  -7   5  -1    0.13    0.10
  -8   5  -1   38.91    1.30
  -8   5  -1   39.11    1.21
  -9   5  -1   27.63    1.02
  -9   5  -1   28.66    0.92
 -10   5  -1   28.18    0.92
 -10   5  -1   27.45    1.03
 -11   5  -1    8.43    0.37
 -11   5  -1    7.38    0.46
   8   4  -1   39.61    1.52
   7   4  -1   14.03    0.63
  -7  -4   1   14.92    0.59
  -7  -4   1   15.03    0.51
   6   4  -1   67.23    2.47
  -6  -4   1   67.32    2.06
  -6  -4   1   67.66    1.98
   5   4  -1    4.73    0.26
  -5  -4   1    4.71    0.20
  -5  -4   1    4.74    0.25
   4   4  -1   26.71    1.07
   4   4  -1   29.02    1.11
  -4  -4   1   28.76    0.85
  -4  -4   1   28.56    0.90
   3   4  -1  157.00    5.55
   3   4  -1  161.29    5.91
  -3  -4   1  152.80    4.49
  -3  -4   1  155.08    4.46
   2   4  -1   77.32    2.75
   2   4  -1   76.20    2.92
  -2  -4   1   77.11    2.20
  -2  -4   1   76.69    2.22
   1   4  -1  184.29    7.07
  -1  -4   1  184.16    5.31
  -1  -4   1  192.18    5.30
   0   4  -1  159.44    6.33
   0   4  -1  175.42    5.91
  -1   4  -1  336.32   12.00
  -1   4  -1  295.91    9.04
  -1   4  -1  320.23    8.99
  -2   4  -1   22.98    0.92
  -2   4  -1   23.38    0.70
  -2   4  -1   23.74    0.68
  -3   4  -1  216.07    8.07
   3  -4   1  212.28    7.56
  -4   4  -1  111.31    4.05
  -4   4  -1  109.54    3.11
  -4   4  -1  112.08    3.07
   4  -4   1   94.32    3.76
  -5   4  -1   68.39    2.04
  -5   4  -1   68.50    1.98
  -5   4  -1   67.14    2.60
  -6   4  -1  196.90    5.62
  -6   4  -1  199.43    7.30
  -6   4  -1  196.31    5.54
   6  -4   1  181.11    6.81
  -7   4  -1   67.02    2.03
  -7   4  -1   71.63    2.63
  -7   4  -1   66.80    2.11
  -8   4  -1   13.28    0.48
  -8   4  -1   13.68    0.57
  -9   4  -1    1.37    0.20
  -9   4  -1    1.31    0.13
 -10   4  -1   -0.23    0.11
 -10   4  -1    0.08    0.08
 -11   4  -1    9.49    0.52
 -11   4  -1    9.40    0.41
  -9  -3   1    7.12    0.31
  -9  -3   1    6.57    0.39
   8   3  -1    0.89    0.13
  -8  -3   1    0.69    0.15
  -8  -3   1    0.89    0.11
   7   3  -1   50.04    1.90
  -7  -3   1   52.34    1.63
  -7  -3   1   51.97    1.54
   6   3  -1    3.70    0.21
  -6  -3   1    3.33    0.17
  -6  -3   1    3.64    0.23
   5   3  -1   70.34    2.52
  -5  -3   1   69.11    2.03
  -5  -3   1   69.91    2.09
   4   3  -1  184.47    6.69
  -4  -3   1  192.99    5.45
  -4  -3   1  190.30    5.40
   3   3  -1  267.94    9.86
   3   3  -1  281.58   10.23
  -3  -3   1  267.20    7.72
  -3  -3   1  268.66    7.74
   2   3  -1    5.25    0.23
   2   3  -1    5.60    0.24
  -2  -3   1    5.44    0.18
  -2  -3   1    5.56    0.20
   1   3  -1   22.67    0.91
  -1  -3   1   23.33    0.67
  -1  -3   1   23.47    0.69
   0   3  -1    4.56    0.19
   0   3  -1    3.74    0.17
  -1   3  -1  132.56    3.98
  -1   3  -1  142.20    3.95
  -1   3  -1  142.23    4.91
  -2   3  -1  366.45   14.79
  -2   3  -1  381.36   11.34
  -2   3  -1  405.67   11.67
   2  -3   1  416.96   13.81
  -3   3  -1  339.38   12.86
   3  -3   1  343.15   12.00
  -4   3  -1   40.54    1.59
  -4   3  -1   42.43    1.22
  -4   3  -1   41.90    1.27
   4  -3   1   41.18    1.48
  -5   3  -1    1.78    0.11
  -5   3  -1    1.66    0.14
  -5   3  -1    1.67    0.11
   5  -3   1    1.71    0.10
  -6   3  -1    0.92    0.09
  -6   3  -1    1.02    0.09
  -6   3  -1    0.98    0.13
   6  -3   1    0.91    0.08
  -7   3  -1   16.87    0.57
  -7   3  -1   16.79    0.65
  -8   3  -1   59.11    1.88
  -8   3  -1   59.44    1.78
  -9   3  -1   43.95    1.47
  -9   3  -1   43.30    1.35
 -10   3  -1   16.10    0.58
 -10   3  -1   15.85    0.70
 -11   3  -1    9.73    0.53
 -10  -2   1    3.50    0.32
 -10  -2   1    3.56    0.21
  -9  -2   1   18.59    0.75
  -9  -2   1   18.70    0.64
   8   2  -1   47.23    1.77
  -8  -2   1   47.84    1.54
  -8  -2   1   47.24    1.44
   7   2  -1   81.25    2.93
  -7  -2   1   80.70    2.38
  -7  -2   1   81.33    2.47
   5   2  -1    1.69    0.13
  -5  -2   1    1.84    0.15
  -5  -2   1    1.79    0.11
   4   2  -1    0.93    0.09
  -4  -2   1    1.15    0.08
  -4  -2   1    0.88    0.10
   3   2  -1  115.07    4.24
   3   2  -1  124.55    4.51
  -3  -2   1  119.87    3.46
  -3  -2   1  119.73    3.42
   2   2  -1  195.76    7.42
  -2  -2   1  195.52    5.61
  -2  -2   1  199.24    5.61
   1   2  -1   10.67    0.43
  -1  -2   1   10.39    0.33
  -1  -2   1   10.73    0.32
   0   2  -1   69.16    2.73
   0   2  -1   75.48    2.55
   0  -2   1   72.30    2.05
  -1   2  -1  219.62    8.29
  -2   2  -1   92.27    2.58
  -2   2  -1   82.67    3.37
  -2   2  -1   93.80    2.55
   2  -2   1   87.03    3.14
  -3   2  -1  188.26    5.60
  -3   2  -1  200.60    7.40
  -3   2  -1  193.07    5.60
   3  -2   1  200.60    6.89
  -4   2  -1  310.87   12.10
  -4   2  -1  328.68    9.14
  -4   2  -1  330.69    9.16
   4  -2   1  313.15   11.28
  -5   2  -1   12.08    0.45
  -5   2  -1   12.09    0.40
  -5   2  -1   12.32    0.48
   5  -2   1   10.64    0.44
  -6   2  -1   28.30    1.02
  -6   2  -1   23.10    0.81
  -6   2  -1   23.18    0.87
   6  -2   1   28.73    0.96
  -7   2  -1   81.75    2.42
  -7   2  -1   82.54    2.51
  -8   2  -1    8.66    0.43
  -8   2  -1    9.02    0.35
  -9   2  -1    0.33    0.13
  -9   2  -1    0.41    0.09
 -10   2  -1    3.71    0.31
 -10   2  -1    4.27    0.24
 -10  -1   1    5.86    0.38
 -10  -1   1    5.32    0.27
  -9  -1   1    6.79    0.30
  -9  -1   1    6.83    0.39
   8   1  -1    0.19    0.07
  -8  -1   1    0.30    0.11
  -8  -1   1    0.20    0.07
   7   1  -1   55.73    2.02
  -7  -1   1   54.82    1.73
  -7  -1   1   55.05    1.65
   6   1  -1  118.37    4.28
  -6  -1   1  122.11    3.54
  -6  -1   1  120.38    3.47
   5   1  -1  132.02    4.79
  -5  -1   1  130.79    5.08
  -5  -1   1  138.87    3.88
  -5  -1   1  139.40    3.94
   4   1  -1  303.57   11.07
  -4  -1   1  310.57   11.87
  -4  -1   1  316.43    8.96
  -4  -1   1  324.78    8.97
  -3  -1   1  167.40    4.82
  -3  -1   1  167.84    6.32
  -3  -1   1  169.51    4.79
   2   1  -1    0.69    0.05
   2   1  -1    0.85    0.06
  -2  -1   1    0.70    0.05
  -2  -1   1    0.65    0.06
   1   1  -1   59.59    2.28
  -1  -1   1   59.91    1.73
  -1  -1   1   60.52    1.72
   0   1  -1   21.08    0.72
   0   1  -1   19.49    0.77
   0  -1   1   20.38    0.58
   0  -1   1   19.92    0.58
  -1   1  -1  274.58   10.72
  -2   1  -1  566.70   23.13
   2  -1   1  624.02   21.26
  -4   1  -1   54.20    2.09
   4  -1   1   55.64    1.95
  -5   1  -1    5.49    0.22
  -5   1  -1    5.32    0.26
   5  -1   1    5.49    0.23
  -6   1  -1    0.54    0.07
  -6   1  -1    0.76    0.07
  -6   1  -1    0.46    0.11
   6  -1   1    0.85    0.08
  -7   1  -1   23.48    0.84
  -7   1  -1   23.31    0.76
  -8   1  -1  106.98    3.13
  -8   1  -1  106.76    3.24
  -9   1  -1   33.66    1.18
  -9   1  -1   32.71    1.06
 -10   1  -1    7.58    0.45
 -10   1  -1    7.78    0.34
 -10   0   1    6.72    0.31
 -10   0   1    6.97    0.41
  -9   0   1   58.56    1.87
  -9   0   1   57.93    1.76
   8   0  -1   58.09    2.12
  -8   0   1   57.98    1.74
  -8   0   1   57.61    1.83
   7   0  -1   41.66    1.53
  -7   0   1   42.00    1.34
  -7   0   1   40.98    1.26
   6   0  -1    5.62    0.26
  -6   0   1    5.93    0.23
  -6   0   1    5.45    0.29
   5   0  -1   63.34    2.32
  -5   0   1   65.34    1.89
  -5   0   1   65.02    2.44
  -5   0   1   65.34    1.95
   4   0  -1   24.88    0.93
  -4   0   1   24.96    0.96
  -4   0   1   25.45    0.80
  -4   0   1   26.26    0.76
   3   0  -1  105.00    3.71
  -3   0   1  106.63    3.94
  -3   0   1  103.88    3.03
  -3   0   1  104.47    3.00
   2   0  -1  288.68    8.87
  -2   0   1  260.18    9.51
  -2   0   1  230.96    7.15
  -2   0   1  224.59    7.14
   1   0  -1  208.36    9.00
  -1   0   1  284.21    9.49
   0   0  -1  118.21    3.97
   0   0   1  113.03    3.21
   0   0   1  107.16    3.21
   1   0   1  231.56    8.16
  -2   0  -1   65.42    2.53
   2   0   1   68.35    2.36
  -3   0  -1  241.01    9.53
   3   0   1  260.58    8.84
  -4   0  -1  166.32    4.70
  -4   0  -1  164.81    4.75
  -4   0  -1  161.64    6.19
  -5   0  -1   78.41    2.30
  -5   0  -1   78.82    3.01
  -5   0  -1   77.82    2.37
   5   0   1   81.27    2.82
  -6   0  -1   70.46    2.11
  -6   0  -1   71.87    2.19
   6   0   1   72.90    2.57
  -7   0  -1   36.65    1.22
  -7   0  -1   36.59    1.13
  -8   0  -1    5.82    0.35
  -8   0  -1    5.59    0.26
  -9   0  -1    3.21    0.20
  -9   0  -1    2.63    0.27
 -10   0  -1    9.81    0.52
 -10   0  -1    9.78    0.41
 -11   1   1   11.51    0.57
 -11   1   1   10.38    0.44
 -10   1   1    0.23    0.09
 -10   1   1    0.06    0.13
  -9   1   1    0.73    0.10
  -9   1   1    0.87    0.16
   8  -1  -1    4.71    0.25
  -8   1   1    4.86    0.30
  -8   1   1    4.89    0.23
   7  -1  -1   62.68    2.30
  -7   1   1   64.03    1.88
  -7   1   1   64.35    1.97
   5  -1  -1  220.25    7.93
  -5   1   1  229.12    8.44
  -4   1   1   63.34    1.94
  -4   1   1   75.88    2.54
  -4   1   1   62.06    1.98
   2  -1  -1  171.74    6.07
  -2   1   1  171.50    4.90
  -2   1   1  169.48    4.90
  -2   1   1  173.45    6.48
   1  -1  -1    3.19    0.13
  -1   1   1    3.46    0.11
  -1   1   1    3.41    0.12
  -1   1   1    3.11    0.14
   0   1   1  201.71    5.81
   0   1   1  207.36    7.20
   1   1   1  232.94    9.14
   1   1   1  251.74    8.55
   2   1   1  339.55   11.96
   3   1   1   77.61    2.75
  -4  -1  -1    2.24    0.13
  -4  -1  -1    2.55    0.12
  -4  -1  -1    2.76    0.17
   4   1   1    2.06    0.12
  -5  -1  -1    4.58    0.22
  -5  -1  -1    4.50    0.19
  -5  -1  -1    4.61    0.25
   5   1   1    4.55    0.22
  -6  -1  -1   27.45    0.95
  -6  -1  -1   28.48    0.88
   6   1   1   28.81    1.06
  -7  -1  -1   39.11    1.29
  -7  -1  -1   38.66    1.20
  -8  -1  -1   44.10    1.40
  -8  -1  -1   47.55    1.52
  -9  -1  -1   17.19    0.61
  -9  -1  -1   17.31    0.72
 -10  -1  -1    9.50    0.51
 -10  -1  -1    9.67    0.41
 -11   2   1    9.27    0.51
 -11   2   1    8.63    0.38
 -10   2   1   19.92    0.69
 -10   2   1   19.83    0.80
  -9   2   1   26.45    0.97
  -9   2   1   27.03    0.87
   8  -2  -1   79.45    2.88
  -8   2   1   80.25    2.36
  -8   2   1   80.48    2.46
   7  -2  -1   40.71    1.51
  -7   2   1   41.66    1.33
  -7   2   1   41.52    1.25
  -6   2   1    0.20    0.08
  -6   2   1    0.35    0.05
  -6   2   1    0.20    0.05
   5  -2  -1    6.57    0.29
  -5   2   1    7.37    0.29
  -5   2   1    6.75    0.29
  -5   2   1    6.72    0.25
  -4   2   1   36.48    1.07
  -4   2   1   36.51    1.39
  -4   2   1   36.16    1.11
   3  -2  -1  146.75    5.34
  -3   2   1  155.63    5.71
   2  -2  -1  486.80   15.63
  -2   2   1  437.58   15.77
  -2   2   1  391.46   11.90
  -2   2   1  366.68   12.07
  -1   2   1  257.23   10.09
  -1   2   1  285.04    7.90
  -1   2   1  261.69    7.71
   0   2   1   44.63    1.55
   0   2   1   44.39    1.24
   0   2   1   41.43    1.66
   1   2   1  162.51    6.13
   2   2   1    5.04    0.22
   3   2   1  180.84    6.38
  -4  -2  -1  176.22    5.03
  -4  -2  -1  175.36    4.97
   4   2   1  169.48    6.13
  -5  -2  -1    4.52    0.24
  -5  -2  -1    3.96    0.19
  -5  -2  -1    4.54    0.23
   5   2   1    4.64    0.22
  -6  -2  -1   73.08    2.16
  -6  -2  -1   73.57    2.24
   6   2   1   73.15    2.64
  -7  -2  -1   42.00    1.39
  -7  -2  -1   42.02    1.29
  -8  -2  -1    2.66    0.17
  -8  -2  -1    2.50    0.25
  -9  -2  -1   21.64    0.74
  -9  -2  -1   21.93    0.86
 -11   3   1    4.84    0.37
 -11   3   1    5.34    0.28
 -10   3   1    1.15    0.19
 -10   3   1    0.91    0.12
  -9   3   1    1.26    0.13
  -9   3   1    1.28    0.19
   8  -3  -1    4.92    0.24
  -8   3   1    3.95    0.21
  -8   3   1    3.90    0.28
   7  -3  -1  156.17    5.65
  -7   3   1  160.70    4.60
  -7   3   1  162.54    4.68
   6  -3  -1  167.73    6.12
  -6   3   1  175.64    6.54
  -6   3   1  174.18    4.97
  -6   3   1  176.39    5.04
   5  -3  -1   62.17    2.21
  -5   3   1   61.27    1.80
  -5   3   1   60.55    1.85
  -5   3   1   63.02    2.36
   4  -3  -1   43.81    1.57
  -4   3   1   42.81    1.67
  -4   3   1   44.09    1.27
  -4   3   1   43.33    1.31
   3  -3  -1   81.38    2.94
  -3   3   1   84.45    3.15
  -2   3   1   97.98    3.63
  -2   3   1   94.17    2.75
  -2   3   1   95.03    2.73
  -1   3   1  181.52    4.98
  -1   3   1  168.44    4.98
   0   3   1  222.60    5.85
   0   3   1  193.26    7.76
   0   3   1  201.50    7.25
   1   3   1  123.90    4.87
   1   3   1  133.60    4.56
   2   3   1  186.04    6.55
   2   3   1  185.35    7.00
  -3  -3  -1  111.39    3.18
  -3  -3  -1  109.77    3.23
   3   3   1  111.57    3.94
  -4  -3  -1   18.94    0.65
  -4  -3  -1   19.10    0.59
   4   3   1   18.48    0.73
  -5  -3  -1   80.46    2.35
  -5  -3  -1   79.60    2.42
   5   3   1   81.58    2.91
  -6  -3  -1   17.52    0.66
  -6  -3  -1   17.39    0.58
   6   3   1   17.01    0.70
  -7  -3  -1   28.39    0.91
  -7  -3  -1   28.93    1.01
  -8  -3  -1   36.03    1.21
  -8  -3  -1   32.94    1.08
 -11   4   1   17.38    0.76
 -11   4   1   17.96    0.64
 -10   4   1   41.13    1.31
 -10   4   1   42.42    1.43
  -9   4   1   45.68    1.40
  -9   4   1   45.56    1.51
  -8   4   1    0.75    0.15
  -8   4   1    0.86    0.11
   7  -4  -1   27.92    1.03
  -7   4   1   27.54    1.09
  -7   4   1   27.36    0.86
  -7   4   1   27.83    0.94
   6  -4  -1    3.01    0.16
  -6   4   1    3.04    0.17
  -6   4   1    3.25    0.20
  -6   4   1    3.41    0.16
   5  -4  -1   49.57    1.80
  -5   4   1   48.95    1.52
  -5   4   1   51.15    1.92
  -5   4   1   49.75    1.46
   4  -4  -1  188.35    6.60
  -4   4   1  188.77    7.06
  -4   4   1  186.07    5.37
  -4   4   1  184.80    5.33
   3  -4  -1  234.69    8.26
  -3   4   1  232.59    8.84
   2  -4  -1  333.39   11.00
  -2   4   1  307.60    8.86
  -2   4   1  321.84   11.77
  -2   4   1  283.50    8.96
   1  -4  -1  110.32    4.00
  -1   4   1  115.57    3.21
  -1   4   1  117.77    3.20
  -1   4   1  106.51    4.27
   0   4   1    2.80    0.10
   0   4   1    2.66    0.16
   1   4   1   33.59    1.34
   1   4   1   34.66    1.26
   2   4   1   28.16    1.05
   2   4   1   28.17    1.12
  -3  -4  -1  100.40    2.97
  -3  -4  -1  101.55    2.92
   3   4   1  100.14    3.63
   3   4   1  104.01    3.87
  -4  -4  -1  109.89    3.17
  -4  -4  -1  111.14    3.24
   4   4   1  109.53    3.94
  -5  -4  -1   84.54    2.48
  -5  -4  -1   82.72    2.40
   5   4   1   79.39    2.97
  -6  -4  -1   21.93    0.69
  -6  -4  -1   21.24    0.77
   6   4   1   20.25    0.84
 -11   5   1    4.85    0.26
 -11   5   1    4.76    0.36
 -10   5   1    3.57    0.21
 -10   5   1    3.38    0.29
  -9   5   1    0.24    0.13
  -9   5   1    0.42    0.08
  -8   5   1   23.46    0.76
  -8   5   1   23.46    0.85
   7  -5  -1   42.95    1.56
  -7   5   1   41.53    1.66
  -7   5   1   43.41    1.29
  -7   5   1   42.57    1.36
   6  -5  -1  127.69    4.50
  -6   5   1  124.83    4.82
  -6   5   1  126.89    3.65
  -6   5   1  127.83    3.72
   5  -5  -1   48.66    1.81
  -5   5   1   51.85    1.47
  -5   5   1   50.08    1.52
  -5   5   1   49.86    1.94
  -4   5   1    1.62    0.12
  -4   5   1    1.45    0.09
   3  -5  -1    3.23    0.18
  -3   5   1    3.49    0.19
   2  -5  -1    2.06    0.13
  -2   5   1    2.20    0.08
  -2   5   1    2.03    0.10
  -2   5   1    1.55    0.12
   1  -5  -1   88.88    3.17
  -1   5   1   85.83    3.38
  -1   5   1   90.11    2.51
   0   5   1   69.86    2.51
   1   5   1   51.16    1.85
   1   5   1   50.50    1.98
  -2  -5  -1   57.21    1.65
   2   5   1   57.28    2.07
   2   5   1   55.80    2.20
   3   5   1    9.54    0.43
   3   5   1   10.29    0.45
   4   5   1    0.11    0.07
   5   5   1   12.42    0.55
   6   5   1   34.24    1.33
 -11   6   1   34.28    1.09
 -11   6   1   31.88    1.20
 -10   6   1   32.38    1.02
 -10   6   1   30.14    1.12
  -9   6   1    5.09    0.34
  -9   6   1    5.47    0.25
  -8   6   1    9.90    0.37
  -8   6   1   10.01    0.45
   7  -6  -1   28.57    1.06
  -7   6   1   27.04    1.14
  -7   6   1   28.80    0.88
  -7   6   1   28.48    0.96
   6  -6  -1    2.76    0.18
  -6   6   1    2.95    0.20
  -6   6   1    3.00    0.15
  -6   6   1    2.52    0.18
   5  -6  -1  123.18    4.43
  -5   6   1  129.34    3.58
  -5   6   1  124.83    3.63
  -5   6   1  120.82    4.74
   4  -6  -1  105.19    3.75
  -4   6   1  102.56    3.04
  -4   6   1  102.26    3.00
  -4   6   1  109.26    4.01
   3  -6  -1   45.21    1.70
  -3   6   1   47.22    1.81
   1  -6  -1   68.04    2.44
  -1   6   1   65.69    2.59
   0   6   1    5.14    0.27
   0   6   1    6.39    0.31
   1   6   1   55.91    2.18
   1   6   1   55.53    2.04
   2   6   1    7.08    0.35
   2   6   1    7.97    0.38
   3   6   1   35.57    1.35
   3   6   1   30.99    1.27
   4   6   1   80.41    2.94
   5   6   1   48.55    1.83
   6   6   1   13.79    0.62
 -11   7   1   11.76    0.47
 -11   7   1   11.05    0.57
 -10   7   1   12.68    0.59
 -10   7   1   12.97    0.49
  -9   7   1   29.40    1.07
  -9   7   1   31.79    0.98
  -8   7   1   15.87    0.54
  -8   7   1   16.48    0.63
  -8   7   1   15.09    0.69
   7  -7  -1   31.01    1.20
  -7   7   1   30.39    1.28
  -7   7   1   32.81    0.98
  -7   7   1   32.97    1.06
   6  -7  -1   75.39    2.82
  -6   7   1   74.55    3.02
  -6   7   1   81.41    2.28
  -6   7   1   80.96    2.34
   5  -7  -1   59.33    2.16
  -5   7   1   59.20    2.32
   4  -7  -1    7.52    0.37
  -4   7   1    8.47    0.40
   3  -7  -1   28.23    1.12
  -3   7   1   30.40    1.20
   2  -7  -1   19.78    0.80
  -2   7   1   20.29    0.85
   1  -7  -1   65.83    2.42
  -1   7   1   65.24    2.56
   0   7   1  145.13    5.54
   1   7   1   73.12    2.81
   1   7   1   70.51    2.61
   2   7   1    6.38    0.34
   2   7   1    6.98    0.36
   3   7   1    8.81    0.44
   3   7   1   10.09    0.47
   4   7   1    0.92    0.13
   5   7   1   24.80    1.01
   6   7   1   19.72    0.84
  -8   8   1    3.90    0.26
   7  -8  -1    2.29    0.17
  -7   8   1    2.25    0.19
   6  -8  -1    0.05    0.06
  -6   8   1    0.04    0.07
   5  -8  -1   73.08    2.67
  -5   8   1   73.34    2.86
   4  -8  -1  138.07    4.94
  -4   8   1  137.88    5.28
   3  -8  -1   24.21    0.98
  -3   8   1   24.87    1.03
   2  -8  -1    4.72    0.27
  -2   8   1    4.05    0.26
   1  -8  -1    4.68    0.29
  -1   8   1    4.57    0.28
   0  -8  -1    3.14    0.23
   0   8   1    2.97    0.22
   1   8   1   18.91    0.84
   2   8   1   43.10    1.70
   2   8   1   40.33    1.58
   3   8   1   23.07    0.95
   4   8   1   27.76    1.12
   5   8   1    9.76    0.50
  -8   9   1   14.24    0.66
   7  -9  -1    3.86    0.23
  -7   9   1    3.25    0.25
   6  -9  -1   49.42    1.83
  -6   9   1   48.06    1.95
   5  -9  -1   24.33    0.98
  -5   9   1   24.33    1.04
   4  -9  -1    0.17    0.08
  -4   9   1    0.18    0.08
   3  -9  -1   13.77    0.63
  -3   9   1   14.57    0.66
   2  -9  -1   24.84    1.01
  -2   9   1   24.46    1.06
   1  -9  -1   25.37    1.04
  -1   9   1   24.56    1.07
   0  -9  -1   71.86    2.72
   0   9   1   73.05    2.86
  -1  -9  -1   25.73    1.15
   1   9   1   29.25    1.19
   2   9   1    1.46    0.18
  -8  10   1    0.48    0.12
  -7  10   1    0.66    0.13
   6 -10  -1    2.89    0.22
  -6  10   1    2.82    0.23
   5 -10  -1   37.51    1.46
  -5  10   1   37.50    1.55
   4 -10  -1   55.62    2.13
  -4  10   1   57.22    2.27
   3 -10  -1   14.52    0.67
  -3  10   1   15.22    0.71
   2 -10  -1   14.78    0.69
  -2  10   1   15.56    0.72
   1 -10  -1    0.15    0.09
  -1  10   1    0.26    0.10
   0 -10  -1    2.45    0.24
   0  10   1    3.25    0.26
  -1 -10  -1   14.64    0.74
   1  10   1   16.06    0.75
  -2 -10  -1    5.78    0.40
  -8  11   1   17.80    0.83
  -7  11   1   10.70    0.56
   6 -11  -1    8.67    0.45
  -6  11   1    8.53    0.48
   5 -11  -1    4.66    0.31
  -5  11   1    4.80    0.33
   4 -11  -1    3.15    0.26
  -4  11   1    3.16    0.26
   3 -11  -1   28.74    1.17
  -3  11   1   27.23    1.22
   2 -11  -1   15.65    0.73
  -2  11   1   15.20    0.75
   1 -11  -1   28.96    1.26
  -1  11   1   31.41    1.32
   0  11   1   26.19    1.17
   6 -12  -1    6.28    0.37
   5 -12  -1   15.11    0.71
   4 -12  -1   24.96    1.07
   3 -13   2    6.03    0.38
   0  12  -2   34.46    1.43
   0 -12   2   31.68    1.37
  -1  12  -2   20.54    0.94
   1 -12   2   19.96    0.90
  -2  12  -2    0.11    0.09
   2 -12   2    0.16    0.10
  -3  12  -2    4.57    0.33
   3 -12   2    4.50    0.30
  -4  12  -2    7.30    0.44
   4 -12   2    7.66    0.41
  -5  12  -2    8.37    0.48
  -6  12  -2   25.36    1.13
  -7  12  -2   14.16    0.70
   2  11  -2    6.27    0.37
   1  11  -2    0.52    0.12
   1  11  -2    0.52    0.12
   0  11  -2    8.16    0.45
  -1  11  -2   14.21    0.68
   1 -11   2   14.05    0.66
  -2  11  -2   53.65    2.13
   2 -11   2   51.30    2.00
  -3  11  -2   27.25    1.15
   3 -11   2   25.70    1.07
  -4  11  -2    5.15    0.33
   4 -11   2    5.02    0.30
  -5  11  -2    1.46    0.18
  -6  11  -2    6.82    0.40
  -7  11  -2   12.91    0.64
  -8  11  -2   24.13    1.06
  -9  11  -2   13.45    0.66
   4  10  -2    0.46    0.13
   3  10  -2   11.89    0.57
   2  10  -2   44.37    1.70
   1  10  -2   19.62    0.85
   1  10  -2   18.15    0.78
   0  10  -2   15.39    0.72
   0  10  -2   16.02    0.67
  -1  10  -2   20.39    0.90
  -2  10  -2    2.81    0.23
   2 -10   2    2.74    0.21
  -3  10  -2   37.91    1.51
   3 -10   2   35.30    1.40
  -4  10  -2   32.28    1.35
   4 -10   2   32.42    1.25
  -5  10  -2    0.21    0.09
  -6  10  -2   28.68    1.22
  -7  10  -2   59.02    2.35
  -8  10  -2    1.82    0.20
   5   9  -2   13.08    0.63
   4   9  -2   26.18    1.07
   3   9  -2   23.90    0.98
   2   9  -2    3.94    0.26
   2   9  -2    3.96    0.25
   1   9  -2    5.28    0.31
   1   9  -2    4.98    0.28
   0   9  -2    7.71    0.37
   0   9  -2    7.95    0.41
  -1   9  -2   28.68    1.10
  -1   9  -2   29.08    1.20
  -2   9  -2  177.79    6.69
   2  -9   2  173.09    6.26
  -3   9  -2   70.30    2.63
   3  -9   2   63.23    2.44
  -4   9  -2    4.92    0.30
   4  -9   2    4.76    0.26
  -5   9  -2    0.04    0.07
  -6   9  -2    1.67    0.17
  -7   9  -2   12.31    0.58
  -8   9  -2   39.84    1.62
   6   8  -2    0.91    0.16
   5   8  -2    2.75    0.23
   4   8  -2    4.95    0.30
   3   8  -2   27.95    1.10
   2   8  -2   70.72    2.72
   2   8  -2   68.93    2.56
   1   8  -2   56.12    2.21
   1   8  -2   56.39    2.07
   0   8  -2   65.34    2.37
   0   8  -2   64.94    2.54
  -1   8  -2    0.34    0.08
  -1   8  -2    0.46    0.08
  -2   8  -2   11.49    0.53
  -3   8  -2    7.60    0.38
   3  -8   2    7.47    0.35
  -4   8  -2   52.20    2.06
   4  -8   2   52.56    1.92
  -5   8  -2  117.77    4.53
   5  -8   2  118.44    4.21
  -6   8  -2   29.96    1.23
  -7   8  -2   20.62    0.88
  -8   8  -2   11.69    0.52
  -8   8  -2   12.15    0.44
  -8   8  -2   11.84    0.56
  -9   8  -2    8.91    0.46
  -9   8  -2    9.09    0.37
 -10   8  -2    9.64    0.40
 -10   8  -2    9.14    0.49
   7   7  -2   11.47    0.56
   6   7  -2   42.70    1.65
   5   7  -2   29.41    1.17
   4   7  -2    5.04    0.29
   3   7  -2   12.91    0.57
   3   7  -2   13.88    0.59
   2   7  -2   15.56    0.66
   2   7  -2   14.66    0.62
   1   7  -2   45.59    1.68
   1   7  -2   45.76    1.80
   0   7  -2  191.84    7.45
   0   7  -2  201.61    6.96
  -1   7  -2   61.20    2.35
  -1   7  -2   59.89    2.18
  -2   7  -2   36.73    1.46
  -4   7  -2   20.06    0.84
  -4   7  -2   20.33    0.66
  -4   7  -2   20.48    0.61
   4  -7   2   19.66    0.77
  -5   7  -2   26.46    0.79
  -5   7  -2   26.12    0.85
  -5   7  -2   24.86    1.06
   5  -7   2   26.11    0.97
  -6   7  -2   33.79    1.09
  -6   7  -2   33.13    1.35
  -6   7  -2   33.92    1.02
  -7   7  -2   10.63    0.38
  -7   7  -2   10.20    0.48
  -7   7  -2   10.28    0.45
  -8   7  -2   28.45    0.92
  -8   7  -2   29.67    1.01
  -8   7  -2   28.44    1.18
  -9   7  -2   51.65    1.60
  -9   7  -2   53.02    1.71
 -10   7  -2    7.75    0.35
 -10   7  -2    8.32    0.46
   8   6  -2   19.02    0.84
   7   6  -2   17.61    0.77
   6   6  -2    4.12    0.27
   5   6  -2    8.13    0.40
   4   6  -2   30.87    1.18
   3   6  -2   18.52    0.75
   3   6  -2   19.38    0.78
   2   6  -2  164.44    6.23
   1   6  -2  143.69    5.63
   1   6  -2  153.29    5.27
   0   6  -2    3.64    0.19
   0   6  -2    2.61    0.16
  -1   6  -2    4.95    0.25
  -1   6  -2    6.51    0.29
  -2   6  -2   16.93    0.47
  -2   6  -2   14.59    0.66
  -2   6  -2   15.78    0.61
  -2   6  -2   16.78    0.49
  -3   6  -2   19.82    0.60
  -3   6  -2   20.03    0.63
  -4   6  -2  214.55    5.95
  -4   6  -2  212.30    6.00
  -4   6  -2  202.90    7.90
   4  -6   2  206.54    7.36
  -5   6  -2   78.95    3.07
  -5   6  -2   81.38    2.32
  -5   6  -2   81.78    2.39
   5  -6   2   78.13    2.84
  -6   6  -2   44.63    1.33
  -6   6  -2   44.87    1.74
  -6   6  -2   43.17    1.40
  -7   6  -2    9.62    0.37
  -7   6  -2   10.16    0.44
  -7   6  -2    9.94    0.46
  -8   6  -2    4.69    0.30
  -8   6  -2    4.84    0.23
  -8   6  -2    5.03    0.27
  -9   6  -2    8.77    0.36
  -9   6  -2    8.69    0.45
 -10   6  -2    9.66    0.50
 -10   6  -2    8.80    0.38
   8   5  -2    3.82    0.27
   7   5  -2   35.44    1.38
   6   5  -2   87.33    3.18
   5   5  -2   29.32    1.18
  -5  -5   2   32.24    0.99
  -5  -5   2   31.17    0.93
   4   5  -2   14.85    0.63
  -4  -5   2   16.05    0.49
  -4  -5   2   15.70    0.53
   3   5  -2   23.54    0.92
   3   5  -2   24.40    0.96
  -3  -5   2   23.78    0.75
  -3  -5   2   24.54    0.72
   2   5  -2    1.61    0.12
  -2  -5   2    1.67    0.10
  -2  -5   2    1.73    0.07
   1   5  -2  186.66    6.43
   1   5  -2  176.37    6.87
  -1  -5   2  183.08    5.16
   0   5  -2  194.01    6.52
   0   5  -2  175.68    6.97
  -1   5  -2  130.26    5.07
  -1   5  -2  132.20    3.80
  -1   5  -2  139.24    4.73
  -2   5  -2  343.80    9.48
  -2   5  -2  323.23    9.60
  -3   5  -2   81.45    3.11
  -4   5  -2    0.49    0.08
  -4   5  -2    0.46    0.07
  -4   5  -2    0.51    0.05
   4  -5   2    0.67    0.06
  -5   5  -2   37.89    1.18
  -5   5  -2   36.51    1.47
  -5   5  -2   37.97    1.12
  -7   5  -2  117.26    4.39
  -7   5  -2  113.43    3.44
  -7   5  -2  115.11    3.35
  -8   5  -2   69.59    2.13
  -8   5  -2   65.81    2.02
  -9   5  -2   28.43    0.92
  -9   5  -2   28.19    1.03
 -10   5  -2    4.14    0.32
 -10   5  -2    4.33    0.24
   9   4  -2   10.34    0.52
   8   4  -2   22.59    0.93
  -8  -4   2   22.43    0.83
  -8  -4   2   22.72    0.74
   7   4  -2   21.34    0.87
  -7  -4   2   21.30    0.69
  -7  -4   2   21.72    0.77
   6   4  -2    8.90    0.42
  -6  -4   2    9.06    0.39
  -6  -4   2    9.05    0.33
   5   4  -2   26.24    1.03
  -5  -4   2   27.26    0.88
  -5  -4   2   27.15    0.82
   4   4  -2   94.10    3.38
  -4  -4   2   94.05    2.75
  -4  -4   2   94.54    2.71
   3   4  -2  254.60    8.80
  -3  -4   2  245.70    7.12
  -3  -4   2  248.63    7.10
  -2  -4   2  156.33    4.45
  -2  -4   2  157.28    4.48
   1   4  -2   62.49    2.23
  -1  -4   2   62.22    1.78
  -1  -4   2   62.29    1.77
   0   4  -2   56.35    1.89
   0   4  -2   49.38    2.02
  -1   4  -2   37.86    1.34
  -1   4  -2   36.75    1.44
  -2   4  -2    4.71    0.16
  -2   4  -2    5.03    0.22
   2  -4   2    4.43    0.19
  -3   4  -2  166.96    4.62
  -3   4  -2  154.49    6.11
  -3   4  -2  162.24    4.65
   3  -4   2  164.15    5.70
  -4   4  -2  324.06    8.94
  -4   4  -2  312.11   11.79
  -4   4  -2  323.87    8.95
   4  -4   2  292.11   10.99
  -5   4  -2  328.99    9.19
  -5   4  -2  330.33   12.12
  -5   4  -2  333.98    9.22
   5  -4   2  293.98   11.30
  -6   4  -2    0.44    0.10
  -6   4  -2    0.54    0.07
  -6   4  -2    0.76    0.08
  -7   4  -2    0.35    0.07
  -7   4  -2    0.08    0.10
  -7   4  -2    0.23    0.06
  -8   4  -2   -0.09    0.09
  -8   4  -2    0.03    0.06
  -9   4  -2    1.93    0.16
  -9   4  -2    2.14    0.24
 -10   4  -2   39.97    1.40
 -10   4  -2   40.31    1.28
 -10  -3   2    0.29    0.16
 -10  -3   2    0.09    0.08
   9   3  -2    6.98    0.37
  -9  -3   2    6.74    0.30
  -9  -3   2    6.89    0.39
   8   3  -2   23.12    0.91
  -8  -3   2   21.53    0.82
  -8  -3   2   22.59    0.73
   7   3  -2    4.90    0.27
  -7  -3   2    5.15    0.23
  -7  -3   2    4.76    0.29
   6   3  -2   81.97    3.00
  -6  -3   2   84.19    2.49
  -6  -3   2   83.00    2.42
   5   3  -2   98.41    3.54
  -5  -3   2   99.20    2.91
  -5  -3   2   98.67    2.85
   4   3  -2   12.42    0.50
   4   3  -2   12.67    0.49
  -4  -3   2   11.80    0.43
  -4  -3   2   12.07    0.39
   3   3  -2   17.43    0.69
   3   3  -2   18.04    0.71
  -3  -3   2   18.84    0.55
  -3  -3   2   18.10    0.58
   2   3  -2    7.21    0.29
  -2  -3   2    6.77    0.24
  -2  -3   2    6.70    0.22
   1   3  -2  136.24    5.26
   1   3  -2  144.14    4.93
  -1  -3   2  139.22    3.96
  -1  -3   2  138.51    3.97
   0   3  -2  229.28    7.62
   0   3  -2  194.29    8.14
   0  -3   2  222.96    6.12
   2  -3   2    3.92    0.15
  -3   3  -2   67.91    2.58
   3  -3   2   67.14    2.38
  -4   3  -2   39.01    1.21
  -4   3  -2   38.49    1.51
  -4   3  -2   39.30    1.16
   4  -3   2   38.92    1.38
  -5   3  -2   89.85    2.70
  -5   3  -2   91.26    3.46
  -5   3  -2   92.08    2.64
   5  -3   2   90.45    3.20
  -6   3  -2  166.43    4.70
  -6   3  -2  165.07    4.78
  -6   3  -2  158.51    6.17
  -7   3  -2    8.48    0.40
  -7   3  -2    7.68    0.31
  -8   3  -2   20.66    0.78
  -8   3  -2   19.57    0.68
  -9   3  -2   41.86    1.43
  -9   3  -2   41.75    1.31
 -10   3  -2    5.40    0.37
 -10   3  -2    4.98    0.26
 -10  -2   2   16.10    0.71
 -10  -2   2   17.46    0.61
   9   2  -2   17.11    0.73
  -9  -2   2   17.04    0.69
  -9  -2   2   17.65    0.60
   8   2  -2   28.53    1.08
  -8  -2   2   27.00    0.96
  -8  -2   2   26.61    0.87
   7   2  -2    8.36    0.39
  -7  -2   2    8.20    0.39
  -7  -2   2    8.76    0.32
   6   2  -2    2.04    0.15
  -6  -2   2    2.09    0.17
  -6  -2   2    2.21    0.12
   5   2  -2  150.49    5.37
  -5  -2   2  152.15    4.34
  -5  -2   2  151.98    4.39
   4   2  -2  209.72    7.61
  -4  -2   2  216.96    6.13
  -4  -2   2  219.69    6.18
   3   2  -2  136.01    4.83
   3   2  -2  139.36    5.13
  -3  -2   2  135.28    3.89
  -3  -2   2  135.62    3.93
   2   2  -2  314.58   11.25
  -2  -2   2  295.70    8.51
  -2  -2   2  287.19    8.57
   1   2  -2  109.04    4.35
   1   2  -2  119.09    4.07
  -1  -2   2  117.11    3.28
  -1  -2   2  115.81    3.28
   0   2  -2   45.08    1.79
   0   2  -2   47.31    1.67
   0  -2   2   47.69    1.35
   0  -2   2   46.93    1.36
  -2   2  -2    2.81    0.14
  -3   2  -2  226.95    9.10
   3  -2   2  255.14    8.46
  -4   2  -2  509.04   13.99
  -4   2  -2  449.04   18.52
   4  -2   2  516.53   17.25
  -5   2  -2  158.74    6.16
   5  -2   2  167.76    5.74
  -6   2  -2    1.41    0.15
  -6   2  -2    1.07    0.10
  -6   2  -2    1.38    0.11
  -7   2  -2    0.27    0.12
  -7   2  -2    0.34    0.07
  -8   2  -2    1.75    0.21
  -8   2  -2    2.13    0.15
  -9   2  -2   17.89    0.74
  -9   2  -2   17.94    0.63
 -10   2  -2   30.58    1.02
 -10   2  -2   32.28    1.16
 -10  -1   2    3.39    0.21
 -10  -1   2    3.67    0.32
   9   1  -2   12.85    0.57
  -9  -1   2   13.16    0.48
  -9  -1   2   13.32    0.58
   8   1  -2   16.07    0.65
  -8  -1   2   15.76    0.63
  -8  -1   2   15.38    0.54
   7   1  -2   60.32    2.24
  -7  -1   2   61.87    1.82
  -7  -1   2   62.36    1.90
   6   1  -2  187.88    6.83
  -6  -1   2  194.85    5.53
  -6  -1   2  197.21    5.60
   5   1  -2   70.58    2.58
  -5  -1   2   72.71    2.15
  -5  -1   2   72.94    2.09
   4   1  -2    1.12    0.09
  -4  -1   2    0.77    0.09
  -4  -1   2    0.75    0.07
  -3  -1   2    6.12    0.20
  -3  -1   2    5.67    0.23
   2   1  -2   19.22    0.75
  -2  -1   2   20.22    0.61
  -2  -1   2   20.02    0.58
   1   1  -2  749.83   26.26
   1   1  -2  752.09   27.84
  -1  -1   2  701.85   20.86
  -1  -1   2  710.57   21.15
   0   1  -2  317.76   12.73
   0   1  -2  322.01   14.04
   0  -1   2  409.69   10.12
   0  -1   2  369.12   10.20
  -1   1  -2    1.42    0.09
  -1   1  -2    1.35    0.06
   1  -1   2    1.46    0.06
  -2   1  -2   65.59    2.57
   2  -1   2   69.39    2.37
  -3   1  -2  334.34   13.71
   3  -1   2  393.15   12.79
  -4   1  -2   16.55    0.67
   4  -1   2   16.62    0.61
  -5   1  -2   72.55    2.12
  -5   1  -2   71.95    2.18
  -6   1  -2  116.09    4.45
  -6   1  -2  117.53    3.40
  -6   1  -2  118.86    3.49
  -7   1  -2   81.55    2.52
  -7   1  -2   82.72    2.42
  -8   1  -2   19.30    0.66
  -8   1  -2   19.25    0.76
  -9   1  -2   14.59    0.53
  -9   1  -2   13.03    0.62
 -10   1  -2    2.32    0.27
 -10   1  -2    2.63    0.19
 -11   0   2   21.83    0.87
 -11   0   2   20.79    0.74
 -10   0   2   35.64    1.24
 -10   0   2   34.39    1.12
   9   0  -2    4.60    0.27
  -9   0   2    5.47    0.33
  -9   0   2    4.98    0.24
   8   0  -2    3.31    0.20
  -8   0   2    2.92    0.24
  -8   0   2    2.95    0.17
   7   0  -2    0.85    0.10
  -7   0   2    0.49    0.07
  -7   0   2    0.51    0.12
   6   0  -2   17.19    0.68
  -6   0   2   17.42    0.56
  -6   0   2   18.31    0.63
   5   0  -2  215.87    7.74
  -5   0   2  221.69    6.26
  -5   0   2  221.48    6.32
   4   0  -2  289.32   10.07
  -4   0   2  283.32    8.13
  -4   0   2  280.71    8.12
  -3   0   2  122.67    3.54
  -3   0   2  123.27    3.51
   2   0  -2    9.11    0.34
  -2   0   2    8.76    0.35
   1   0  -2   45.74    1.42
  -1   0   2   37.19    1.15
  -1   0   2   36.70    1.16
   0   0  -2   17.60    0.66
   0   0   2   18.42    0.54
   0   0   2   18.28    0.56
   1   0   2  132.12    3.75
  -2   0  -2  485.57   19.84
   2   0   2  569.00   18.81
  -3   0  -2  159.66    6.25
   3   0   2  171.18    5.83
   4   0   2   43.35    1.55
  -5   0  -2   71.53    2.09
  -5   0  -2   72.26    2.73
  -5   0  -2   69.11    2.16
   5   0   2   72.12    2.54
  -6   0  -2    0.79    0.13
  -6   0  -2    1.24    0.10
  -7   0  -2   11.51    0.51
  -7   0  -2   11.98    0.43
  -8   0  -2   14.40    0.53
  -8   0  -2   14.85    0.63
  -9   0  -2    9.80    0.40
  -9   0  -2    9.87    0.51
 -10   0  -2   30.36    1.01
 -11   1   2   -0.28    0.11
 -11   1   2    0.05    0.08
 -10   1   2    0.83    0.12
 -10   1   2    0.88    0.17
   9  -1  -2   24.49    0.99
  -9   1   2   26.43    0.84
  -9   1   2   26.12    0.94
   8  -1  -2   29.08    1.11
  -8   1   2   29.31    0.93
  -8   1   2   29.82    1.02
   7  -1  -2   43.88    1.61
  -7   1   2   43.57    1.32
  -7   1   2   44.01    1.40
  -5   1   2  126.61    4.76
   4  -1  -2    8.04    0.33
  -4   1   2    8.38    0.32
  -4   1   2    8.03    0.27
  -4   1   2    8.06    0.33
  -3   1   2  166.13    6.26
   2  -1  -2  218.33    7.44
  -2   1   2  198.96    6.02
  -2   1   2  211.55    6.03
  -2   1   2  215.84    7.97
   1  -1  -2    1.09    0.08
  -1   1   2    1.18    0.08
  -1   1   2    1.20    0.06
  -1   1   2    1.00    0.08
   0  -1  -2  325.00   10.53
   0   1   2  305.40    8.48
   0   1   2  263.95   11.24
   1   1   2  448.45   12.71
   1   1   2  445.80   15.73
   2   1   2   10.31    0.40
   3   1   2    4.79    0.21
  -4  -1  -2    1.51    0.12
   4   1   2    1.51    0.10
  -5  -1  -2   51.67    2.03
  -5  -1  -2   52.02    1.64
  -5  -1  -2   52.08    1.56
   5   1   2   54.32    1.90
  -6  -1  -2  106.22    3.21
  -6  -1  -2  109.89    3.30
   6   1   2  115.33    3.94
  -7  -1  -2   46.63    1.45
  -7  -1  -2   48.95    1.56
  -8  -1  -2    9.05    0.36
  -8  -1  -2    7.94    0.44
  -9  -1  -2    2.49    0.28
  -9  -1  -2    2.96    0.20
 -11   2   2   15.47    0.57
 -11   2   2   15.04    0.69
 -10   2   2   26.79    0.88
 -10   2   2   26.18    0.98
  -9   2   2   21.85    0.82
  -9   2   2   21.11    0.72
   8  -2  -2    1.36    0.14
  -8   2   2    2.15    0.21
  -8   2   2    2.32    0.15
   7  -2  -2   24.78    0.94
  -7   2   2   24.78    0.78
  -7   2   2   25.14    0.86
   6  -2  -2   19.37    0.73
  -6   2   2   19.04    0.67
  -6   2   2   19.80    0.61
  -6   2   2   18.09    0.74
   5  -2  -2   96.54    3.43
  -5   2   2   95.11    3.65
  -5   2   2   98.27    2.79
  -5   2   2   97.05    2.84
   4  -2  -2  260.52    9.19
  -4   2   2  260.24    7.43
  -4   2   2  259.75    7.43
  -4   2   2  257.81    9.77
  -2   2   2   16.55    0.64
  -2   2   2   15.96    0.51
  -2   2   2   16.08    0.48
  -1   2   2   73.71    2.12
  -1   2   2   72.87    2.10
   0  -2  -2   10.54    0.42
   0   2   2   10.35    0.32
   1   2   2  380.68   12.52
   1   2   2  328.77   13.39
   2   2   2  215.92    7.62
   3   2   2   68.94    2.47
   4   2   2   42.65    1.55
  -5  -2  -2   96.84    3.68
  -5  -2  -2   95.15    2.88
  -5  -2  -2   97.11    2.80
   5   2   2   95.45    3.44
  -6  -2  -2    0.10    0.09
  -6  -2  -2    0.17    0.06
   6   2   2    0.29    0.07
  -7  -2  -2    6.43    0.36
  -7  -2  -2    6.41    0.28
  -8  -2  -2   11.53    0.45
  -8  -2  -2   12.35    0.57
  -9  -2  -2   21.02    0.85
  -9  -2  -2   21.01    0.73
 -11   3   2    0.13    0.09
 -11   3   2    0.11    0.15
 -10   3   2   -0.01    0.13
 -10   3   2    0.51    0.10
  -9   3   2   73.90    2.30
  -9   3   2   73.30    2.19
   8  -3  -2  115.32    4.06
  -8   3   2  111.97    3.31
  -8   3   2  113.50    3.40
   7  -3  -2   24.20    0.90
  -7   3   2   23.24    0.75
  -7   3   2   23.66    0.83
   6  -3  -2   29.07    1.06
  -6   3   2   28.49    0.87
  -6   3   2   27.76    0.93
  -6   3   2   28.64    1.11
   5  -3  -2  102.91    3.65
  -5   3   2  102.07    3.89
  -5   3   2  102.80    3.02
  -5   3   2  103.24    2.96
   4  -3  -2   41.75    1.51
  -4   3   2   41.98    1.23
  -4   3   2   42.83    1.27
  -4   3   2   40.45    1.61
   3  -3  -2  219.42    7.03
  -3   3   2  207.79    7.52
  -3   3   2  185.51    5.66
  -3   3   2  181.71    5.68
   2  -3  -2  277.87    9.31
  -2   3   2  260.64    9.94
  -2   3   2  250.41    7.50
  -2   3   2  262.31    7.49
  -1   3   2  485.78   13.21
  -1   3   2  443.14   13.39
   0  -3  -2   87.52    3.11
   0   3   2   84.58    3.31
   0   3   2   88.86    2.48
   1   3   2  101.61    3.56
   1   3   2   98.64    3.81
   2   3   2   32.16    1.28
   2   3   2   32.75    1.20
   3   3   2    0.69    0.08
  -4  -3  -2  141.45    4.17
  -4  -3  -2  141.39    4.10
   4   3   2  144.98    5.07
  -5  -3  -2   68.44    2.03
  -5  -3  -2   68.02    2.10
   5   3   2   69.81    2.50
  -6  -3  -2   57.24    1.72
  -6  -3  -2   57.02    1.81
   6   3   2   57.61    2.11
  -7  -3  -2   29.27    1.03
  -7  -3  -2   28.67    0.93
  -8  -3  -2   19.74    0.79
  -8  -3  -2   18.55    0.66
 -11   4   2   10.21    0.53
 -11   4   2    8.96    0.40
 -10   4   2   19.14    0.67
 -10   4   2   19.74    0.78
  -9   4   2   12.08    0.45
  -9   4   2   11.84    0.53
   8  -4  -2    4.52    0.24
  -8   4   2    4.39    0.22
  -8   4   2    4.81    0.30
   7  -4  -2   37.07    1.38
  -7   4   2   36.65    1.45
  -7   4   2   37.71    1.21
  -7   4   2   37.93    1.14
   6  -4  -2   38.30    1.41
  -6   4   2   39.60    1.23
  -6   4   2   38.10    1.16
  -6   4   2   38.41    1.50
   5  -4  -2   24.80    0.91
  -5   4   2   23.96    0.80
  -5   4   2   24.04    0.97
  -5   4   2   24.28    0.74
   4  -4  -2  124.14    4.34
  -4   4   2  120.18    3.54
  -4   4   2  121.13    3.50
  -4   4   2  122.74    4.63
   3  -4  -2  164.37    5.66
  -3   4   2  157.79    4.59
  -3   4   2  156.33    4.55
  -3   4   2  160.99    6.04
   2  -4  -2   20.32    0.74
  -2   4   2   18.14    0.57
  -2   4   2   20.84    0.78
  -2   4   2   17.59    0.59
  -1   4   2   11.33    0.50
  -1   4   2   11.56    0.35
   0   4   2   41.76    1.21
   1   4   2   72.80    2.81
   1   4   2   73.52    2.62
   2   4   2  116.10    4.15
   2   4   2  116.93    4.44
   3   4   2   46.31    1.70
  -4  -4  -2   22.21    0.69
  -4  -4  -2   22.21    0.76
   4   4   2   21.27    0.85
  -5  -4  -2    2.60    0.15
  -5  -4  -2    2.27    0.20
   5   4   2    2.38    0.18
   6   4   2    0.30    0.08
 -11   5   2    0.66    0.18
 -11   5   2    0.42    0.10
 -10   5   2    3.08    0.19
 -10   5   2    2.71    0.27
  -9   5   2   39.71    1.33
  -9   5   2   39.34    1.22
   8  -5  -2   94.68    3.35
  -8   5   2   93.45    2.83
  -8   5   2   91.93    2.73
   7  -5  -2   44.94    1.61
  -7   5   2   44.03    1.40
  -7   5   2   43.98    1.32
  -7   5   2   42.48    1.71
   6  -5  -2    0.38    0.07
  -6   5   2    0.10    0.08
  -6   5   2    0.19    0.05
  -6   5   2    0.13    0.06
   5  -5  -2    0.04    0.05
  -5   5   2    0.11    0.06
  -5   5   2    0.07    0.04
   4  -5  -2    3.24    0.18
  -4   5   2    2.97    0.13
  -4   5   2    3.31    0.19
  -4   5   2    2.95    0.17
   3  -5  -2  119.68    4.33
  -3   5   2  119.77    4.63
  -3   5   2  123.23    3.51
  -3   5   2  124.09    3.48
  -1   5   2  100.24    3.70
  -1   5   2   93.35    2.76
   0  -5  -2   78.79    2.75
   0   5   2   72.09    2.90
   1   5   2   57.30    2.10
   1   5   2   58.12    2.25
   2   5   2    0.78    0.10
   3   5   2   36.78    1.38
   4   5   2   29.39    1.13
   5   5   2   10.89    0.49
   6   5   2   46.74    1.76
 -11   6   2   11.39    0.47
 -11   6   2   12.50    0.60
 -10   6   2    6.49    0.30
 -10   6   2    6.51    0.40
  -9   6   2   10.10    0.39
  -9   6   2   10.19    0.48
   8  -6  -2    1.34    0.13
  -8   6   2    1.14    0.17
  -8   6   2    1.13    0.11
   7  -6  -2   98.37    3.59
  -7   6   2  104.70    3.00
  -7   6   2  101.84    2.92
  -7   6   2   96.31    3.84
   6  -6  -2   39.21    1.50
  -6   6   2   42.17    1.22
  -6   6   2   41.76    1.28
  -6   6   2   39.18    1.60
   5  -6  -2   25.10    0.97
  -5   6   2   24.86    1.03
  -5   6   2   25.72    0.83
  -5   6   2   25.07    0.77
   4  -6  -2   86.12    3.06
  -4   6   2   84.44    2.49
  -4   6   2   84.21    2.44
  -4   6   2   84.38    3.26
   3  -6  -2  284.45    9.98
  -3   6   2  285.26    8.05
  -3   6   2  276.03   10.66
  -3   6   2  284.15    8.02
   2  -6  -2    0.47    0.08
  -2   6   2    0.23    0.07
   1  -6  -2   37.17    1.39
  -1   6   2   35.98    1.46
   0  -6  -2   42.17    1.58
   0   6   2   40.61    1.65
   1   6   2   49.57    1.93
   1   6   2   47.56    1.79
   2   6   2  122.24    4.40
   2   6   2  123.31    4.71
   3   6   2   26.39    1.04
   4   6   2   22.25    0.90
   5   6   2    7.69    0.39
 -11   7   2    8.43    0.37
 -11   7   2    8.72    0.48
 -10   7   2    5.97    0.29
 -10   7   2    5.56    0.38
  -9   7   2   51.11    1.65
  -9   7   2   50.01    1.54
   8  -7  -2   40.35    1.50
  -8   7   2   40.55    1.32
  -8   7   2   37.63    1.60
  -8   7   2   41.75    1.23
   7  -7  -2   12.35    0.53
  -7   7   2   12.21    0.56
  -7   7   2   12.75    0.51
  -7   7   2   12.44    0.43
   6  -7  -2    1.62    0.15
  -6   7   2    1.98    0.16
   5  -7  -2    0.42    0.09
  -5   7   2    0.12    0.07
   4  -7  -2   39.45    1.50
  -4   7   2   40.20    1.60
   3  -7  -2   38.41    1.46
  -3   7   2   38.81    1.55
   2  -7  -2  119.74    4.35
  -2   7   2  121.87    4.63
   1  -7  -2   41.44    1.58
  -1   7   2   41.37    1.66
   0  -7  -2   34.76    1.38
   0   7   2   35.96    1.45
  -1  -7  -2    0.48    0.11
   1   7   2    0.51    0.10
   2   7   2    8.33    0.43
   3   7   2   25.56    1.02
   4   7   2   37.44    1.45
   5   7   2   21.19    0.89
   8  -8  -2   16.13    0.65
  -8   8   2   14.59    0.69
   7  -8  -2   44.10    1.64
  -7   8   2   43.02    1.75
   6  -8  -2   19.20    0.79
  -6   8   2   19.59    0.84
   5  -8  -2   15.34    0.65
  -5   8   2   15.47    0.69
   4  -8  -2   74.27    2.73
  -4   8   2   74.46    2.91
   3  -8  -2   11.10    0.51
  -3   8   2   11.14    0.54
   2  -8  -2    2.35    0.19
  -2   8   2    2.23    0.19
   1  -8  -2   28.69    1.16
  -1   8   2   29.01    1.21
   0  -8  -2   30.10    1.22
   0   8   2   29.88    1.26
  -1  -8  -2   29.60    1.23
   1   8   2   30.49    1.27
  -2  -8  -2   44.09    1.78
   2   8   2   46.61    1.85
  -8   9   2   29.63    1.25
   7  -9  -2    4.83    0.29
  -7   9   2    5.13    0.31
   6  -9  -2    5.35    0.30
  -6   9   2    5.21    0.32
   5  -9  -2    0.39    0.10
  -5   9   2    0.42    0.10
   4  -9  -2    1.83    0.18
  -4   9   2    2.04    0.19
   3  -9  -2   32.41    1.28
  -3   9   2   31.71    1.34
   2  -9  -2   83.74    3.13
  -2   9   2   85.87    3.33
   1  -9  -2   36.91    1.51
  -1   9   2   39.63    1.59
   0  -9  -2    0.10    0.09
   0   9   2    0.20    0.09
  -1  -9  -2    0.54    0.13
   1   9   2    0.78    0.14
  -2  -9  -2    0.10    0.10
   2   9   2    0.07    0.09
  -8  10   2    3.32    0.26
   7 -10  -2   21.13    0.88
  -7  10   2   21.20    0.94
   6 -10  -2   67.23    2.46
  -6  10   2   64.71    2.62
   5 -10  -2    6.24    0.36
  -5  10   2    6.22    0.38
   4 -10  -2    8.83    0.46
  -4  10   2    8.51    0.47
   3 -10  -2   11.77    0.59
  -3  10   2   12.46    0.61
   2 -10  -2   14.76    0.70
  -2  10   2   15.42    0.73
   1 -10  -2   27.31    1.18
  -1  10   2   29.21    1.24
   0 -10  -2   14.02    0.70
   0  10   2   14.97    0.72
  -1 -10  -2   20.86    0.98
   1  10   2   23.46    1.02
   7 -11  -2    2.67    0.22
  -7  11   2    2.32    0.24
   6 -11  -2    2.90    0.24
  -6  11   2    2.95    0.25
   5 -11  -2   12.69    0.62
  -5  11   2   13.58    0.66
   4 -11  -2   10.21    0.52
  -4  11   2    9.36    0.53
   3 -11  -2   15.68    0.74
  -3  11   2   15.58    0.76
   2 -11  -2   31.11    1.31
  -2  11   2   31.84    1.37
  -1  13  -3   20.46    0.96
  -2  13  -3   17.50    0.82
   2 -13   3   15.90    0.76
  -3  13  -3    8.49    0.49
   3 -13   3    8.24    0.45
  -4  13  -3    3.50    0.30
   1  12  -3   27.68    1.13
   0  12  -3    6.28    0.40
  -1  12  -3    2.80    0.24
   1 -12   3    2.44    0.23
  -2  12  -3    3.26    0.27
   2 -12   3    3.16    0.25
  -3  12  -3   27.38    1.19
   3 -12   3   26.40    1.09
  -4  12  -3   26.17    1.16
  -5  12  -3   21.01    0.96
  -6  12  -3    2.80    0.25
  -7  12  -3    5.01    0.35
   3  11  -3    0.80    0.15
   2  11  -3    3.60    0.26
   1  11  -3    9.69    0.51
   1  11  -3   10.02    0.48
   0  11  -3   25.97    1.13
   0  11  -3   26.21    1.04
  -1  11  -3   26.96    1.16
  -2  11  -3    6.10    0.36
   2 -11   3    5.77    0.34
  -3  11  -3   20.49    0.88
   3 -11   3   17.89    0.79
  -4  11  -3    0.33    0.11
  -5  11  -3   19.78    0.90
  -6  11  -3   37.33    1.56
  -7  11  -3    1.01    0.16
  -8  11  -3   17.25    0.81
  -9  11  -3   15.30    0.74
   4  10  -3   23.84    1.01
   3  10  -3   23.74    0.98
   2  10  -3   20.50    0.86
   1  10  -3   15.47    0.72
   1  10  -3   15.97    0.67
   0  10  -3   11.94    0.53
   0  10  -3   12.11    0.58
  -1  10  -3    3.83    0.27
  -1  10  -3    4.11    0.23
  -2  10  -3   35.53    1.41
   2 -10   3   32.54    1.32
  -3  10  -3   34.82    1.41
   3 -10   3   32.75    1.30
  -4  10  -3   47.91    1.93
  -5  10  -3   27.18    1.16
  -6  10  -3    7.45    0.41
  -7  10  -3    0.79    0.13
  -8  10  -3    0.19    0.10
   5   9  -3   10.62    0.53
   4   9  -3    3.89    0.27
   3   9  -3    9.35    0.46
   2   9  -3   12.43    0.57
   2   9  -3   11.86    0.54
   1   9  -3   21.75    0.93
   1   9  -3   21.48    0.86
   0   9  -3   27.10    1.13
   0   9  -3   26.90    1.04
  -1   9  -3  119.18    4.61
  -1   9  -3  120.78    4.29
  -2   9  -3   34.64    1.41
  -3   9  -3    0.78    0.12
   3  -9   3    0.67    0.10
  -4   9  -3    5.34    0.32
   4  -9   3    6.23    0.29
  -5   9  -3    8.20    0.43
  -6   9  -3   63.68    2.51
  -7   9  -3   32.37    1.34
  -8   9  -3   17.32    0.78
   6   8  -3    1.09    0.16
   5   8  -3   31.41    1.25
   4   8  -3   48.85    1.85
   3   8  -3   43.68    1.65
   2   8  -3   16.83    0.71
   2   8  -3   18.18    0.76
   1   8  -3   36.28    1.46
   1   8  -3   36.38    1.36
   0   8  -3   24.52    0.94
   0   8  -3   24.24    1.01
  -1   8  -3   41.54    1.64
  -1   8  -3   40.87    1.51
  -2   8  -3  102.19    3.67
  -2   8  -3  104.02    3.96
  -3   8  -3   28.83    1.15
   3  -8   3   26.90    1.05
  -4   8  -3   73.91    2.85
   4  -8   3   72.62    2.64
  -5   8  -3   69.39    2.70
  -6   8  -3    7.08    0.37
  -7   8  -3   18.89    0.62
  -7   8  -3   18.84    0.70
  -7   8  -3   18.45    0.81
  -8   8  -3   13.65    0.60
  -8   8  -3   12.27    0.55
  -8   8  -3   12.14    0.46
  -9   8  -3    6.38    0.30
  -9   8  -3    7.01    0.40
 -10   8  -3   26.55    0.99
 -10   8  -3   25.15    0.86
   7   7  -3   15.09    0.70
   6   7  -3   18.91    0.81
   5   7  -3   32.45    1.27
   4   7  -3    0.54    0.10
   3   7  -3   25.07    0.99
   3   7  -3   25.62    1.03
   2   7  -3   25.40    1.03
   2   7  -3   25.09    0.98
   1   7  -3    1.19    0.11
   1   7  -3    1.06    0.12
   0   7  -3  233.15    8.01
   0   7  -3  220.82    8.58
  -1   7  -3  140.03    5.38
  -1   7  -3  142.88    5.01
  -2   7  -3    1.56    0.13
  -2   7  -3    1.46    0.10
  -3   7  -3    1.25    0.11
  -4   7  -3    0.76    0.07
  -4   7  -3    0.75    0.10
  -4   7  -3    0.67    0.09
   4  -7   3    0.91    0.08
  -5   7  -3   34.76    1.13
  -5   7  -3   35.36    1.42
  -5   7  -3   36.23    1.07
  -6   7  -3  107.07    4.20
  -6   7  -3  110.54    3.18
  -6   7  -3  111.22    3.26
  -7   7  -3   42.44    1.69
  -7   7  -3   41.38    1.38
  -7   7  -3   43.16    1.29
  -8   7  -3    5.91    0.27
  -8   7  -3    5.70    0.32
  -8   7  -3    6.10    0.35
  -9   7  -3    2.34    0.26
  -9   7  -3    2.59    0.18
 -10   7  -3    4.23    0.24
 -10   7  -3    4.34    0.33
   8   6  -3    0.07    0.10
   7   6  -3    1.65    0.19
   6   6  -3    6.73    0.37
   5   6  -3   41.40    1.57
   4   6  -3  125.82    4.51
   3   6  -3   77.53    2.80
   3   6  -3   76.97    2.96
   2   6  -3    9.44    0.41
   2   6  -3    8.80    0.39
   1   6  -3    3.51    0.19
   1   6  -3    3.86    0.20
   0   6  -3    2.23    0.15
   0   6  -3    2.19    0.13
  -1   6  -3  130.21    4.50
  -1   6  -3  128.69    3.61
  -1   6  -3  127.49    3.62
  -1   6  -3  122.42    4.83
  -2   6  -3  138.45    4.75
  -2   6  -3  140.03    3.85
  -2   6  -3  139.17    3.83
  -2   6  -3  120.29    5.10
  -3   6  -3   93.11    3.39
  -3   6  -3   91.82    2.58
  -3   6  -3   92.16    2.54
   3  -6   3   76.53    3.13
  -4   6  -3   42.89    1.26
  -4   6  -3   42.70    1.68
  -4   6  -3   42.84    1.31
  -5   6  -3   75.67    2.93
  -5   6  -3   77.22    2.22
  -5   6  -3   75.16    2.28
  -6   6  -3   34.40    1.11
  -6   6  -3   33.09    1.34
  -6   6  -3   33.64    1.03
  -7   6  -3   19.42    0.82
  -7   6  -3   19.62    0.73
  -7   6  -3   19.53    0.65
  -8   6  -3   54.75    2.14
  -8   6  -3   55.15    1.77
  -8   6  -3   54.36    1.66
  -9   6  -3   18.87    0.67
  -9   6  -3   20.59    0.79
 -10   6  -3    4.62    0.36
 -10   6  -3    5.16    0.27
   9   5  -3   20.69    0.90
   8   5  -3   27.03    1.10
   7   5  -3   38.75    1.50
   6   5  -3   10.77    0.50
  -6  -5   3   10.99    0.38
   5   5  -3   14.93    0.64
  -5  -5   3   15.59    0.49
  -5  -5   3   15.74    0.55
  -4  -5   3    0.45    0.05
  -4  -5   3    0.61    0.09
   3   5  -3   29.38    1.16
  -3  -5   3   29.50    0.87
  -3  -5   3   29.99    0.90
   2   5  -3  260.65    8.71
   2   5  -3  240.88    9.30
  -2  -5   3  242.45    7.01
  -2  -5   3  242.35    6.99
   1   5  -3  190.78    7.53
   1   5  -3  204.24    7.04
  -1  -5   3  201.20    5.66
  -1  -5   3  201.76    5.66
   0   5  -3  164.33    5.72
   0   5  -3  155.42    6.13
   0  -5   3  167.37    4.60
  -1   5  -3  360.03   11.77
  -1   5  -3  308.56   12.60
  -2   5  -3    0.98    0.07
  -3   5  -3   95.23    3.68
   3  -5   3   97.92    3.41
  -4   5  -3   18.64    0.78
  -4   5  -3   19.07    0.65
  -4   5  -3   19.76    0.60
   4  -5   3   19.09    0.69
  -5   5  -3   29.84    0.98
  -5   5  -3   30.78    1.20
  -5   5  -3   30.05    0.92
  -6   5  -3  177.79    5.24
  -6   5  -3  179.20    5.16
  -6   5  -3  181.66    6.80
  -7   5  -3  100.11    3.73
  -7   5  -3   98.96    2.95
  -7   5  -3   93.47    2.85
  -8   5  -3   11.52    0.44
  -8   5  -3   11.38    0.52
  -9   5  -3    0.15    0.13
  -9   5  -3    0.10    0.08
 -10   5  -3    0.64    0.12
 -10   5  -3    0.74    0.19
   9   4  -3    7.62    0.41
   8   4  -3   13.73    0.62
  -8  -4   3   14.28    0.58
  -8  -4   3   13.74    0.49
   7   4  -3    3.54    0.24
  -7  -4   3    3.46    0.25
  -7  -4   3    3.57    0.18
   6   4  -3    8.53    0.40
  -6  -4   3    8.57    0.31
  -6  -4   3    8.74    0.38
   5   4  -3   38.40    1.44
  -5  -4   3   38.42    1.20
  -5  -4   3   38.96    1.15
   4   4  -3  249.27    9.22
   4   4  -3  249.15    8.65
  -4  -4   3  240.04    6.97
  -4  -4   3  241.62    7.01
   3   4  -3   93.44    3.50
  -3  -4   3   92.12    2.64
  -3  -4   3   91.58    2.68
   2   4  -3   17.18    0.65
  -2  -4   3   17.21    0.53
  -2  -4   3   17.05    0.51
   1   4  -3  103.83    3.66
  -1  -4   3  102.17    2.96
  -1  -4   3  103.89    2.94
   0   4  -3    2.37    0.12
   0   4  -3    2.45    0.14
   0  -4   3    2.85    0.09
  -1   4  -3   15.62    0.58
  -1   4  -3   16.16    0.64
  -2   4  -3  271.41   10.29
  -3   4  -3  136.21    5.28
   3  -4   3  142.72    4.89
  -4   4  -3   25.97    1.03
  -5   4  -3    5.49    0.29
  -5   4  -3    5.54    0.27
  -5   4  -3    5.75    0.23
  -6   4  -3    4.48    0.26
  -6   4  -3    4.38    0.23
  -6   4  -3    4.69    0.21
  -7   4  -3   40.18    1.33
  -7   4  -3   41.01    1.59
  -7   4  -3   40.05    1.24
  -8   4  -3   71.45    2.23
  -8   4  -3   70.26    2.12
  -9   4  -3   17.59    0.73
  -9   4  -3   16.51    0.61
 -10   4  -3    8.55    0.48
 -10   4  -3    8.61    0.38
 -10  -3   3   12.64    0.59
 -10  -3   3   12.30    0.47
   9   3  -3   16.28    0.72
  -9  -3   3   17.30    0.59
  -9  -3   3   16.75    0.69
   8   3  -3   53.65    2.00
  -8  -3   3   54.15    1.70
  -8  -3   3   52.77    1.61
   7   3  -3   20.38    0.81
  -7  -3   3   20.34    0.65
  -7  -3   3   19.38    0.72
   6   3  -3    5.17    0.27
  -6  -3   3    5.04    0.21
  -6  -3   3    4.91    0.26
   5   3  -3   18.40    0.74
  -5  -3   3   18.78    0.64
  -5  -3   3   19.15    0.59
   4   3  -3    2.30    0.14
   4   3  -3    2.27    0.11
  -4  -3   3    2.74    0.12
  -4  -3   3    2.73    0.15
   3   3  -3  228.30    8.41
   3   3  -3  246.84    8.98
  -3  -3   3  239.08    6.79
  -3  -3   3  240.34    6.81
   2   3  -3  286.10   11.02
   2   3  -3  304.01   10.33
  -2  -3   3  295.53    8.33
  -2  -3   3  284.85    8.32
   1   3  -3  192.48    8.08
   1   3  -3  228.20    7.56
  -1  -3   3  212.17    6.13
  -1  -3   3  224.41    6.10
   0   3  -3  263.90    9.35
   0  -3   3  267.36    7.54
  -1   3  -3   39.29    1.40
   1  -3   3   39.66    1.14
  -2   3  -3    1.81    0.12
  -3   3  -3   70.08    2.68
  -4   3  -3   42.17    1.64
  -5   3  -3   48.73    1.95
  -5   3  -3   50.09    1.57
  -5   3  -3   52.65    1.50
  -6   3  -3  121.22    3.47
  -6   3  -3  118.99    4.55
  -6   3  -3  119.05    3.56
  -7   3  -3   58.86    1.76
  -7   3  -3   59.93    2.27
  -7   3  -3   56.88    1.85
  -8   3  -3    6.64    0.29
  -8   3  -3    6.38    0.38
  -9   3  -3    0.58    0.17
  -9   3  -3    0.53    0.10
 -10   3  -3    0.95    0.13
 -10   3  -3    1.20    0.22
 -10  -2   3    5.31    0.37
 -10  -2   3    5.72    0.27
   9   2  -3    6.53    0.35
  -9  -2   3    5.93    0.28
  -9  -2   3    6.45    0.38
   8   2  -3    1.43    0.15
  -8  -2   3    1.28    0.12
  -8  -2   3    1.12    0.17
   7   2  -3   44.02    1.67
  -7  -2   3   46.67    1.44
  -7  -2   3   44.37    1.35
   6   2  -3   52.48    1.92
  -6  -2   3   52.51    1.55
  -6  -2   3   52.47    1.62
   5   2  -3  108.56    3.93
  -5  -2   3  110.69    3.23
  -5  -2   3  111.19    3.17
   4   2  -3  159.68    5.66
  -4  -2   3  159.29    4.57
  -4  -2   3  161.05    4.61
   3   2  -3  203.73    8.03
   3   2  -3  223.47    8.01
  -3  -2   3  212.99    6.09
  -3  -2   3  210.56    6.07
   2   2  -3   28.00    1.02
   2   2  -3   27.41    1.07
  -2  -2   3   28.20    0.82
  -2  -2   3   27.80    0.84
   1   2  -3   20.98    0.82
   1   2  -3   21.06    0.77
  -1  -2   3   21.00    0.64
  -1  -2   3   20.89    0.62
   0   2  -3  132.29    5.11
   0   2  -3  134.67    4.76
   0  -2   3  137.97    3.85
  -1   2  -3   71.58    2.55
   1  -2   3   73.60    2.08
  -2   2  -3  222.08    8.42
  -3   2  -3  249.54    9.40
  -4   2  -3  117.64    4.50
   4  -2   3  119.68    4.17
  -5   2  -3    3.61    0.20
  -6   2  -3    0.81    0.13
  -6   2  -3    1.03    0.10
  -6   2  -3    0.82    0.09
  -7   2  -3   44.31    1.46
  -7   2  -3   45.14    1.37
  -8   2  -3   48.38    1.51
  -8   2  -3   50.00    1.62
  -9   2  -3   23.39    0.92
  -9   2  -3   23.81    0.81
 -10   2  -3    3.60    0.34
 -10   2  -3    4.29    0.25
 -11  -1   3    5.43    0.28
 -11  -1   3    4.92    0.37
 -10  -1   3   24.98    0.93
 -10  -1   3   24.21    0.82
   9   1  -3   28.52    1.09
  -9  -1   3   27.87    1.00
  -9  -1   3   27.17    0.90
   8   1  -3   33.49    1.26
  -8  -1   3   33.18    1.12
  -8  -1   3   32.45    1.03
   7   1  -3   50.22    1.89
  -7  -1   3   52.21    1.54
  -7  -1   3   52.65    1.62
   6   1  -3    5.39    0.26
  -6  -1   3    5.25    0.22
  -6  -1   3    4.95    0.27
   5   1  -3    8.20    0.36
  -5  -1   3    8.33    0.34
  -5  -1   3    8.72    0.30
   4   1  -3    6.30    0.28
  -4  -1   3    6.57    0.27
  -4  -1   3    6.69    0.23
   3   1  -3  187.79    6.31
   3   1  -3  143.51    5.93
  -3  -1   3  169.31    4.78
  -3  -1   3  169.72    4.81
   2   1  -3 1000.00   35.98
   2   1  -3  961.07   33.92
  -2  -1   3  884.84   27.40
  -2  -1   3  905.87   26.95
   1   1  -3   83.37    3.21
   1   1  -3   85.76    2.99
  -1  -1   3   84.16    2.44
  -1  -1   3   86.04    2.42
   0   1  -3    0.58    0.04
   0   1  -3    0.64    0.05
   0  -1   3    0.80    0.04
  -1   1  -3   12.97    0.52
  -1   1  -3   12.35    0.46
  -2   1  -3    1.04    0.08
  -2   1  -3    0.90    0.05
  -3   1  -3  110.27    4.27
   3  -1   3  114.50    3.95
  -4   1  -3  173.43    6.79
   4  -1   3  185.80    6.31
  -5   1  -3  142.06    5.39
  -6   1  -3   51.28    1.57
  -6   1  -3   52.82    1.67
  -6   1  -3   53.14    2.04
  -7   1  -3   37.03    1.14
  -7   1  -3   36.18    1.24
  -8   1  -3    2.71    0.18
  -8   1  -3    3.08    0.26
  -9   1  -3    5.36    0.28
  -9   1  -3    5.01    0.36
 -11   0   3    9.15    0.40
 -11   0   3   10.44    0.53
 -10   0   3    1.68    0.22
 -10   0   3    1.58    0.15
   9   0  -3    0.02    0.06
  -9   0   3   -0.08    0.05
  -9   0   3   -0.22    0.10
   8   0  -3    5.85    0.30
  -8   0   3    5.96    0.26
  -8   0   3    6.09    0.33
   7   0  -3   23.09    0.91
  -7   0   3   24.46    0.83
  -7   0   3   23.79    0.75
   6   0  -3  170.19    6.01
  -6   0   3  170.57    4.86
  -6   0   3  168.21    4.93
   5   0  -3  112.89    4.02
  -5   0   3  113.01    3.31
  -5   0   3  112.93    3.25
   4   0  -3  123.04    4.31
  -4   0   3  121.26    3.49
  -4   0   3  121.13    3.53
   3   0  -3    0.10    0.03
  -3   0   3    0.20    0.04
  -3   0   3    0.13    0.02
   1   0  -3   59.55    2.12
  -1   0   3   59.52    1.74
  -1   0   3   59.93    1.71
   0   0  -3  168.04    5.89
   0   0   3  166.58    4.78
  -1   0  -3  242.14    8.53
  -2   0  -3  227.96    8.98
   2   0   3  246.54    8.35
  -3   0  -3  118.53    4.29
   3   0   3  107.24    3.98
  -4   0  -3    3.65    0.20
   4   0   3    3.69    0.17
  -5   0  -3    6.67    0.32
  -6   0  -3    8.97    0.34
  -6   0  -3    8.65    0.42
  -7   0  -3   34.98    1.17
  -7   0  -3   33.01    1.06
  -8   0  -3   27.78    0.92
  -8   0  -3   28.66    1.04
  -9   0  -3   25.61    0.86
  -9   0  -3   25.13    0.98
 -11   1   3   12.94    0.50
 -11   1   3   12.73    0.61
 -10   1   3   23.72    0.90
 -10   1   3   22.74    0.78
   9  -1  -3   24.44    0.96
  -9   1   3   24.68    0.91
  -9   1   3   24.77    0.81
   8  -1  -3   38.67    1.43
  -8   1   3   37.74    1.27
  -8   1   3   38.60    1.18
   7  -1  -3   22.02    0.87
  -7   1   3   22.89    0.79
  -7   1   3   22.96    0.72
   5  -1  -3   13.07    0.53
  -5   1   3   14.03    0.49
  -5   1   3   13.92    0.44
  -5   1   3   13.24    0.53
   4  -1  -3   93.84    3.38
  -4   1   3   96.75    2.79
  -4   1   3   96.01    2.74
  -4   1   3   94.26    3.59
   3  -1  -3  166.40    5.74
  -3   1   3  164.77    6.12
  -3   1   3  163.60    4.64
  -3   1   3  155.08    4.67
  -2   1   3  159.78    6.03
   1  -1  -3  139.53    4.60
  -1   1   3  121.71    3.73
  -1   1   3  123.26    3.71
  -1   1   3  136.84    4.92
   0  -1  -3   56.04    2.00
  -1  -1  -3    9.31    0.37
   1   1   3    8.87    0.30
   2   1   3   15.64    0.58
   3   1   3  113.34    4.01
  -4  -1  -3   27.98    1.15
   4   1   3   29.24    1.05
  -5  -1  -3   88.35    2.64
  -5  -1  -3   90.37    3.47
   5   1   3   92.66    3.23
  -6  -1  -3   59.62    1.81
  -6  -1  -3   61.17    1.90
  -7  -1  -3   19.32    0.76
  -7  -1  -3   19.04    0.65
  -8  -1  -3    3.05    0.20
  -8  -1  -3    2.85    0.28
  -9  -1  -3    2.04    0.26
  -9  -1  -3    2.41    0.19
 -11   2   3   11.38    0.45
 -11   2   3   11.05    0.56
 -10   2   3    0.22    0.14
 -10   2   3    0.18    0.09
   9  -2  -3    0.18    0.07
  -9   2   3    0.26    0.07
  -9   2   3    0.02    0.12
   8  -2  -3   21.52    0.82
  -8   2   3   20.87    0.69
  -8   2   3   20.47    0.77
   7  -2  -3   94.78    3.45
  -7   2   3   98.40    2.89
  -7   2   3   96.25    2.81
   6  -2  -3  217.95    7.73
  -6   2   3  223.03    6.33
  -6   2   3  225.29    6.26
  -6   2   3  210.25    8.23
   5  -2  -3   69.00    2.46
  -5   2   3   69.76    2.06
  -5   2   3   69.75    2.00
  -5   2   3   66.30    2.61
   4  -2  -3   60.53    2.14
  -4   2   3   58.39    2.27
  -4   2   3   60.08    1.73
  -4   2   3   59.10    1.78
   3  -2  -3   35.99    1.28
  -3   2   3   34.75    1.03
  -3   2   3   35.19    1.36
  -3   2   3   34.45    1.07
  -2   2   3    0.60    0.07
  -2   2   3    0.68    0.05
   1  -2  -3  210.66    7.29
  -1   2   3  203.09    7.80
   0  -2  -3  426.16   13.27
   0   2   3  355.21   10.67
   0   2   3  343.96   14.17
  -1  -2  -3  288.62    9.84
   1   2   3  269.79    7.94
   2   2   3  124.78    4.42
   3   2   3  158.14    5.59
  -4  -2  -3    0.35    0.08
   4   2   3    0.37    0.07
  -5  -2  -3   28.47    0.90
  -5  -2  -3   27.68    0.98
  -5  -2  -3   28.36    1.18
   5   2   3   30.54    1.09
  -6  -2  -3   16.99    0.59
  -6  -2  -3   17.90    0.68
  -7  -2  -3   16.05    0.57
  -7  -2  -3   16.19    0.67
  -8  -2  -3   55.56    1.69
  -8  -2  -3   53.87    1.81
 -11   3   3   19.11    0.68
 -11   3   3   18.73    0.79
 -10   3   3   56.52    1.76
 -10   3   3   59.63    1.89
   9  -3  -3    0.10    0.06
  -9   3   3    0.02    0.07
  -9   3   3    0.06    0.12
   8  -3  -3   36.60    1.35
  -8   3   3   35.57    1.11
  -8   3   3   35.78    1.20
   7  -3  -3   50.08    1.82
  -7   3   3   48.89    1.56
  -7   3   3   50.46    1.49
   6  -3  -3    2.71    0.17
  -6   3   3    3.22    0.15
  -6   3   3    2.99    0.16
  -6   3   3    3.11    0.20
   5  -3  -3  195.92    6.73
  -5   3   3  192.00    5.44
  -5   3   3  188.29    5.50
  -5   3   3  185.76    7.18
   4  -3  -3   55.07    1.95
  -4   3   3   52.83    1.62
  -4   3   3   53.97    1.58
  -4   3   3   54.38    2.08
   3  -3  -3   75.25    2.70
  -3   3   3   75.36    2.18
  -3   3   3   75.09    2.22
  -3   3   3   76.15    2.88
  -2   3   3  173.74    6.48
  -2   3   3  171.71    4.88
  -2   3   3  169.28    4.92
   1  -3  -3   98.28    3.31
  -1   3   3   91.65    2.65
  -1   3   3   87.91    2.68
   0  -3  -3    3.04    0.17
   0   3   3    3.04    0.12
   0   3   3    3.14    0.18
  -1  -3  -3   13.38    0.54
   1   3   3   12.65    0.56
   2   3   3   15.30    0.60
   3   3   3   83.19    2.98
   4   3   3  142.21    5.06
  -5  -3  -3   48.23    1.54
  -5  -3  -3   48.79    1.45
   5   3   3   46.62    1.76
  -6  -3  -3    7.43    0.39
  -6  -3  -3    7.38    0.31
  -7  -3  -3    0.97    0.18
  -7  -3  -3    0.88    0.12
 -11   4   3    0.38    0.16
 -11   4   3    0.15    0.09
 -10   4   3    1.94    0.16
 -10   4   3    1.85    0.23
   9  -4  -3    8.18    0.38
  -9   4   3    7.86    0.33
  -9   4   3    7.75    0.41
   8  -4  -3   16.82    0.65
  -8   4   3   15.15    0.62
  -8   4   3   15.80    0.55
   7  -4  -3   91.21    3.27
  -7   4   3   93.44    2.74
  -7   4   3   88.55    3.47
  -7   4   3   91.62    2.66
   6  -4  -3  102.22    3.60
  -6   4   3  100.88    2.92
  -6   4   3  101.47    2.99
  -6   4   3   98.51    3.83
   5  -4  -3   37.07    1.35
  -5   4   3   36.86    1.09
  -5   4   3   36.49    1.15
  -5   4   3   35.20    1.42
   4  -4  -3    3.69    0.19
  -4   4   3    3.63    0.19
  -4   4   3    3.44    0.19
  -4   4   3    3.47    0.15
   3  -4  -3    4.18    0.23
  -3   4   3    4.91    0.18
  -3   4   3    4.54    0.24
  -3   4   3    4.87    0.21
  -2   4   3    1.41    0.11
  -2   4   3    1.55    0.08
  -2   4   3    1.86    0.13
   1  -4  -3  179.21    6.04
  -1   4   3  149.37    6.44
  -1   4   3  181.96    4.84
   0  -4  -3  225.54    7.62
   0   4   3  200.27    8.12
   0   4   3  219.24    6.11
  -1  -4  -3  109.52    3.85
   1   4   3  104.35    4.09
   2   4   3   18.46    0.72
   3   4   3    3.83    0.21
  -4  -4  -3    0.30    0.07
  -4  -4  -3    0.35    0.11
   4   4   3    0.24    0.07
   5   4   3   17.65    0.72
 -11   5   3   16.18    0.59
 -11   5   3   15.68    0.70
 -10   5   3   19.73    0.79
 -10   5   3   19.52    0.68
   9  -5  -3   29.93    1.13
  -9   5   3   28.46    1.03
  -9   5   3   29.34    0.94
   8  -5  -3   18.99    0.75
  -8   5   3   19.15    0.63
  -8   5   3   18.37    0.71
   7  -5  -3   20.49    0.81
  -7   5   3   20.42    0.85
  -7   5   3   20.79    0.74
  -7   5   3   20.65    0.66
   6  -5  -3   14.54    0.60
  -6   5   3   15.86    0.56
  -6   5   3   14.68    0.49
  -6   5   3   14.48    0.63
   5  -5  -3  118.96    4.18
  -5   5   3  118.20    3.37
  -5   5   3  116.47    4.46
  -5   5   3  114.16    3.42
   4  -5  -3   58.10    2.14
  -4   5   3   59.31    1.71
  -4   5   3   58.96    2.28
  -4   5   3   58.76    1.76
   3  -5  -3   40.79    1.56
  -3   5   3   42.98    1.28
  -3   5   3   43.74    1.24
  -3   5   3   41.81    1.67
  -2   5   3  128.91    3.65
  -2   5   3  126.70    3.68
   1  -5  -3  131.99    4.79
  -1   5   3  133.65    5.11
  -1   5   3  136.49    3.82
   0  -5  -3   10.22    0.46
   0   5   3    9.66    0.32
   0   5   3   10.31    0.47
  -1  -5  -3   21.14    0.84
   1   5   3   19.70    0.86
   2   5   3   44.09    1.76
   3   5   3   43.20    1.61
   4   5   3   48.91    1.82
   5   5   3   61.98    2.29
 -11   6   3    3.12    0.21
 -11   6   3    2.63    0.29
 -10   6   3    7.95    0.43
 -10   6   3    7.65    0.34
   9  -6  -3   19.08    0.77
  -9   6   3   19.97    0.75
  -9   6   3   18.79    0.65
   8  -6  -3   21.26    0.84
  -8   6   3   20.94    0.77
  -8   6   3   21.07    0.69
   7  -6  -3   34.78    1.36
  -7   6   3   37.36    1.11
  -7   6   3   34.84    1.44
  -7   6   3   38.22    1.20
   6  -6  -3   93.04    3.44
  -6   6   3   99.23    2.85
  -6   6   3   98.10    2.78
  -6   6   3   92.41    3.67
   5  -6  -3   47.83    1.73
  -5   6   3   46.16    1.84
  -5   6   3   46.70    1.38
  -5   6   3   46.25    1.44
   4  -6  -3    4.92    0.27
  -4   6   3    5.51    0.20
  -4   6   3    5.20    0.24
  -4   6   3    5.19    0.28
   3  -6  -3   38.37    1.44
  -3   6   3   38.13    1.53
   2  -6  -3    0.52    0.09
  -2   6   3    0.56    0.09
   1  -6  -3   70.24    2.60
  -1   6   3   71.62    2.77
   0  -6  -3  223.85    7.58
   0   6   3  201.35    8.07
  -1  -6  -3   50.76    1.90
   1   6   3   48.98    1.98
  -2  -6  -3    2.03    0.20
   2   6   3    2.02    0.18
 -11   7   3   20.69    0.72
 -11   7   3   21.08    0.84
 -10   7   3   28.00    1.02
 -10   7   3   27.75    0.91
   9  -7  -3    1.72    0.16
  -9   7   3    1.61    0.21
  -9   7   3    1.75    0.15
   8  -7  -3    5.34    0.30
  -8   7   3    5.15    0.25
  -8   7   3    6.12    0.32
  -8   7   3    5.11    0.32
   7  -7  -3    1.54    0.15
  -7   7   3    1.98    0.16
   6  -7  -3   13.83    0.59
  -6   7   3   13.81    0.62
   5  -7  -3  139.67    5.03
  -5   7   3  141.32    5.37
   4  -7  -3   41.75    1.58
  -4   7   3   41.91    1.68
   3  -7  -3    9.97    0.46
  -3   7   3    9.38    0.47
   2  -7  -3   28.67    1.15
  -2   7   3   29.55    1.21
   1  -7  -3   39.93    1.54
  -1   7   3   39.84    1.62
   0  -7  -3    1.02    0.14
   0   7   3    1.64    0.16
  -1  -7  -3   55.69    2.09
   1   7   3   53.61    2.18
  -2  -7  -3   44.55    1.79
   2   7   3   47.10    1.86
  -3  -7  -3   31.15    1.29
  -4  -7  -3   22.61    0.99
  -5  -7  -3    9.48    0.53
   8  -8  -3   15.39    0.64
  -8   8   3   14.26    0.67
   7  -8  -3   20.59    0.84
  -7   8   3   20.57    0.90
   6  -8  -3   28.00    1.11
  -6   8   3   28.26    1.18
   5  -8  -3   15.36    0.67
  -5   8   3   15.78    0.71
   4  -8  -3    0.75    0.12
  -4   8   3    0.66    0.12
   3  -8  -3    8.73    0.44
  -3   8   3    9.35    0.47
   2  -8  -3   13.16    0.60
  -2   8   3   12.96    0.62
   1  -8  -3   33.41    1.35
  -1   8   3   34.54    1.42
   0  -8  -3   44.49    1.72
   0   8   3   43.33    1.79
  -1  -8  -3   32.01    1.33
   1   8   3   33.16    1.38
  -2  -8  -3    0.60    0.14
   2   8   3    0.81    0.14
  -3  -8  -3    3.13    0.28
   8  -9  -3    0.58    0.12
  -8   9   3    0.34    0.11
   7  -9  -3    8.36    0.42
  -7   9   3    8.31    0.45
   6  -9  -3    5.65    0.33
  -6   9   3    5.86    0.35
   5  -9  -3   24.06    0.98
  -5   9   3   23.84    1.04
   4  -9  -3   53.62    2.00
  -4   9   3   51.66    2.12
   3  -9  -3   54.34    2.02
  -3   9   3   50.93    2.12
   2  -9  -3    1.99    0.21
  -2   9   3    1.96    0.20
   1  -9  -3    0.56    0.13
  -1   9   3    0.42    0.12
   0  -9  -3    3.72    0.29
   0   9   3    3.18    0.26
  -1  -9  -3    4.51    0.34
   1   9   3    4.75    0.33
   8 -10  -3   26.22    1.05
  -8  10   3   25.16    1.12
   7 -10  -3   11.19    0.55
  -7  10   3   11.75    0.59
   6 -10  -3    5.24    0.33
  -6  10   3    5.22    0.34
   5 -10  -3   11.25    0.55
  -5  10   3   11.26    0.58
   4 -10  -3    7.78    0.43
  -4  10   3    7.23    0.43
   3 -10  -3   22.00    0.94
  -3  10   3   21.24    0.98
   2 -10  -3   19.21    0.87
  -2  10   3   19.10    0.89
   1 -10  -3   21.85    0.97
  -1  10   3   21.56    0.99
   0  10   3   31.65    1.38
   6 -11  -3    7.85    0.44
   5 -11  -3   20.41    0.90
   0  13  -4    5.27    0.36
  -1  13  -4   10.87    0.59
   1 -13   4   11.19    0.57
  -2  13  -4    6.15    0.40
   2 -13   4    5.70    0.36
  -3  13  -4    1.59    0.21
  -4  13  -4    6.73    0.43
   1  12  -4    7.93    0.42
   0  12  -4    0.38    0.13
   0  12  -4    0.37    0.10
  -1  12  -4    9.59    0.52
  -2  12  -4   37.98    1.55
   2 -12   4   35.04    1.44
  -3  12  -4   21.99    1.00
  -4  12  -4    4.14    0.31
  -5  12  -4    5.72    0.37
  -6  12  -4    0.08    0.10
  -7  12  -4   10.69    0.57
   3  11  -4   30.00    1.22
   2  11  -4   22.24    0.93
   1  11  -4   19.21    0.82
   1  11  -4   20.23    0.89
   0  11  -4    8.39    0.42
   0  11  -4    9.08    0.47
  -1  11  -4   13.07    0.64
  -1  11  -4   13.59    0.58
  -2  11  -4    9.81    0.50
   2 -11   4    9.05    0.46
  -3  11  -4   10.51    0.54
  -4  11  -4   22.19    0.98
  -5  11  -4   17.94    0.83
  -6  11  -4   28.40    1.22
  -7  11  -4   17.04    0.80
  -8  11  -4    2.75    0.24
  -9  11  -4    0.03    0.10
   4  10  -4   13.27    0.63
   3  10  -4   21.26    0.90
   2  10  -4    2.68    0.21
   1  10  -4    6.55    0.38
   1  10  -4    7.14    0.36
   0  10  -4   10.92    0.55
   0  10  -4   11.69    0.51
  -1  10  -4   20.78    0.90
  -1  10  -4   20.38    0.81
  -2  10  -4   48.12    1.94
  -3  10  -4   69.62    2.72
   3 -10   4   68.48    2.53
  -4  10  -4   10.21    0.51
  -5  10  -4    0.06    0.08
  -6  10  -4    0.60    0.13
  -7  10  -4    2.53    0.22
  -8  10  -4   17.44    0.80
   6   9  -4    0.19    0.11
   5   9  -4    1.51    0.18
   4   9  -4    6.71    0.37
   3   9  -4   28.73    1.14
   2   9  -4   86.93    3.24
   2   9  -4   91.52    3.46
   1   9  -4   55.69    2.05
   1   9  -4   55.67    2.20
   0   9  -4    6.46    0.34
   0   9  -4    6.21    0.31
  -1   9  -4   -0.05    0.04
  -1   9  -4   -0.04    0.05
  -2   9  -4    7.98    0.40
  -2   9  -4    7.48    0.34
  -3   9  -4   11.93    0.56
   3  -9   4   11.51    0.50
  -4   9  -4  172.91    6.60
  -5   9  -4   57.58    2.28
  -6   9  -4    2.62    0.21
  -7   9  -4   42.67    1.73
  -8   9  -4    4.28    0.28
   7   8  -4   10.01    0.53
   6   8  -4   31.56    1.28
   5   8  -4    6.92    0.38
   4   8  -4   20.84    0.86
   3   8  -4   43.86    1.65
   2   8  -4    5.78    0.31
   2   8  -4    6.34    0.32
   1   8  -4   87.89    3.15
   1   8  -4   86.67    3.36
   0   8  -4   49.45    1.93
   0   8  -4   48.32    1.79
  -1   8  -4   11.24    0.47
  -1   8  -4   11.67    0.53
  -2   8  -4   61.61    2.26
  -2   8  -4   64.58    2.46
  -3   8  -4  128.39    4.88
   3  -8   4  126.49    4.53
  -4   8  -4    2.17    0.17
  -5   8  -4   14.24    0.64
  -6   8  -4    3.91    0.26
  -6   8  -4    3.81    0.19
  -6   8  -4    4.47    0.26
  -7   8  -4    4.01    0.28
  -7   8  -4    4.21    0.21
  -7   8  -4    4.42    0.27
  -8   8  -4   52.62    1.59
  -8   8  -4   52.95    2.08
  -8   8  -4   51.31    1.70
  -9   8  -4   35.94    1.15
  -9   8  -4   36.16    1.26
 -10   8  -4    4.37    0.25
 -10   8  -4    4.89    0.36
   8   7  -4   13.67    0.66
   7   7  -4   10.00    0.51
   6   7  -4    2.07    0.20
   5   7  -4   27.57    1.10
   4   7  -4   17.99    0.75
   3   7  -4   18.66    0.78
   3   7  -4   18.68    0.76
   2   7  -4   73.76    2.83
   2   7  -4   73.05    2.66
   1   7  -4  132.82    4.65
   1   7  -4  128.63    4.97
   0   7  -4    5.85    0.30
   0   7  -4    5.87    0.27
  -1   7  -4    0.69    0.10
  -2   7  -4    6.22    0.27
  -2   7  -4    6.35    0.32
  -3   7  -4   56.82    1.60
  -3   7  -4   56.46    1.64
  -3   7  -4   52.40    2.14
   3  -7   4   53.76    1.97
  -4   7  -4   71.79    2.79
  -4   7  -4   72.67    2.15
  -4   7  -4   71.60    2.09
  -5   7  -4   91.04    3.53
  -5   7  -4   92.26    2.73
  -5   7  -4   91.70    2.66
  -6   7  -4   15.35    0.68
  -6   7  -4   16.17    0.53
  -6   7  -4   15.08    0.59
  -7   7  -4    9.77    0.46
  -7   7  -4    9.62    0.45
  -7   7  -4    9.68    0.37
  -8   7  -4    3.20    0.27
  -8   7  -4    3.15    0.22
  -8   7  -4    2.85    0.18
  -9   7  -4    0.83    0.12
  -9   7  -4    1.00    0.19
 -10   7  -4   17.80    0.64
 -10   7  -4   17.68    0.76
   8   6  -4    6.66    0.39
   7   6  -4   31.05    1.24
   6   6  -4   55.05    2.07
   5   6  -4   41.11    1.56
   4   6  -4   25.39    0.99
   3   6  -4   37.78    1.41
   3   6  -4   37.58    1.47
   2   6  -4    0.59    0.08
   2   6  -4    0.42    0.07
   1   6  -4   80.37    2.78
   1   6  -4   74.52    2.97
  -1  -6   4   77.84    2.21
   0   6  -4  204.32    8.10
   0   6  -4  219.21    7.56
   0  -6   4  220.18    6.08
  -1   6  -4  246.74    9.76
  -1   6  -4  270.93    9.13
  -2   6  -4   50.47    1.80
  -3   6  -4   53.89    2.04
   3  -6   4   51.05    1.87
  -4   6  -4   13.32    0.58
  -4   6  -4   13.86    0.44
  -4   6  -4   13.19    0.49
  -5   6  -4    5.01    0.26
  -5   6  -4    4.90    0.27
  -5   6  -4    5.14    0.21
  -6   6  -4   65.22    1.92
  -6   6  -4   66.33    2.52
  -6   6  -4   63.32    2.00
  -7   6  -4   47.02    1.53
  -7   6  -4   48.51    1.86
  -7   6  -4   46.18    1.43
  -8   6  -4   49.63    1.52
  -8   6  -4   49.51    1.63
  -9   6  -4   20.53    0.83
  -9   6  -4   20.90    0.72
 -10   6  -4   11.81    0.48
 -10   6  -4   12.90    0.61
   9   5  -4   13.44    0.64
   8   5  -4   32.01    1.28
   7   5  -4   -0.04    0.07
   6   5  -4    6.78    0.36
  -6  -5   4    7.08    0.27
  -6  -5   4    6.81    0.33
   5   5  -4   15.69    0.66
  -5  -5   4   15.80    0.50
  -5  -5   4   15.81    0.56
   4   5  -4   34.37    1.30
  -4  -5   4   34.15    1.02
  -4  -5   4   35.05    1.07
   3   5  -4   74.28    2.80
  -3  -5   4   73.18    2.14
  -3  -5   4   72.84    2.11
   2   5  -4   76.38    2.96
   2   5  -4   78.43    2.78
  -2  -5   4   78.16    2.25
  -2  -5   4   77.68    2.22
   1   5  -4  249.58    8.37
   1   5  -4  217.97    8.97
  -1  -5   4  243.84    6.75
  -1  -5   4  238.90    6.75
   0   5  -4    1.10    0.08
   0   5  -4    0.86    0.08
   0  -5   4    0.78    0.05
  -1   5  -4   78.53    3.03
  -1   5  -4   79.86    2.80
  -2   5  -4   34.81    1.24
  -3   5  -4   52.07    2.06
   3  -5   4   54.25    1.88
  -4   5  -4  275.94   10.43
  -5   5  -4   32.67    0.99
  -5   5  -4   32.12    1.29
  -5   5  -4   32.18    1.06
  -6   5  -4    4.88    0.22
  -6   5  -4    5.08    0.26
  -6   5  -4    4.92    0.29
  -7   5  -4    5.69    0.26
  -7   5  -4    5.25    0.32
  -7   5  -4    6.25    0.30
  -8   5  -4    6.83    0.30
  -8   5  -4    7.27    0.40
  -9   5  -4   28.61    0.96
  -9   5  -4   29.55    1.08
 -10   5  -4   34.04    1.25
 -10   5  -4   33.63    1.11
  10   4  -4    0.73    0.15
   9   4  -4   16.13    0.70
  -9  -4   4   15.41    0.64
  -9  -4   4   15.16    0.54
   8   4  -4    4.98    0.30
  -8  -4   4    4.23    0.29
  -8  -4   4    4.88    0.23
   7   4  -4   37.90    1.43
  -7  -4   4   36.47    1.13
  -7  -4   4   37.56    1.22
   6   4  -4   70.65    2.58
  -6  -4   4   70.34    2.13
  -6  -4   4   70.55    2.06
   5   4  -4   83.89    3.06
  -5  -4   4   85.28    2.51
  -5  -4   4   85.49    2.46
   4   4  -4    0.00    0.01
  -4  -4   4   -0.02    0.04
  -4  -4   4   -0.03    0.06
   3   4  -4    1.62    0.10
   3   4  -4    1.63    0.11
  -3  -4   4    1.41    0.08
  -3  -4   4    1.18    0.11
   2   4  -4    8.62    0.35
  -2  -4   4    8.56    0.30
  -2  -4   4    8.62    0.27
   1   4  -4  219.51    7.47
   1   4  -4  192.18    7.99
  -1  -4   4  219.42    6.03
  -1  -4   4  216.31    6.03
   0   4  -4  306.88   12.95
   0   4  -4  359.52   12.08
   0  -4   4  361.96    9.75
  -1   4  -4  103.60    3.63
  -1   4  -4   99.38    3.92
   1  -4   4  106.35    2.94
  -2   4  -4   47.22    1.86
  -2   4  -4   48.77    1.69
  -3   4  -4   43.53    1.70
  -4   4  -4    5.45    0.27
  -5   4  -4   80.55    3.09
  -6   4  -4   37.91    1.28
  -6   4  -4   39.40    1.54
  -6   4  -4   39.35    1.20
  -7   4  -4   25.12    1.00
  -7   4  -4   24.20    0.89
  -7   4  -4   24.08    0.79
  -8   4  -4   44.43    1.46
  -8   4  -4   42.35    1.34
  -9   4  -4   28.35    1.06
  -9   4  -4   28.44    0.94
 -10   4  -4    0.08    0.08
 -10   4  -4   -0.07    0.14
  10   3  -4   19.65    0.85
 -10  -3   4   20.99    0.80
 -10  -3   4   18.93    0.68
   9   3  -4   53.54    2.02
  -9  -3   4   51.91    1.62
  -9  -3   4   55.75    1.74
   8   3  -4    1.70    0.17
  -8  -3   4    1.39    0.13
  -8  -3   4    1.35    0.19
   7   3  -4    2.79    0.20
  -7  -3   4    2.68    0.22
  -7  -3   4    2.74    0.15
   6   3  -4    3.90    0.23
  -6  -3   4    4.28    0.18
  -6  -3   4    3.80    0.23
   5   3  -4   35.15    1.34
  -5  -3   4   36.38    1.13
  -5  -3   4   36.18    1.07
   4   3  -4   50.18    1.86
   4   3  -4   52.24    1.93
  -4  -3   4   51.28    1.50
  -4  -3   4   50.91    1.54
   3   3  -4  115.06    3.99
   3   3  -4  108.92    4.23
  -3  -3   4  113.32    3.25
  -3  -3   4  112.25    3.21
   2   3  -4  288.40    9.75
   2   3  -4  257.86   10.38
  -2  -3   4  275.29    7.84
  -2  -3   4  280.52    7.85
   1   3  -4  293.72   10.26
  -1  -3   4  292.50    8.26
  -1  -3   4  285.37    8.26
   0   3  -4   18.61    0.74
   0   3  -4   18.22    0.67
   0  -3   4   18.27    0.55
  -1   3  -4   47.45    1.68
   1  -3   4   47.64    1.37
  -2   3  -4  104.03    3.96
  -3   3  -4   66.52    2.56
  -4   3  -4  116.83    4.45
  -5   3  -4   75.35    2.90
  -6   3  -4   21.76    0.72
  -6   3  -4   21.93    0.91
  -6   3  -4   22.94    0.81
  -7   3  -4    8.87    0.36
  -7   3  -4    9.62    0.43
  -7   3  -4    9.02    0.45
  -8   3  -4    4.07    0.30
  -8   3  -4    3.65    0.21
  -9   3  -4   14.94    0.68
  -9   3  -4   16.15    0.58
 -11  -2   4    2.57    0.28
 -11  -2   4    2.51    0.19
  10   2  -4    0.67    0.13
 -10  -2   4    0.56    0.16
 -10  -2   4    1.00    0.12
   9   2  -4   11.93    0.53
  -9  -2   4   10.75    0.52
  -9  -2   4   11.53    0.43
   8   2  -4   41.00    1.54
  -8  -2   4   40.43    1.25
  -8  -2   4   40.97    1.34
   7   2  -4   71.95    2.65
  -7  -2   4   73.98    2.15
  -7  -2   4   73.34    2.23
   6   2  -4   75.64    2.73
  -6  -2   4   74.64    2.20
  -6  -2   4   76.18    2.27
   5   2  -4   27.61    1.03
  -5  -2   4   27.28    0.83
  -5  -2   4   27.51    0.89
   4   2  -4    0.07    0.05
  -4  -2   4    0.15    0.04
  -4  -2   4    0.05    0.06
   3   2  -4    0.03    0.02
   3   2  -4    0.07    0.04
  -3  -2   4    0.08    0.05
  -3  -2   4    0.09    0.03
   2   2  -4  208.54    7.19
   2   2  -4  207.94    7.65
  -2  -2   4  194.11    5.80
  -2  -2   4  201.39    5.78
   1   2  -4  367.38   14.10
   1   2  -4  378.63   13.87
  -1  -2   4  362.93   10.72
  -1  -2   4  386.41   10.65
   0   2  -4  359.37   13.49
   0  -2   4  391.46   10.70
  -1   2  -4   82.31    2.87
   1  -2   4   80.89    2.34
  -2   2  -4  141.95    5.38
  -3   2  -4    1.90    0.14
  -4   2  -4    5.23    0.27
  -5   2  -4   44.61    1.75
  -6   2  -4  168.00    6.34
  -6   2  -4  168.01    4.82
  -6   2  -4  165.00    4.91
  -7   2  -4   45.04    1.40
  -7   2  -4   46.08    1.51
  -8   2  -4   10.00    0.50
  -8   2  -4   10.55    0.41
  -9   2  -4   11.61    0.58
  -9   2  -4   11.37    0.46
 -11  -1   4   24.37    0.83
 -11  -1   4   24.21    0.95
  10   1  -4   17.04    0.72
 -10  -1   4   16.21    0.59
 -10  -1   4   17.22    0.71
   9   1  -4   19.84    0.79
  -9  -1   4   19.33    0.75
  -9  -1   4   18.31    0.64
   8   1  -4    2.53    0.19
  -8  -1   4    2.97    0.23
  -8  -1   4    3.10    0.17
   7   1  -4    4.66    0.25
  -7  -1   4    4.60    0.27
  -7  -1   4    4.48    0.21
   6   1  -4    7.02    0.31
  -6  -1   4    6.41    0.26
  -6  -1   4    6.68    0.32
   5   1  -4   76.26    2.63
  -5  -1   4   70.75    2.12
  -5  -1   4   72.40    2.18
   4   1  -4  290.58   10.03
   4   1  -4  299.91   10.76
  -4  -1   4  267.83    8.07
  -4  -1   4  276.38    8.11
   3   1  -4  109.14    4.45
   3   1  -4  135.57    4.75
  -3  -1   4  131.42    3.60
  -3  -1   4  128.01    3.65
   2   1  -4  135.95    5.24
   2   1  -4  138.24    4.91
  -2  -1   4  141.88    3.96
  -2  -1   4  139.79    4.00
   1   1  -4  106.94    3.84
  -1  -1   4  108.32    3.14
  -1  -1   4  111.15    3.11
   0   1  -4    0.87    0.06
   0   1  -4    0.57    0.07
  -1   1  -4  259.01    9.13
  -1   1  -4  260.01    9.84
  -2   1  -4  192.33    7.37
  -2   1  -4  197.64    6.86
  -3   1  -4   59.79    2.18
  -3   1  -4   63.07    2.38
  -4   1  -4   90.09    3.45
  -5   1  -4   79.90    3.08
  -6   1  -4    8.20    0.41
  -6   1  -4    7.68    0.32
  -6   1  -4    8.12    0.39
  -7   1  -4    9.13    0.36
  -7   1  -4    8.71    0.45
  -8   1  -4    8.61    0.46
  -8   1  -4    8.41    0.36
  -9   1  -4   25.93    1.01
  -9   1  -4   26.08    0.88
 -11   0   4    2.08    0.26
 -11   0   4    2.12    0.18
  10   0  -4    0.37    0.10
 -10   0   4    0.45    0.15
 -10   0   4    0.55    0.11
   9   0  -4   26.01    1.02
  -9   0   4   26.29    0.85
  -9   0   4   25.94    0.94
   8   0  -4   43.62    1.59
  -8   0   4   41.66    1.39
  -8   0   4   42.44    1.30
   7   0  -4   51.03    1.84
  -7   0   4   48.59    1.49
  -7   0   4   50.45    1.57
   6   0  -4   42.96    1.50
  -6   0   4   39.03    1.28
  -6   0   4   39.35    1.21
   5   0  -4   50.65    1.87
  -5   0   4   52.08    1.58
  -5   0   4   52.35    1.52
   4   0  -4    0.25    0.05
  -4   0   4    0.09    0.03
  -4   0   4    0.13    0.05
  -2   0   4   17.41    0.53
  -2   0   4   17.48    0.57
   1   0  -4    4.08    0.17
  -1   0   4    3.62    0.17
  -1   0   4    3.74    0.14
   0   0  -4  260.59    9.42
   0   0   4  273.40    7.63
  -1   0  -4  247.48    8.92
   1   0   4  258.71    7.22
  -2   0  -4    0.50    0.05
  -2   0  -4    0.62    0.08
  -3   0  -4    0.41    0.05
  -3   0  -4    0.09    0.05
  -4   0  -4    8.66    0.41
   4   0   4    9.04    0.35
  -5   0  -4   50.89    2.00
  -6   0  -4   53.28    1.73
  -6   0  -4   54.48    1.63
  -7   0  -4   24.44    0.82
  -7   0  -4   25.15    0.92
  -8   0  -4   12.65    0.48
  -8   0  -4   12.16    0.58
  -9   0  -4    4.11    0.34
  -9   0  -4    4.23    0.25
 -11   1   4    8.28    0.48
 -11   1   4    8.06    0.36
  10  -1  -4   42.18    1.60
 -10   1   4   43.48    1.45
 -10   1   4   41.73    1.32
   9  -1  -4   29.91    1.14
  -9   1   4   29.24    0.94
  -9   1   4   28.94    1.04
   8  -1  -4    5.10    0.27
  -8   1   4    5.41    0.24
  -8   1   4    4.98    0.31
   7  -1  -4   10.60    0.45
  -7   1   4   10.07    0.44
  -7   1   4   10.73    0.38
   6  -1  -4    3.31    0.18
   5  -1  -4  109.25    3.88
  -5   1   4  110.72    3.15
  -5   1   4  109.60    3.21
  -5   1   4  107.60    4.12
   4  -1  -4  544.55   18.47
  -4   1   4  480.83   15.10
  -4   1   4  546.79   19.72
  -4   1   4  522.39   14.93
  -3   1   4  201.63    5.80
  -3   1   4  204.54    7.63
  -3   1   4  199.62    5.75
  -2   1   4    0.32    0.06
  -2   1   4    0.15    0.04
  -2   1   4    0.20    0.03
   1  -1  -4   67.00    2.41
  -1   1   4   66.24    1.98
  -1   1   4   69.05    1.95
   0  -1  -4    4.19    0.20
   0   1   4    4.61    0.16
  -1  -1  -4  131.05    4.69
   1   1   4  134.02    3.79
  -2  -1  -4  249.94    8.81
  -3  -1  -4   75.95    2.94
  -4  -1  -4  126.98    4.90
   4   1   4  129.66    4.55
  -5  -1  -4   34.19    1.38
  -6  -1  -4    5.96    0.35
  -6  -1  -4    5.87    0.27
  -7  -1  -4   11.08    0.43
  -7  -1  -4   11.48    0.53
  -8  -1  -4   16.30    0.71
  -8  -1  -4   15.92    0.59
 -11   2   4    0.58    0.19
 -11   2   4    0.42    0.11
  10  -2  -4    3.81    0.24
 -10   2   4    3.43    0.21
 -10   2   4    3.58    0.30
   9  -2  -4   69.48    2.56
  -9   2   4   71.05    2.10
  -9   2   4   70.46    2.20
   8  -2  -4   58.65    2.15
  -8   2   4   58.82    1.76
  -8   2   4   58.62    1.85
   7  -2  -4   11.60    0.48
  -7   2   4   11.25    0.40
  -7   2   4   10.86    0.47
   6  -2  -4   67.97    2.45
  -6   2   4   69.87    2.07
  -6   2   4   68.95    2.00
  -6   2   4   65.68    2.59
   5  -2  -4   58.01    2.07
  -5   2   4   56.40    2.19
  -5   2   4   57.44    1.68
  -5   2   4   57.38    1.74
   4  -2  -4   22.41    0.84
  -4   2   4   21.59    0.73
  -4   2   4   22.62    0.88
  -4   2   4   21.77    0.68
  -3   2   4  124.91    3.64
  -3   2   4  125.39    3.59
  -3   2   4  125.60    4.74
   2  -2  -4  270.70    9.49
  -2   2   4  264.17    7.66
  -2   2   4  269.15   10.15
  -2   2   4  269.53    7.63
   1  -2  -4   29.26    1.12
  -1   2   4   30.26    0.94
  -1   2   4   31.38    1.20
  -1   2   4   30.52    0.90
   0  -2  -4   85.92    3.09
   0   2   4   87.23    2.49
  -1  -2  -4  215.96    7.53
   1   2   4  210.90    6.07
  -2  -2  -4  107.34    3.83
  -4  -2  -4   52.10    2.04
   4   2   4   51.09    1.87
  -5  -2  -4   28.82    1.19
  -6  -2  -4   29.84    0.96
  -6  -2  -4   29.88    1.07
  -7  -2  -4   51.17    1.58
  -7  -2  -4   51.30    1.70
  -8  -2  -4    8.53    0.38
  -8  -2  -4    8.98    0.49
 -11   3   4   13.20    0.51
 -11   3   4   13.40    0.63
  10  -3  -4    3.34    0.23
 -10   3   4    3.40    0.29
 -10   3   4    3.74    0.22
   9  -3  -4   12.28    0.54
  -9   3   4   12.89    0.56
  -9   3   4   13.17    0.47
   8  -3  -4    0.14    0.07
  -8   3   4    0.17    0.06
  -8   3   4   -0.07    0.10
   7  -3  -4   22.28    0.86
  -7   3   4   22.06    0.78
  -7   3   4   22.13    0.71
   6  -3  -4   64.56    2.29
  -6   3   4   63.47    1.86
  -6   3   4   61.82    2.42
  -6   3   4   63.61    1.93
   5  -3  -4   82.99    2.91
  -5   3   4   79.67    3.09
  -5   3   4   81.74    2.35
  -5   3   4   79.54    2.41
   4  -3  -4  168.52    5.84
  -4   3   4  161.61    4.77
  -4   3   4  162.03    4.72
  -4   3   4  167.18    6.23
  -3   3   4   72.46    2.78
  -3   3   4   72.27    2.14
  -3   3   4   72.56    2.10
   2  -3  -4    3.59    0.19
  -2   3   4    3.89    0.15
  -2   3   4    3.79    0.19
  -2   3   4    3.69    0.20
   1  -3  -4   66.15    2.40
  -1   3   4   66.65    1.92
   0  -3  -4    3.23    0.17
   0   3   4    2.63    0.12
   0   3   4    2.99    0.18
  -1  -3  -4   63.30    2.29
   1   3   4   62.50    1.82
  -2  -3  -4  125.49    4.49
  -5  -3  -4    1.68    0.20
  -5  -3  -4    1.83    0.14
  -6  -3  -4    1.85    0.22
  -6  -3  -4    1.50    0.14
 -11   4   4    0.14    0.15
 -11   4   4    0.50    0.11
  10  -4  -4    8.66    0.42
 -10   4   4    9.25    0.37
 -10   4   4    8.89    0.47
   9  -4  -4   17.16    0.70
  -9   4   4   17.45    0.60
  -9   4   4   16.77    0.68
   8  -4  -4   85.52    3.09
  -8   4   4   85.98    2.61
  -8   4   4   85.28    2.51
   7  -4  -4   50.57    1.83
  -7   4   4   48.94    1.93
  -7   4   4   51.09    1.50
  -7   4   4   48.92    1.57
   6  -4  -4    1.55    0.13
  -6   4   4    1.65    0.13
  -6   4   4    1.59    0.11
  -6   4   4    1.58    0.17
   5  -4  -4   17.09    0.68
  -5   4   4   16.79    0.60
  -5   4   4   16.76    0.71
  -5   4   4   17.28    0.55
   4  -4  -4    0.34    0.07
  -4   4   4    0.35    0.08
  -4   4   4    0.47    0.06
  -4   4   4    0.39    0.07
  -3   4   4  113.80    4.34
  -3   4   4  115.80    3.32
  -3   4   4  111.90    3.26
  -2   4   4  137.13    3.77
  -2   4   4  120.99    5.01
  -2   4   4  137.06    3.81
   1  -4  -4   50.98    1.91
  -1   4   4   53.39    1.52
   0  -4  -4  104.83    3.75
   0   4   4  105.80    2.99
   0   4   4  102.29    4.00
  -1  -4  -4   71.03    2.53
   1   4   4   67.11    2.68
  -2  -4  -4    0.85    0.12
  -3  -4  -4   23.98    0.97
 -11   5   4    1.59    0.16
 -11   5   4    1.59    0.23
  10  -5  -4    5.27    0.30
 -10   5   4    5.56    0.36
 -10   5   4    5.42    0.26
   9  -5  -4   19.70    0.80
  -9   5   4   20.48    0.77
  -9   5   4   19.58    0.67
   8  -5  -4    5.36    0.29
  -8   5   4    5.61    0.32
  -8   5   4    5.72    0.25
   7  -5  -4   57.90    2.17
  -7   5   4   62.58    1.85
  -7   5   4   57.37    2.30
  -7   5   4   59.56    1.76
   6  -5  -4   40.48    1.54
  -6   5   4   41.61    1.24
  -6   5   4   40.19    1.63
  -6   5   4   43.04    1.32
   5  -5  -4   29.95    1.17
  -5   5   4   30.23    1.23
  -5   5   4   31.22    0.94
  -5   5   4   31.64    1.00
   4  -5  -4  220.45    7.87
  -4   5   4  221.16    8.41
  -4   5   4  221.12    6.39
  -4   5   4  225.92    6.34
   3  -5  -4   25.45    0.99
  -3   5   4   25.95    0.78
  -3   5   4   25.18    1.05
  -3   5   4   25.75    0.82
   2  -5  -4   13.72    0.57
  -2   5   4   13.48    0.43
  -2   5   4   13.00    0.59
   1  -5  -4   20.66    0.85
  -1   5   4   20.86    0.89
  -1   5   4   22.16    0.65
   0  -5  -4    0.71    0.10
   0   5   4    0.59    0.10
  -1  -5  -4   73.82    2.66
   1   5   4   70.67    2.82
  -2  -5  -4  117.31    4.26
  -3  -5  -4   60.55    2.28
  -4  -5  -4   16.59    0.75
 -11   6   4    4.86    0.26
 -11   6   4    5.57    0.37
 -10   6   4   12.22    0.47
 -10   6   4   13.33    0.58
   9  -6  -4   20.67    0.84
  -9   6   4   20.87    0.70
  -9   6   4   21.22    0.80
   8  -6  -4   32.85    1.27
  -8   6   4   33.41    1.13
  -8   6   4   33.63    1.04
   7  -6  -4   22.35    0.90
  -7   6   4   23.27    0.73
  -7   6   4   22.39    0.94
  -7   6   4   22.30    0.81
   6  -6  -4   16.65    0.66
  -6   6   4   15.13    0.69
  -6   6   4   16.04    0.60
  -6   6   4   15.85    0.53
   5  -6  -4   29.07    1.15
  -5   6   4   29.97    0.97
  -5   6   4   29.61    1.21
  -5   6   4   30.33    0.91
   4  -6  -4   18.91    0.79
  -4   6   4   19.65    0.84
  -4   6   4   20.05    0.67
  -4   6   4   20.09    0.61
   3  -6  -4   80.67    2.97
  -3   6   4   82.86    3.17
   2  -6  -4   90.15    3.26
  -2   6   4   89.05    3.47
   1  -6  -4   74.64    2.70
  -1   6   4   71.76    2.86
   0  -6  -4   16.20    0.70
   0   6   4   16.12    0.73
  -1  -6  -4    7.97    0.41
   1   6   4    7.66    0.41
  -2  -6  -4    4.96    0.32
  -3  -6  -4   39.04    1.55
  -4  -6  -4   27.53    1.15
 -11   7   4    6.92    0.43
 -11   7   4    6.67    0.33
 -10   7   4    1.60    0.16
 -10   7   4    1.99    0.25
   9  -7  -4    0.12    0.08
  -9   7   4    0.17    0.08
   8  -7  -4    1.14    0.14
  -8   7   4    1.07    0.14
   7  -7  -4   21.76    0.89
  -7   7   4   22.37    0.94
   6  -7  -4   40.64    1.55
  -6   7   4   41.30    1.65
   5  -7  -4   49.71    1.89
  -5   7   4   51.13    2.01
   4  -7  -4    9.50    0.46
  -4   7   4    9.96    0.48
   3  -7  -4    6.86    0.36
  -3   7   4    7.09    0.38
   2  -7  -4    0.35    0.10
  -2   7   4    0.18    0.07
   1  -7  -4    7.78    0.41
  -1   7   4    7.67    0.41
   0  -7  -4   29.44    1.21
   0   7   4   30.29    1.26
  -1  -7  -4   24.33    1.04
   1   7   4   25.33    1.08
  -2  -7  -4   39.40    1.57
  -3  -7  -4   19.41    0.88
  -4  -7  -4    0.18    0.11
   9  -8  -4    8.39    0.42
   8  -8  -4   26.87    1.07
  -8   8   4   26.51    1.13
   7  -8  -4   10.77    0.51
  -7   8   4   11.27    0.54
   6  -8  -4    0.12    0.08
  -6   8   4    0.18    0.08
   5  -8  -4    5.36    0.31
  -5   8   4    5.03    0.32
   4  -8  -4   11.60    0.55
  -4   8   4   11.63    0.57
   3  -8  -4   36.44    1.43
  -3   8   4   36.53    1.51
   2  -8  -4  101.70    3.68
  -2   8   4   98.55    3.90
   1  -8  -4   17.22    0.77
  -1   8   4   16.89    0.79
   0  -8  -4    0.75    0.14
   0   8   4    0.54    0.13
  -1  -8  -4    0.83    0.16
   1   8   4    0.62    0.13
  -2  -8  -4    0.07    0.11
   9  -9  -4    0.13    0.10
   8  -9  -4    0.79    0.15
  -8   9   4    0.95    0.15
   7  -9  -4   45.34    1.77
  -7   9   4   47.76    1.90
   6  -9  -4   35.02    1.38
  -6   9   4   35.29    1.47
   5  -9  -4    7.56    0.41
  -5   9   4    7.73    0.43
   4  -9  -4   25.66    1.07
  -4   9   4   25.70    1.12
   3  -9  -4    2.23    0.22
  -3   9   4    1.99    0.21
   2  -9  -4    5.24    0.35
  -2   9   4    5.31    0.35
   1  -9  -4   18.76    0.84
  -1   9   4   17.51    0.84
   0  -9  -4   15.41    0.75
   0   9   4   15.97    0.77
   8 -10  -4    5.64    0.35
  -8  10   4    5.30    0.36
   7 -10  -4    1.96    0.20
  -7  10   4    2.13    0.22
   6 -10  -4    2.50    0.23
  -6  10   4    2.50    0.24
   5 -10  -4   12.16    0.60
  -5  10   4   12.32    0.63
   4 -10  -4    8.75    0.47
  -4  10   4    8.26    0.48
   3 -10  -4   28.90    1.18
  -3  10   4   27.15    1.23
  -2  10   4   20.36    0.95
   0  13  -5    0.12    0.09
   0  13  -5    0.07    0.10
  -1  13  -5    3.77    0.30
   1 -13   5    3.68    0.28
  -2  13  -5    6.48    0.42
  -3  13  -5    3.27    0.29
  -4  13  -5   16.88    0.82
   2  12  -5    1.89    0.21
   1  12  -5    9.23    0.46
   0  12  -5   34.19    1.33
   0  12  -5   34.50    1.46
  -1  12  -5   15.64    0.67
  -1  12  -5   16.01    0.76
  -2  12  -5   13.51    0.67
  -3  12  -5    2.26    0.22
  -4  12  -5    2.78    0.25
  -5  12  -5   12.98    0.66
  -6  12  -5    7.25    0.43
  -7  12  -5   19.31    0.90
   3  11  -5   16.03    0.72
   2  11  -5   10.32    0.50
   1  11  -5   12.46    0.61
   1  11  -5   12.52    0.57
   0  11  -5    9.52    0.49
   0  11  -5    9.25    0.44
  -1  11  -5   15.02    0.63
  -1  11  -5   14.71    0.70
  -2  11  -5   21.82    0.97
  -3  11  -5    4.44    0.30
  -4  11  -5   17.32    0.80
  -5  11  -5   59.01    2.38
  -6  11  -5    9.57    0.51
  -7  11  -5    0.35    0.12
  -8  11  -5    3.35    0.28
   5  10  -5   11.59    0.58
   4  10  -5    1.44    0.18
   3  10  -5    6.53    0.36
   2  10  -5    9.89    0.47
   1  10  -5   10.28    0.47
   1  10  -5   10.42    0.51
   0  10  -5  105.98    3.75
   0  10  -5  102.36    4.03
  -1  10  -5   64.15    2.55
  -1  10  -5   65.12    2.35
  -2  10  -5    5.30    0.26
  -2  10  -5    5.20    0.32
  -3  10  -5    1.01    0.15
  -4  10  -5    2.22    0.20
  -5  10  -5   11.15    0.55
  -6  10  -5   57.48    2.30
  -7  10  -5   24.89    1.08
  -8  10  -5   10.72    0.54
   6   9  -5    1.77    0.21
   5   9  -5   15.02    0.69
   4   9  -5   40.61    1.57
   3   9  -5   20.65    0.86
   2   9  -5   47.30    1.87
   2   9  -5   46.81    1.76
   1   9  -5    0.27    0.08
   1   9  -5    0.40    0.09
   0   9  -5    0.48    0.10
   0   9  -5    0.58    0.09
  -1   9  -5   14.90    0.60
  -1   9  -5   14.78    0.67
  -2   9  -5   37.74    1.50
  -2   9  -5   36.26    1.36
  -3   9  -5   62.18    2.45
  -4   9  -5   41.00    1.66
  -5   9  -5   50.78    2.03
  -6   9  -5    1.60    0.17
  -7   9  -5   13.75    0.65
  -8   9  -5    2.54    0.21
   7   8  -5    9.43    0.50
   6   8  -5   16.79    0.75
   5   8  -5    7.69    0.41
   4   8  -5    0.04    0.07
   3   8  -5   27.97    1.09
   2   8  -5    6.03    0.32
   2   8  -5    6.57    0.32
   1   8  -5   35.17    1.43
   1   8  -5   35.99    1.33
   0   8  -5   94.23    3.68
   0   8  -5   97.11    3.42
  -1   8  -5   86.01    3.06
  -1   8  -5   85.20    3.30
  -2   8  -5    0.44    0.09
  -3   8  -5    2.21    0.18
  -4   8  -5    7.56    0.39
  -5   8  -5   15.62    0.51
  -5   8  -5   15.13    0.68
  -5   8  -5   14.94    0.57
  -6   8  -5   37.13    1.49
  -6   8  -5   36.80    1.21
  -6   8  -5   35.86    1.12
  -7   8  -5   49.77    1.63
  -7   8  -5   49.77    1.53
  -7   8  -5   51.97    2.02
  -8   8  -5    6.13    0.35
  -8   8  -5    6.62    0.38
  -8   8  -5    6.32    0.29
  -9   8  -5    3.36    0.31
  -9   8  -5    3.50    0.22
   8   7  -5    1.77    0.22
   7   7  -5    0.89    0.15
   6   7  -5   14.64    0.66
   5   7  -5   45.05    1.71
   4   7  -5   87.82    3.19
   3   7  -5   45.65    1.76
   3   7  -5   44.40    1.68
   2   7  -5    5.89    0.29
   2   7  -5    5.76    0.29
   1   7  -5   38.60    1.41
   1   7  -5   37.72    1.51
   0   7  -5    3.05    0.19
   0   7  -5    3.19    0.17
  -1   7  -5   63.22    2.43
  -1   7  -5   61.79    2.24
  -2   7  -5  215.67    8.27
  -2   7  -5  221.01    7.68
  -3   7  -5   80.72    3.12
  -4   7  -5   28.49    0.86
  -4   7  -5   27.58    1.14
  -5   7  -5   44.64    1.43
  -5   7  -5   45.53    1.36
  -5   7  -5   45.07    1.79
  -6   7  -5   14.41    0.66
  -6   7  -5   15.75    0.60
  -6   7  -5   15.48    0.52
  -7   7  -5   18.22    0.71
  -7   7  -5   17.98    0.61
  -7   7  -5   18.03    0.78
  -8   7  -5   23.20    0.88
  -8   7  -5   23.60    0.98
  -8   7  -5   22.36    0.77
  -9   7  -5    3.92    0.31
  -9   7  -5    4.25    0.24
   9   6  -5    7.55    0.44
   8   6  -5   26.81    1.11
   7   6  -5   16.59    0.73
   6   6  -5   17.61    0.75
   5   6  -5    4.50    0.27
   4   6  -5    0.46    0.09
   3   6  -5   50.03    1.89
   3   6  -5   51.30    1.99
  -3  -6   5   51.98    1.53
  -3  -6   5   52.66    1.49
   2   6  -5   67.29    2.61
   2   6  -5   68.48    2.46
  -2  -6   5   68.44    1.95
  -2  -6   5   68.28    1.98
   1   6  -5   40.59    1.45
   1   6  -5   38.89    1.55
  -1  -6   5   39.89    1.15
   0   6  -5  183.90    7.27
   0   6  -5  200.39    6.78
   0  -6   5  192.68    5.46
  -1   6  -5  130.26    4.55
  -1   6  -5  127.77    4.91
  -3   6  -5   60.67    2.35
  -4   6  -5    0.32    0.07
  -5   6  -5   58.57    1.73
  -5   6  -5   58.24    2.28
  -6   6  -5   88.96    3.42
  -6   6  -5   88.08    2.69
  -6   6  -5   89.00    2.60
  -7   6  -5   56.25    1.83
  -7   6  -5   56.50    1.73
  -7   6  -5   59.17    2.25
  -8   6  -5    4.69    0.33
  -8   6  -5    5.34    0.25
  -9   6  -5    0.36    0.10
  -9   6  -5    0.35    0.15
   9   5  -5    1.86    0.21
   8   5  -5    0.16    0.10
   7   5  -5    8.43    0.44
  -7  -5   5    8.78    0.33
  -7  -5   5    9.51    0.41
   6   5  -5   45.73    1.73
  -6  -5   5   45.69    1.43
  -6  -5   5   46.21    1.37
   5   5  -5   94.52    3.37
  -5  -5   5   92.72    2.75
  -5  -5   5   92.08    2.69
   4   5  -5   56.40    2.04
  -4  -5   5   55.40    1.67
  -4  -5   5   55.52    1.62
   3   5  -5   43.03    1.60
   3   5  -5   43.74    1.68
  -3  -5   5   43.38    1.31
  -3  -5   5   44.04    1.27
  -2  -5   5    1.05    0.06
  -2  -5   5    1.10    0.09
   1   5  -5   15.49    0.58
   1   5  -5   14.62    0.62
  -1  -5   5   14.66    0.45
  -1  -5   5   14.83    0.48
   0   5  -5    6.91    0.32
   0   5  -5    6.84    0.28
   0  -5   5    6.88    0.23
  -1   5  -5  166.76    5.92
  -1   5  -5  164.36    6.37
   1  -5   5  173.54    4.79
  -2   5  -5  361.71   12.70
  -3   5  -5  199.27    7.54
  -4   5  -5    1.40    0.12
  -5   5  -5    3.06    0.20
  -6   5  -5    0.36    0.08
  -6   5  -5    0.47    0.12
  -7   5  -5    7.24    0.39
  -7   5  -5    7.54    0.32
  -7   5  -5    7.75    0.38
  -8   5  -5   40.10    1.38
  -8   5  -5   40.43    1.26
  -9   5  -5   23.06    0.79
  -9   5  -5   22.91    0.91
  10   4  -5    1.79    0.21
   9   4  -5    5.33    0.33
  -9  -4   5    4.95    0.25
  -9  -4   5    5.72    0.35
   8   4  -5   53.98    2.08
  -8  -4   5   55.49    1.75
  -8  -4   5   56.80    1.66
   7   4  -5   50.86    1.91
  -7  -4   5   50.48    1.52
  -7  -4   5   51.63    1.61
   6   4  -5    3.49    0.22
  -6  -4   5    3.39    0.22
  -6  -4   5    3.68    0.17
   5   4  -5    4.14    0.23
  -5  -4   5    4.22    0.18
  -5  -4   5    3.98    0.23
  -4  -4   5    0.45    0.09
  -4  -4   5    0.64    0.06
   3   4  -5   60.73    2.19
  -3  -4   5   60.26    1.80
  -3  -4   5   61.05    1.76
   2   4  -5   99.51    3.48
   2   4  -5   92.82    3.71
  -2  -4   5   99.33    2.84
  -2  -4   5  100.43    2.81
   1   4  -5  177.13    6.92
   1   4  -5  181.81    6.45
  -1  -4   5  188.79    5.21
  -1  -4   5  184.52    5.24
   0   4  -5   57.72    2.20
   0   4  -5   56.47    2.03
   0  -4   5   57.25    1.65
  -1   4  -5   94.02    3.33
  -1   4  -5   92.80    3.60
   1  -4   5   96.63    2.71
  -2   4  -5   33.15    1.32
  -3   4  -5   21.04    0.87
  -4   4  -5  101.21    3.87
  -5   4  -5   27.41    1.11
  -6   4  -5   39.73    1.55
  -6   4  -5   38.12    1.20
  -7   4  -5   45.94    1.43
  -7   4  -5   46.62    1.54
  -7   4  -5   47.19    1.84
  -8   4  -5    9.74    0.39
  -8   4  -5    9.27    0.48
  -9   4  -5    0.07    0.12
  -9   4  -5    0.14    0.08
  10   3  -5    8.83    0.45
 -10  -3   5    8.60    0.36
 -10  -3   5    8.25    0.45
   9   3  -5    6.18    0.35
  -9  -3   5    6.06    0.37
  -9  -3   5    6.23    0.28
   8   3  -5    2.57    0.20
  -8  -3   5    2.05    0.22
  -8  -3   5    2.37    0.15
   7   3  -5   49.04    1.85
  -7  -3   5   50.82    1.57
  -7  -3   5   49.39    1.49
   6   3  -5   80.03    2.88
  -6  -3   5   79.58    2.32
  -6  -3   5   79.33    2.39
   5   3  -5   46.45    1.82
  -5  -3   5   51.49    1.53
  -5  -3   5   51.77    1.47
   4   3  -5   75.16    2.85
  -4  -3   5   75.53    2.23
  -4  -3   5   75.74    2.19
   3   3  -5   58.92    2.09
   3   3  -5   57.68    2.20
  -3  -3   5   57.27    1.68
  -3  -3   5   57.84    1.73
   2   3  -5   34.08    1.23
  -2  -3   5   33.36    0.99
  -2  -3   5   33.48    1.03
   1   3  -5   67.44    2.54
   1   3  -5   66.90    2.36
  -1  -3   5   66.30    1.91
  -1  -3   5   65.11    1.95
   0   3  -5   83.88    3.17
   0   3  -5   82.67    2.93
   0  -3   5   82.53    2.38
  -1   3  -5  150.82    5.91
  -1   3  -5  158.07    5.49
   1  -3   5  159.27    4.45
  -2   3  -5  257.67    9.73
  -3   3  -5  166.97    6.33
  -4   3  -5    9.11    0.42
  -5   3  -5    0.96    0.11
  -6   3  -5    0.96    0.12
  -7   3  -5   18.81    0.75
  -7   3  -5   18.66    0.65
  -8   3  -5   41.69    1.30
  -8   3  -5   41.03    1.42
  -9   3  -5   12.90    0.61
  -9   3  -5   11.97    0.49
  11   2  -5    5.16    0.33
 -11  -2   5    4.94    0.37
 -11  -2   5    5.44    0.28
  10   2  -5    9.16    0.45
 -10  -2   5    8.93    0.47
 -10  -2   5    8.61    0.36
   9   2  -5   17.00    0.73
  -9  -2   5   17.33    0.59
  -9  -2   5   17.54    0.69
   8   2  -5   62.16    2.24
  -8  -2   5   59.61    1.90
  -8  -2   5   60.25    1.81
   7   2  -5   43.98    1.62
  -7  -2   5   43.54    1.31
  -7  -2   5   42.70    1.39
   6   2  -5    2.84    0.18
  -6  -2   5    2.93    0.21
  -6  -2   5    2.74    0.15
  -5  -2   5   18.23    0.64
  -5  -2   5   18.61    0.58
   4   2  -5    0.61    0.08
  -4  -2   5    0.81    0.07
  -4  -2   5    0.72    0.10
   3   2  -5  402.17   14.10
   3   2  -5  404.50   15.04
  -3  -2   5  395.73   11.37
  -3  -2   5  394.71   11.38
   2   2  -5  284.27   10.07
  -2  -2   5  289.76    8.15
  -2  -2   5  284.92    8.17
   1   2  -5  162.46    5.75
   1   2  -5  159.99    6.16
  -1  -2   5  162.63    4.68
  -1  -2   5  166.77    4.65
   0   2  -5   41.78    1.65
   0   2  -5   42.97    1.51
   0  -2   5   42.25    1.24
  -1   2  -5   76.43    2.74
   1  -2   5   78.85    2.24
  -2   2  -5    3.69    0.21
  -2   2  -5    3.60    0.14
   2  -2   5    3.71    0.15
  -3   2  -5   53.54    2.09
  -4   2  -5  188.18    7.14
  -5   2  -5  104.06    3.99
  -6   2  -5   36.70    1.47
  -7   2  -5   22.05    0.74
  -7   2  -5   21.42    0.84
  -8   2  -5    3.03    0.29
  -8   2  -5    3.34    0.21
  -9   2  -5    5.93    0.31
  -9   2  -5    7.21    0.45
  11   1  -5    7.73    0.41
 -11  -1   5    7.22    0.33
 -11  -1   5    6.56    0.42
  10   1  -5    0.11    0.09
 -10  -1   5    0.06    0.12
 -10  -1   5    0.12    0.08
   9   1  -5    0.63    0.11
  -9  -1   5    0.36    0.13
  -9  -1   5    0.54    0.09
   8   1  -5    3.28    0.22
  -8  -1   5    3.41    0.18
  -8  -1   5    3.72    0.27
   7   1  -5   55.91    2.09
  -7  -1   5   58.23    1.78
  -7  -1   5   57.39    1.70
   6   1  -5  143.82    5.02
  -6  -1   5  139.82    4.12
  -6  -1   5  138.99    4.05
   5   1  -5   70.27    2.57
  -5  -1   5   72.47    2.08
  -5  -1   5   71.74    2.14
   4   1  -5   21.06    0.82
  -4  -1   5   20.33    0.69
  -4  -1   5   21.24    0.65
   3   1  -5  140.52    4.99
  -3  -1   5  140.69    4.09
  -3  -1   5  142.63    4.04
   2   1  -5   32.87    1.38
   2   1  -5   35.69    1.28
  -2  -1   5   37.16    1.05
  -2  -1   5   36.18    1.09
   1   1  -5   72.25    2.51
   1   1  -5   71.98    2.33
  -1  -1   5   52.03    1.88
   0   1  -5  315.04   11.38
   0   1  -5  331.59   12.26
  -1   1  -5   39.32    1.49
  -1   1  -5   36.67    1.35
   1  -1   5   37.09    1.11
  -2   1  -5   50.76    1.95
  -2   1  -5   47.93    1.78
   2  -1   5   51.40    1.47
  -3   1  -5   72.66    2.76
  -3   1  -5   69.79    2.52
  -4   1  -5   10.15    0.47
  -5   1  -5    2.14    0.17
  -6   1  -5   18.38    0.79
  -7   1  -5   17.34    0.71
  -7   1  -5   16.64    0.60
  -8   1  -5   30.70    1.01
  -8   1  -5   30.90    1.14
  11   0  -5   17.62    0.74
 -11   0   5   17.27    0.74
 -11   0   5   16.78    0.62
  10   0  -5   13.54    0.60
 -10   0   5   13.33    0.50
 -10   0   5   13.96    0.61
   9   0  -5   19.51    0.78
  -9   0   5   18.84    0.65
  -9   0   5   19.19    0.75
   8   0  -5   44.03    1.66
  -8   0   5   43.48    1.35
  -8   0   5   46.46    1.45
   7   0  -5   58.68    2.19
  -7   0   5   60.62    1.86
  -7   0   5   61.07    1.78
   6   0  -5    0.07    0.05
  -6   0   5    0.28    0.09
  -6   0   5    0.11    0.05
   3   0  -5   48.36    1.75
  -3   0   5   48.06    1.47
  -3   0   5   49.05    1.42
   2   0  -5  356.35   12.47
  -2   0   5  353.80   10.10
  -2   0   5  352.71   10.11
   1   0  -5  237.68    8.62
  -1   0   5  245.53    6.99
  -1   0   5  249.38    6.96
   0   0  -5   11.97    0.45
   0   0   5   11.64    0.38
  -1   0  -5   -0.06    0.04
  -1   0  -5    0.23    0.04
   1   0   5    0.06    0.03
  -2   0  -5    1.08    0.08
  -2   0  -5    1.09    0.11
  -3   0  -5   28.03    1.12
  -3   0  -5   26.47    1.00
  -4   0  -5  137.32    5.25
  -5   0  -5  103.54    3.99
  -7   0  -5    1.79    0.23
  -7   0  -5    1.91    0.16
  -8   0  -5    1.21    0.21
  -8   0  -5    1.35    0.15
  11  -1  -5    3.27    0.24
 -11   1   5    3.10    0.21
 -11   1   5    2.71    0.29
  10  -1  -5    0.97    0.14
 -10   1   5    0.86    0.18
 -10   1   5    1.24    0.14
   9  -1  -5    2.42    0.19
  -9   1   5    2.60    0.16
  -9   1   5    2.08    0.23
   8  -1  -5   11.07    0.49
  -8   1   5   11.76    0.50
  -8   1   5   11.02    0.41
   7  -1  -5   58.91    2.17
  -7   1   5   59.81    1.85
  -7   1   5   60.06    1.77
   6  -1  -5   79.40    2.84
  -6   1   5   78.15    2.37
  -6   1   5   79.14    2.30
   5  -1  -5   90.49    3.16
  -5   1   5   87.39    2.62
  -5   1   5   86.97    2.56
  -4   1   5  105.91    3.04
  -4   1   5  105.25    3.10
   3  -1  -5   71.53    2.59
  -3   1   5   71.33    2.15
  -3   1   5   73.93    2.10
   2  -1  -5   13.03    0.51
  -2   1   5   12.84    0.41
  -2   1   5   12.75    0.46
   1  -1  -5  250.34    8.49
  -1   1   5  237.25    6.87
  -1   1   5  235.55    6.90
   0  -1  -5  143.14    5.08
   0   1   5  144.16    4.11
  -1  -1  -5   48.29    1.74
   1   1   5   47.66    1.41
  -2  -1  -5  110.66    3.93
  -3  -1  -5  117.02    4.46
  -3  -1  -5  115.42    4.14
  -4  -1  -5    2.89    0.21
  -5  -1  -5   13.35    0.62
  -6  -1  -5   12.81    0.49
  -6  -1  -5   14.17    0.61
  -7  -1  -5   38.44    1.21
  -7  -1  -5   37.45    1.33
  -8  -1  -5   31.93    1.05
  -8  -1  -5   31.44    1.18
 -11   2   5   34.38    1.21
 -11   2   5   31.99    1.07
  10  -2  -5   16.08    0.69
 -10   2   5   16.57    0.59
 -10   2   5   16.55    0.69
   9  -2  -5   11.74    0.52
  -9   2   5   12.09    0.54
  -9   2   5   12.38    0.45
   8  -2  -5   17.78    0.72
  -8   2   5   18.21    0.69
  -8   2   5   17.34    0.59
   7  -2  -5   22.93    0.88
  -7   2   5   22.60    0.73
  -7   2   5   22.93    0.80
   6  -2  -5   19.29    0.79
  -6   2   5   21.64    0.73
  -6   2   5   19.26    0.81
  -6   2   5   21.92    0.66
   5  -2  -5   41.15    1.51
  -5   2   5   41.62    1.30
  -5   2   5   41.17    1.59
  -5   2   5   40.86    1.23
  -4   2   5  120.30    4.51
  -4   2   5  117.99    3.48
  -4   2   5  118.20    3.42
   3  -2  -5  187.12    6.65
  -3   2   5  189.66    5.38
  -3   2   5  187.16    5.43
  -3   2   5  189.13    7.11
   2  -2  -5   68.14    2.46
  -2   2   5   67.54    2.03
  -2   2   5   69.42    1.99
  -2   2   5   68.70    2.63
   1  -2  -5   59.92    2.17
  -1   2   5   60.43    1.75
   0  -2  -5    0.66    0.08
  -1  -2  -5   11.75    0.49
   1   2   5   12.13    0.39
  -2  -2  -5   39.10    1.45
  -3  -2  -5   68.42    2.49
  -4  -2  -5  108.21    4.18
  -5  -2  -5   40.53    1.65
  -6  -2  -5    5.59    0.28
  -6  -2  -5    5.65    0.37
  -7  -2  -5    0.85    0.13
  -7  -2  -5    1.02    0.20
 -11   3   5   11.70    0.58
 -11   3   5   12.50    0.48
  10  -3  -5    0.85    0.13
 -10   3   5    0.90    0.12
 -10   3   5    0.79    0.18
   9  -3  -5   11.72    0.52
  -9   3   5   11.61    0.44
  -9   3   5   12.59    0.54
   8  -3  -5   14.12    0.60
  -8   3   5   14.31    0.50
  -8   3   5   15.19    0.60
   7  -3  -5   12.22    0.52
  -7   3   5   12.33    0.51
  -7   3   5   12.21    0.43
   6  -3  -5  125.25    4.45
  -6   3   5  123.55    3.60
  -6   3   5  127.27    3.68
  -6   3   5  123.26    4.73
   5  -3  -5   90.61    3.19
  -5   3   5   87.82    2.65
  -5   3   5   88.46    3.39
  -5   3   5   88.37    2.58
  -4   3   5    7.89    0.34
  -4   3   5    7.93    0.29
  -4   3   5    8.02    0.37
  -3   3   5   11.75    0.39
  -3   3   5   11.65    0.44
  -3   3   5   11.53    0.51
   2  -3  -5   19.68    0.80
  -2   3   5   22.40    0.87
  -2   3   5   20.62    0.69
  -2   3   5   20.64    0.64
   1  -3  -5  135.52    4.82
  -1   3   5  135.11    3.87
   0  -3  -5  147.61    5.22
   0   3   5  145.62    4.20
  -1  -3  -5   20.05    0.79
   1   3   5   20.00    0.62
  -2  -3  -5   24.68    0.97
  -3  -3  -5   39.21    1.49
  -4  -3  -5    4.91    0.31
  -6  -3  -5   39.70    1.26
 -11   4   5   17.55    0.74
 -11   4   5   17.36    0.62
  10  -4  -5   36.20    1.39
 -10   4   5   36.12    1.15
 -10   4   5   36.41    1.26
   9  -4  -5    7.90    0.38
  -9   4   5    8.12    0.42
  -9   4   5    7.69    0.32
   8  -4  -5    5.22    0.28
  -8   4   5    5.03    0.24
  -8   4   5    4.96    0.31
   7  -4  -5    9.87    0.44
  -7   4   5    9.58    0.36
  -7   4   5    9.91    0.44
  -7   4   5    9.39    0.43
  -6   4   5    3.29    0.17
  -6   4   5    3.50    0.23
   5  -4  -5   77.50    2.78
  -5   4   5   75.88    2.95
  -5   4   5   76.43    2.24
  -5   4   5   77.12    2.32
   4  -4  -5   53.07    1.97
  -4   4   5   53.81    2.10
  -4   4   5   54.53    1.59
  -4   4   5   53.97    1.65
   3  -4  -5   54.95    2.06
  -3   4   5   57.92    1.66
  -3   4   5   56.34    2.20
  -3   4   5   56.61    1.71
   2  -4  -5  118.85    4.26
  -2   4   5  119.08    3.47
  -2   4   5  122.61    3.42
  -2   4   5  115.16    4.54
   1  -4  -5   58.32    2.16
  -1   4   5   60.09    1.72
  -1   4   5   58.30    2.30
   0  -4  -5    0.90    0.12
   0   4   5    1.28    0.09
  -1  -4  -5   27.70    1.08
  -2  -4  -5   14.13    0.62
  -3  -4  -5   14.92    0.66
 -11   5   5    0.43    0.10
 -11   5   5    0.48    0.17
  10  -5  -5    3.54    0.24
 -10   5   5    4.04    0.22
 -10   5   5    3.73    0.31
   9  -5  -5   20.52    0.84
  -9   5   5   21.60    0.81
  -9   5   5   20.80    0.70
   8  -5  -5   11.32    0.52
  -8   5   5   11.95    0.52
  -8   5   5   12.17    0.43
   7  -5  -5   40.75    1.54
  -7   5   5   40.97    1.25
  -7   5   5   40.96    1.63
  -7   5   5   41.28    1.34
   6  -5  -5   69.95    2.58
  -6   5   5   70.40    2.09
  -6   5   5   72.12    2.75
  -6   5   5   70.91    2.17
   5  -5  -5   82.03    3.06
  -5   5   5   85.36    3.26
  -5   5   5   84.88    2.46
  -5   5   5   85.76    2.54
   4  -5  -5    3.68    0.23
  -4   5   5    4.04    0.24
  -4   5   5    4.23    0.18
  -4   5   5    4.18    0.25
   3  -5  -5   14.15    0.62
  -3   5   5   15.43    0.48
  -3   5   5   15.48    0.67
  -3   5   5   15.00    0.54
   2  -5  -5   29.88    1.16
  -2   5   5   29.71    0.90
  -2   5   5   30.21    1.23
   1  -5  -5   92.43    3.37
  -1   5   5   91.32    3.59
  -1   5   5   94.80    2.68
   0  -5  -5  120.89    4.31
   0   5   5  117.94    4.59
  -1  -5  -5   29.24    1.16
  -2  -5  -5   34.93    1.37
  -3  -5  -5    1.99    0.20
 -11   6   5   17.69    0.63
 -11   6   5   16.70    0.74
  10  -6  -5    7.76    0.40
 -10   6   5    7.94    0.34
 -10   6   5    8.16    0.44
   9  -6  -5   16.27    0.69
  -9   6   5   15.56    0.67
  -9   6   5   16.59    0.57
   8  -6  -5    0.73    0.12
  -8   6   5    0.88    0.11
  -8   6   5    0.66    0.15
   7  -6  -5    0.30    0.09
  -7   6   5    0.25    0.08
  -7   6   5    0.49    0.13
  -7   6   5    0.43    0.08
   6  -6  -5   17.63    0.74
  -6   6   5   17.55    0.66
  -6   6   5   17.93    0.78
  -6   6   5   17.97    0.59
   5  -6  -5   12.57    0.57
  -5   6   5   14.12    0.52
  -5   6   5   13.29    0.61
  -5   6   5   13.52    0.45
   4  -6  -5   75.30    2.77
  -4   6   5   76.11    2.95
   3  -6  -5   33.40    1.32
  -3   6   5   35.28    1.41
   2  -6  -5   29.57    1.16
  -2   6   5   29.34    1.23
   1  -6  -5    5.45    0.32
  -1   6   5    5.64    0.33
   0  -6  -5    0.93    0.14
   0   6   5    0.79    0.13
  -1  -6  -5   24.88    1.03
  -2  -6  -5   35.81    1.43
  -3  -6  -5   22.55    0.97
  10  -7  -5    2.48    0.21
   9  -7  -5   25.85    1.04
   8  -7  -5   22.26    0.91
  -8   7   5   22.37    0.96
   7  -7  -5    5.85    0.32
  -7   7   5    5.12    0.32
   6  -7  -5   41.46    1.58
  -6   7   5   41.53    1.68
   5  -7  -5   15.38    0.68
  -5   7   5   16.12    0.72
   4  -7  -5    0.35    0.09
  -4   7   5    0.25    0.09
   3  -7  -5   26.40    1.07
  -3   7   5   26.24    1.12
   2  -7  -5   19.34    0.82
  -2   7   5   18.69    0.85
   1  -7  -5   18.68    0.81
  -1   7   5   18.37    0.84
   0  -7  -5   64.23    2.40
   0   7   5   62.20    2.52
  -1  -7  -5   17.24    0.79
  -2  -7  -5    3.38    0.28
  -3  -7  -5    1.09    0.18
   9  -8  -5    7.63    0.40
   8  -8  -5    2.39    0.22
  -8   8   5    2.77    0.23
   7  -8  -5    1.89    0.19
  -7   8   5    2.51    0.22
   6  -8  -5    1.25    0.15
  -6   8   5    1.23    0.16
   5  -8  -5   25.62    1.04
  -5   8   5   25.24    1.10
   4  -8  -5   85.79    3.14
  -4   8   5   84.48    3.34
   3  -8  -5   29.65    1.19
  -3   8   5   28.64    1.25
   2  -8  -5    3.70    0.27
  -2   8   5    3.38    0.27
   1  -8  -5    1.57    0.20
  -1   8   5    1.21    0.17
   0  -8  -5    1.31    0.19
   0   8   5    1.26    0.18
  -1  -8  -5   36.82    1.51
   8  -9  -5   43.69    1.69
  -8   9   5   43.45    1.79
   7  -9  -5    6.58    0.37
  -7   9   5    6.45    0.39
   6  -9  -5    5.08    0.32
  -6   9   5    4.99    0.33
   5  -9  -5    0.58    0.13
  -5   9   5    0.48    0.12
   4  -9  -5    2.79    0.25
  -4   9   5    2.97    0.25
   3  -9  -5    9.18    0.49
  -3   9   5    8.60    0.49
   2  -9  -5   20.12    0.90
  -2   9   5   20.13    0.93
   1  -9  -5   41.67    1.66
  -1   9   5   40.82    1.74
   0  13  -6    1.07    0.15
   0  13  -6    1.31    0.19
  -1  13  -6   19.08    0.90
  -2  13  -6   21.01    0.98
  -3  13  -6   14.04    0.71
  -4  13  -6    5.16    0.36
   2  12  -6   13.15    0.62
   1  12  -6   15.70    0.69
   0  12  -6    4.89    0.29
   0  12  -6    4.78    0.33
  -1  12  -6   19.00    0.78
  -1  12  -6   18.83    0.87
  -2  12  -6    3.38    0.27
  -3  12  -6   12.57    0.64
  -4  12  -6   29.28    1.27
  -5  12  -6    2.23    0.23
  -6  12  -6    9.95    0.55
   4  11  -6   13.60    0.65
   3  11  -6   11.26    0.55
   2  11  -6    2.83    0.23
   1  11  -6    9.76    0.50
   1  11  -6    9.41    0.46
   0  11  -6   17.88    0.84
   0  11  -6   19.40    0.77
  -1  11  -6    7.58    0.36
  -1  11  -6    7.63    0.43
  -2  11  -6   49.46    2.01
  -3  11  -6   45.84    1.88
  -4  11  -6    6.38    0.38
  -5  11  -6    0.92    0.15
  -6  11  -6    0.14    0.09
  -7  11  -6    0.98    0.16
  -8  11  -6   36.79    1.55
   5  10  -6    1.07    0.17
   4  10  -6    0.79    0.15
   3  10  -6   18.85    0.80
   2  10  -6   43.19    1.64
   1  10  -6   43.41    1.62
   1  10  -6   42.67    1.74
   0  10  -6    6.84    0.34
   0  10  -6    6.82    0.37
  -1  10  -6    7.19    0.39
  -1  10  -6    7.15    0.34
  -2  10  -6    4.85    0.30
  -3  10  -6   23.61    1.02
  -4  10  -6   95.27    3.71
  -5  10  -6   14.45    0.68
  -6  10  -6   15.47    0.73
  -7  10  -6   18.09    0.83
  -8  10  -6    3.41    0.26
   6   9  -6   11.99    0.59
   5   9  -6   12.88    0.61
   4   9  -6   14.68    0.65
   3   9  -6   19.07    0.79
   2   9  -6   14.99    0.66
   2   9  -6   14.91    0.63
   1   9  -6   21.09    0.82
   1   9  -6   20.02    0.88
   0   9  -6   23.81    0.91
   0   9  -6   23.39    1.00
  -1   9  -6    4.42    0.24
  -1   9  -6    5.23    0.29
  -2   9  -6   67.85    2.66
  -3   9  -6   70.84    2.78
  -4   9  -6    4.85    0.30
  -5   9  -6   16.62    0.75
  -6   9  -6    5.17    0.32
  -7   9  -6    8.10    0.44
  -8   9  -6   23.04    1.00
   7   8  -6   17.08    0.78
   6   8  -6    0.09    0.10
   5   8  -6    7.75    0.40
   4   8  -6   18.40    0.77
   3   8  -6    7.80    0.38
   2   8  -6  144.44    5.10
   2   8  -6  141.15    5.44
   1   8  -6   62.67    2.48
   1   8  -6   64.63    2.31
   0   8  -6    8.86    0.39
   0   8  -6    9.83    0.45
  -1   8  -6    0.56    0.07
  -1   8  -6    0.21    0.08
  -2   8  -6    0.25    0.07
  -3   8  -6   19.29    0.83
  -4   8  -6  105.47    3.01
  -4   8  -6  102.50    4.01
  -5   8  -6   67.09    1.99
  -5   8  -6   68.25    2.07
  -5   8  -6   66.37    2.63
  -6   8  -6    6.35    0.27
  -6   8  -6    6.19    0.34
  -6   8  -6    6.71    0.36
  -7   8  -6    3.19    0.27
  -7   8  -6    2.90    0.18
  -7   8  -6    3.14    0.23
  -8   8  -6   10.82    0.53
  -8   8  -6   10.95    0.43
  -8   8  -6   11.59    0.55
  -9   8  -6    2.39    0.27
  -9   8  -6    2.29    0.19
   8   7  -6    5.53    0.36
   7   7  -6    6.57    0.38
   6   7  -6   38.24    1.49
   5   7  -6   45.62    1.73
   4   7  -6   22.23    0.89
   3   7  -6    0.25    0.07
   3   7  -6    0.28    0.08
   2   7  -6    2.01    0.15
   2   7  -6    1.96    0.15
   1   7  -6   17.27    0.72
   1   7  -6   16.84    0.67
   0   7  -6   78.17    2.98
   0   7  -6   78.45    2.77
   0  -7   6   75.43    2.22
  -1   7  -6   74.80    2.68
  -1   7  -6   75.53    2.90
  -2   7  -6   45.59    1.80
  -3   7  -6   59.89    2.34
  -4   7  -6   44.26    1.76
  -5   7  -6   29.13    1.20
  -6   7  -6   47.57    1.53
  -6   7  -6   46.59    1.43
  -6   7  -6   47.24    1.88
  -7   7  -6   20.98    0.82
  -7   7  -6   22.39    0.94
  -7   7  -6   21.98    0.73
  -8   7  -6    9.28    0.47
  -8   7  -6    9.44    0.39
  -8   7  -6   10.30    0.49
  -9   7  -6   28.81    0.95
  -9   7  -6   28.29    1.08
   9   6  -6   18.03    0.81
   8   6  -6    1.79    0.20
   7   6  -6    2.34    0.21
   6   6  -6    1.74    0.18
   5   6  -6   12.30    0.55
   4   6  -6  143.18    5.17
  -4  -6   6  146.41    4.15
  -4  -6   6  145.14    4.20
   3   6  -6   70.57    2.78
   3   6  -6   73.44    2.63
  -3  -6   6   72.94    2.10
  -3  -6   6   73.92    2.14
   2   6  -6   50.68    1.85
   2   6  -6   50.63    1.97
  -2  -6   6   50.93    1.51
  -2  -6   6   51.15    1.48
   1   6  -6   83.30    3.25
   1   6  -6   86.22    3.03
  -1  -6   6   85.25    2.44
   0   6  -6    1.21    0.09
   0   6  -6    1.18    0.11
   0  -6   6    0.99    0.07
  -1   6  -6   22.97    0.94
  -1   6  -6   22.82    0.84
   1  -6   6   23.18    0.69
  -2   6  -6    4.00    0.23
  -3   6  -6  125.99    4.81
  -4   6  -6  108.40    4.16
  -5   6  -6   48.09    1.90
  -6   6  -6   10.79    0.51
  -6   6  -6   11.00    0.49
  -6   6  -6   10.52    0.40
  -7   6  -6    7.79    0.33
  -7   6  -6    7.93    0.42
  -7   6  -6    8.11    0.40
  -8   6  -6    2.42    0.17
  -8   6  -6    2.34    0.26
  -9   6  -6    9.64    0.41
  -9   6  -6    9.96    0.52
   9   5  -6    0.38    0.11
   8   5  -6    4.70    0.30
   7   5  -6   12.51    0.57
  -7  -5   6   12.11    0.51
  -7  -5   6   12.57    0.43
   6   5  -6  111.49    4.01
  -6  -5   6  110.27    3.21
  -6  -5   6  111.80    3.28
   5   5  -6   54.92    2.02
  -5  -5   6   54.97    1.67
  -5  -5   6   54.11    1.61
   4   5  -6    2.07    0.16
  -4  -5   6    1.99    0.11
   3   5  -6    4.02    0.21
   3   5  -6    3.98    0.20
  -3  -5   6    4.10    0.21
  -3  -5   6    4.11    0.16
   2   5  -6    0.21    0.05
   2   5  -6    0.20    0.05
  -2  -5   6    0.26    0.04
  -2  -5   6    0.24    0.06
   1   5  -6   21.60    0.80
   1   5  -6   21.53    0.87
  -1  -5   6   21.18    0.65
  -1  -5   6   21.79    0.69
   0   5  -6  105.08    3.77
   0   5  -6  106.19    4.07
   0  -5   6  108.48    3.05
  -1   5  -6  128.14    4.94
  -1   5  -6  128.81    4.57
   1  -5   6  132.57    3.71
  -2   5  -6   -0.01    0.01
  -3   5  -6   34.66    1.39
  -4   5  -6    0.26    0.07
  -5   5  -6   27.35    1.12
  -6   5  -6   34.52    1.40
  -7   5  -6   17.94    0.72
  -7   5  -6   17.40    0.62
  -7   5  -6   17.82    0.77
  -8   5  -6   24.36    0.94
  -8   5  -6   24.79    0.83
  -9   5  -6    8.55    0.37
  -9   5  -6    7.71    0.47
  10   4  -6   32.88    1.28
 -10  -4   6   31.47    1.01
 -10  -4   6   30.43    1.11
   9   4  -6    4.94    0.30
  -9  -4   6    4.11    0.31
  -9  -4   6    4.59    0.23
   8   4  -6    3.51    0.24
  -8  -4   6    3.42    0.25
  -8  -4   6    3.16    0.18
   7   4  -6    5.28    0.30
  -7  -4   6    5.21    0.30
  -7  -4   6    5.03    0.23
   6   4  -6    0.07    0.07
  -6  -4   6    0.18    0.06
  -6  -4   6    0.12    0.09
   5   4  -6   64.19    2.31
  -5  -4   6   62.81    1.91
  -5  -4   6   62.94    1.85
   4   4  -6   94.66    3.34
  -4  -4   6   91.77    2.74
  -4  -4   6   93.15    2.69
   3   4  -6  127.83    4.50
   3   4  -6  126.25    4.78
  -3  -4   6  125.69    3.62
  -3  -4   6  126.29    3.67
   2   4  -6  101.82    3.58
   2   4  -6  100.96    3.83
  -2  -4   6  100.19    2.94
  -2  -4   6  100.27    2.89
   1   4  -6   13.10    0.51
   1   4  -6   13.32    0.56
  -1  -4   6   13.17    0.42
  -1  -4   6   13.14    0.45
   0   4  -6    4.89    0.25
   0   4  -6    4.94    0.21
   0  -4   6    5.12    0.19
  -1   4  -6   31.08    1.20
  -1   4  -6   28.83    1.07
   1  -4   6   29.77    0.89
  -3   4  -6   56.92    2.22
  -4   4  -6  107.16    4.11
  -5   4  -6   67.53    2.63
  -6   4  -6   22.37    0.94
  -7   4  -6    0.28    0.13
  -7   4  -6    0.23    0.08
  -7   4  -6    0.19    0.07
  -8   4  -6    1.52    0.15
  -8   4  -6    1.52    0.22
  -9   4  -6   13.41    0.53
  -9   4  -6   13.34    0.64
  10   3  -6    0.05    0.08
 -10  -3   6    0.13    0.14
 -10  -3   6    0.08    0.08
   9   3  -6   11.52    0.54
  -9  -3   6   11.60    0.43
  -9  -3   6   11.86    0.53
   8   3  -6   30.11    1.17
  -8  -3   6   29.55    0.94
  -8  -3   6   30.44    1.03
   7   3  -6   50.24    1.84
  -7  -3   6   48.60    1.56
  -7  -3   6   49.37    1.48
   6   3  -6   44.57    1.64
  -6  -3   6   44.46    1.39
  -6  -3   6   43.44    1.32
   5   3  -6   77.43    2.96
  -5  -3   6   83.77    2.39
  -5  -3   6   85.81    2.46
   4   3  -6   30.57    1.16
   4   3  -6   30.29    1.12
  -4  -3   6   29.27    0.96
  -4  -3   6   29.66    0.91
   3   3  -6   43.02    1.57
   3   3  -6   42.54    1.66
  -3  -3   6   43.03    1.27
  -3  -3   6   43.79    1.32
   2   3  -6   88.97    3.36
   2   3  -6   90.99    3.14
  -2  -3   6   87.03    2.59
  -2  -3   6   86.29    2.54
   1   3  -6   90.55    3.52
   1   3  -6   95.67    3.28
  -1  -3   6   90.91    2.70
  -1  -3   6   92.57    2.66
   0   3  -6  212.29    7.44
   0   3  -6  205.44    7.97
   0  -3   6  215.54    6.01
  -1   3  -6  312.06   12.14
  -1   3  -6  321.60   11.28
   1  -3   6  329.16    9.16
  -2   3  -6   64.79    2.50
   2  -3   6   64.16    1.88
  -3   3  -6    0.03    0.04
  -4   3  -6    0.44    0.08
  -5   3  -6   55.96    2.20
  -6   3  -6   78.86    3.06
  -7   3  -6   31.06    1.10
  -7   3  -6   28.92    0.97
  -8   3  -6    6.82    0.32
  -8   3  -6    7.06    0.42
  11   2  -6    6.31    0.37
 -11  -2   6    5.73    0.38
 -11  -2   6    6.53    0.30
  10   2  -6   12.76    0.58
 -10  -2   6   12.63    0.47
 -10  -2   6   11.99    0.56
   9   2  -6   23.69    0.94
  -9  -2   6   22.52    0.76
  -9  -2   6   22.86    0.86
   8   2  -6    0.84    0.12
  -8  -2   6    0.62    0.10
  -8  -2   6    0.69    0.14
   7   2  -6    0.52    0.10
  -7  -2   6    0.34    0.12
  -7  -2   6    0.37    0.07
   6   2  -6    1.15    0.12
  -6  -2   6    1.04    0.10
  -6  -2   6    0.98    0.14
  -5  -2   6   76.46    2.29
  -5  -2   6   76.57    2.23
   4   2  -6  302.51   10.49
  -4  -2   6  292.08    8.46
  -4  -2   6  294.67    8.49
   3   2  -6   23.21    0.88
   3   2  -6   23.73    0.94
  -3  -2   6   23.75    0.78
  -3  -2   6   24.04    0.73
   2   2  -6    4.14    0.21
   2   2  -6    4.02    0.19
  -2  -2   6    4.08    0.16
  -2  -2   6    3.74    0.20
   1   2  -6   43.25    1.74
   1   2  -6   44.79    1.61
  -1  -2   6   45.19    1.36
  -1  -2   6   45.86    1.32
   0   2  -6    0.61    0.09
   0   2  -6    0.84    0.06
   0  -2   6    0.62    0.06
  -1   2  -6  108.12    3.96
   1  -2   6  116.83    3.23
  -2   2  -6  109.70    4.02
  -2   2  -6  119.37    4.38
  -3   2  -6   44.37    1.76
  -4   2  -6   36.22    1.46
  -5   2  -6   79.22    3.08
  -6   2  -6    4.24    0.26
  -7   2  -6    5.94    0.38
  -7   2  -6    5.56    0.27
  -8   2  -6   25.98    0.88
  -8   2  -6   26.29    1.01
  11   1  -6    2.39    0.22
 -11  -1   6    1.84    0.17
 -11  -1   6    1.85    0.25
  10   1  -6    2.06    0.20
 -10  -1   6    2.35    0.17
 -10  -1   6    2.02    0.24
   9   1  -6   24.86    1.03
  -9  -1   6   26.67    0.85
  -9  -1   6   26.86    0.95
   8   1  -6   49.12    1.85
  -8  -1   6   49.24    1.51
  -8  -1   6   51.63    1.60
   7   1  -6   21.55    0.85
  -7  -1   6   21.01    0.77
  -7  -1   6   21.90    0.69
   6   1  -6   60.33    2.21
  -6  -1   6   60.02    1.79
  -6  -1   6   62.01    1.87
   5   1  -6   27.48    1.05
  -5  -1   6   26.77    0.90
  -5  -1   6   26.87    0.83
   4   1  -6    0.94    0.08
   4   1  -6    1.11    0.10
  -4  -1   6    1.05    0.09
  -4  -1   6    0.69    0.11
   3   1  -6   66.47    2.68
   3   1  -6   70.06    2.51
  -3  -1   6   71.43    2.09
  -3  -1   6   72.45    2.04
   2   1  -6   24.15    0.93
   2   1  -6   24.96    0.86
  -2  -1   6   21.38    0.70
  -2  -1   6   21.19    0.74
   1   1  -6  137.70    4.88
   1   1  -6  139.12    5.26
   0   1  -6  349.60   12.49
   0   1  -6  364.35   13.43
   0  -1   6  350.46   10.11
  -1   1  -6   88.07    3.11
   1  -1   6   87.62    2.54
  -2   1  -6    1.46    0.13
  -2   1  -6    1.36    0.08
   2  -1   6    1.30    0.09
  -3   1  -6    2.15    0.17
  -4   1  -6    2.56    0.19
  -5   1  -6   21.15    0.91
  -6   1  -6   44.11    1.77
  -7   1  -6   44.41    1.52
  -7   1  -6   43.58    1.39
  -8   1  -6   14.96    0.69
  -8   1  -6   15.05    0.57
  11   0  -6   17.71    0.73
 -11   0   6   16.25    0.72
 -11   0   6   16.29    0.60
  10   0  -6   37.91    1.45
 -10   0   6   37.70    1.31
 -10   0   6   38.16    1.20
   9   0  -6    2.78    0.21
  -9   0   6    3.79    0.28
  -9   0   6    3.22    0.18
   8   0  -6    0.14    0.08
  -8   0   6    0.25    0.07
  -8   0   6    0.03    0.10
   7   0  -6    0.84    0.10
  -7   0   6    0.80    0.09
  -7   0   6    0.84    0.14
   6   0  -6    5.62    0.27
  -6   0   6    5.13    0.29
  -6   0   6    5.59    0.23
   5   0  -6   -0.01    0.01
  -5   0   6    0.01    0.01
  -5   0   6   -0.02    0.02
   4   0  -6  174.36    6.16
   3   0  -6   74.42    2.72
  -3   0   6   76.75    2.21
  -3   0   6   76.97    2.27
   2   0  -6   77.51    2.77
  -2   0   6   77.58    2.25
  -2   0   6   78.28    2.31
   1   0  -6   35.39    1.30
  -1   0   6   35.94    1.12
  -1   0   6   35.77    1.07
   0   0  -6    1.84    0.11
   0   0   6    1.72    0.10
  -1   0  -6  110.96    4.20
  -1   0  -6  106.97    3.88
   1   0   6  110.40    3.15
  -2   0  -6   61.54    2.37
  -2   0  -6   59.16    2.16
  -3   0  -6  113.52    4.37
  -4   0  -6   44.29    1.78
  -5   0  -6   43.44    1.75
  -7   0  -6    5.38    0.29
  -7   0  -6    5.99    0.39
  11  -1  -6    0.28    0.10
 -11   1   6    0.16    0.09
 -11   1   6    0.16    0.15
  10  -1  -6    9.90    0.46
 -10   1   6    9.67    0.39
 -10   1   6    9.27    0.48
   9  -1  -6   39.29    1.49
  -9   1   6   38.47    1.21
  -9   1   6   39.86    1.32
   8  -1  -6   50.34    1.87
  -8   1   6   51.16    1.53
  -8   1   6   50.25    1.62
   7  -1  -6   19.64    0.79
  -7   1   6   19.54    0.73
  -7   1   6   20.60    0.66
   6  -1  -6   12.11    0.50
  -6   1   6   11.69    0.48
  -6   1   6   11.86    0.41
  -5   1   6    9.50    0.41
  -5   1   6    9.77    0.35
  -4   1   6    3.40    0.22
  -4   1   6    3.44    0.16
   3  -1  -6  151.66    5.40
  -3   1   6  153.93    4.37
  -3   1   6  151.57    4.43
   2  -1  -6  221.39    7.93
  -2   1   6  227.84    6.41
  -2   1   6  225.23    6.47
   1  -1  -6   87.30    3.14
  -1   1   6   88.32    2.54
   0  -1  -6   53.18    1.95
   0   1   6   54.85    1.59
  -1  -1  -6  208.65    7.49
   1   1   6  216.11    6.06
  -2  -1  -6   15.70    0.64
  -2  -1  -6   16.79    0.73
  -3  -1  -6   55.37    2.20
  -4  -1  -6   11.50    0.56
  -5  -1  -6    6.11    0.36
  -6  -1  -6   85.99    2.57
  -7  -1  -6   41.41    1.33
  -7  -1  -6   41.96    1.47
  11  -2  -6    0.61    0.12
 -11   2   6    0.54    0.17
 -11   2   6    0.63    0.12
  10  -2  -6   19.36    0.80
 -10   2   6   18.30    0.76
 -10   2   6   19.60    0.67
   9  -2  -6   23.09    0.93
  -9   2   6   23.48    0.87
  -9   2   6   23.21    0.77
   8  -2  -6    1.06    0.13
  -8   2   6    1.31    0.18
  -8   2   6    1.14    0.12
   7  -2  -6   71.35    2.71
  -7   2   6   75.93    2.21
  -7   2   6   77.43    2.30
   6  -2  -6   17.48    0.69
  -6   2   6   17.81    0.58
  -6   2   6   16.78    0.64
   5  -2  -6   20.01    0.76
  -5   2   6   19.53    0.79
  -5   2   6   19.51    0.63
  -5   2   6   18.81    0.69
   4  -2  -6  106.25    4.31
  -4   2   6  125.06    3.57
  -4   2   6  128.75    4.61
  -4   2   6  124.83    3.50
   3  -2  -6  172.91    6.22
  -3   2   6  177.17    5.09
  -3   2   6  176.77    5.03
  -2   2   6    1.69    0.11
  -2   2   6    1.84    0.15
   1  -2  -6    6.56    0.30
  -1   2   6    6.74    0.25
   0  -2  -6    8.78    0.38
   0   2   6    8.72    0.31
  -1  -2  -6   45.95    1.68
   1   2   6   44.96    1.35
  -2  -2  -6  171.46    6.09
  -3  -2  -6   41.81    1.71
  -4  -2  -6   10.28    0.52
  -5  -2  -6    2.36    0.21
  -6  -2  -6    0.24    0.09
  -6  -2  -6    0.16    0.15
  -7  -2  -6   11.88    0.48
  11  -3  -6    3.50    0.25
 -11   3   6    3.58    0.23
 -11   3   6    4.05    0.33
  10  -3  -6    4.41    0.27
 -10   3   6    4.31    0.32
 -10   3   6    4.27    0.23
   9  -3  -6   37.57    1.41
  -9   3   6   37.02    1.26
  -9   3   6   36.22    1.16
   8  -3  -6   55.23    2.01
  -8   3   6   53.87    1.73
  -8   3   6   53.79    1.64
   7  -3  -6   11.17    0.48
  -7   3   6   10.31    0.40
  -7   3   6   11.69    0.49
   6  -3  -6    0.10    0.07
  -6   3   6    0.04    0.05
  -6   3   6   -0.05    0.08
   5  -3  -6   22.95    0.88
  -5   3   6   22.14    0.79
  -5   3   6   22.69    0.92
  -5   3   6   22.57    0.72
   4  -3  -6    0.40    0.08
  -4   3   6    0.61    0.09
  -4   3   6    0.39    0.07
  -4   3   6    0.38    0.10
   3  -3  -6   89.24    3.25
  -3   3   6   89.71    2.68
  -3   3   6   90.86    2.62
  -3   3   6   91.53    3.47
   2  -3  -6   93.48    3.38
  -2   3   6   94.72    2.73
  -2   3   6   94.49    2.79
   1  -3  -6   80.63    2.97
  -1   3   6   83.77    2.39
   0  -3  -6   46.55    1.72
   0   3   6   46.14    1.37
  -1  -3  -6    5.74    0.30
   1   3   6    5.24    0.22
  -2  -3  -6    0.33    0.09
  -3  -3  -6    4.41    0.26
  -4  -3  -6    9.53    0.51
  11  -4  -6   13.72    0.61
 -11   4   6   13.86    0.63
 -11   4   6   13.38    0.52
  10  -4  -6   10.82    0.51
 -10   4   6   10.79    0.53
 -10   4   6   10.92    0.43
   9  -4  -6    2.84    0.21
  -9   4   6    2.87    0.26
  -9   4   6    2.75    0.18
   8  -4  -6   10.63    0.47
  -8   4   6   10.11    0.48
  -8   4   6   10.26    0.39
   7  -4  -6   34.14    1.33
  -7   4   6   34.56    1.39
  -7   4   6   35.59    1.18
  -7   4   6   35.39    1.09
   6  -4  -6   24.52    0.96
  -6   4   6   24.27    0.86
  -6   4   6   24.38    1.00
  -6   4   6   24.43    0.78
   5  -4  -6   92.64    3.28
  -5   4   6   89.17    2.72
  -5   4   6   90.48    3.49
  -5   4   6   90.88    2.65
   4  -4  -6   64.81    2.36
  -4   4   6   63.60    2.52
  -4   4   6   65.24    1.98
  -4   4   6   65.39    1.90
   3  -4  -6   38.83    1.48
  -3   4   6   39.75    1.25
  -3   4   6   40.67    1.19
  -3   4   6   38.76    1.58
   2  -4  -6    3.58    0.22
  -2   4   6    3.55    0.23
  -2   4   6    3.44    0.16
   1  -4  -6    5.04    0.28
  -1   4   6    5.48    0.21
   0  -4  -6   61.65    2.28
   0   4   6   61.59    1.81
  -1  -4  -6   73.17    2.69
  -2  -4  -6   62.19    2.31
  -4  -4  -6    6.30    0.40
  11  -5  -6    9.01    0.45
 -11   5   6    9.09    0.39
 -11   5   6    8.84    0.50
  10  -5  -6   12.90    0.60
 -10   5   6   13.88    0.51
 -10   5   6   13.93    0.61
   9  -5  -6    8.63    0.42
  -9   5   6    9.03    0.46
  -9   5   6    8.77    0.36
   8  -5  -6   24.32    0.96
  -8   5   6   24.02    0.89
  -8   5   6   24.17    0.79
   7  -5  -6   62.05    2.31
  -7   5   6   62.59    1.97
  -7   5   6   61.71    2.45
  -7   5   6   64.68    1.88
   6  -5  -6    1.34    0.14
  -6   5   6    1.53    0.18
  -6   5   6    1.48    0.15
  -6   5   6    1.44    0.13
   5  -5  -6   16.61    0.72
  -5   5   6   17.56    0.76
  -5   5   6   18.02    0.58
  -5   5   6   17.95    0.65
   4  -5  -6    1.57    0.14
  -4   5   6    1.82    0.12
  -4   5   6    1.72    0.17
  -4   5   6    1.54    0.15
   3  -5  -6   23.64    0.95
  -3   5   6   23.64    0.81
  -3   5   6   23.74    1.01
  -3   5   6   24.38    0.74
   2  -5  -6  146.68    5.28
  -2   5   6  144.91    5.64
  -2   5   6  150.63    4.23
   1  -5  -6   45.83    1.74
   0  -5  -6    8.36    0.42
  -1  -5  -6    4.05    0.28
  -2  -5  -6    3.80    0.28
  11  -6  -6    5.05    0.32
 -11   6   6    6.05    0.30
  10  -6  -6    0.03    0.09
 -10   6   6   -0.16    0.12
 -10   6   6    0.02    0.08
   9  -6  -6   -0.01    0.08
  -9   6   6    0.24    0.13
  -9   6   6    0.15    0.08
   8  -6  -6    0.77    0.13
  -8   6   6    0.78    0.11
  -8   6   6    0.87    0.17
   7  -6  -6   36.27    1.41
  -7   6   6   36.16    1.49
  -7   6   6   36.59    1.14
  -7   6   6   37.71    1.24
   6  -6  -6   52.29    1.96
  -6   6   6   51.65    1.66
  -6   6   6   52.51    1.57
  -6   6   6   52.30    2.07
   5  -6  -6    9.01    0.44
  -5   6   6    9.06    0.45
   4  -6  -6   13.17    0.58
  -4   6   6   12.51    0.60
   3  -6  -6   18.68    0.79
  -3   6   6   18.76    0.83
   2  -6  -6    0.02    0.07
  -2   6   6    0.07    0.07
   1  -6  -6   38.28    1.48
  -1   6   6   37.00    1.56
   0  -6  -6   26.70    1.10
  -1  -6  -6   25.28    1.06
  -2  -6  -6   42.44    1.67
  10  -7  -6    6.15    0.35
   9  -7  -6   10.28    0.50
   8  -7  -6   23.04    0.95
   7  -7  -6   15.86    0.67
  -7   7   6   14.18    0.69
   6  -7  -6    0.21    0.09
  -6   7   6    0.09    0.08
   5  -7  -6    5.55    0.33
  -5   7   6    5.65    0.34
   4  -7  -6   11.92    0.57
  -4   7   6   12.58    0.60
   3  -7  -6   46.72    1.79
  -3   7   6   46.44    1.90
   2  -7  -6   40.63    1.57
  -2   7   6   39.50    1.66
   1  -7  -6   24.34    1.01
  -1   7   6   22.83    1.04
   0  -7  -6    4.90    0.33
  -1  -7  -6   11.19    0.58
  -2  -7  -6    4.24    0.33
   9  -8  -6    0.27    0.12
   8  -8  -6    4.29    0.29
  -8   8   6    4.58    0.31
   7  -8  -6   20.45    0.87
  -7   8   6   20.44    0.92
   6  -8  -6   30.87    1.24
  -6   8   6   31.18    1.32
   5  -8  -6   35.86    1.41
  -5   8   6   35.30    1.49
   4  -8  -6    0.91    0.15
  -4   8   6    1.21    0.17
   3  -8  -6    0.08    0.09
  -3   8   6   -0.02    0.07
   2  -8  -6    1.03    0.17
  -2   8   6    1.09    0.16
   1  -8  -6    1.48    0.20
  -8   9   6    6.32    0.39
  -7   9   6   10.97    0.58
  -6   9   6    5.40    0.36
   5  -9  -6   16.84    0.78
  -5   9   6   17.81    0.82
  -4   9   6   19.43    0.91
   1  13  -7    6.28    0.36
   0  13  -7   14.92    0.74
  -1  13  -7   21.89    1.00
  -2  13  -7    2.96    0.27
  -3  13  -7    3.53    0.30
  -4  13  -7    0.00    0.10
   2  12  -7    4.10    0.28
   1  12  -7   12.78    0.59
   0  12  -7    3.57    0.25
   0  12  -7    3.65    0.28
  -1  12  -7   11.42    0.59
  -2  12  -7   15.17    0.74
  -3  12  -7    4.00    0.30
  -4  12  -7   32.65    1.41
  -5  12  -7   24.56    1.10
  -6  12  -7    4.82    0.34
   4  11  -7    3.20    0.26
   3  11  -7    2.95    0.24
   2  11  -7    2.55    0.21
   1  11  -7   18.84    0.78
   1  11  -7   18.79    0.84
   0  11  -7   45.44    1.68
   0  11  -7   44.07    1.82
  -1  11  -7   35.04    1.47
  -2  11  -7    2.46    0.22
  -3  11  -7    1.64    0.20
  -4  11  -7    1.32    0.18
  -5  11  -7    9.07    0.50
  -6  11  -7   30.24    1.30
  -7  11  -7   27.86    1.21
   5  10  -7    9.73    0.51
   4  10  -7   19.60    0.84
   3  10  -7   29.49    1.17
   2  10  -7    4.32    0.27
   1  10  -7    0.82    0.13
   1  10  -7    1.08    0.13
   0  10  -7    0.18    0.08
   0  10  -7    0.00    0.07
  -1  10  -7    5.62    0.34
  -2  10  -7   66.83    2.65
  -3  10  -7   21.09    0.93
  -4  10  -7   17.42    0.80
  -5  10  -7   40.40    1.66
  -6  10  -7    0.07    0.09
  -7  10  -7    3.72    0.28
  -8  10  -7    5.06    0.34
   6   9  -7   16.13    0.74
   5   9  -7   10.87    0.54
   4   9  -7    0.01    0.08
   3   9  -7    6.21    0.34
   2   9  -7   28.90    1.12
   2   9  -7   28.94    1.19
   1   9  -7   41.11    1.63
   1   9  -7   39.76    1.51
   0   9  -7   63.16    2.25
   0   9  -7   60.44    2.43
  -1   9  -7   24.90    0.97
  -1   9  -7   26.47    1.08
  -2   9  -7    4.40    0.28
  -3   9  -7    0.08    0.07
  -4   9  -7    0.95    0.14
  -5   9  -7    6.74    0.38
  -6   9  -7   68.08    2.69
  -7   9  -7   32.35    1.35
  -8   9  -7    3.31    0.26
   7   8  -7    4.72    0.33
   6   8  -7    7.08    0.40
   5   8  -7    6.64    0.37
   4   8  -7   30.20    1.19
   3   8  -7   55.51    2.06
   2   8  -7   23.13    0.91
   2   8  -7   23.63    0.97
   1   8  -7    1.63    0.15
   1   8  -7    1.29    0.13
   0   8  -7    5.56    0.30
   0   8  -7    4.86    0.25
  -1   8  -7   27.48    1.13
  -1   8  -7   27.44    1.02
  -2   8  -7   40.33    1.62
  -3   8  -7   51.67    2.05
  -4   8  -7   26.60    1.12
  -5   8  -7   31.09    1.29
  -6   8  -7    4.15    0.29
  -6   8  -7    4.16    0.26
  -6   8  -7    3.61    0.21
  -7   8  -7    7.97    0.43
  -7   8  -7    8.58    0.44
  -7   8  -7    8.01    0.34
  -8   8  -7   10.51    0.53
  -8   8  -7   10.57    0.52
  -8   8  -7   10.42    0.42
   8   7  -7   16.80    0.77
   7   7  -7   15.73    0.71
   6   7  -7    4.47    0.29
   5   7  -7   10.57    0.49
   4   7  -7    0.19    0.07
   3   7  -7   49.35    1.91
   3   7  -7   48.50    1.81
   2   7  -7  111.23    4.03
   2   7  -7  114.54    4.31
   1   7  -7   86.78    3.15
   1   7  -7   89.95    3.38
  -1  -7   7   87.05    2.53
   0   7  -7   24.68    0.92
   0   7  -7   25.62    1.02
   0  -7   7   23.91    0.74
  -1   7  -7   45.97    1.67
  -1   7  -7   47.04    1.84
  -2   7  -7    0.90    0.12
  -3   7  -7    0.43    0.09
  -4   7  -7   37.05    1.50
  -5   7  -7   43.70    1.75
  -6   7  -7   64.03    1.91
  -6   7  -7   64.06    2.02
  -6   7  -7   63.32    2.51
  -7   7  -7   24.66    0.81
  -7   7  -7   23.49    1.02
  -7   7  -7   23.93    0.91
  -8   7  -7    6.81    0.32
  -8   7  -7    7.89    0.43
  -8   7  -7    7.05    0.39
   9   6  -7    2.33    0.23
   8   6  -7    0.36    0.12
   7   6  -7    5.88    0.34
   6   6  -7   13.16    0.59
   5   6  -7   14.66    0.63
  -5  -6   7   14.94    0.55
  -5  -6   7   14.45    0.48
   4   6  -7   75.48    2.82
  -4  -6   7   78.21    2.26
  -4  -6   7   79.74    2.32
   3   6  -7  132.95    5.11
   3   6  -7  132.74    4.80
  -3  -6   7  136.16    3.86
  -3  -6   7  137.03    3.91
   2   6  -7    1.46    0.13
   2   6  -7    1.38    0.12
  -2  -6   7    1.44    0.09
  -2  -6   7    1.72    0.14
   1   6  -7    2.01    0.13
   1   6  -7    2.16    0.15
  -1  -6   7    2.31    0.11
   0   6  -7    1.98    0.12
   0   6  -7    2.53    0.16
   0  -6   7    1.85    0.10
  -1   6  -7   39.80    1.56
  -1   6  -7   38.85    1.41
   1  -6   7   39.31    1.16
  -2   6  -7  222.01    8.41
  -3   6  -7   19.06    0.82
  -4   6  -7   11.03    0.52
  -5   6  -7    5.76    0.32
  -6   6  -7    8.54    0.43
  -7   6  -7   18.31    0.66
  -7   6  -7   19.20    0.77
  -7   6  -7   19.04    0.83
  -8   6  -7   31.69    1.06
  -8   6  -7   33.85    1.20
   9   5  -7   17.89    0.79
   8   5  -7   30.94    1.24
  -8  -5   7   30.14    0.97
  -8  -5   7   32.37    1.07
   7   5  -7   13.29    0.59
  -7  -5   7   13.41    0.46
  -7  -5   7   13.24    0.54
   6   5  -7    0.57    0.11
  -6  -5   7    0.43    0.12
  -6  -5   7    0.54    0.08
   5   5  -7    4.56    0.26
  -5  -5   7    4.73    0.20
  -5  -5   7    4.78    0.27
   4   5  -7    2.78    0.19
  -4  -5   7    3.14    0.15
  -4  -5   7    2.92    0.20
   3   5  -7   46.86    1.70
   3   5  -7   46.65    1.79
  -3  -5   7   46.31    1.37
  -3  -5   7   45.76    1.42
   2   5  -7  165.81    5.92
   2   5  -7  171.13    6.33
  -2  -5   7  165.43    4.78
  -2  -5   7  166.88    4.83
   1   5  -7   57.87    2.21
   1   5  -7   58.14    2.05
  -1  -5   7   56.53    1.66
  -1  -5   7   55.78    1.71
   0   5  -7   14.33    0.54
   0   5  -7   14.23    0.62
   0  -5   7   14.61    0.46
  -1   5  -7   22.36    0.82
  -1   5  -7   23.04    0.94
   1  -5   7   22.70    0.70
  -2   5  -7   45.48    1.80
  -3   5  -7   50.24    1.98
  -4   5  -7   59.68    2.34
  -5   5  -7   26.12    1.09
  -6   5  -7   24.12    1.02
  -7   5  -7   31.44    1.02
  -7   5  -7   32.03    1.30
  -7   5  -7   30.43    1.13
  -8   5  -7    6.42    0.31
  -8   5  -7    5.79    0.39
  10   4  -7    1.44    0.19
 -10  -4   7    1.59    0.23
 -10  -4   7    1.51    0.15
   9   4  -7    1.40    0.17
  -9  -4   7    1.06    0.18
  -9  -4   7    1.34    0.13
   8   4  -7    1.52    0.15
  -8  -4   7    1.01    0.11
  -8  -4   7    0.87    0.16
   7   4  -7   16.95    0.71
  -7  -4   7   16.66    0.64
  -7  -4   7   17.53    0.57
   6   4  -7   48.73    1.78
  -6  -4   7   47.90    1.51
  -6  -4   7   47.14    1.43
   5   4  -7   60.30    2.19
  -5  -4   7   60.70    1.84
  -5  -4   7   58.99    1.77
   4   4  -7   66.99    2.49
   4   4  -7   65.17    2.36
  -4  -4   7   64.42    1.91
  -4  -4   7   64.16    1.97
   3   4  -7  153.80    5.89
   3   4  -7  157.52    5.52
  -3  -4   7  157.84    4.46
  -3  -4   7  154.14    4.52
   2   4  -7   25.41    0.95
   2   4  -7   26.00    1.02
  -2  -4   7   24.93    0.82
  -2  -4   7   25.31    0.77
   1   4  -7   85.07    3.25
   1   4  -7   87.39    3.02
  -1  -4   7   82.24    2.45
  -1  -4   7   84.72    2.50
   0   4  -7   95.64    3.39
   0   4  -7   94.97    3.68
   0  -4   7   97.26    2.77
  -1   4  -7   32.88    1.33
  -1   4  -7   33.01    1.19
   1  -4   7   33.56    0.99
  -2   4  -7  110.49    4.43
   2  -4   7  120.84    3.33
  -3   4  -7  150.08    5.72
  -4   4  -7   32.70    1.33
  -5   4  -7    0.42    0.09
  -6   4  -7    2.99    0.21
  -7   4  -7   10.36    0.49
  -7   4  -7    9.33    0.40
  -7   4  -7    9.94    0.51
  -8   4  -7   19.27    0.80
  -8   4  -7   17.61    0.66
  10   3  -7    7.43    0.41
 -10  -3   7    7.93    0.44
 -10  -3   7    7.42    0.33
   9   3  -7   12.54    0.57
  -9  -3   7   12.89    0.46
  -9  -3   7   11.95    0.55
   8   3  -7   31.20    1.22
  -8  -3   7   32.13    0.99
  -8  -3   7   30.88    1.08
   7   3  -7   35.94    1.37
  -7  -3   7   36.53    1.20
  -7  -3   7   36.00    1.11
   6   3  -7    2.72    0.19
  -6  -3   7    2.64    0.15
  -6  -3   7    2.91    0.22
   5   3  -7    0.72    0.10
  -5  -3   7    0.62    0.08
  -5  -3   7    0.53    0.11
   4   3  -7   14.45    0.59
   4   3  -7   14.50    0.60
  -4  -3   7   15.24    0.55
  -4  -3   7   15.19    0.49
   3   3  -7   51.68    1.87
   3   3  -7   53.44    2.00
  -3  -3   7   50.49    1.58
  -3  -3   7   51.10    1.52
   2   3  -7  206.74    7.90
   2   3  -7  212.83    7.38
  -2  -3   7  208.01    5.97
  -2  -3   7  209.10    6.02
   1   3  -7   61.12    2.14
   1   3  -7   60.01    2.31
  -1  -3   7   59.41    1.74
  -1  -3   7   58.33    1.80
   0   3  -7   41.63    1.49
   0   3  -7   41.87    1.64
   0  -3   7   41.24    1.23
  -1   3  -7    4.36    0.18
   1  -3   7    3.97    0.17
  -2   3  -7    3.68    0.23
   2  -3   7    3.60    0.17
  -3   3  -7   57.06    2.25
  -4   3  -7  162.73    6.21
  -5   3  -7   31.25    1.29
  -6   3  -7    8.35    0.43
  -7   3  -7   21.50    0.75
  -7   3  -7   22.24    0.88
  -8   3  -7    6.43    0.43
  -8   3  -7    6.20    0.32
  11   2  -7    4.02    0.28
 -11  -2   7    3.74    0.23
  10   2  -7    0.15    0.09
 -10  -2   7   -0.11    0.07
 -10  -2   7   -0.20    0.11
   9   2  -7    4.65    0.28
  -9  -2   7    4.66    0.32
  -9  -2   7    4.50    0.23
  -8  -2   7    0.24    0.08
  -8  -2   7    0.44    0.13
   7   2  -7   69.96    2.61
  -7  -2   7   71.69    2.12
  -7  -2   7   73.77    2.21
   6   2  -7  141.45    5.03
  -6  -2   7  141.14    4.15
  -6  -2   7  140.71    4.07
   5   2  -7    0.54    0.08
  -5  -2   7    0.56    0.07
  -5  -2   7    0.67    0.12
   4   2  -7   51.95    1.92
   4   2  -7   54.84    2.04
  -4  -2   7   52.59    1.63
  -4  -2   7   52.38    1.57
   3   2  -7   74.98    2.92
   3   2  -7   76.19    2.74
  -3  -2   7   76.96    2.29
  -3  -2   7   77.76    2.23
   2   2  -7    1.27    0.12
   2   2  -7    1.34    0.10
  -2  -2   7    1.53    0.14
   1   2  -7  192.73    7.62
   1   2  -7  199.70    7.10
  -1  -2   7  207.10    5.82
  -1  -2   7  207.00    5.76
   0   2  -7   86.81    3.30
   0   2  -7   84.79    3.04
  -2   2  -7   89.93    3.46
   2  -2   7   89.40    2.60
  -3   2  -7   71.78    2.80
  -4   2  -7    7.78    0.41
  -5   2  -7    7.18    0.39
  -6   2  -7    6.79    0.38
  -7   2  -7   18.14    0.78
  -7   2  -7   18.58    0.66
  11   1  -7    4.92    0.30
 -11  -1   7    4.32    0.25
 -11  -1   7    4.50    0.35
  10   1  -7    8.86    0.45
 -10  -1   7    9.99    0.49
 -10  -1   7    8.97    0.38
   9   1  -7   25.25    0.99
  -9  -1   7   24.87    0.91
  -9  -1   7   24.13    0.81
   8   1  -7   37.67    1.44
  -8  -1   7   37.79    1.17
  -8  -1   7   38.10    1.27
   7   1  -7   18.28    0.75
  -7  -1   7   19.01    0.70
  -7  -1   7   18.78    0.62
   6   1  -7    2.87    0.20
  -6  -1   7    3.00    0.23
  -6  -1   7    3.58    0.17
   5   1  -7   34.71    1.31
   5   1  -7   34.44    1.37
  -5  -1   7   36.46    1.15
  -5  -1   7   35.79    1.08
   4   1  -7   10.26    0.38
   4   1  -7    9.63    0.40
  -4  -1   7    7.61    0.36
  -4  -1   7    7.26    0.31
   3   1  -7   28.24    1.04
   3   1  -7   27.57    1.11
   0   1  -7   31.62    1.10
   0   1  -7   28.48    1.22
  -1   1  -7    2.34    0.18
  -1   1  -7    2.61    0.13
   1  -1   7    2.58    0.13
  -2   1  -7    4.78    0.27
   2  -1   7    4.08    0.19
  -3   1  -7   44.00    1.77
  -4   1  -7   62.25    2.46
  -5   1  -7   44.38    1.80
  -6   1  -7    9.78    0.50
  -7   1  -7   11.57    0.59
  -7   1  -7   11.43    0.47
  11   0  -7    7.78    0.41
 -11   0   7    7.98    0.35
 -11   0   7    7.32    0.45
  10   0  -7    0.52    0.12
 -10   0   7    0.72    0.17
 -10   0   7    0.47    0.10
   9   0  -7    3.08    0.22
  -9   0   7    3.47    0.20
  -9   0   7    3.41    0.27
   8   0  -7    9.96    0.46
  -8   0   7   10.32    0.39
  -8   0   7   10.44    0.47
   7   0  -7   28.04    1.10
  -7   0   7   29.79    1.00
  -7   0   7   28.82    0.91
   6   0  -7  127.55    4.54
  -6   0   7  126.86    3.68
  -6   0   7  127.63    3.77
   5   0  -7   80.39    2.89
  -5   0   7   80.67    2.35
  -5   0   7   79.98    2.43
  -4   0   7    0.47    0.07
  -4   0   7    0.62    0.11
   3   0  -7    2.26    0.14
  -3   0   7    2.17    0.13
  -3   0   7    2.24    0.18
   2   0  -7    2.44    0.15
  -2   0   7    2.77    0.14
  -2   0   7    2.82    0.19
   1   0  -7   48.32    1.75
  -1   0   7   48.11    1.43
   0   0  -7  149.56    5.35
   0   0   7  153.06    4.34
  -1   0  -7   92.03    3.52
  -1   0  -7   90.11    3.23
   1   0   7   90.19    2.63
  -2   0  -7   93.88    3.64
  -3   0  -7   33.58    1.39
  -4   0  -7    1.09    0.15
  -5   0  -7   10.54    0.53
  -7   0  -7   22.50    0.93
  -7   0  -7   22.79    0.80
  11  -1  -7    8.75    0.43
 -11   1   7    8.73    0.48
 -11   1   7    7.90    0.36
  10  -1  -7   21.07    0.86
 -10   1   7   19.89    0.71
 -10   1   7   21.46    0.83
   9  -1  -7   13.38    0.57
  -9   1   7   12.48    0.56
  -9   1   7   12.02    0.47
   8  -1  -7   35.35    1.35
  -8   1   7   35.48    1.11
  -8   1   7   36.12    1.21
   7  -1  -7    9.91    0.45
  -7   1   7   10.22    0.46
  -7   1   7   10.33    0.38
   6  -1  -7    4.72    0.25
  -6   1   7    5.07    0.29
  -6   1   7    4.67    0.22
   5  -1  -7   52.29    1.89
  -5   1   7   51.80    1.62
  -5   1   7   50.79    1.54
   4  -1  -7  105.16    3.75
  -4   1   7  104.59    3.12
  -4   1   7  105.38    3.05
   3  -1  -7   13.91    0.56
  -3   1   7   13.30    0.52
  -3   1   7   14.36    0.47
   2  -1  -7  113.93    4.08
  -2   1   7  114.86    3.37
  -2   1   7  115.08    3.31
   1  -1  -7  154.50    5.47
  -1   1   7  154.46    4.43
   0  -1  -7   20.80    0.81
   0   1   7   21.32    0.67
  -1  -1  -7   67.71    2.42
   1   1   7   66.45    1.97
  -2  -1  -7   17.09    0.70
  -2  -1  -7   18.61    0.81
  -3  -1  -7   49.31    1.99
  -4  -1  -7   49.56    2.01
  -5  -1  -7   31.72    1.34
  11  -2  -7    5.87    0.34
 -11   2   7    6.10    0.41
 -11   2   7    5.86    0.30
  10  -2  -7    0.27    0.10
 -10   2   7    0.34    0.14
 -10   2   7    0.21    0.09
   9  -2  -7    5.45    0.31
  -9   2   7    5.63    0.27
  -9   2   7    5.86    0.36
   8  -2  -7   10.96    0.51
  -8   2   7   12.04    0.53
  -8   2   7   12.07    0.43
   7  -2  -7   47.64    1.79
  -7   2   7   50.17    1.57
  -7   2   7   47.45    1.47
   6  -2  -7   69.88    2.51
  -6   2   7   67.68    2.05
  -6   2   7   69.91    2.14
   5  -2  -7   10.07    0.42
  -5   2   7    9.12    0.42
  -5   2   7    8.78    0.35
   4  -2  -7    7.51    0.35
  -4   2   7    7.08    0.35
  -4   2   7    7.86    0.29
   3  -2  -7    1.15    0.12
  -3   2   7    0.96    0.13
  -3   2   7    1.16    0.10
   2  -2  -7    2.81    0.18
  -2   2   7    3.15    0.20
  -2   2   7    2.82    0.15
   1  -2  -7   75.87    2.77
  -1   2   7   77.84    2.25
   0  -2  -7   36.54    1.36
   0   2   7   36.41    1.10
  -1  -2  -7   62.24    2.26
   1   2   7   61.73    1.83
  -2  -2  -7   29.22    1.12
  -2  -2  -7   29.41    1.25
  -3  -2  -7   13.90    0.67
  -4  -2  -7    1.19    0.17
  -6  -2  -7   10.23    0.55
  -6  -2  -7   10.12    0.43
  11  -3  -7    7.64    0.41
 -11   3   7    7.78    0.35
 -11   3   7    7.85    0.46
  10  -3  -7   24.35    0.99
 -10   3   7   24.56    0.93
 -10   3   7   24.48    0.82
   9  -3  -7   25.06    0.99
  -9   3   7   24.05    0.81
  -9   3   7   25.16    0.92
   8  -3  -7    5.48    0.30
  -8   3   7    6.00    0.35
  -8   3   7    5.63    0.26
   7  -3  -7    2.76    0.20
  -7   3   7    3.06    0.25
  -7   3   7    2.66    0.17
   6  -3  -7    7.86    0.37
  -6   3   7    7.46    0.39
  -6   3   7    7.79    0.31
   5  -3  -7   42.29    1.59
  -5   3   7   43.02    1.30
  -5   3   7   42.39    1.38
   4  -3  -7   55.26    2.06
  -4   3   7   56.47    1.67
  -4   3   7   56.62    1.75
   3  -3  -7   81.73    2.97
  -3   3   7   81.71    2.47
  -3   3   7   82.60    2.40
   2  -3  -7   75.45    2.73
  -2   3   7   75.08    2.20
   1  -3  -7   36.80    1.38
  -1   3   7   36.12    1.10
   0  -3  -7    0.31    0.08
   0   3   7    0.11    0.05
  -1  -3  -7   16.39    0.68
  -2  -3  -7   17.30    0.72
  -3  -3  -7   40.90    1.71
  -4  -3  -7   49.99    2.05
  11  -4  -7    4.96    0.31
 -11   4   7    5.22    0.37
 -11   4   7    4.72    0.26
  10  -4  -7    0.46    0.12
 -10   4   7    0.34    0.10
 -10   4   7    0.50    0.16
   9  -4  -7   15.24    0.67
  -9   4   7   15.62    0.56
  -9   4   7   15.79    0.66
   8  -4  -7   28.11    1.10
  -8   4   7   28.35    1.01
  -8   4   7   27.91    0.91
   7  -4  -7   11.97    0.52
  -7   4   7   11.65    0.53
  -7   4   7   11.56    0.44
  -7   4   7   11.84    0.53
   6  -4  -7   81.88    2.92
  -6   4   7   81.95    3.10
  -6   4   7   78.45    2.36
  -6   4   7   77.61    2.45
   5  -4  -7   29.68    1.14
  -5   4   7   29.19    1.01
  -5   4   7   29.59    0.93
  -5   4   7   29.34    1.21
   4  -4  -7    0.80    0.11
  -4   4   7    0.38    0.11
  -4   4   7    0.37    0.09
  -4   4   7    0.56    0.08
   3  -4  -7   16.05    0.67
  -3   4   7   16.39    0.54
  -3   4   7   16.11    0.60
   2  -4  -7    1.28    0.14
  -2   4   7    1.26    0.10
   1  -4  -7   43.52    1.66
  -1   4   7   44.48    1.32
   0  -4  -7   91.70    3.31
   0   4   7   89.89    2.64
  -1  -4  -7   77.95    2.87
  -2  -4  -7    8.27    0.43
  -3  -4  -7    0.04    0.10
  -4  -4  -7    1.17    0.19
  11  -5  -7    3.59    0.26
  10  -5  -7   23.38    0.98
 -10   5   7   24.95    0.82
 -10   5   7   24.60    0.94
   9  -5  -7   14.46    0.64
  -9   5   7   14.51    0.63
  -9   5   7   14.46    0.53
   8  -5  -7    0.47    0.10
  -8   5   7    0.43    0.10
  -8   5   7    0.47    0.15
   7  -5  -7   13.79    0.62
  -7   5   7   14.31    0.60
  -7   5   7   14.36    0.51
  -7   5   7   14.03    0.64
   6  -5  -7    0.96    0.13
  -6   5   7    0.96    0.17
  -6   5   7    0.98    0.11
  -6   5   7    1.03    0.14
   5  -5  -7   44.38    1.73
  -5   5   7   46.98    1.40
  -5   5   7   46.07    1.85
  -5   5   7   47.64    1.49
   4  -5  -7   71.78    2.62
  -4   5   7   71.69    2.80
  -4   5   7   70.00    2.18
  -4   5   7   71.99    2.10
   3  -5  -7   33.75    1.33
  -3   5   7   34.57    1.05
  -3   5   7   34.63    1.42
   2  -5  -7    3.69    0.24
   1  -5  -7    8.84    0.44
   0  -5  -7    2.41    0.21
  -1  -5  -7   28.48    1.16
  -3  -5  -7   17.55    0.86
  10  -6  -7    1.68    0.19
 -10   6   7    2.18    0.18
 -10   6   7    2.49    0.28
   9  -6  -7   23.27    0.97
  -9   6   7   24.34    0.93
  -9   6   7   24.01    0.80
   8  -6  -7    7.25    0.38
  -8   6   7    7.08    0.31
  -8   6   7    7.03    0.41
   7  -6  -7   22.69    0.95
  -7   6   7   24.03    1.00
   6  -6  -7   18.22    0.78
  -6   6   7   18.83    0.83
   5  -6  -7   21.26    0.88
  -5   6   7   21.10    0.92
   4  -6  -7    0.08    0.08
  -4   6   7    0.01    0.07
   3  -6  -7   11.24    0.53
  -3   6   7   11.18    0.56
   2  -6  -7   20.88    0.88
   1  -6  -7   25.22    1.05
   0  -6  -7   34.63    1.39
  -1  -6  -7   29.34    1.21
   9  -7  -7    3.26    0.25
   8  -7  -7    0.95    0.15
   7  -7  -7    0.63    0.13
  -7   7   7    0.85    0.14
   6  -7  -7    1.70    0.19
  -6   7   7    2.12    0.20
   5  -7  -7   26.21    1.07
  -5   7   7   25.89    1.13
   4  -7  -7   80.22    2.94
  -4   7   7   78.43    3.13
   3  -7  -7   18.14    0.82
  -3   7   7   19.32    0.87
   2  -7  -7    0.23    0.11
   1  -7  -7    2.26    0.23
   0  -7  -7    0.19    0.12
  -7   8   7    3.35    0.27
   6  -8  -7    6.67    0.38
  -6   8   7    6.84    0.41
   5  -8  -7    5.15    0.33
  -5   8   7    4.93    0.34
   4  -8  -7    0.47    0.13
  -4   8   7    0.33    0.12
   3  -8  -7   25.01    1.05
  -3   8   7   23.97    1.10
   0  13  -8   11.09    0.59
  -1  13  -8    4.69    0.34
  -2  13  -8    1.49    0.21
  -3  13  -8   18.53    0.89
   3  12  -8   10.45    0.53
   2  12  -8    4.91    0.32
   1  12  -8   10.48    0.50
   0  12  -8    3.87    0.29
  -1  12  -8    6.21    0.39
  -2  12  -8   27.63    1.21
  -3  12  -8   43.10    1.80
  -4  12  -8    1.34    0.19
  -5  12  -8   -0.07    0.09
   4  11  -8    0.62    0.15
   3  11  -8    7.44    0.41
   2  11  -8   40.31    1.55
   1  11  -8   20.45    0.90
   1  11  -8   20.19    0.83
   0  11  -8    3.99    0.28
  -1  11  -8    0.57    0.13
  -2  11  -8    0.11    0.10
  -3  11  -8   15.84    0.75
  -4  11  -8   29.01    1.25
  -5  11  -8   13.08    0.65
  -6  11  -8   11.28    0.59
   5  10  -8    8.56    0.46
   4  10  -8   27.64    1.13
   3  10  -8   -0.15    0.07
   2  10  -8    1.02    0.14
   1  10  -8    5.79    0.31
   1  10  -8    5.61    0.33
   0  10  -8   25.02    1.07
  -1  10  -8   48.43    1.95
  -2  10  -8   26.79    1.15
  -3  10  -8   30.59    1.29
  -4  10  -8    0.89    0.14
  -5  10  -8    2.17    0.21
  -6  10  -8    2.17    0.21
  -7  10  -8    5.78    0.36
   6   9  -8    1.09    0.17
   5   9  -8    8.17    0.44
   4   9  -8    0.08    0.09
   3   9  -8   15.89    0.68
   2   9  -8   44.99    1.70
   2   9  -8   45.83    1.81
   1   9  -8   74.35    2.85
   1   9  -8   71.42    2.64
   0   9  -8    3.03    0.22
   0   9  -8    3.00    0.19
  -1   9  -8    1.99    0.19
  -2   9  -8    3.44    0.25
  -3   9  -8    1.50    0.16
  -4   9  -8   32.77    1.36
  -5   9  -8   50.65    2.04
  -6   9  -8    6.35    0.37
  -7   9  -8    7.25    0.41
  -8   9  -8    2.13    0.21
   7   8  -8    8.32    0.46
   6   8  -8   32.32    1.29
   5   8  -8   28.22    1.13
   4   8  -8    0.33    0.10
   3   8  -8    5.00    0.28
   2   8  -8    4.26    0.25
   2   8  -8    4.18    0.24
   1   8  -8   25.39    0.99
   1   8  -8   26.88    1.08
   0   8  -8  164.06    5.86
   0   8  -8  166.75    6.30
  -1   8  -8   55.80    2.20
  -2   8  -8    4.37    0.27
  -3   8  -8   40.11    1.62
  -4   8  -8   11.04    0.53
  -5   8  -8   10.72    0.53
  -6   8  -8   25.68    0.83
  -6   8  -8   24.58    0.93
  -6   8  -8   25.31    1.08
  -7   8  -8    6.36    0.37
  -7   8  -8    6.41    0.39
  -7   8  -8    6.61    0.31
  -8   8  -8   17.87    0.67
  -8   8  -8   18.73    0.79
  -8   8  -8   19.59    0.85
   8   7  -8    3.94    0.29
   7   7  -8    5.96    0.36
   6   7  -8    1.09    0.15
   5   7  -8   21.76    0.89
   4   7  -8   36.43    1.39
   3   7  -8   13.80    0.58
   3   7  -8   12.63    0.56
   2   7  -8   78.66    2.86
   2   7  -8   73.72    2.67
  -2  -7   8   72.26    2.19
  -2  -7   8   71.33    2.14
   1   7  -8   84.89    3.07
   1   7  -8   86.59    3.30
  -1  -7   8   85.37    2.47
   0   7  -8    1.43    0.12
   0   7  -8    1.85    0.15
   0  -7   8    1.61    0.10
  -1   7  -8   11.44    0.53
   1  -7   8   11.49    0.38
  -2   7  -8   14.73    0.66
  -3   7  -8   31.73    1.31
  -4   7  -8   39.45    1.60
  -5   7  -8   48.37    1.94
  -6   7  -8   25.40    1.08
  -7   7  -8    0.09    0.08
  -7   7  -8    0.04    0.11
  -7   7  -8    0.05    0.07
  -8   7  -8    2.01    0.17
  -8   7  -8    1.47    0.22
   9   6  -8    1.64    0.20
   8   6  -8    9.23    0.48
   7   6  -8   25.65    1.04
   6   6  -8   15.83    0.68
   5   6  -8   19.29    0.79
  -5  -6   8   18.95    0.62
  -5  -6   8   20.17    0.70
   4   6  -8    2.03    0.16
  -4  -6   8    2.11    0.13
  -4  -6   8    1.62    0.17
   3   6  -8    0.80    0.11
   3   6  -8    0.87    0.10
  -3  -6   8    0.96    0.09
  -3  -6   8    0.89    0.12
   2   6  -8    0.26    0.07
   2   6  -8    0.71    0.09
  -2  -6   8    0.47    0.09
  -2  -6   8    0.47    0.06
   1   6  -8   40.37    1.56
   1   6  -8   39.12    1.44
  -1  -6   8   38.47    1.17
   0   6  -8  126.70    4.75
   0   6  -8  122.70    4.40
   0  -6   8  123.70    3.57
  -1   6  -8  110.98    4.23
   1  -6   8  109.47    3.18
  -2   6  -8    2.93    0.21
  -3   6  -8    0.91    0.13
  -4   6  -8    3.19    0.23
  -5   6  -8    2.22    0.19
  -6   6  -8   29.49    1.23
  -7   6  -8   30.83    1.02
  -7   6  -8   30.88    1.30
  -7   6  -8   31.86    1.15
  -8   6  -8   10.43    0.55
  -8   6  -8   10.10    0.43
   9   5  -8   14.58    0.67
   8   5  -8    1.37    0.17
  -8  -5   8    1.59    0.14
  -8  -5   8    1.67    0.21
   7   5  -8    2.89    0.21
  -7  -5   8    2.81    0.24
  -7  -5   8    2.74    0.16
   6   5  -8    1.29    0.14
  -6  -5   8    1.11    0.16
  -6  -5   8    1.15    0.11
   5   5  -8   20.03    0.79
  -5  -5   8   19.14    0.70
  -5  -5   8   19.54    0.63
   4   5  -8   85.22    3.06
  -4  -5   8   85.30    2.54
  -4  -5   8   84.49    2.47
   3   5  -8  127.54    4.59
   3   5  -8  131.86    4.89
  -3  -5   8  129.68    3.71
  -3  -5   8  126.47    3.77
   2   5  -8   16.82    0.68
   2   5  -8   15.74    0.63
  -2  -5   8   15.82    0.52
  -2  -5   8   15.94    0.57
   1   5  -8   52.09    1.86
   1   5  -8   52.00    2.02
  -1  -5   8   50.82    1.52
   0   5  -8   29.36    1.18
   0   5  -8   28.93    1.05
   0  -5   8   28.40    0.88
  -1   5  -8   17.63    0.75
   1  -5   8   17.07    0.55
  -2   5  -8   72.84    2.80
   2  -5   8   71.07    2.10
  -3   5  -8   29.14    1.21
  -4   5  -8   54.49    2.16
  -5   5  -8   68.68    2.70
  -6   5  -8    8.62    0.45
  -7   5  -8    0.25    0.09
  -7   5  -8    0.04    0.07
  10   4  -8    0.42    0.12
 -10  -4   8    0.94    0.13
 -10  -4   8    0.67    0.18
   9   4  -8   10.44    0.51
  -9  -4   8   10.18    0.50
  -9  -4   8   10.96    0.42
   8   4  -8   19.29    0.81
  -8  -4   8   20.18    0.66
  -8  -4   8   19.48    0.75
   7   4  -8    8.00    0.39
  -7  -4   8    7.65    0.31
  -7  -4   8    7.83    0.39
   6   4  -8   33.21    1.25
  -6  -4   8   32.43    1.01
  -6  -4   8   32.50    1.09
   5   4  -8   63.87    2.35
  -5  -4   8   65.35    1.98
  -5  -4   8   63.98    1.90
   4   4  -8    1.08    0.11
   4   4  -8    1.52    0.13
  -4  -4   8    1.34    0.15
  -4  -4   8    1.17    0.10
   3   4  -8   29.57    1.15
   3   4  -8   30.73    1.22
  -3  -4   8   31.94    0.94
  -3  -4   8   31.29    1.00
   2   4  -8    7.27    0.29
   2   4  -8    6.20    0.32
  -2  -4   8    6.16    0.24
  -2  -4   8    6.23    0.30
   1   4  -8   30.43    1.24
   1   4  -8   31.41    1.13
  -1  -4   8   30.55    0.93
   0   4  -8  204.68    8.01
   0   4  -8  214.27    7.44
   0  -4   8  215.81    6.05
  -1   4  -8   98.17    3.81
   1  -4   8  100.06    2.87
  -2   4  -8    1.93    0.17
   2  -4   8    1.94    0.12
  -3   4  -8    8.13    0.42
  -4   4  -8    0.12    0.08
  -5   4  -8   29.58    1.24
  -6   4  -8   56.27    2.24
  -7   4  -8    6.12    0.35
  10   3  -8   20.10    0.85
 -10  -3   8   18.83    0.79
 -10  -3   8   20.49    0.69
   9   3  -8    6.13    0.34
  -9  -3   8    6.31    0.29
  -9  -3   8    6.09    0.37
   8   3  -8    0.21    0.09
  -8  -3   8    0.21    0.12
  -8  -3   8    0.25    0.08
   7   3  -8    0.64    0.10
  -7  -3   8    0.24    0.12
  -7  -3   8    0.18    0.07
   6   3  -8    0.88    0.12
  -6  -3   8    0.84    0.15
  -6  -3   8    0.85    0.10
   5   3  -8  180.12    6.32
  -5  -3   8  177.49    5.11
  -5  -3   8  176.71    5.19
   4   3  -8   84.68    3.18
   4   3  -8   84.15    2.99
  -4  -3   8   81.72    2.43
  -4  -3   8   82.10    2.50
   3   3  -8   15.59    0.67
   3   3  -8   18.23    0.73
  -3  -3   8   17.84    0.57
  -3  -3   8   18.62    0.64
   2   3  -8   26.86    1.00
   2   3  -8   26.27    1.08
  -2  -3   8   26.81    0.82
  -2  -3   8   27.17    0.89
   1   3  -8   44.21    1.61
   1   3  -8   45.18    1.76
  -1  -3   8   44.09    1.32
   0   3  -8    4.05    0.24
   0   3  -8    4.00    0.18
   0  -3   8    3.67    0.17
  -1   3  -8   55.52    2.17
   1  -3   8   54.51    1.63
  -2   3  -8  105.18    4.12
   2  -3   8  108.64    3.10
  -3   3  -8   39.42    1.60
  -4   3  -8   55.80    2.22
  -5   3  -8   31.41    1.31
  -6   3  -8    2.51    0.22
  10   2  -8    0.06    0.08
 -10  -2   8   -0.07    0.07
 -10  -2   8   -0.01    0.13
   9   2  -8   13.47    0.60
  -9  -2   8   14.54    0.60
  -9  -2   8   12.94    0.49
   8   2  -8   18.15    0.76
  -8  -2   8   18.10    0.71
  -8  -2   8   18.64    0.62
   7   2  -8   45.02    1.70
  -7  -2   8   45.44    1.38
  -7  -2   8   46.24    1.48
   6   2  -8   13.07    0.58
  -6  -2   8   14.93    0.58
  -6  -2   8   14.68    0.49
   5   2  -8   58.08    2.11
  -5  -2   8   57.70    1.80
  -5  -2   8   57.68    1.72
   4   2  -8    0.91    0.10
   4   2  -8    1.12    0.11
  -4  -2   8    1.11    0.10
  -4  -2   8    0.85    0.13
   3   2  -8   13.44    0.53
   3   2  -8   13.00    0.57
  -3  -2   8   13.57    0.45
  -3  -2   8   13.63    0.52
   2   2  -8   66.96    2.63
   2   2  -8   69.02    2.44
  -2  -2   8   68.35    2.06
  -2  -2   8   67.94    2.00
   1   2  -8   45.15    1.83
   1   2  -8   47.16    1.68
  -1  -2   8   47.09    1.38
   0   2  -8   83.26    3.25
   0   2  -8   82.94    2.98
   0  -2   8   85.98    2.45
  -1   2  -8   65.73    2.58
   1  -2   8   65.89    1.94
  -2   2  -8   21.76    0.93
   2  -2   8   21.29    0.69
  -3   2  -8    0.16    0.08
  -4   2  -8    6.85    0.38
  -5   2  -8   12.75    0.62
  -6   2  -8   34.97    1.46
  -7   2  -8   35.02    1.15
  11   1  -8   15.87    0.70
 -11  -1   8   15.66    0.70
  10   1  -8    4.14    0.27
 -10  -1   8    4.31    0.34
 -10  -1   8    4.39    0.24
   9   1  -8    7.82    0.39
  -9  -1   8    8.09    0.42
  -9  -1   8    7.59    0.33
   8   1  -8    2.52    0.19
  -8  -1   8    2.38    0.16
  -8  -1   8    2.05    0.22
   7   1  -8    1.78    0.17
  -7  -1   8    2.22    0.22
  -7  -1   8    2.74    0.16
   6   1  -8   41.66    1.63
  -6  -1   8   45.10    1.43
  -6  -1   8   45.48    1.34
   5   1  -8   37.57    1.40
   5   1  -8   36.75    1.47
  -5  -1   8   37.64    1.23
  -5  -1   8   38.37    1.15
   4   1  -8  121.48    4.36
   4   1  -8  119.28    4.67
  -4  -1   8  126.30    3.63
  -4  -1   8  123.79    3.55
   3   1  -8   59.10    2.34
   3   1  -8   60.34    2.17
  -3  -1   8   61.20    1.78
  -3  -1   8   60.36    1.86
   2   1  -8    2.17    0.16
  -2  -1   8    1.63    0.11
  -2  -1   8    1.48    0.15
   1   1  -8    2.42    0.18
   1   1  -8    2.40    0.14
  -1  -1   8    2.19    0.13
   0   1  -8    0.11    0.05
   0   1  -8    0.06    0.07
   0  -1   8    0.15    0.05
  -1   1  -8   19.61    0.86
   1  -1   8   19.84    0.64
  -2   1  -8  156.47    6.02
   2  -1   8  157.84    4.53
  -3   1  -8   73.54    2.90
  -4   1  -8   23.26    1.02
  -5   1  -8    7.62    0.43
  -6   1  -8    3.53    0.28
  11   0  -8    1.09    0.15
 -11   0   8    1.14    0.22
 -11   0   8    1.58    0.16
  10   0  -8    2.82    0.21
 -10   0   8    2.82    0.19
 -10   0   8    3.12    0.30
   9   0  -8   13.29    0.60
  -9   0   8   13.31    0.50
  -9   0   8   14.47    0.60
   8   0  -8   36.95    1.40
  -8   0   8   36.11    1.15
  -8   0   8   37.27    1.25
   7   0  -8   30.45    1.17
  -7   0   8   30.72    1.06
  -7   0   8   30.28    0.96
   6   0  -8   35.81    1.35
  -6   0   8   36.67    1.21
  -6   0   8   35.44    1.11
   5   0  -8   31.98    1.21
   5   0  -8   32.67    1.28
  -5   0   8   32.54    1.08
  -5   0   8   31.06    0.99
   4   0  -8   13.66    0.56
  -4   0   8   14.05    0.48
  -4   0   8   13.93    0.55
   3   0  -8  137.89    5.03
  -3   0   8  141.96    4.16
  -3   0   8  145.22    4.09
   2   0  -8   72.41    2.81
   2   0  -8   70.42    2.59
  -2   0   8   72.06    2.11
  -2   0   8   73.33    2.19
   1   0  -8    7.14    0.38
   1   0  -8    7.04    0.32
  -1   0   8    8.06    0.29
   0   0  -8  178.71    6.70
   0   0  -8  171.11    6.20
   0   0   8  176.91    5.04
  -1   0  -8   90.02    3.22
  -1   0  -8   91.24    3.51
   1   0   8   89.23    2.63
  -2   0  -8    0.63    0.12
  -3   0  -8   18.80    0.85
  -4   0  -8    2.28    0.21
  -5   0  -8   47.10    1.93
  11  -1  -8    2.43    0.21
 -11   1   8    2.30    0.19
 -11   1   8    2.04    0.26
  10  -1  -8    9.14    0.45
 -10   1   8    9.36    0.49
 -10   1   8    9.57    0.39
   9  -1  -8   14.03    0.62
  -9   1   8   14.10    0.62
  -9   1   8   14.55    0.52
   8  -1  -8    3.46    0.23
  -8   1   8    3.07    0.19
  -8   1   8    3.99    0.30
   7  -1  -8    9.61    0.45
  -7   1   8   10.38    0.47
  -7   1   8   10.05    0.38
   6  -1  -8   22.95    0.90
  -6   1   8   22.83    0.84
  -6   1   8   23.00    0.75
   5  -1  -8   35.03    1.30
  -5   1   8   34.68    1.16
  -5   1   8   34.25    1.07
   4  -1  -8   67.23    2.47
  -4   1   8   68.80    2.02
  -4   1   8   68.81    2.10
   3  -1  -8   36.49    1.37
  -3   1   8   37.59    1.13
  -3   1   8   35.95    1.20
   2  -1  -8    0.50    0.08
  -2   1   8    0.42    0.10
  -2   1   8    0.55    0.08
   1  -1  -8    2.42    0.16
  -1   1   8    2.26    0.14
   0  -1  -8    1.49    0.12
   0   1   8    1.48    0.11
  -1  -1  -8   54.14    1.98
  -1  -1  -8   55.56    2.19
   1   1   8   53.28    1.62
  -2  -1  -8   66.99    2.67
  -3  -1  -8   37.08    1.55
  -4  -1  -8    5.62    0.36
  -5  -1  -8    2.93    0.25
  11  -2  -8    3.43    0.25
  10  -2  -8    4.50    0.28
 -10   2   8    4.26    0.24
 -10   2   8    4.57    0.34
   9  -2  -8    5.51    0.31
  -9   2   8    5.22    0.26
  -9   2   8    4.99    0.35
   8  -2  -8   54.97    2.04
  -8   2   8   55.12    1.78
  -8   2   8   55.18    1.67
   7  -2  -8   35.28    1.33
  -7   2   8   34.02    1.10
  -7   2   8   35.53    1.20
   6  -2  -8    5.06    0.27
  -6   2   8    4.76    0.23
  -6   2   8    4.15    0.29
   5  -2  -8    1.13    0.13
  -5   2   8    0.94    0.10
  -5   2   8    1.02    0.16
   4  -2  -8   11.00    0.47
  -4   2   8   10.60    0.39
  -4   2   8   10.72    0.47
   3  -2  -8   40.82    1.50
  -3   2   8   39.18    1.30
  -3   2   8   40.65    1.23
   2  -2  -8   93.63    3.35
  -2   2   8   92.47    2.71
   1  -2  -8   62.41    2.26
  -1   2   8   61.45    1.83
   0  -2  -8   12.27    0.51
   0   2   8   11.21    0.41
  -1  -2  -8   18.33    0.74
   1   2   8   18.49    0.61
  -2  -2  -8   10.70    0.56
  -3  -2  -8    5.70    0.37
  -4  -2  -8   46.36    1.92
  11  -3  -8    3.69    0.26
 -10   3   8    2.83    0.20
 -10   3   8    3.01    0.30
   9  -3  -8    4.21    0.26
  -9   3   8    3.68    0.31
  -9   3   8    4.09    0.23
   8  -3  -8    0.25    0.10
  -8   3   8    0.21    0.12
  -8   3   8    0.21    0.08
   7  -3  -8   22.83    0.91
  -7   3   8   22.77    0.76
  -7   3   8   22.91    0.86
   6  -3  -8   62.22    2.26
  -6   3   8   59.71    1.94
  -6   3   8   62.24    1.85
   5  -3  -8   23.94    0.94
  -5   3   8   23.34    0.77
  -5   3   8   23.89    0.86
   4  -3  -8   31.27    1.20
  -4   3   8   31.66    0.98
  -4   3   8   31.07    1.06
   3  -3  -8   53.39    2.00
  -3   3   8   55.54    1.71
  -3   3   8   53.78    1.62
   2  -3  -8   11.17    0.48
  -2   3   8   10.19    0.38
   1  -3  -8   28.61    1.11
  -1   3   8   28.35    0.89
   0  -3  -8   26.80    1.04
   0   3   8   25.89    0.83
  -1  -3  -8   11.63    0.52
  -2  -3  -8   78.86    3.15
  -3  -3  -8   36.20    1.55
  -4  -3  -8    4.37    0.34
  10  -4  -8    3.01    0.23
 -10   4   8    2.95    0.30
 -10   4   8    2.84    0.20
   9  -4  -8    6.66    0.35
  -9   4   8    6.55    0.31
  -9   4   8    5.55    0.38
   8  -4  -8   49.66    1.85
  -8   4   8   48.45    1.51
  -8   4   8   48.60    1.62
   7  -4  -8   30.76    1.19
  -7   4   8   29.44    0.97
  -7   4   8   31.05    1.09
   6  -4  -8    8.90    0.42
  -6   4   8    8.52    0.35
  -6   4   8    8.51    0.44
   5  -4  -8    7.96    0.39
  -5   4   8    8.29    0.40
  -5   4   8    7.67    0.32
   4  -4  -8    0.30    0.09
  -4   4   8    0.26    0.10
  -4   4   8    0.41    0.08
   3  -4  -8   48.34    1.80
  -3   4   8   47.61    1.45
   2  -4  -8   86.37    3.13
  -2   4   8   85.03    2.51
   1  -4  -8   23.38    0.93
  -1   4   8   22.50    0.73
   0  -4  -8   15.29    0.66
   0   4   8   14.91    0.51
  -1  -4  -8    0.29    0.10
  -3  -4  -8   14.75    0.75
  10  -5  -8    0.26    0.11
 -10   5   8    0.04    0.09
 -10   5   8    0.05    0.15
   9  -5  -8    0.83    0.13
  -9   5   8    0.37    0.16
  -9   5   8    0.21    0.09
   8  -5  -8    2.28    0.20
  -8   5   8    2.26    0.25
  -8   5   8    2.36    0.18
   7  -5  -8   16.98    0.72
  -7   5   8   17.12    0.69
  -7   5   8   16.28    0.59
   6  -5  -8   35.15    1.37
  -6   5   8   36.19    1.21
  -6   5   8   34.74    1.11
   5  -5  -8   15.70    0.68
  -5   5   8   15.74    0.63
  -5   5   8   15.31    0.54
   4  -5  -8   23.09    0.95
  -4   5   8   23.49    0.76
  -4   5   8   23.88    0.85
   3  -5  -8   16.92    0.73
   2  -5  -8    0.26    0.10
   1  -5  -8   20.66    0.87
   0  -5  -8   22.54    0.95
  -1  -5  -8   28.80    1.18
 -10   6   8    7.50    0.35
   9  -6  -8    5.62    0.34
   8  -6  -8   19.52    0.83
   7  -6  -8    7.03    0.39
  -7   6   8    7.75    0.41
   6  -6  -8   -0.05    0.08
  -6   6   8    0.13    0.09
   5  -6  -8    6.78    0.38
   4  -6  -8   10.07    0.50
   3  -6  -8   12.18    0.58
   2  -6  -8   51.98    1.99
   1  -6  -8   22.22    0.95
   0  -6  -8    5.94    0.38
   7  -7  -8   13.52    0.64
  -7   7   8   13.81    0.67
   6  -7  -8   46.78    1.81
  -6   7   8   46.97    1.92
   5  -7  -8   10.26    0.51
   4  -7  -8    2.29    0.22
   3  -7  -8    2.44    0.23
   2  -7  -8    2.53    0.25
   0  13  -9    3.80    0.30
  -1  13  -9    8.45    0.49
  -2  13  -9    9.01    0.52
   3  12  -9    2.04    0.21
   2  12  -9    3.50    0.26
   0  12  -9   23.86    1.06
  -1  12  -9   18.58    0.86
  -2  12  -9    8.16    0.47
  -3  12  -9    0.23    0.12
  -4  12  -9    0.57    0.14
   4  11  -9   13.23    0.62
   3  11  -9   15.27    0.69
   2  11  -9    8.43    0.43
   1  11  -9    1.18    0.16
   0  11  -9    2.89    0.24
  -1  11  -9    9.98    0.52
  -2  11  -9   48.48    1.98
  -3  11  -9   17.94    0.83
  -4  11  -9   16.19    0.77
  -5  11  -9    4.16    0.31
   5  10  -9    1.34    0.19
   4  10  -9    0.32    0.11
   3  10  -9    1.39    0.17
   2  10  -9   17.07    0.72
   1  10  -9    7.23    0.36
   1  10  -9    7.78    0.41
   0  10  -9   20.35    0.89
  -1  10  -9   47.52    1.92
  -2  10  -9   14.52    0.69
  -3  10  -9    7.97    0.44
  -4  10  -9    2.13    0.21
  -5  10  -9    6.88    0.41
  -6  10  -9   16.82    0.79
   6   9  -9    6.77    0.40
   5   9  -9    1.42    0.17
   4   9  -9   47.03    1.79
   3   9  -9   27.98    1.10
   2   9  -9    2.79    0.21
   2   9  -9    2.23    0.18
   1   9  -9    0.03    0.07
   1   9  -9    0.26    0.08
   0   9  -9    0.03    0.07
  -1   9  -9   11.47    0.55
  -2   9  -9   74.23    2.91
  -3   9  -9   44.73    1.81
  -4   9  -9    4.08    0.28
  -5   9  -9    8.63    0.47
  -6   9  -9    7.14    0.41
  -7   9  -9    1.64    0.20
   7   8  -9    9.99    0.51
   6   8  -9   11.40    0.55
   5   8  -9    1.18    0.16
   4   8  -9    0.75    0.12
   3   8  -9   11.75    0.52
   2   8  -9   35.62    1.40
   2   8  -9   33.73    1.31
   1   8  -9   25.08    0.97
   1   8  -9   25.96    1.06
   0   8  -9   49.26    1.96
  -1   8  -9   40.51    1.63
  -2   8  -9   18.88    0.83
  -3   8  -9   19.28    0.85
  -4   8  -9   23.00    1.00
  -5   8  -9   19.41    0.86
  -6   8  -9   10.91    0.54
  -7   8  -9   28.75    1.07
  -7   8  -9   27.61    0.93
  -7   8  -9   27.71    1.19
   8   7  -9    0.10    0.10
   7   7  -9    3.22    0.25
   6   7  -9   19.20    0.81
   5   7  -9   16.06    0.69
   4   7  -9   31.71    1.22
   3   7  -9   16.85    0.69
   3   7  -9   15.35    0.66
   2   7  -9    0.97    0.12
  -2  -7   9    1.10    0.09
   1   7  -9    1.14    0.13
   1   7  -9    1.49    0.13
  -1  -7   9    1.26    0.10
   0   7  -9    0.76    0.12
   0  -7   9    0.96    0.09
  -1   7  -9   79.51    3.12
   1  -7   9   81.32    2.34
  -2   7  -9   34.46    1.41
  -3   7  -9   38.18    1.56
  -4   7  -9    5.89    0.34
  -5   7  -9    8.36    0.45
  -6   7  -9    0.57    0.12
  -7   7  -9    5.74    0.30
  -7   7  -9    5.75    0.39
  -7   7  -9    5.90    0.36
   8   6  -9   31.19    1.25
   7   6  -9   13.35    0.60
   6   6  -9    1.79    0.17
  -6  -6   9    1.87    0.14
  -6  -6   9    1.45    0.18
   5   6  -9    0.00    0.07
  -5  -6   9    0.05    0.06
  -5  -6   9    0.11    0.10
   4   6  -9    0.79    0.11
  -4  -6   9    1.49    0.11
  -4  -6   9    1.17    0.15
   3   6  -9   29.60    1.15
   3   6  -9   27.97    1.08
  -3  -6   9   28.21    0.94
  -3  -6   9   28.02    0.88
   2   6  -9  108.73    3.85
   2   6  -9  110.55    4.13
  -2  -6   9  106.91    3.18
  -2  -6   9  105.12    3.11
   1   6  -9   68.49    2.65
   1   6  -9   68.98    2.45
  -1  -6   9   67.31    2.00
   0   6  -9    5.83    0.29
   0  -6   9    4.14    0.20
  -1   6  -9   68.69    2.68
   1  -6   9   68.51    2.01
  -2   6  -9    6.61    0.36
  -3   6  -9   32.82    1.36
  -4   6  -9   46.02    1.86
  -5   6  -9    4.74    0.30
  -6   6  -9   20.92    0.93
  -7   6  -9   25.68    0.89
  -7   6  -9   26.52    1.13
   9   5  -9    2.50    0.23
  -9  -5   9    3.02    0.19
   8   5  -9    0.11    0.09
  -8  -5   9    0.05    0.07
  -8  -5   9    0.00    0.12
   7   5  -9   18.26    0.78
  -7  -5   9   18.98    0.63
  -7  -5   9   19.38    0.72
   6   5  -9   23.32    0.93
  -6  -5   9   24.04    0.84
  -6  -5   9   23.02    0.75
   5   5  -9   16.19    0.65
  -5  -5   9   14.80    0.59
  -5  -5   9   15.25    0.52
   4   5  -9   43.78    1.62
  -4  -5   9   43.78    1.39
  -4  -5   9   43.54    1.32
   3   5  -9   69.27    2.52
   3   5  -9   70.79    2.70
  -3  -5   9   70.47    2.12
  -3  -5   9   69.17    2.05
   2   5  -9    0.29    0.08
   2   5  -9    0.37    0.07
  -2  -5   9    0.24    0.06
  -2  -5   9    0.11    0.10
   1   5  -9   51.07    1.82
   1   5  -9   51.69    1.99
  -1  -5   9   48.69    1.50
   0   5  -9    5.07    0.28
   0  -5   9    4.68    0.21
  -1   5  -9    4.26    0.26
   1  -5   9    4.03    0.19
  -2   5  -9  115.41    4.48
   2  -5   9  117.54    3.38
  -3   5  -9   92.79    3.61
  -4   5  -9   10.73    0.53
  -5   5  -9    1.48    0.17
  -6   5  -9    0.31    0.10
  -7   5  -9    5.46    0.35
 -10  -4   9    6.52    0.31
 -10  -4   9    6.50    0.40
   9   4  -9   13.98    0.63
  -9  -4   9   14.15    0.61
  -9  -4   9   13.87    0.51
   8   4  -9   18.94    0.81
  -8  -4   9   20.30    0.67
  -8  -4   9   19.59    0.76
   7   4  -9   10.95    0.49
  -7  -4   9   10.31    0.40
  -7  -4   9   10.66    0.48
   6   4  -9    1.72    0.15
  -6  -4   9    1.42    0.18
  -6  -4   9    1.79    0.13
   5   4  -9    4.28    0.24
  -5  -4   9    4.47    0.21
  -5  -4   9    3.78    0.26
   4   4  -9    8.05    0.36
   4   4  -9    7.34    0.35
  -4  -4   9    7.52    0.30
  -4  -4   9    7.50    0.36
   3   4  -9   85.37    3.05
   3   4  -9   85.55    3.26
  -3  -4   9   85.13    2.56
  -3  -4   9   83.95    2.48
   2   4  -9  103.61    4.01
   2   4  -9  108.03    3.73
  -2  -4   9  103.66    3.04
  -2  -4   9  103.78    3.11
   1   4  -9   78.64    3.11
   1   4  -9   83.94    2.88
  -1  -4   9   79.01    2.35
   0   4  -9    8.30    0.41
   0  -4   9    8.22    0.31
  -1   4  -9    1.86    0.17
   1  -4   9    1.98    0.12
  -2   4  -9    0.85    0.12
   2  -4   9    0.78    0.09
  -3   4  -9   50.30    2.02
  -4   4  -9   59.99    2.39
  -5   4  -9   23.56    1.03
  -6   4  -9   14.41    0.69
  10   3  -9    0.87    0.15
 -10  -3   9    1.12    0.21
 -10  -3   9    1.22    0.14
   9   3  -9    0.54    0.12
  -9  -3   9    0.43    0.10
  -9  -3   9    0.51    0.17
   8   3  -9    0.57    0.11
  -8  -3   9    0.50    0.09
  -8  -3   9    0.42    0.14
   7   3  -9   33.63    1.30
  -7  -3   9   34.72    1.16
  -7  -3   9   33.69    1.06
   6   3  -9   24.43    0.96
  -6  -3   9   24.75    0.79
  -6  -3   9   24.23    0.88
   5   3  -9   33.25    1.27
  -5  -3   9   33.11    1.04
  -5  -3   9   35.14    1.14
   4   3  -9   42.22    1.64
   4   3  -9   41.62    1.54
  -4  -3   9   41.21    1.34
  -4  -3   9   41.64    1.26
   3   3  -9   36.58    1.46
   3   3  -9   36.30    1.36
  -3  -3   9   37.02    1.13
  -3  -3   9   37.71    1.21
   2   3  -9    0.57    0.10
   2   3  -9    0.55    0.08
  -2  -3   9    0.70    0.12
  -2  -3   9    0.55    0.07
   1   3  -9   27.27    1.15
   1   3  -9   28.65    1.03
  -1  -3   9   27.59    0.87
   0   3  -9   53.89    2.13
   0  -3   9   53.45    1.60
  -1   3  -9   26.34    1.11
   1  -3   9   26.22    0.83
  -2   3  -9   26.13    1.10
   2  -3   9   25.25    0.82
  -3   3  -9   82.03    3.21
  -4   3  -9   10.55    0.54
  -5   3  -9    3.54    0.27
  -6   3  -9   23.12    1.02
  10   2  -9   17.92    0.79
 -10  -2   9   19.52    0.78
 -10  -2   9   19.10    0.66
   9   2  -9    9.26    0.46
  -9  -2   9   10.22    0.40
  -9  -2   9   10.04    0.49
   8   2  -9    3.64    0.24
  -8  -2   9    3.25    0.28
  -8  -2   9    3.60    0.20
   7   2  -9   16.59    0.70
  -7  -2   9   17.68    0.69
  -7  -2   9   17.17    0.59
   6   2  -9    4.95    0.27
  -6  -2   9    4.50    0.23
  -6  -2   9    4.94    0.31
   5   2  -9   19.02    0.76
  -5  -2   9   19.53    0.72
  -5  -2   9   19.28    0.64
   4   2  -9   23.46    0.97
   4   2  -9   23.39    0.91
  -4  -2   9   24.64    0.85
  -4  -2   9   23.60    0.76
   3   2  -9   31.16    1.18
   3   2  -9   31.53    1.28
  -3  -2   9   31.96    0.98
  -3  -2   9   32.42    1.07
   2   2  -9  142.54    5.09
   2   2  -9  139.50    5.48
  -2  -2   9  147.52    4.23
  -2  -2   9  145.38    4.14
   1   2  -9   55.38    1.98
   1   2  -9   54.03    2.17
  -1  -2   9   55.78    1.64
   0   2  -9    0.23    0.08
   0   2  -9    0.14    0.05
   0  -2   9    0.13    0.05
  -1   2  -9    0.21    0.08
   1  -2   9    0.22    0.06
  -2   2  -9    0.16    0.09
   2  -2   9    0.26    0.06
  -3   2  -9   10.53    0.53
  -4   2  -9   59.39    2.38
  -5   2  -9   37.68    1.57
  -6   2  -9   16.10    0.77
  10   1  -9    0.04    0.09
 -10  -1   9   -0.03    0.08
 -10  -1   9    0.10    0.14
   9   1  -9    5.29    0.31
  -9  -1   9    5.61    0.27
  -9  -1   9    5.78    0.37
   8   1  -9    0.68    0.11
  -8  -1   9    0.42    0.14
  -8  -1   9    0.55    0.09
   7   1  -9   21.11    0.84
  -7  -1   9   20.81    0.70
  -7  -1   9   21.10    0.80
   6   1  -9   94.72    3.36
  -6  -1   9   92.77    2.74
  -6  -1   9   91.93    2.83
   5   1  -9   52.81    1.94
   5   1  -9   52.55    2.06
  -5  -1   9   53.13    1.68
  -5  -1   9   52.78    1.59
   4   1  -9   19.94    0.83
   4   1  -9   19.67    0.77
  -4  -1   9   19.46    0.73
  -4  -1   9   19.31    0.64
   3   1  -9    4.22    0.22
   3   1  -9    4.02    0.25
  -3  -1   9    4.21    0.20
  -3  -1   9    4.19    0.27
   2   1  -9    1.12    0.10
   2   1  -9    0.99    0.13
  -2  -1   9    0.75    0.09
  -2  -1   9    1.19    0.15
   1   1  -9   66.04    2.38
   1   1  -9   65.40    2.60
  -1  -1   9   66.74    1.96
   0   1  -9   56.75    2.27
   0   1  -9   56.85    2.06
   0  -1   9   57.96    1.71
  -1   1  -9   75.10    2.96
   1  -1   9   75.70    2.22
  -2   1  -9   51.62    2.08
  -3   1  -9   37.24    1.55
  -4   1  -9    0.34    0.11
  -5   1  -9    6.81    0.41
  10   0  -9   14.70    0.66
 -10   0   9   15.30    0.56
 -10   0   9   14.92    0.67
   9   0  -9    8.12    0.41
  -9   0   9    7.83    0.44
  -9   0   9    8.13    0.35
   8   0  -9    3.22    0.21
  -8   0   9    2.78    0.27
  -8   0   9    2.76    0.18
   7   0  -9    6.57    0.35
  -7   0   9    6.87    0.39
  -7   0   9    7.43    0.31
   6   0  -9    5.18    0.28
  -6   0   9    4.82    0.24
  -6   0   9    5.54    0.33
   5   0  -9   34.83    1.33
   5   0  -9   35.15    1.42
  -5   0   9   35.97    1.20
  -5   0   9   35.50    1.10
   4   0  -9   53.57    2.09
   4   0  -9   53.03    1.94
  -4   0   9   54.17    1.69
  -4   0   9   51.34    1.59
   3   0  -9   39.86    1.49
   3   0  -9   40.25    1.63
  -3   0   9   40.29    1.32
  -3   0   9   40.64    1.23
   2   0  -9   33.32    1.38
   2   0  -9   33.78    1.25
  -2   0   9   33.12    1.03
   1   0  -9   87.06    3.13
   1   0  -9   87.27    3.40
  -1   0   9   87.22    2.56
   0   0  -9    6.38    0.30
   0   0  -9    6.74    0.38
   0   0   9    6.02    0.26
  -1   0  -9    4.35    0.29
   1   0   9    3.85    0.20
  -2   0  -9    9.50    0.51
  -3   0  -9   14.22    0.69
  -4   0  -9   51.56    2.11
  -5   0  -9   27.88    1.23
  10  -1  -9    0.35    0.12
 -10   1   9    0.48    0.17
 -10   1   9    0.63    0.12
   9  -1  -9   12.82    0.59
  -9   1   9   12.80    0.49
  -9   1   9   14.05    0.62
   8  -1  -9    9.85    0.48
  -8   1   9   10.29    0.41
  -8   1   9   11.03    0.52
   7  -1  -9   12.03    0.51
  -7   1   9   10.59    0.43
  -7   1   9   11.57    0.53
   6  -1  -9   27.71    1.07
  -6   1   9   27.07    0.99
  -6   1   9   28.23    0.90
   5  -1  -9   88.56    3.17
  -5   1   9   88.63    2.69
  -5   1   9   86.43    2.59
   4  -1  -9    3.63    0.22
  -4   1   9    3.99    0.28
  -4   1   9    3.84    0.20
   3  -1  -9    5.75    0.29
  -3   1   9    5.67    0.32
  -3   1   9    5.27    0.24
   2  -1  -9   26.21    0.97
  -2   1   9   24.08    0.80
   1  -1  -9    4.90    0.32
   1  -1  -9    4.51    0.25
  -1   1   9    4.85    0.22
   0  -1  -9   88.61    3.19
   0  -1  -9   90.91    3.49
   0   1   9   86.78    2.60
  -1  -1  -9   53.19    2.15
   1   1   9   52.88    1.60
  -2  -1  -9   20.23    0.93
  -3  -1  -9    1.10    0.17
  -4  -1  -9    0.11    0.10
  -5  -1  -9    5.01    0.35
  10  -2  -9   22.15    0.91
 -10   2   9   21.47    0.75
 -10   2   9   21.74    0.87
   9  -2  -9    7.98    0.42
  -9   2   9    8.33    0.36
  -9   2   9    8.12    0.45
   8  -2  -9    1.38    0.16
  -8   2   9    1.16    0.20
  -8   2   9    1.07    0.13
   7  -2  -9    7.78    0.38
  -7   2   9    7.45    0.41
  -7   2   9    7.73    0.33
   6  -2  -9    0.06    0.07
  -6   2   9   -0.03    0.11
  -6   2   9    0.06    0.07
   5  -2  -9   27.04    1.08
  -5   2   9   29.00    1.01
  -5   2   9   28.39    0.90
   4  -2  -9   68.99    2.56
  -4   2   9   70.52    2.09
  -4   2   9   70.79    2.19
   3  -2  -9   41.64    1.54
  -3   2   9   41.96    1.36
  -3   2   9   39.98    1.26
   2  -2  -9   29.42    1.14
  -2   2   9   30.14    0.94
   1  -2  -9   18.51    0.75
  -1   2   9   18.79    0.62
   0  -2  -9    6.01    0.31
   0   2   9    5.83    0.26
  -1  -2  -9    5.74    0.38
  -2  -2  -9   12.76    0.66
  -3  -2  -9   30.27    1.33
  -4  -2  -9   37.57    1.61
  10  -3  -9    1.71    0.19
 -10   3   9    1.63    0.24
 -10   3   9    1.69    0.17
   9  -3  -9   15.98    0.71
  -9   3   9   16.47    0.60
  -9   3   9   17.59    0.73
   8  -3  -9    5.88    0.32
  -8   3   9    5.67    0.28
  -8   3   9    5.23    0.36
   7  -3  -9   26.42    1.04
  -7   3   9   25.58    0.86
  -7   3   9   25.85    0.96
   6  -3  -9   34.41    1.31
  -6   3   9   32.86    1.18
  -6   3   9   34.42    1.08
   5  -3  -9   19.24    0.79
  -5   3   9   19.54    0.76
  -5   3   9   19.16    0.65
   4  -3  -9    2.51    0.19
  -4   3   9    2.63    0.25
  -4   3   9    2.59    0.17
   3  -3  -9    2.21    0.18
  -3   3   9    2.61    0.16
   2  -3  -9    7.61    0.38
  -2   3   9    7.73    0.31
   1  -3  -9   41.53    1.57
  -1   3   9   41.04    1.26
   0  -3  -9   82.92    2.99
   0   3   9   80.58    2.41
  -1  -3  -9   35.69    1.54
  -2  -3  -9    0.72    0.16
  -3  -3  -9    0.02    0.11
 -10   4   9   18.42    0.67
 -10   4   9   19.08    0.80
   9  -4  -9   23.40    0.95
  -9   4   9   22.58    0.90
  -9   4   9   22.27    0.78
   8  -4  -9    5.11    0.30
  -8   4   9    4.54    0.34
  -8   4   9    4.59    0.26
   7  -4  -9    0.08    0.08
  -7   4   9    0.12    0.08
  -7   4   9    0.02    0.13
   6  -4  -9    0.42    0.11
  -6   4   9    0.37    0.14
  -6   4   9    0.48    0.09
   5  -4  -9   26.82    1.07
  -5   4   9   26.57    0.87
  -5   4   9   27.23    0.98
   4  -4  -9   75.91    2.75
  -4   4   9   74.12    2.22
  -4   4   9   74.33    2.32
   3  -4  -9   12.01    0.54
  -3   4   9   11.29    0.43
   2  -4  -9   13.95    0.61
  -2   4   9   13.01    0.48
   1  -4  -9    8.72    0.44
   0  -4  -9    0.90    0.14
  -9   5   9    7.65    0.34
  -9   5   9    6.33    0.43
   8  -5  -9   22.41    0.93
  -8   5   9   22.51    0.77
  -8   5   9   22.10    0.88
   7  -5  -9    6.54    0.37
  -7   5   9    7.03    0.32
  -7   5   9    6.16    0.39
   6  -5  -9   12.24    0.58
  -6   5   9   12.91    0.57
  -6   5   9   12.80    0.48
   5  -5  -9    9.94    0.48
   4  -5  -9    0.52    0.12
   3  -5  -9   15.47    0.69
   2  -5  -9    9.88    0.49
   1  -5  -9   10.05    0.51
   0  -5  -9   43.89    1.71
   7  -6  -9    4.10    0.29
   6  -6  -9    5.22    0.33
   5  -6  -9   28.66    1.17
   4  -6  -9   32.83    1.31
   3  -6  -9   10.75    0.54
   2  -6  -9    4.06    0.30
   1  -6  -9    7.74    0.44
   0  13 -10    1.48    0.20
   3  12 -10   12.43    0.60
   0  12 -10    5.16    0.34
  -1  12 -10    0.82    0.15
  -2  12 -10    0.70    0.16
  -3  12 -10    5.31    0.37
   4  11 -10    0.64    0.14
   3  11 -10    0.18    0.11
   1  11 -10    0.68    0.13
   0  11 -10   39.04    1.62
  -1  11 -10    6.97    0.41
  -2  11 -10    9.45    0.51
  -3  11 -10   29.60    1.28
  -4  11 -10    2.50    0.24
   5  10 -10    3.32    0.26
   4  10 -10   11.77    0.56
   3  10 -10    6.44    0.35
   2  10 -10   34.75    1.34
   1  10 -10   16.35    0.74
   0  10 -10    2.00    0.19
  -1  10 -10    0.50    0.12
  -2  10 -10    0.49    0.12
  -3  10 -10    2.10    0.21
  -4  10 -10   63.89    2.55
  -5  10 -10   27.91    1.21
   6   9 -10   34.37    1.37
   5   9 -10   11.02    0.53
   4   9 -10    5.46    0.32
   3   9 -10    2.86    0.21
   2   9 -10    0.28    0.09
   2   9 -10    0.33    0.09
   1   9 -10   21.88    0.94
   0   9 -10   39.49    1.60
  -1   9 -10   21.07    0.92
  -2   9 -10   17.43    0.79
  -3   9 -10   24.48    1.06
  -4   9 -10    5.10    0.33
  -5   9 -10    7.83    0.44
  -6   9 -10    9.27    0.50
   7   8 -10    5.12    0.33
   6   8 -10    0.10    0.10
   5   8 -10   16.04    0.70
   4   8 -10   23.82    0.96
   3   8 -10   13.58    0.58
   2   8 -10    9.12    0.42
   2   8 -10    9.40    0.45
   1   8 -10   31.17    1.28
   0   8 -10    4.81    0.29
  -1   8 -10    1.75    0.18
   1  -8  10    2.14    0.13
  -2   8 -10   26.81    1.14
  -3   8 -10   11.09    0.55
  -4   8 -10   25.96    1.12
  -5   8 -10   44.40    1.82
  -6   8 -10    6.20    0.38
   7   7 -10    4.87    0.31
   6   7 -10   26.73    1.08
   5   7 -10   44.16    1.67
   4   7 -10    0.27    0.09
   3   7 -10    0.76    0.11
  -3  -7  10    0.35    0.07
  -3  -7  10    0.42    0.12
   2   7 -10    0.14    0.06
   2   7 -10    0.24    0.08
  -2  -7  10    0.16    0.06
   1   7 -10   15.50    0.68
  -1  -7  10   14.77    0.50
   0   7 -10  136.97    5.11
   0  -7  10  129.71    3.84
  -1   7 -10   25.07    1.07
   1  -7  10   25.56    0.80
  -2   7 -10    1.93    0.18
  -3   7 -10    4.77    0.30
  -4   7 -10   17.47    0.80
  -5   7 -10    7.64    0.43
  -6   7 -10   36.89    1.54
   8   6 -10    1.97    0.20
   7   6 -10    1.65    0.18
   6   6 -10    0.04    0.08
  -6  -6  10   -0.01    0.06
  -6  -6  10    0.07    0.12
   5   6 -10    7.57    0.37
  -5  -6  10    7.48    0.30
  -5  -6  10    7.69    0.38
   4   6 -10   60.77    2.29
  -4  -6  10   66.10    1.95
  -4  -6  10   61.46    1.86
   3   6 -10   15.81    0.66
   3   6 -10   15.18    0.61
  -3  -6  10   14.48    0.50
  -3  -6  10   14.77    0.57
   2   6 -10   13.19    0.55
   2   6 -10   13.89    0.60
  -2  -6  10   13.35    0.46
   1   6 -10   36.19    1.49
  -1  -6  10   38.01    1.13
   0   6 -10   23.54    1.01
   0  -6  10   24.29    0.76
  -1   6 -10   40.21    1.61
   1  -6  10   39.19    1.21
  -2   6 -10   20.49    0.89
  -3   6 -10   12.14    0.59
  -4   6 -10   32.98    1.38
  -5   6 -10   29.14    1.24
  -6   6 -10    6.77    0.40
   9   5 -10    5.53    0.34
  -9  -5  10    5.28    0.27
  -9  -5  10    5.70    0.37
   8   5 -10   11.49    0.55
  -8  -5  10   11.81    0.45
  -8  -5  10   12.39    0.56
   7   5 -10   16.22    0.71
  -7  -5  10   16.41    0.58
  -7  -5  10   17.56    0.68
   6   5 -10   20.89    0.84
  -6  -5  10   19.88    0.68
  -6  -5  10   21.46    0.78
   5   5 -10   18.75    0.77
  -5  -5  10   19.82    0.72
  -5  -5  10   19.08    0.63
   4   5 -10    1.30    0.13
  -4  -5  10    1.14    0.17
  -4  -5  10    1.25    0.11
   3   5 -10    9.76    0.45
   3   5 -10    9.56    0.42
  -3  -5  10    9.81    0.43
  -3  -5  10    9.39    0.35
   2   5 -10   17.52    0.68
   2   5 -10   17.48    0.75
  -2  -5  10   16.98    0.57
  -2  -5  10   17.20    0.65
   1   5 -10   60.85    2.40
  -1  -5  10   61.65    1.82
   0   5 -10   67.09    2.68
   0  -5  10   69.98    2.03
  -1   5 -10   34.32    1.42
   1  -5  10   34.76    1.07
  -2   5 -10   16.30    0.74
  -3   5 -10    3.07    0.24
  -4   5 -10    1.93    0.19
  -5   5 -10   18.85    0.86
  -6   5 -10   10.45    0.55
 -10  -4  10    8.81    0.49
 -10  -4  10    8.78    0.38
   9   4 -10   10.71    0.52
  -9  -4  10   11.50    0.54
  -9  -4  10   11.48    0.44
   8   4 -10    0.24    0.10
  -8  -4  10    0.47    0.10
  -8  -4  10    0.60    0.17
   7   4 -10    0.26    0.09
  -7  -4  10    0.20    0.13
  -7  -4  10    0.29    0.08
   6   4 -10   12.78    0.55
  -6  -4  10   12.98    0.55
  -6  -4  10   12.39    0.46
   5   4 -10   11.74    0.50
  -5  -4  10   11.59    0.50
  -5  -4  10   11.20    0.42
   4   4 -10   30.17    1.20
   4   4 -10   29.64    1.13
  -4  -4  10   29.46    1.02
  -4  -4  10   29.52    0.93
   3   4 -10   52.48    1.90
   3   4 -10   53.03    2.04
  -3  -4  10   51.29    1.56
  -3  -4  10   51.33    1.64
   2   4 -10   60.30    2.40
   2   4 -10   63.37    2.23
  -2  -4  10   60.72    1.91
  -2  -4  10   61.56    1.83
   1   4 -10    4.19    0.20
   1   4 -10    3.77    0.24
  -1  -4  10    3.48    0.19
   0   4 -10    0.57    0.10
   0  -4  10   -0.02    0.05
  -1   4 -10   32.25    1.34
   1  -4  10   32.65    1.01
  -2   4 -10   51.46    2.08
   2  -4  10   51.93    1.56
  -3   4 -10   18.57    0.84
  -4   4 -10   15.76    0.74
  -5   4 -10   36.83    1.54
  -6   4 -10    0.66    0.14
 -10  -3  10    0.21    0.09
 -10  -3  10    0.28    0.16
   9   3 -10   11.33    0.54
  -9  -3  10   11.58    0.45
  -9  -3  10   12.25    0.56
   8   3 -10   38.95    1.50
  -8  -3  10   39.13    1.34
  -8  -3  10   39.02    1.22
   7   3 -10    0.89    0.13
  -7  -3  10    0.78    0.11
  -7  -3  10    0.76    0.17
   6   3 -10   11.96    0.52
  -6  -3  10   11.45    0.52
  -6  -3  10   12.22    0.44
   5   3 -10   14.42    0.60
  -5  -3  10   15.12    0.60
  -5  -3  10   14.12    0.51
   4   3 -10    8.76    0.39
   4   3 -10    8.91    0.41
  -4  -3  10    8.46    0.34
  -4  -3  10    7.84    0.41
   3   3 -10   38.75    1.44
   3   3 -10   38.64    1.55
  -3  -3  10   38.47    1.19
  -3  -3  10   39.60    1.28
   2   3 -10   32.11    1.33
   2   3 -10   33.35    1.22
  -2  -3  10   32.96    1.10
  -2  -3  10   32.36    1.02
   1   3 -10   28.87    1.04
   1   3 -10   26.80    1.16
  -1  -3  10   27.96    0.88
   0   3 -10   41.92    1.74
   0  -3  10   44.06    1.31
  -1   3 -10   45.94    1.82
   1  -3  10   43.45    1.36
  -2   3 -10    4.44    0.30
   2  -3  10    4.28    0.22
  -3   3 -10    1.98    0.19
  -4   3 -10    0.76    0.14
  -5   3 -10    9.68    0.52
  -6   3 -10   43.59    1.81
  10   2 -10    7.65    0.41
 -10  -2  10    8.05    0.36
 -10  -2  10    8.08    0.46
   9   2 -10    8.08    0.42
  -9  -2  10    8.95    0.47
  -9  -2  10    8.34    0.36
   8   2 -10    3.48    0.25
  -8  -2  10    3.68    0.30
  -8  -2  10    3.93    0.22
   7   2 -10   26.39    1.03
  -7  -2  10   26.24    0.96
  -7  -2  10   25.67    0.85
   6   2 -10    3.96    0.23
  -6  -2  10    3.54    0.21
  -6  -2  10    4.21    0.29
   5   2 -10   14.22    0.60
  -5  -2  10   14.97    0.51
  -5  -2  10   13.64    0.59
   4   2 -10   77.74    2.87
   4   2 -10   79.87    3.08
  -4  -2  10   81.29    2.45
  -4  -2  10   79.34    2.35
   3   2 -10   86.97    3.42
   3   2 -10   90.06    3.17
  -3  -2  10   87.05    2.59
  -3  -2  10   89.39    2.69
   2   2 -10   13.30    0.65
   2   2 -10   14.83    0.58
  -2  -2  10   15.04    0.50
   1   2 -10    1.19    0.15
   1   2 -10    1.82    0.12
  -1  -2  10    1.26    0.12
   0   2 -10    1.63    0.17
   0  -2  10    1.83    0.13
  -1   2 -10   45.58    1.85
   1  -2  10   44.97    1.38
  -2   2 -10   52.11    2.11
  -3   2 -10   33.59    1.43
  -4   2 -10   13.87    0.69
  -5   2 -10   20.92    0.96
  10   1 -10    0.86    0.14
 -10  -1  10    0.64    0.19
 -10  -1  10    0.70    0.12
   9   1 -10   11.68    0.55
  -9  -1  10   11.48    0.46
  -9  -1  10   12.05    0.57
   8   1 -10   28.28    1.16
  -8  -1  10   30.51    1.08
  -8  -1  10   30.30    0.96
   7   1 -10   16.91    0.70
  -7  -1  10   16.26    0.58
  -7  -1  10   16.11    0.68
   6   1 -10    3.30    0.21
  -6  -1  10    3.32    0.27
  -6  -1  10    2.95    0.18
   5   1 -10    6.08    0.30
   5   1 -10    5.86    0.31
  -5  -1  10    6.07    0.36
  -5  -1  10    5.40    0.26
   4   1 -10    0.11    0.07
   4   1 -10    0.13    0.07
  -4  -1  10    0.01    0.11
  -4  -1  10    0.08    0.07
   3   1 -10   16.57    0.67
   3   1 -10   16.97    0.75
  -3  -1  10   16.99    0.66
  -3  -1  10   16.98    0.58
   2   1 -10   37.68    1.55
   2   1 -10   37.35    1.40
  -2  -1  10   38.35    1.17
   1   1 -10   62.36    2.50
   1   1 -10   63.43    2.28
  -1  -1  10   63.62    1.89
   0   1 -10   47.83    1.95
   0  -1  10   48.19    1.46
  -1   1 -10   15.16    0.73
   1  -1  10   15.78    0.54
  -2   1 -10    0.13    0.09
  -3   1 -10    0.97    0.16
  -4   1 -10   19.29    0.90
  -5   1 -10   25.77    1.15
  10   0 -10   15.91    0.70
 -10   0  10   15.52    0.58
 -10   0  10   16.01    0.70
   9   0 -10    2.29    0.20
  -9   0  10    2.49    0.19
  -9   0  10    2.51    0.27
   8   0 -10    1.48    0.17
  -8   0  10    1.84    0.16
  -8   0  10    1.82    0.23
   7   0 -10   17.47    0.72
  -7   0  10   16.75    0.60
  -7   0  10   16.51    0.70
   6   0 -10   20.56    0.81
  -6   0  10   19.52    0.68
  -6   0  10   20.12    0.79
   5   0 -10    5.51    0.29
   5   0 -10    6.23    0.32
  -5   0  10    4.88    0.34
  -5   0  10    5.06    0.25
   4   0 -10   56.17    2.08
   4   0 -10   56.48    2.25
  -4   0  10   57.24    1.72
  -4   0  10   57.07    1.82
   3   0 -10   74.74    2.98
   3   0 -10   76.51    2.75
  -3   0  10   75.74    2.36
  -3   0  10   77.66    2.26
   2   0 -10    0.99    0.15
   2   0 -10    0.78    0.10
  -2   0  10    0.94    0.11
   1   0 -10   23.62    1.02
   1   0 -10   23.07    0.89
  -1   0  10   22.49    0.75
   0   0 -10    7.19    0.41
   0   0  10    6.58    0.29
  -1   0 -10   17.26    0.81
   1   0  10   16.87    0.59
  -2   0 -10   43.82    1.82
  -3   0 -10   31.94    1.38
  -4   0 -10    9.26    0.53
  10  -1 -10    0.96    0.15
 -10   1  10    0.83    0.21
 -10   1  10    0.69    0.12
   9  -1 -10   15.45    0.69
  -9   1  10   16.41    0.59
  -9   1  10   15.89    0.70
   8  -1 -10   35.06    1.36
  -8   1  10   34.71    1.12
  -8   1  10   34.94    1.24
   7  -1 -10   10.31    0.47
  -7   1  10    9.65    0.40
  -7   1  10   10.16    0.50
   6  -1 -10    3.73    0.23
  -6   1  10    3.20    0.28
  -6   1  10    3.63    0.21
   5  -1 -10    1.19    0.16
   5  -1 -10    1.55    0.14
  -5   1  10    1.26    0.13
  -5   1  10    1.30    0.19
   4  -1 -10    0.58    0.10
  -4   1  10    0.51    0.14
  -4   1  10    0.73    0.10
   3  -1 -10   34.32    1.43
   3  -1 -10   34.19    1.29
  -3   1  10   33.00    1.07
  -3   1  10   34.54    1.17
   2  -1 -10   60.96    2.23
   2  -1 -10   60.89    2.45
  -2   1  10   61.04    1.83
   1  -1 -10   33.92    1.26
   1  -1 -10   32.88    1.42
  -1   1  10   32.91    1.05
   0  -1 -10    8.90    0.50
   0   1  10    9.16    0.36
  -1  -1 -10   29.61    1.31
   1   1  10   30.29    0.96
  -2  -1 -10    5.26    0.37
  -3  -1 -10   19.78    0.94
   9  -2 -10    4.52    0.29
  -9   2  10    4.42    0.35
  -9   2  10    4.60    0.26
   8  -2 -10    0.09    0.09
  -8   2  10    0.21    0.09
  -8   2  10    0.04    0.13
   7  -2 -10   30.04    1.16
  -7   2  10   28.78    0.96
  -7   2  10   29.51    1.08
   6  -2 -10   25.00    1.00
  -6   2  10   25.37    0.95
  -6   2  10   24.76    0.83
   5  -2 -10   14.59    0.62
  -5   2  10   14.47    0.53
  -5   2  10   14.28    0.62
   4  -2 -10   22.30    0.88
  -4   2  10   21.68    0.73
  -4   2  10   21.46    0.83
   3  -2 -10   40.05    1.50
  -3   2  10   39.26    1.23
   2  -2 -10    0.26    0.09
  -2   2  10    0.25    0.08
   1  -2 -10   19.79    0.94
   1  -2 -10   21.06    0.83
  -1   2  10   19.91    0.68
   0  -2 -10    4.99    0.36
   0   2  10    4.72    0.24
  -1  -2 -10   25.30    1.15
  -2  -2 -10   47.01    1.97
   9  -3 -10    5.51    0.34
  -9   3  10    6.12    0.41
  -9   3  10    5.87    0.30
   8  -3 -10   41.66    1.61
  -8   3  10   42.42    1.33
  -8   3  10   41.35    1.45
   7  -3 -10   13.79    0.62
  -7   3  10   13.51    0.52
  -7   3  10   14.33    0.64
   6  -3 -10    1.47    0.16
  -6   3  10    1.69    0.16
  -6   3  10    1.52    0.22
   5  -3 -10    2.30    0.20
  -5   3  10    2.60    0.26
  -5   3  10    2.75    0.18
   4  -3 -10    1.06    0.14
  -4   3  10    1.29    0.19
  -4   3  10    1.21    0.13
   3  -3 -10   29.52    1.15
  -3   3  10   28.71    0.94
   2  -3 -10   50.86    1.90
  -2   3  10   50.46    1.54
   1  -3 -10   49.90    1.84
  -1   3  10   47.69    1.49
   0  -3 -10    2.80    0.29
   0   3  10    3.35    0.19
  -1  -3 -10    0.31    0.13
  -9   4  10   -0.10    0.15
  -9   4  10    0.10    0.09
   8  -4 -10    0.99    0.15
  -8   4  10    0.77    0.13
  -8   4  10    0.66    0.19
   7  -4 -10   21.37    0.89
  -7   4  10   21.98    0.87
  -7   4  10   21.19    0.74
   6  -4 -10   28.67    1.15
  -6   4  10   28.99    1.07
  -6   4  10   28.85    0.95
   5  -4 -10   16.39    0.71
  -5   4  10   15.85    0.68
  -5   4  10   16.21    0.58
   4  -4 -10    4.50    0.28
  -4   4  10    4.35    0.23
   3  -4 -10    5.91    0.34
  -3   4  10    6.03    0.28
   2  -4 -10    0.18    0.10
   1  -4 -10    5.47    0.33
  -8   5  10    9.09    0.40
  -8   5  10    9.31    0.52
   7  -5 -10   11.14    0.54
  -7   5  10   11.21    0.56
  -7   5  10   10.61    0.45
   6  -5 -10    0.10    0.10
   5  -5 -10   10.77    0.53
   4  -5 -10   10.02    0.50
   3  -5 -10   14.57    0.67
   2  -5 -10   26.81    1.10
   1  -5 -10   21.58    0.93
   0  12 -11    2.21    0.23
  -1  12 -11    2.10    0.23
  -2  12 -11   19.22    0.90
   4  11 -11    3.63    0.28
   1  11 -11    7.15    0.41
   0  11 -11   12.27    0.61
  -1  11 -11   25.18    1.10
  -2  11 -11    0.24    0.10
  -3  11 -11    0.28    0.12
   5  10 -11   10.79    0.54
   4  10 -11   30.36    1.21
   3  10 -11   22.01    0.90
   1  10 -11   -0.01    0.08
   0  10 -11    0.21    0.09
  -1  10 -11    2.46    0.22
  -2  10 -11   28.88    1.23
  -3  10 -11   26.96    1.17
  -4  10 -11    7.33    0.43
   6   9 -11    0.68    0.14
   5   9 -11    2.41    0.22
   4   9 -11    0.22    0.10
   3   9 -11    5.93    0.33
   2   9 -11   40.27    1.62
   1   9 -11   20.65    0.90
   0   9 -11    3.81    0.26
  -1   9 -11   24.89    1.07
  -2   9 -11    4.57    0.30
  -3   9 -11    6.49    0.38
  -4   9 -11   16.74    0.78
  -5   9 -11    2.60    0.23
   7   8 -11    3.04    0.25
   6   8 -11   13.44    0.62
   5   8 -11   10.09    0.49
   4   8 -11   21.95    0.89
   3   8 -11   26.17    1.03
   2   8 -11    0.72    0.11
   1   8 -11    0.47    0.10
   0   8 -11   11.19    0.53
   0  -8  11   10.33    0.39
  -1   8 -11    9.73    0.49
   1  -8  11    9.43    0.36
  -2   8 -11   38.14    1.57
  -3   8 -11   31.75    1.34
  -4   8 -11    9.93    0.52
  -5   8 -11    0.08    0.09
   7   7 -11    7.70    0.41
   6   7 -11    1.32    0.16
   5   7 -11    2.34    0.20
   4   7 -11    0.35    0.09
  -4  -7  11    0.28    0.08
   3   7 -11   19.93    0.79
  -3  -7  11   19.68    0.73
  -3  -7  11   19.23    0.64
   2   7 -11   50.18    1.94
  -2  -7  11   47.31    1.46
   1   7 -11   10.32    0.50
  -1  -7  11   10.48    0.38
   0   7 -11   15.03    0.69
   0  -7  11   15.59    0.52
  -1   7 -11   20.73    0.93
   1  -7  11   21.88    0.70
  -2   7 -11    0.87    0.14
  -3   7 -11   17.99    0.82
  -4   7 -11    7.31    0.42
  -5   7 -11    9.25    0.50
   8   6 -11    1.13    0.16
   7   6 -11    7.52    0.40
  -7  -6  11    8.32    0.43
  -7  -6  11    7.18    0.32
   6   6 -11   18.37    0.78
  -6  -6  11   19.19    0.74
  -6  -6  11   18.88    0.64
   5   6 -11   24.41    1.00
  -5  -6  11   26.07    0.92
  -5  -6  11   25.83    0.82
   4   6 -11   11.22    0.49
  -4  -6  11   11.04    0.41
  -4  -6  11   11.67    0.50
   3   6 -11   15.24    0.67
   3   6 -11   15.32    0.62
  -3  -6  11   15.23    0.60
  -3  -6  11   14.92    0.52
   2   6 -11    1.04    0.13
  -2  -6  11    0.97    0.10
   1   6 -11    6.08    0.33
  -1  -6  11    5.69    0.25
   0   6 -11    8.59    0.45
   0  -6  11    9.30    0.35
  -1   6 -11   33.11    1.38
   1  -6  11   33.08    1.04
  -2   6 -11   61.07    2.43
  -3   6 -11   37.18    1.55
  -4   6 -11    1.38    0.18
  -5   6 -11    0.14    0.10
  -9  -5  11    4.57    0.25
  -9  -5  11    5.06    0.35
   8   5 -11   12.63    0.58
  -8  -5  11   13.12    0.59
  -8  -5  11   12.87    0.48
   7   5 -11   21.03    0.87
  -7  -5  11   21.33    0.72
  -7  -5  11   21.73    0.83
   6   5 -11    0.44    0.10
  -6  -5  11    0.43    0.09
  -6  -5  11    0.33    0.14
   5   5 -11    3.52    0.22
  -5  -5  11    3.44    0.19
  -5  -5  11    3.73    0.28
   4   5 -11    4.47    0.25
  -4  -5  11    4.78    0.30
  -4  -5  11    4.58    0.22
   3   5 -11    8.58    0.41
   3   5 -11    8.11    0.37
  -3  -5  11    8.05    0.32
  -3  -5  11    8.00    0.40
   2   5 -11   64.15    2.52
   2   5 -11   65.50    2.33
  -2  -5  11   63.77    1.92
   1   5 -11   59.94    2.38
  -1  -5  11   60.58    1.80
   0   5 -11    7.54    0.39
   0  -5  11    6.56    0.29
  -1   5 -11    3.92    0.27
   1  -5  11    3.90    0.20
  -2   5 -11    0.46    0.11
  -3   5 -11   13.38    0.65
  -4   5 -11   38.66    1.62
  -5   5 -11    8.18    0.47
   9   4 -11    0.33    0.11
  -9  -4  11    0.34    0.10
  -9  -4  11    0.30    0.16
   8   4 -11    1.69    0.18
  -8  -4  11    1.64    0.23
  -8  -4  11    1.92    0.16
   7   4 -11   20.01    0.84
  -7  -4  11   21.87    0.82
  -7  -4  11   20.79    0.71
   6   4 -11   22.33    0.89
  -6  -4  11   22.09    0.84
  -6  -4  11   22.49    0.74
   5   4 -11    9.79    0.44
  -5  -4  11   10.47    0.48
  -5  -4  11    9.47    0.38
   4   4 -11    4.57    0.25
   4   4 -11    4.77    0.27
  -4  -4  11    4.38    0.22
  -4  -4  11    4.90    0.31
   3   4 -11    8.55    0.41
   3   4 -11    7.85    0.37
  -3  -4  11    8.27    0.41
  -3  -4  11    8.05    0.33
   2   4 -11    6.57    0.30
   2   4 -11    6.22    0.35
  -2  -4  11    6.33    0.27
   1   4 -11   16.49    0.73
  -1  -4  11   15.90    0.56
   0   4 -11   67.27    2.66
   0  -4  11   67.31    2.01
  -1   4 -11    9.14    0.47
   1  -4  11    8.19    0.34
  -2   4 -11   30.21    1.29
  -3   4 -11   28.62    1.24
  -4   4 -11    4.19    0.30
  -5   4 -11   15.33    0.75
   9   3 -11    7.96    0.42
  -9  -3  11    7.96    0.46
  -9  -3  11    8.77    0.37
   8   3 -11    6.37    0.34
  -8  -3  11    6.08    0.39
  -8  -3  11    5.98    0.29
   7   3 -11   26.55    1.05
  -7  -3  11   26.01    0.87
  -7  -3  11   27.52    0.99
   6   3 -11    0.12    0.08
  -6  -3  11    0.02    0.07
  -6  -3  11    0.05    0.12
   5   3 -11   22.92    0.90
  -5  -3  11   22.57    0.76
  -5  -3  11   22.90    0.86
   4   3 -11   15.19    0.64
   4   3 -11   15.74    0.69
  -4  -3  11   15.77    0.55
  -4  -3  11   16.53    0.65
   3   3 -11   13.73    0.59
   3   3 -11   13.23    0.64
  -3  -3  11   15.38    0.52
  -3  -3  11   15.99    0.61
   2   3 -11   59.73    2.11
   2   3 -11   57.30    2.29
  -2  -3  11   56.61    1.74
   1   3 -11   52.31    2.12
  -1  -3  11   53.43    1.60
   0   3 -11   17.57    0.79
   0  -3  11   16.94    0.59
  -1   3 -11    1.01    0.15
   1  -3  11    0.68    0.10
  -2   3 -11    2.95    0.25
  -3   3 -11   12.19    0.62
  -4   3 -11   23.32    1.05
   9   2 -11    0.29    0.10
  -9  -2  11    0.26    0.15
  -9  -2  11    0.37    0.10
   8   2 -11    2.63    0.21
  -8  -2  11    3.20    0.20
  -8  -2  11    2.95    0.29
   7   2 -11   12.23    0.55
  -7  -2  11   11.94    0.47
  -7  -2  11   12.79    0.57
   6   2 -11   48.55    1.79
  -6  -2  11   48.02    1.48
  -6  -2  11   47.02    1.59
   5   2 -11   18.19    0.75
  -5  -2  11   18.57    0.74
  -5  -2  11   18.68    0.64
   4   2 -11    0.72    0.11
   4   2 -11    0.79    0.12
  -4  -2  11    0.82    0.11
  -4  -2  11    0.95    0.17
   3   2 -11    4.46    0.28
   3   2 -11    4.43    0.24
  -3  -2  11    4.96    0.31
  -3  -2  11    4.37    0.22
   2   2 -11    1.21    0.12
   2   2 -11    1.03    0.15
  -2  -2  11    1.90    0.14
   1   2 -11    6.53    0.37
  -1  -2  11    5.97    0.27
   0   2 -11   84.42    3.28
   0  -2  11   82.23    2.46
  -1   2 -11   54.26    2.18
   1  -2  11   53.08    1.63
  -2   2 -11   13.89    0.69
  -3   2 -11    4.29    0.32
  -4   2 -11    3.41    0.29
   9   1 -11    5.09    0.32
  -9  -1  11    6.23    0.30
  -9  -1  11    6.05    0.39
   8   1 -11    7.41    0.37
  -8  -1  11    6.84    0.41
  -8  -1  11    6.48    0.32
   7   1 -11    9.15    0.46
  -7  -1  11   10.31    0.51
  -7  -1  11   10.16    0.40
   6   1 -11    2.34    0.19
  -6  -1  11    2.29    0.26
  -6  -1  11    2.44    0.17
   5   1 -11   34.18    1.42
   5   1 -11   34.75    1.33
  -5  -1  11   35.80    1.11
  -5  -1  11   34.75    1.22
   4   1 -11   32.22    1.34
   4   1 -11   33.11    1.24
  -4  -1  11   31.89    1.03
  -4  -1  11   32.81    1.14
   3   1 -11    2.41    0.20
   3   1 -11    2.54    0.17
  -3  -1  11    2.20    0.23
  -3  -1  11    1.78    0.15
   2   1 -11   74.19    2.61
   2   1 -11   70.74    2.84
  -2  -1  11   71.19    2.15
   1   1 -11   29.13    1.26
  -1  -1  11   29.90    0.95
   0   1 -11    0.94    0.15
   0  -1  11    0.73    0.11
  -1   1 -11   13.04    0.66
   1  -1  11   13.24    0.49
  -2   1 -11    3.70    0.29
  -3   1 -11   23.65    1.08
   9   0 -11    3.69    0.26
  -9   0  11    3.43    0.33
  -9   0  11    3.64    0.23
   8   0 -11    7.81    0.40
  -8   0  11    8.01    0.36
  -8   0  11    7.84    0.45
   7   0 -11    3.11    0.23
  -7   0  11    3.63    0.22
  -7   0  11    3.51    0.30
   6   0 -11   40.96    1.57
  -6   0  11   41.36    1.42
  -6   0  11   42.26    1.31
   5   0 -11   38.26    1.47
   5   0 -11   38.78    1.58
  -5   0  11   38.45    1.22
  -5   0  11   39.92    1.34
   4   0 -11    2.34    0.18
   4   0 -11    2.54    0.21
  -4   0  11    1.99    0.16
  -4   0  11    2.04    0.24
   3   0 -11    7.89    0.37
   3   0 -11    7.96    0.43
  -3   0  11    7.42    0.32
   2   0 -11    3.31    0.20
   2   0 -11    3.36    0.26
  -2   0  11    2.96    0.18
   1   0 -11   21.04    0.96
  -1   0  11   20.93    0.71
   0   0 -11   57.50    2.31
   0   0  11   55.90    1.72
  -1   0 -11   37.42    1.60
   1   0  11   37.65    1.19
  -2   0 -11    2.54    0.25
   9  -1 -11    6.44    0.37
  -9   1  11    6.84    0.33
  -9   1  11    7.74    0.46
   8  -1 -11    1.16    0.16
  -8   1  11    1.24    0.22
  -8   1  11    1.08    0.14
   7  -1 -11    0.96    0.14
  -7   1  11    0.86    0.19
  -7   1  11    1.06    0.14
   6  -1 -11    0.28    0.09
  -6   1  11    0.51    0.16
  -6   1  11    0.39    0.10
   5  -1 -11   19.18    0.79
   5  -1 -11   19.21    0.86
  -5   1  11   19.08    0.67
  -5   1  11   19.00    0.78
   4  -1 -11   39.40    1.49
   4  -1 -11   40.13    1.64
  -4   1  11   38.36    1.23
  -4   1  11   39.35    1.35
   3  -1 -11   28.13    1.22
   3  -1 -11   28.11    1.09
  -3   1  11   28.13    0.92
   2  -1 -11    5.54    0.36
   2  -1 -11    5.29    0.29
  -2   1  11    5.09    0.26
   1  -1 -11   18.69    0.88
  -1   1  11   18.40    0.64
   0  -1 -11    3.45    0.29
   0   1  11    3.39    0.20
  -1  -1 -11    4.25    0.33
  -2  -1 -11   22.64    1.06
  -9   2  11    6.19    0.32
  -9   2  11    6.28    0.42
   8  -2 -11   12.72    0.58
  -8   2  11   12.79    0.61
  -8   2  11   12.28    0.50
   7  -2 -11   10.67    0.49
  -7   2  11   10.02    0.43
  -7   2  11   10.33    0.54
   6  -2 -11   26.35    1.04
  -6   2  11   26.84    1.00
  -6   2  11   24.94    0.87
   5  -2 -11   16.82    0.72
  -5   2  11   17.35    0.62
  -5   2  11   17.16    0.73
   4  -2 -11    1.20    0.15
  -4   2  11    1.38    0.14
   3  -2 -11    6.54    0.43
   3  -2 -11    6.98    0.36
  -3   2  11    6.99    0.31
   2  -2 -11   12.07    0.64
   2  -2 -11   11.89    0.54
  -2   2  11   12.24    0.46
   1  -2 -11   20.76    0.97
  -1   2  11   20.16    0.70
   0  -2 -11   48.85    2.08
   0   2  11   50.72    1.54
   8  -3 -11   -0.03    0.09
  -8   3  11   -0.03    0.08
  -8   3  11   -0.12    0.14
   7  -3 -11    0.66    0.13
  -7   3  11    0.80    0.13
  -7   3  11    0.69    0.18
   6  -3 -11    0.00    0.08
  -6   3  11    0.04    0.08
  -6   3  11   -0.16    0.12
   5  -3 -11   34.62    1.33
  -5   3  11   32.83    1.09
  -5   3  11   34.11    1.22
   4  -3 -11   27.82    1.10
  -4   3  11   27.09    0.91
   3  -3 -11   11.45    0.54
  -3   3  11   11.51    0.45
   2  -3 -11    8.55    0.53
   2  -3 -11    9.26    0.45
  -2   3  11    9.06    0.37
   1  -3 -11    0.48    0.15
  -1   3  11    0.86    0.12
  -7   4  11   11.17    0.58
  -7   4  11   11.62    0.47
   6  -4 -11   11.93    0.56
  -6   4  11   11.41    0.57
  -6   4  11   11.30    0.46
   5  -4 -11   13.05    0.60
  -5   4  11   12.48    0.49
   4  -4 -11    0.75    0.14
  -4   4  11    0.91    0.12
   3  -4 -11   14.62    0.66
   2  -4 -11    6.35    0.37
   0  12 -12   21.26    0.97
   1  11 -12   22.35    0.99
   0  11 -12    3.27    0.26
  -1  11 -12    1.33    0.19
  -2  11 -12    0.25    0.12
   5  10 -12    3.99    0.29
   4  10 -12    2.50    0.22
   1  10 -12    5.33    0.33
   0  10 -12   27.91    1.19
  -1  10 -12   18.54    0.85
  -2  10 -12    1.35    0.18
  -3  10 -12   10.64    0.56
   5   9 -12    4.60    0.30
   4   9 -12   14.77    0.65
   1   9 -12   23.35    1.00
   0   9 -12    5.07    0.31
  -1   9 -12   12.19    0.59
  -2   9 -12    6.85    0.40
  -3   9 -12    4.01    0.29
   6   8 -12   16.99    0.74
   5   8 -12    8.30    0.42
   4   8 -12    1.03    0.14
   2   8 -12    0.27    0.09
   1   8 -12   29.76    1.24
   0   8 -12   15.31    0.72
   0  -8  12   16.15    0.54
  -1   8 -12   19.61    0.88
  -2   8 -12    4.87    0.32
  -3   8 -12   13.11    0.65
  -4   8 -12    0.22    0.11
   7   7 -12    0.07    0.09
   6   7 -12    0.39    0.11
   5   7 -12   15.19    0.65
   4   7 -12   33.28    1.28
  -4  -7  12   33.50    1.14
  -4  -7  12   33.63    1.05
  -3  -7  12   19.46    0.65
   2   7 -12    0.32    0.09
  -2  -7  12    0.18    0.07
   1   7 -12   30.84    1.30
  -1  -7  12   32.28    1.00
   0   7 -12    1.43    0.16
   0  -7  12    1.00    0.11
  -1   7 -12    6.69    0.39
   1  -7  12    7.44    0.30
  -2   7 -12   21.48    0.96
  -3   7 -12   10.44    0.54
  -4   7 -12   17.72    0.83
   7   6 -12   10.73    0.50
  -7  -6  12   11.48    0.53
  -7  -6  12    9.61    0.41
   6   6 -12   10.46    0.49
  -6  -6  12   10.43    0.41
  -6  -6  12   11.14    0.52
   5   6 -12   23.27    0.95
  -5  -6  12   24.41    0.89
  -5  -6  12   24.39    0.80
   4   6 -12    1.57    0.15
  -4  -6  12    1.34    0.13
  -4  -6  12    1.27    0.20
   3   6 -12    8.86    0.40
   3   6 -12    8.84    0.44
  -3  -6  12    8.93    0.35
   2   6 -12   11.51    0.55
  -2  -6  12   11.73    0.43
   1   6 -12    2.13    0.19
  -1  -6  12    2.15    0.15
   0   6 -12   31.92    1.34
   0  -6  12   32.13    1.01
  -1   6 -12   58.57    2.32
   1  -6  12   56.89    1.75
  -2   6 -12   19.22    0.88
  -3   6 -12    0.88    0.16
  -4   6 -12    3.20    0.27
   8   5 -12    3.10    0.24
  -8  -5  12    3.17    0.21
  -8  -5  12    3.04    0.30
   7   5 -12    1.60    0.18
  -7  -5  12    1.43    0.21
  -7  -5  12    1.43    0.15
   6   5 -12    2.30    0.19
  -6  -5  12    2.21    0.17
  -6  -5  12    1.81    0.23
   5   5 -12    9.52    0.44
  -5  -5  12    9.40    0.47
  -5  -5  12    9.24    0.38
   4   5 -12   23.20    0.93
  -4  -5  12   24.83    0.89
  -4  -5  12   23.52    0.78
   3   5 -12   37.65    1.52
   3   5 -12   37.50    1.40
  -3  -5  12   37.23    1.17
   2   5 -12    1.48    0.16
  -2  -5  12    1.57    0.14
   1   5 -12    0.23    0.09
  -1  -5  12    0.42    0.08
   0   5 -12    2.09    0.20
   0  -5  12    2.15    0.16
  -1   5 -12   11.30    0.57
   1  -5  12   11.25    0.43
  -2   5 -12   29.25    1.26
  -3   5 -12   15.44    0.75
  -4   5 -12   20.74    0.96
  -9  -4  12    9.54    0.41
   8   4 -12    7.12    0.38
  -8  -4  12    7.66    0.45
  -8  -4  12    6.85    0.33
   7   4 -12   16.27    0.70
  -7  -4  12   16.50    0.70
  -7  -4  12   16.24    0.59
   6   4 -12   10.16    0.46
  -6  -4  12    9.82    0.40
  -6  -4  12    9.69    0.50
   5   4 -12   16.43    0.68
  -5  -4  12   15.93    0.68
  -5  -4  12   16.55    0.58
   4   4 -12   -0.03    0.08
  -4  -4  12    0.24    0.13
  -4  -4  12    0.23    0.08
   3   4 -12   15.44    0.61
   3   4 -12   14.25    0.67
  -3  -4  12   14.40    0.53
   2   4 -12   22.72    0.99
  -2  -4  12   23.40    0.77
   1   4 -12    9.34    0.49
  -1  -4  12    9.58    0.38
   0   4 -12   23.12    1.01
   0  -4  12   22.55    0.76
  -1   4 -12   51.51    2.12
   1  -4  12   53.00    1.60
  -2   4 -12    6.83    0.42
  -3   4 -12    1.01    0.17
  -9  -3  12   17.86    0.65
  -9  -3  12   17.76    0.76
   8   3 -12    0.20    0.10
  -8  -3  12    0.06    0.09
  -8  -3  12   -0.11    0.14
   7   3 -12    4.31    0.27
  -7  -3  12    4.55    0.34
  -7  -3  12    4.58    0.25
   6   3 -12    2.62    0.20
  -6  -3  12    2.54    0.18
  -6  -3  12    2.30    0.26
   5   3 -12    8.59    0.40
  -5  -3  12    8.42    0.36
  -5  -3  12    7.96    0.45
   4   3 -12   59.21    2.33
   4   3 -12   59.41    2.17
  -4  -3  12   58.29    1.79
  -4  -3  12   59.10    1.91
   3   3 -12   20.74    0.82
   3   3 -12   21.60    0.91
  -3  -3  12   19.89    0.70
   2   3 -12    1.05    0.15
  -2  -3  12    0.87    0.12
   1   3 -12    1.52    0.18
  -1  -3  12    1.37    0.13
   0   3 -12    0.01    0.08
   0  -3  12    0.04    0.07
  -1   3 -12    6.41    0.39
   1  -3  12    5.70    0.28
  -2   3 -12   42.03    1.76
  -3   3 -12   24.65    1.11
  -9  -2  12    7.15    0.34
  -9  -2  12    7.51    0.45
   8   2 -12   24.17    0.98
  -8  -2  12   24.41    0.82
  -8  -2  12   23.53    0.94
   7   2 -12    9.26    0.44
  -7  -2  12    9.17    0.49
  -7  -2  12    8.74    0.38
   6   2 -12    4.71    0.28
  -6  -2  12    4.82    0.34
  -6  -2  12    4.50    0.25
   5   2 -12    0.85    0.12
  -5  -2  12    0.72    0.17
  -5  -2  12    0.80    0.12
   4   2 -12    0.07    0.08
   4   2 -12    0.19    0.10
  -4  -2  12    0.13    0.08
  -4  -2  12    0.18    0.14
   3   2 -12   20.20    0.89
   3   2 -12   20.04    0.79
  -3  -2  12   19.28    0.68
   2   2 -12   36.40    1.51
  -2  -2  12   35.82    1.15
   1   2 -12   27.40    1.18
  -1  -2  12   26.67    0.89
   0   2 -12   19.91    0.91
   0  -2  12   19.41    0.68
  -1   2 -12   19.86    0.90
   1  -2  12   18.26    0.66
  -2   2 -12    2.85    0.27
   8   1 -12    0.68    0.13
  -8  -1  12    0.70    0.19
  -8  -1  12    0.87    0.13
   7   1 -12    9.35    0.45
  -7  -1  12    8.74    0.39
  -7  -1  12    9.33    0.50
   6   1 -12    9.29    0.43
  -6  -1  12    8.29    0.37
  -6  -1  12    8.57    0.48
   5   1 -12   11.77    0.52
  -5  -1  12   11.60    0.56
  -5  -1  12   11.97    0.47
   4   1 -12   33.45    1.29
   4   1 -12   33.29    1.41
  -4  -1  12   35.02    1.21
  -4  -1  12   34.03    1.09
   3   1 -12   46.01    1.67
   3   1 -12   44.58    1.84
  -3  -1  12   43.95    1.40
   2   1 -12    1.47    0.19
  -2  -1  12    1.66    0.15
   1   1 -12    0.93    0.15
  -1  -1  12    0.69    0.11
   0   1 -12    0.84    0.15
   0  -1  12    0.72    0.11
  -1   1 -12    9.62    0.53
   1  -1  12    8.84    0.38
  -2   1 -12   39.89    1.70
   8   0 -12   11.39    0.54
  -8   0  12   11.52    0.58
  -8   0  12   11.08    0.46
   7   0 -12   19.62    0.82
  -7   0  12   19.19    0.69
  -7   0  12   19.46    0.82
   6   0 -12    0.08    0.08
  -6   0  12    0.28    0.16
  -6   0  12    0.13    0.08
   5   0 -12    0.16    0.09
   5   0 -12    0.20    0.09
  -5   0  12    0.21    0.08
  -5   0  12   -0.12    0.11
   4   0 -12    1.10    0.17
   4   0 -12    1.32    0.14
  -4   0  12    1.22    0.13
  -4   0  12    1.16    0.20
   3   0 -12    6.02    0.39
   3   0 -12    6.63    0.33
  -3   0  12    6.04    0.29
   2   0 -12   56.84    2.32
  -2   0  12   57.02    1.74
   1   0 -12   14.87    0.73
  -1   0  12   14.41    0.54
   0   0 -12    9.36    0.53
   0   0  12    8.98    0.38
  -1   0 -12    8.47    0.51
   8  -1 -12    2.64    0.23
  -8   1  12    2.64    0.20
  -8   1  12    2.24    0.28
   7  -1 -12   15.21    0.66
  -7   1  12   14.92    0.69
  -7   1  12   14.79    0.57
   6  -1 -12   15.22    0.67
  -6   1  12   15.98    0.71
  -6   1  12   15.93    0.59
   5  -1 -12    7.62    0.38
   5  -1 -12    7.80    0.44
  -5   1  12    7.03    0.34
  -5   1  12    7.26    0.44
   4  -1 -12   33.92    1.28
   4  -1 -12   32.50    1.41
  -4   1  12   32.79    1.07
   3  -1 -12   19.89    0.80
   3  -1 -12   18.59    0.90
  -3   1  12   19.48    0.68
   2  -1 -12    0.29    0.12
  -2   1  12    0.11    0.08
   1  -1 -12    7.54    0.47
  -1   1  12    7.64    0.34
   0  -1 -12    8.35    0.50
   0   1  12    7.49    0.35
   7  -2 -12    2.59    0.22
  -7   2  12    3.03    0.21
  -7   2  12    2.74    0.31
   6  -2 -12   -0.04    0.08
  -6   2  12    0.03    0.13
  -6   2  12   -0.09    0.07
   5  -2 -12    0.42    0.14
   5  -2 -12    0.37    0.10
  -5   2  12    0.27    0.15
  -5   2  12    0.41    0.10
   4  -2 -12    0.98    0.18
   4  -2 -12    1.09    0.15
  -4   2  12    1.10    0.14
   3  -2 -12   21.03    0.85
   3  -2 -12   20.14    0.97
  -3   2  12   20.41    0.72
   2  -2 -12   47.40    2.02
  -2   2  12   49.30    1.51
  -1   2  12   14.64    0.55
  -6   3  12   23.21    0.81
  -6   3  12   23.57    0.94
   5  -3 -12   10.04    0.56
   5  -3 -12    9.22    0.47
  -5   3  12    9.71    0.41
   4  -3 -12    8.03    0.50
   4  -3 -12    7.83    0.42
  -4   3  12    8.09    0.36
   3  -3 -12    2.74    0.23
  -3   3  12    3.13    0.20
  -2   3  12    0.26    0.09
   0  11 -13    0.19    0.10
   1  10 -13    8.36    0.45
   0  10 -13    7.92    0.44
  -1  10 -13   11.86    0.60
   5   9 -13    3.93    0.28
   1   9 -13    0.95    0.14
   0   9 -13    4.64    0.30
  -1   9 -13    5.41    0.35
  -2   9 -13   12.07    0.61
   6   8 -13    0.44    0.12
   5   8 -13    0.30    0.10
   2   8 -13   24.94    1.06
   1   8 -13   11.12    0.55
   0   8 -13    4.89    0.31
   0  -8  13    4.80    0.24
  -1   8 -13    3.49    0.27
  -2   8 -13    1.96    0.21
   6   7 -13   16.68    0.72
   5   7 -13   11.04    0.51
  -4  -7  13   10.04    0.40
  -3  -7  13   11.93    0.45
   2   7 -13    5.17    0.31
  -2  -7  13    4.66    0.25
   1   7 -13    8.75    0.46
  -1  -7  13    8.83    0.36
   0   7 -13    8.70    0.46
   0  -7  13    8.77    0.36
  -1   7 -13    8.59    0.47
   1  -7  13    8.86    0.37
  -2   7 -13   18.29    0.85
   7   6 -13    5.42    0.32
  -7  -6  13    5.05    0.27
  -7  -6  13    5.28    0.37
   6   6 -13    1.85    0.19
  -6  -6  13    2.11    0.25
  -6  -6  13    2.06    0.17
   5   6 -13    1.48    0.16
  -5  -6  13    1.45    0.21
  -5  -6  13    1.64    0.15
   4   6 -13    1.87    0.16
  -4  -6  13    1.63    0.15
  -4  -6  13    2.00    0.23
   3   6 -13   13.97    0.64
  -3  -6  13   13.75    0.51
   2   6 -13   26.94    1.14
  -2  -6  13   26.68    0.88
   1   6 -13   15.71    0.73
  -1  -6  13   16.07    0.57
   0   6 -13    2.85    0.24
   0  -6  13    2.95    0.19
  -1   6 -13    0.39    0.12
   1  -6  13    0.38    0.09
  -2   6 -13    0.66    0.14
  -8  -5  13    0.48    0.11
  -8  -5  13    0.77    0.19
   7   5 -13    3.10    0.23
  -7  -5  13    2.75    0.29
  -7  -5  13    2.99    0.20
   6   5 -13   17.03    0.72
  -6  -5  13   16.95    0.62
  -6  -5  13   17.67    0.73
   5   5 -13   20.66    0.84
  -5  -5  13   21.11    0.83
  -5  -5  13   20.44    0.71
   4   5 -13    7.22    0.36
  -4  -5  13    7.52    0.33
  -4  -5  13    8.12    0.44
   3   5 -13    5.79    0.33
  -3  -5  13    5.59    0.27
   2   5 -13    1.99    0.19
  -2  -5  13    1.32    0.14
   1   5 -13   28.76    1.25
  -1  -5  13   30.01    0.96
   0   5 -13   18.89    0.85
   0  -5  13   18.08    0.64
  -1   5 -13    5.18    0.34
   1  -5  13    4.82    0.26
  -2   5 -13   12.55    0.64
  -8  -4  13    8.38    0.48
  -8  -4  13    7.81    0.36
   7   4 -13   13.25    0.61
  -7  -4  13   14.07    0.53
  -7  -4  13   14.45    0.65
   6   4 -13    0.92    0.14
  -6  -4  13    0.87    0.20
  -6  -4  13    1.28    0.15
   5   4 -13   11.90    0.53
  -5  -4  13   11.75    0.57
  -5  -4  13   11.98    0.46
   4   4 -13    4.07    0.25
  -4  -4  13    4.30    0.23
  -4  -4  13    4.01    0.32
   3   4 -13    6.76    0.38
  -3  -4  13    6.73    0.31
   2   4 -13   23.99    1.04
  -2  -4  13   23.59    0.80
   1   4 -13   36.27    1.52
  -1  -4  13   36.46    1.16
   0   4 -13    2.16    0.22
   0  -4  13    2.04    0.17
  -1   4 -13    1.01    0.17
   1  -4  13    0.99    0.13
  -2   4 -13    0.38    0.13
   8   3 -13    0.22    0.10
  -8  -3  13    0.13    0.09
   7   3 -13    9.21    0.45
  -7  -3  13    9.12    0.40
  -7  -3  13    9.03    0.50
   6   3 -13   24.67    0.98
  -6  -3  13   23.65    0.83
  -6  -3  13   24.65    0.95
   5   3 -13   16.54    0.69
  -5  -3  13   17.52    0.72
  -5  -3  13   15.17    0.59
   4   3 -13    2.04    0.17
   4   3 -13    2.10    0.19
  -4  -3  13    1.90    0.24
  -4  -3  13    2.28    0.17
   3   3 -13    0.49    0.12
  -3  -3  13    0.44    0.10
   2   3 -13    0.17    0.10
  -2  -3  13    0.26    0.09
   1   3 -13   17.64    0.82
  -1  -3  13   16.85    0.62
   0   3 -13   40.36    1.71
   0  -3  13   40.98    1.29
  -1   3 -13   20.65    0.96
   1  -3  13   20.57    0.72
   8   2 -13    4.21    0.28
   7   2 -13    2.81    0.22
  -7  -2  13    2.53    0.29
  -7  -2  13    2.41    0.20
   6   2 -13    0.90    0.14
  -6  -2  13    0.38    0.17
  -6  -2  13    0.21    0.09
   5   2 -13    8.96    0.43
  -5  -2  13    8.93    0.39
  -5  -2  13    8.58    0.49
   4   2 -13   11.50    0.50
   4   2 -13   11.18    0.56
  -4  -2  13   10.56    0.55
  -4  -2  13   11.08    0.45
   3   2 -13   23.01    1.02
  -3  -2  13   22.82    0.78
   2   2 -13   18.61    0.86
  -2  -2  13   18.36    0.66
   1   2 -13   20.06    0.93
  -1  -2  13   19.62    0.70
   0   2 -13    0.72    0.16
   0  -2  13    0.56    0.11
  -1   2 -13    0.57    0.15
   1  -2  13    0.89    0.13
   7   1 -13    1.71    0.18
  -7  -1  13    1.55    0.17
  -7  -1  13    1.63    0.24
   6   1 -13   27.12    1.05
  -6  -1  13   26.13    1.03
  -6  -1  13   24.86    0.89
   5   1 -13   26.78    1.05
  -5  -1  13   26.45    1.02
  -5  -1  13   25.99    0.90
   4   1 -13    2.85    0.21
   4   1 -13    2.87    0.25
  -4  -1  13    2.85    0.21
   3   1 -13    0.68    0.14
  -3  -1  13    0.27    0.09
   2   1 -13    0.03    0.09
  -2  -1  13    0.06    0.07
   1   1 -13    9.29    0.54
  -1  -1  13    9.78    0.40
   0   1 -13   40.84    1.73
   0  -1  13   40.53    1.30
   7   0 -13    0.70    0.13
  -7   0  13    0.47    0.18
  -7   0  13    0.66    0.13
   6   0 -13    0.62    0.12
  -6   0  13    0.61    0.12
  -6   0  13    0.54    0.18
   5   0 -13   12.57    0.56
  -5   0  13   12.32    0.50
  -5   0  13   12.34    0.61
   4   0 -13   26.51    1.15
   4   0 -13   26.15    1.03
  -4   0  13   25.17    0.88
   3   0 -13   10.56    0.57
  -3   0  13   10.38    0.44
   2   0 -13   13.56    0.69
  -2   0  13   12.82    0.51
   1   0 -13   19.35    0.93
  -1   0  13   19.05    0.69
   6  -1 -13    5.12    0.31
  -6   1  13    5.76    0.30
  -6   1  13    4.84    0.40
   5  -1 -13    7.59    0.41
   5  -1 -13    8.57    0.48
  -5   1  13    8.18    0.37
   4  -1 -13    1.05    0.15
   4  -1 -13    1.17    0.19
  -4   1  13    1.02    0.14
   3  -1 -13    1.62    0.22
  -3   1  13    1.51    0.16
   5  -2 -13    5.37    0.38
   4  -2 -13   13.14    0.60
   1  10 -14   13.76    0.66
   1   9 -14    2.31    0.21
   0   9 -14   16.17    0.76
   2   8 -14   12.39    0.60
   1   8 -14    8.23    0.45
   0   8 -14    1.58    0.19
   0  -8  14    1.68    0.16
   6   7 -14    0.76    0.13
  -4  -7  14    4.28    0.24
  -3  -7  14    6.10    0.29
   2   7 -14    3.38    0.25
  -2  -7  14    3.20    0.20
   1   7 -14    5.70    0.35
  -1  -7  14    5.89    0.28
   0   7 -14   19.12    0.86
   0  -7  14   18.14    0.65
  -1   7 -14   26.51    1.16
   6   6 -14    0.17    0.09
  -6  -6  14    0.20    0.15
  -6  -6  14    0.16    0.08
  -5  -6  14    0.56    0.18
  -5  -6  14    0.84    0.12
  -4  -6  14   31.02    1.01
  -3  -6  14   29.76    0.98
   2   6 -14    0.64    0.13
  -2  -6  14    0.39    0.10
   1   6 -14    0.89    0.15
  -1  -6  14    0.63    0.11
   0   6 -14    0.42    0.12
   0  -6  14    0.29    0.09
   1  -6  14    4.65    0.26
   6   5 -14    4.35    0.27
  -6  -5  14    4.15    0.34
  -6  -5  14    4.11    0.24
   5   5 -14    6.39    0.35
  -5  -5  14    7.18    0.44
  -5  -5  14    6.48    0.32
  -4  -5  14    3.30    0.22
   3   5 -14    7.07    0.39
  -3  -5  14    6.68    0.32
   2   5 -14   17.00    0.79
  -2  -5  14   16.87    0.61
   1   5 -14    2.47    0.23
  -1  -5  14    2.19    0.18
   0   5 -14   18.96    0.89
   0  -5  14   19.61    0.69
   7   4 -14    3.13    0.23
   6   4 -14    0.99    0.14
  -6  -4  14    1.16    0.14
  -6  -4  14    0.47    0.18
   5   4 -14   10.67    0.48
  -5  -4  14    9.36    0.53
  -5  -4  14    9.93    0.42
  -4  -4  14   18.95    0.68
   3   4 -14   11.70    0.58
  -3  -4  14   11.69    0.47
   2   4 -14    6.59    0.40
  -2  -4  14    6.50    0.31
   1   4 -14    0.45    0.13
  -1  -4  14    0.38    0.10
   0   4 -14    0.38    0.13
   0  -4  14    0.35    0.10
   7   3 -14    8.28    0.43
   6   3 -14    2.16    0.19
  -6  -3  14    2.12    0.28
  -6  -3  14    2.26    0.19
   5   3 -14    2.22    0.20
  -5  -3  14    1.90    0.26
  -5  -3  14    2.46    0.19
  -4  -3  14    0.18    0.09
   3   3 -14    6.16    0.38
  -3  -3  14    5.80    0.30
   2   3 -14   28.50    1.25
  -2  -3  14   28.63    0.96
   1   3 -14   16.17    0.78
  -1  -3  14   15.83    0.59
   6   2 -14    7.16    0.38
   5   2 -14    1.42    0.16
  -5  -2  14    1.64    0.17
  -5  -2  14    1.52    0.24
   4   2 -14   31.06    1.33
  -4  -2  14   31.07    1.03
   3   2 -14    7.16    0.43
  -3  -2  14    6.81    0.34
   2   2 -14    0.11    0.11
  -2  -2  14   -0.09    0.07
   6   1 -14    1.54    0.18
   5   1 -14    1.32    0.16
   4   1 -14    0.75    0.15
  -4  -1  14    0.50    0.12
   3   1 -14   17.37    0.84
   5   0 -14   20.52    0.85
  -4  -7  15    1.74    0.17
  -3  -7  15    0.55    0.11
   2   7 -15   19.91    0.89
  -2  -7  15   19.72    0.70
  -4  -6  15    2.03    0.19
  -3  -6  15    6.30    0.31
   2   6 -15    0.48    0.13
  -2  -6  15    0.41    0.11
   2   5 -15   16.83    0.80
   3   4 -15    0.67    0.14
   0   0   0    0.00    0.00
;
_shelx_hkl_checksum              80189
loop_
_space_group_symop_operation_xyz
'x, y, z'
'-x, -y, -z'
loop_
_atom_site_label
_atom_site_type_symbol
_atom_site_fract_x
_atom_site_fract_y
_atom_site_fract_z
_atom_site_U_iso_or_equiv
_atom_site_adp_type
_atom_site_occupancy
_atom_site_site_symmetry_order
_atom_site_calc_flag
_atom_site_refinement_flags_posn
_atom_site_refinement_flags_adp
_atom_site_refinement_flags_occupancy
_atom_site_disorder_assembly
_atom_site_disorder_group
C1 C 0.7193(3) 0.0767(2) -0.1316(2) 0.0233(3) Uani 1 1 d . . . . .
C2 C 0.8154(2) 0.2543(2) -0.00446(19) 0.0199(3) Uani 1 1 d . . . . .
C3 C 0.9684(2) 0.2937(2) 0.11641(19) 0.0192(3) Uani 1 1 d . . . . .
H3 H 1.0102 0.2095 0.1210 0.023 Uiso 1 1 calc R U . . .
C4 C 1.0597(2) 0.4599(2) 0.23137(19) 0.0185(3) Uani 1 1 d . . . . .
C5 C 0.9994(2) 0.5863(2) 0.2227(2) 0.0202(3) Uani 1 1 d . . . . .
H5 H 1.0632 0.6977 0.2962 0.024 Uiso 1 1 calc R U . . .
C6 C 0.8429(2) 0.5445(2) 0.1031(2) 0.0199(3) Uani 1 1 d . . . . .
C7 C 0.7500(2) 0.3797(2) -0.0115(2) 0.0215(3) Uani 1 1 d . . . . .
H7 H 0.6462 0.3531 -0.0915 0.026 Uiso 1 1 calc R U . . .
C8 C 1.2266(2) 0.5073(2) 0.3636(2) 0.0215(3) Uani 1 1 d . . . . .
C9 C 0.7485(2) 0.7957(2) 0.2666(2) 0.0218(3) Uani 1 1 d . . . . .
C10 C 0.8643(3) 1.0988(3) 0.3222(3) 0.0357(5) Uani 1 1 d . . . . .
H10A H 0.7644 1.1105 0.2604 0.054 Uiso 1 1 calc R U . . .
H10B H 0.9447 1.0746 0.2691 0.054 Uiso 1 1 calc R U . . .
H10C H 0.9280 1.2015 0.4161 0.054 Uiso 1 1 calc R U . . .
Cd1 Cd 0.57246(2) -0.23256(2) -0.36634(2) 0.02081(7) Uani 1 1 d . . . . .
N1 N 0.7969(2) 0.9617(2) 0.35399(19) 0.0232(3) Uani 1 1 d . . . . .
N2 N 0.7650(3) 0.9885(2) 0.4819(2) 0.0286(3) Uani 1 1 d . . . . .
N3 N 0.7016(3) 0.8417(2) 0.4707(2) 0.0287(3) Uani 1 1 d . . . . .
N4 N 0.6873(3) 0.7176(2) 0.3378(2) 0.0284(3) Uani 1 1 d . . . . .
O1 O 0.7972(2) -0.0268(2) -0.1405(2) 0.0469(5) Uani 1 1 d . . . . .
O2 O 0.5676(2) 0.0384(2) -0.2256(2) 0.0418(4) Uani 1 1 d . . . . .
O3 O 1.2584(2) 0.3943(2) 0.39117(19) 0.0359(3) Uani 1 1 d . . . . .
O4 O 1.3191(2) 0.6614(2) 0.4415(2) 0.0395(4) Uani 1 1 d . . . . .
O5 O 0.4266(3) -0.3584(2) -0.2501(2) 0.0533(5) Uani 1 1 d . . . . .
H5A H 0.4076 -0.4596 -0.2805 0.080 Uiso 1 1 d R U . . .
H5B H 0.4528 -0.3104 -0.1584 0.080 Uiso 1 1 d R U . . .
S1 S 0.76751(7) 0.70658(7) 0.08999(5) 0.02778(11) Uani 1 1 d . . . . .
loop_
_atom_site_aniso_label
_atom_site_aniso_U_11
_atom_site_aniso_U_22
_atom_site_aniso_U_33
_atom_site_aniso_U_23
_atom_site_aniso_U_13
_atom_site_aniso_U_12
C1 0.0231(8) 0.0181(8) 0.0182(8) 0.0035(7) 0.0034(7) 0.0034(7)
C2 0.0196(7) 0.0168(7) 0.0166(7) 0.0041(6) 0.0049(6) 0.0041(6)
C3 0.0203(7) 0.0155(7) 0.0184(7) 0.0063(6) 0.0052(6) 0.0056(6)
C4 0.0175(7) 0.0173(8) 0.0157(7) 0.0056(6) 0.0031(6) 0.0049(6)
C5 0.0205(7) 0.0163(7) 0.0177(7) 0.0050(6) 0.0034(6) 0.0052(6)
C6 0.0220(8) 0.0206(8) 0.0182(7) 0.0092(7) 0.0066(6) 0.0106(7)
C7 0.0186(7) 0.0241(8) 0.0185(8) 0.0082(7) 0.0046(6) 0.0078(7)
C8 0.0179(7) 0.0219(8) 0.0190(8) 0.0065(7) 0.0032(6) 0.0071(6)
C9 0.0225(8) 0.0207(8) 0.0236(8) 0.0103(7) 0.0084(7) 0.0106(7)
C10 0.0408(11) 0.0233(9) 0.0475(13) 0.0198(9) 0.0203(10) 0.0091(9)
Cd1 0.01942(9) 0.01686(9) 0.01731(9) 0.00418(6) 0.00118(5) 0.00443(5)
N1 0.0247(7) 0.0201(7) 0.0262(8) 0.0108(6) 0.0103(6) 0.0098(6)
N2 0.0330(9) 0.0250(8) 0.0264(8) 0.0096(7) 0.0125(7) 0.0112(7)
N3 0.0366(9) 0.0250(8) 0.0269(8) 0.0119(7) 0.0150(7) 0.0126(7)
N4 0.0387(9) 0.0224(8) 0.0272(8) 0.0123(7) 0.0152(7) 0.0119(7)
O1 0.0399(9) 0.0227(8) 0.0426(10) -0.0036(7) -0.0110(8) 0.0135(7)
O2 0.0297(7) 0.0260(8) 0.0362(9) -0.0026(7) -0.0094(7) 0.0071(6)
O3 0.0370(8) 0.0297(8) 0.0344(8) 0.0123(7) 0.0019(7) 0.0181(7)
O4 0.0299(7) 0.0248(7) 0.0375(9) 0.0107(7) -0.0127(6) -0.0015(6)
O5 0.0780(14) 0.0335(9) 0.0412(10) 0.0146(8) 0.0313(10) 0.0029(9)
S1 0.0406(3) 0.0301(2) 0.0226(2) 0.01529(19) 0.0137(2) 0.0226(2)
loop_
_atom_type_symbol
_atom_type_description
_atom_type_scat_dispersion_real
_atom_type_scat_dispersion_imag
_atom_type_scat_source
C C 0.0033 0.0016 'International Tables Vol C Tables 4.2.6.8 and 6.1.1.4'
H H 0.0000 0.0000 'International Tables Vol C Tables 4.2.6.8 and 6.1.1.4'
N N 0.0061 0.0033 'International Tables Vol C Tables 4.2.6.8 and 6.1.1.4'
O O 0.0106 0.0060 'International Tables Vol C Tables 4.2.6.8 and 6.1.1.4'
S S 0.1246 0.1234 'International Tables Vol C Tables 4.2.6.8 and 6.1.1.4'
Cd Cd -0.8075 1.2024 'International Tables Vol C Tables 4.2.6.8 and 6.1.1.4'
loop_
_geom_angle_atom_site_label_1
_geom_angle_atom_site_label_2
_geom_angle_atom_site_label_3
_geom_angle
_geom_angle_site_symmetry_1
_geom_angle_site_symmetry_3
O2 C1 O1 122.19(18) . .
O2 C1 C2 119.38(17) . .
O1 C1 C2 118.41(17) . .
C3 C2 C7 120.49(16) . .
C3 C2 C1 120.51(16) . .
C7 C2 C1 118.99(16) . .
C2 C3 C4 119.97(16) . .
C2 C3 H3 120.0 . .
C4 C3 H3 120.0 . .
C5 C4 C3 119.96(16) . .
C5 C4 C8 118.63(16) . .
C3 C4 C8 121.38(16) . .
C4 C5 C6 119.51(16) . .
C4 C5 H5 120.2 . .
C6 C5 H5 120.2 . .
C7 C6 C5 121.12(16) . .
C7 C6 S1 119.19(14) . .
C5 C6 S1 119.58(14) . .
C6 C7 C2 118.87(16) . .
C6 C7 H7 120.6 . .
C2 C7 H7 120.6 . .
O3 C8 O4 125.43(18) . .
O3 C8 C4 118.72(17) . .
O4 C8 C4 115.78(16) . .
N4 C9 N1 108.62(16) . .
N4 C9 S1 127.78(15) . .
N1 C9 S1 123.60(14) . .
N1 C10 H10A 109.5 . .
N1 C10 H10B 109.5 . .
H10A C10 H10B 109.5 . .
N1 C10 H10C 109.5 . .
H10A C10 H10C 109.5 . .
H10B C10 H10C 109.5 . .
O4 Cd1 O3 114.17(6) 1_444 2_755
O4 Cd1 O1 155.58(7) 1_444 .
O3 Cd1 O1 89.95(6) 2_755 .
O4 Cd1 O5 89.70(8) 1_444 .
O3 Cd1 O5 91.38(8) 2_755 .
O1 Cd1 O5 93.60(8) . .
O4 Cd1 O2 99.87(6) 1_444 .
O3 Cd1 O2 145.18(6) 2_755 .
O1 Cd1 O2 55.73(6) . .
O5 Cd1 O2 96.06(7) . .
O4 Cd1 N3 83.87(7) 1_444 1_544
O3 Cd1 N3 82.59(6) 2_755 1_544
O1 Cd1 N3 96.21(7) . 1_544
O5 Cd1 N3 168.46(7) . 1_544
O2 Cd1 N3 94.48(7) . 1_544
N2 N1 C9 108.66(15) . .
N2 N1 C10 122.05(17) . .
C9 N1 C10 129.21(17) . .
N3 N2 N1 105.75(16) . .
N2 N3 N4 112.00(16) . .
N2 N3 Cd1 128.44(13) . 1_566
N4 N3 Cd1 118.89(13) . 1_566
C9 N4 N3 104.96(16) . .
C1 O1 Cd1 92.49(12) . .
C1 O2 Cd1 89.43(12) . .
C8 O3 Cd1 143.38(15) . 2_755
C8 O4 Cd1 124.34(14) . 1_666
Cd1 O5 H5A 116.9 . .
Cd1 O5 H5B 120.6 . .
H5A O5 H5B 110.1 . .
C9 S1 C6 99.07(8) . .
loop_
_geom_bond_atom_site_label_1
_geom_bond_atom_site_label_2
_geom_bond_distance
_geom_bond_site_symmetry_2
C1 O2 1.244(2) .
C1 O1 1.249(3) .
C1 C2 1.506(2) .
C2 C3 1.387(2) .
C2 C7 1.401(2) .
C3 C4 1.398(2) .
C3 H3 0.9300 .
C4 C5 1.392(2) .
C4 C8 1.505(2) .
C5 C6 1.392(2) .
C5 H5 0.9300 .
C6 C7 1.390(2) .
C6 S1 1.7830(18) .
C7 H7 0.9300 .
C8 O3 1.250(2) .
C8 O4 1.256(2) .
C9 N4 1.321(2) .
C9 N1 1.342(2) .
C9 S1 1.7381(18) .
C10 N1 1.459(3) .
C10 H10A 0.9600 .
C10 H10B 0.9600 .
C10 H10C 0.9600 .
Cd1 O4 2.1756(15) 1_444
Cd1 O3 2.2363(15) 2_755
Cd1 O1 2.2998(17) .
Cd1 O5 2.3198(17) .
Cd1 O2 2.3687(16) .
Cd1 N3 2.4167(17) 1_544
N1 N2 1.342(2) .
N2 N3 1.291(3) .
N3 N4 1.354(2) .
N3 Cd1 2.4167(17) 1_566
O3 Cd1 2.2363(15) 2_755
O4 Cd1 2.1756(15) 1_666
O5 H5A 0.8258 .
O5 H5B 0.8139 .
loop_
_geom_torsion_atom_site_label_1
_geom_torsion_atom_site_label_2
_geom_torsion_atom_site_label_3
_geom_torsion_atom_site_label_4
_geom_torsion
_geom_torsion_site_symmetry_1
_geom_torsion_site_symmetry_2
_geom_torsion_site_symmetry_3
_geom_torsion_site_symmetry_4
O2 C1 C2 C3 168.48(18) . . . .
O1 C1 C2 C3 -12.8(3) . . . .
O2 C1 C2 C7 -12.7(3) . . . .
O1 C1 C2 C7 166.0(2) . . . .
C7 C2 C3 C4 -0.8(2) . . . .
C1 C2 C3 C4 178.00(15) . . . .
C2 C3 C4 C5 -1.5(2) . . . .
C2 C3 C4 C8 -179.62(15) . . . .
C3 C4 C5 C6 3.2(3) . . . .
C8 C4 C5 C6 -178.54(15) . . . .
C4 C5 C6 C7 -2.8(3) . . . .
C4 C5 C6 S1 -178.96(13) . . . .
C5 C6 C7 C2 0.6(3) . . . .
S1 C6 C7 C2 176.75(13) . . . .
C3 C2 C7 C6 1.2(2) . . . .
C1 C2 C7 C6 -177.60(16) . . . .
C5 C4 C8 O3 164.08(17) . . . .
C3 C4 C8 O3 -17.7(3) . . . .
C5 C4 C8 O4 -13.0(2) . . . .
C3 C4 C8 O4 165.17(17) . . . .
N4 C9 N1 N2 -0.2(2) . . . .
S1 C9 N1 N2 179.90(14) . . . .
N4 C9 N1 C10 -177.0(2) . . . .
S1 C9 N1 C10 3.1(3) . . . .
C9 N1 N2 N3 0.8(2) . . . .
C10 N1 N2 N3 177.87(19) . . . .
N1 N2 N3 N4 -1.1(2) . . . .
N1 N2 N3 Cd1 -171.52(13) . . . 1_566
N1 C9 N4 N3 -0.4(2) . . . .
S1 C9 N4 N3 179.44(15) . . . .
N2 N3 N4 C9 1.0(2) . . . .
Cd1 N3 N4 C9 172.39(12) 1_566 . . .
O2 C1 O1 Cd1 4.1(2) . . . .
C2 C1 O1 Cd1 -174.59(14) . . . .
O1 C1 O2 Cd1 -3.9(2) . . . .
C2 C1 O2 Cd1 174.70(15) . . . .
O4 C8 O3 Cd1 -81.1(3) . . . 2_755
C4 C8 O3 Cd1 102.1(2) . . . 2_755
O3 C8 O4 Cd1 5.7(3) . . . 1_666
C4 C8 O4 Cd1 -177.48(12) . . . 1_666
N4 C9 S1 C6 -39.59(19) . . . .
N1 C9 S1 C6 140.24(16) . . . .
C7 C6 S1 C9 126.84(15) . . . .
C5 C6 S1 C9 -56.97(15) . . . .
