#------------------------------------------------------------------------------
#$Date: 2021-04-06 12:48:21 +0300 (Tue, 06 Apr 2021) $
#$Revision: 263911 $
#$URL: file:///home/coder/svn-repositories/cod/cif/1/56/15/1561512.cif $
#------------------------------------------------------------------------------
#
# This file is available in the Crystallography Open Database (COD),
# http://www.crystallography.net/
#
# All data on this site have been placed in the public domain by the
# contributors.
#
data_1561512
loop_
_publ_author_name
'Khatun, Mansura'
'Stoyko, Stanislav S.'
'Mar, Arthur'
_publ_section_title
;
 Ternary arsenides ATt3As3 (A=K, Rb; Tt=Ge, Sn) with layered structures
;
_journal_name_full               'Journal of Solid State Chemistry'
_journal_page_first              229
_journal_page_last               235
_journal_paper_doi               10.1016/j.jssc.2016.03.035
_journal_volume                  238
_journal_year                    2016
_chemical_formula_structural     'Rb Sn3 As3'
_chemical_formula_sum            'As3 Rb Sn3'
_chemical_formula_weight         666.30
_chemical_name_common            'rubidium tin arsenide (1/3/3)'
_chemical_name_systematic        'rubidium tin arsenide (1/3/3)'
_space_group_crystal_system      orthorhombic
_space_group_IT_number           62
_space_group_name_Hall           '-P 2ac 2n'
_space_group_name_H-M_alt        'P n m a'
_atom_sites_solution_hydrogens   .
_atom_sites_solution_primary     direct
_atom_sites_solution_secondary   difmap
_audit_creation_method           SHELXL-2013
_cell_angle_alpha                90
_cell_angle_beta                 90
_cell_angle_gamma                90
_cell_formula_units_Z            4
_cell_length_a                   10.3211(11)
_cell_length_b                   4.0917(4)
_cell_length_c                   19.570(2)
_cell_measurement_reflns_used    2943
_cell_measurement_temperature    173(2)
_cell_measurement_theta_max      31.41
_cell_measurement_theta_min      2.87
_cell_volume                     826.46(15)
_computing_cell_refinement       'Bruker SAINT 7.68A (Bruker, 2009)'
_computing_data_collection       'Bruker APEX 2 (Bruker, 2008)'
_computing_data_reduction        'Bruker SAINT 7.68A'
_computing_molecular_graphics    'ATOMS 5.1 (Dowty, 1999)'
_computing_publication_material  'Bruker SHELXTL'
_computing_structure_refinement  'SHELXL-2013 (Sheldrick, 2013)'
_computing_structure_solution    'SHELXS-97 (Sheldrick, 2008)'
_diffrn_ambient_temperature      173(2)
_diffrn_measured_fraction_theta_full 1.000
_diffrn_measured_fraction_theta_max 0.989
_diffrn_measurement_device_type  'Bruker PLATFORM/SMART APEX II CCD'
_diffrn_measurement_method       '\w scans'
_diffrn_radiation_type           MoK\a
_diffrn_radiation_wavelength     0.71073
_diffrn_reflns_av_R_equivalents  0.0616
_diffrn_reflns_av_unetI/netI     0.0364
_diffrn_reflns_Laue_measured_fraction_full 1.000
_diffrn_reflns_Laue_measured_fraction_max 0.989
_diffrn_reflns_limit_h_max       15
_diffrn_reflns_limit_h_min       -15
_diffrn_reflns_limit_k_max       6
_diffrn_reflns_limit_k_min       -6
_diffrn_reflns_limit_l_max       30
_diffrn_reflns_limit_l_min       -30
_diffrn_reflns_number            11165
_diffrn_reflns_point_group_measured_fraction_full 1.000
_diffrn_reflns_point_group_measured_fraction_max 0.989
_diffrn_reflns_theta_full        25.242
_diffrn_reflns_theta_max         33.247
_diffrn_reflns_theta_min         2.081
_diffrn_source                   'fine-focus sealed tube'
_exptl_absorpt_coefficient_mu    26.663
_exptl_absorpt_correction_T_max  0.6353
_exptl_absorpt_correction_T_min  0.1354
_exptl_absorpt_correction_type   numerical
_exptl_absorpt_process_details   'Bruker SHELXTL (Sheldrick, 2013)'
_exptl_crystal_colour            black
_exptl_crystal_density_diffrn    5.355
_exptl_crystal_description       needle
_exptl_crystal_F_000             1144
_exptl_crystal_size_max          0.246
_exptl_crystal_size_mid          0.032
_exptl_crystal_size_min          0.026
_refine_diff_density_max         1.558
_refine_diff_density_min         -1.475
_refine_diff_density_rms         0.333
_refine_ls_extinction_coef       0.00083(10)
_refine_ls_extinction_expression Fc^*^=kFc[1+0.001xFc^2^\l^3^/sin(2\q)]^-1/4^
_refine_ls_extinction_method     SHELXL
_refine_ls_goodness_of_fit_ref   1.017
_refine_ls_hydrogen_treatment    undef
_refine_ls_matrix_type           full
_refine_ls_number_parameters     44
_refine_ls_number_reflns         1757
_refine_ls_number_restraints     0
_refine_ls_restrained_S_all      1.017
_refine_ls_R_factor_all          0.0426
_refine_ls_R_factor_gt           0.0271
_refine_ls_shift/su_max          0.001
_refine_ls_shift/su_mean         0.000
_refine_ls_structure_factor_coef Fsqd
_refine_ls_weighting_details
'w=1/[\s^2^(Fo^2^)+(0.0284P)^2^] where P=(Fo^2^+2Fc^2^)/3'
_refine_ls_weighting_scheme      calc
_refine_ls_wR_factor_gt          0.0547
_refine_ls_wR_factor_ref         0.0603
_reflns_Friedel_coverage         0.000
_reflns_Friedel_fraction_full    .
_reflns_Friedel_fraction_max     .
_reflns_number_gt                1424
_reflns_number_total             1757
_reflns_threshold_expression     'I > 2\s(I)'
_cod_data_source_file            mmc13.cif
_cod_data_source_block           RbSn3As3
_cod_database_code               1561512
_shelx_space_group_comment
;
The symmetry employed for this shelxl refinement is uniquely defined
by the following loop, which should always be used as a source of
symmetry information in preference to the above space-group names.
They are only intended as comments.
;
_shelx_estimated_absorpt_t_min   0.059
_shelx_estimated_absorpt_t_max   0.544
_shelxl_version_number           2013-4
_shelx_res_file
;
TITL RbSn3As3 Pnma lsf final refinement
CELL 0.71073  10.32110   4.09170  19.57010  90.0000  90.0000  90.0000
ZERR    4.00   0.00110   0.00040   0.00210   0.0000   0.0000   0.0000
LATT  1
SYMM 0.5-X, -Y, 0.5+Z
SYMM -X, 0.5+Y, -Z
SYMM 0.5+X, 0.5-Y, 0.5-Z
SFAC AS RB SN
UNIT 12 4 12
TEMP -100
SIZE 0.026 0.032 0.246

L.S. 4
ACTA

WGHT    0.028400
EXTI    0.000826
FVAR       0.04318
RB    2    0.211475    0.250000    0.459832    10.50000    0.01688    0.01598 =
         0.01570    0.00000   -0.00184    0.00000
SN1   3    0.319107    0.250000    0.151558    10.50000    0.00882    0.00936 =
         0.01076    0.00000    0.00078    0.00000
SN2   3    0.398563    0.250000    0.758508    10.50000    0.01051    0.00983 =
         0.01062    0.00000   -0.00097    0.00000
SN3   3    0.523229    0.250000    0.624191    10.50000    0.00930    0.01088 =
         0.01439    0.00000    0.00119    0.00000
AS1   1    0.026851    0.250000    0.623547    10.50000    0.00869    0.00949 =
         0.01025    0.00000   -0.00042    0.00000
AS2   1    0.119278    0.250000    0.071518    10.50000    0.01139    0.00995 =
         0.01110    0.00000   -0.00017    0.00000
AS3   1    0.263692    0.250000    0.281652    10.50000    0.01030    0.01021 =
         0.01066    0.00000   -0.00039    0.00000
HKLF 4

REM  RbSn3As3 Pnma lsf final refinement
REM R1 =  0.0271 for    1424 Fo > 4sig(Fo)  and  0.0426 for all    1757 data
REM     44 parameters refined using      0 restraints

END

WGHT      0.0284      0.0000

REM Highest difference peak  1.558,  deepest hole -1.475,  1-sigma level  0.333
Q1    1   0.3343  0.0922  0.1152  11.00000  0.05    1.56
Q2    1   0.4937  0.2500  0.7724  10.50000  0.05    1.54
Q3    1   0.5239  0.0804  0.6486  11.00000  0.05    1.48
Q4    1   0.3333  0.2500  0.7635  10.50000  0.05    1.44
Q5    1   0.3973  0.1001  0.7787  11.00000  0.05    1.44
Q6    1   0.1167  0.2500  0.0195  10.50000  0.05    1.42
Q7    1   0.1573  0.2500  0.3931  10.50000  0.05    1.41
Q8    1   0.4051  0.2500  0.3540  10.50000  0.05    1.40
Q9    1   0.5210  0.0818  0.5991  11.00000  0.05    1.31
Q10   1   0.3341  0.0764  0.1716  11.00000  0.05    1.30
Q11   1   0.1218  0.0762  0.0914  11.00000  0.05    1.27
Q12   1   0.5081  0.2500  0.6941  10.50000  0.05    1.22
Q13   1   0.0252  0.2500  0.4126  10.50000  0.05    1.20
Q14   1   0.0516  0.2500  0.5698  10.50000  0.05    1.19
Q15   1  -0.1031  0.2500  0.5687  10.50000  0.05    1.19
Q16   1   0.4414  0.2500  0.6705  10.50000  0.05    1.19
Q17   1   0.2120  0.0897  0.4893  11.00000  0.05    1.17
Q18   1   0.2026 -0.2500  0.4984  10.50000  0.05    1.14
Q19   1   0.0330  0.0996  0.6022  11.00000  0.05    1.13
Q20   1   0.2524  0.2500  0.1516  10.50000  0.05    1.11
;
_shelx_res_checksum              10175
_shelx_hkl_file
;
  -1   0 -30    3.34    1.18
   0   0 -30    4.83    1.42
   1  -1 -29    0.18    0.90
   2  -1 -29    1.56    1.12
  -2   0 -29    0.65    0.93
  -1   0 -29   -0.15    0.49
   0   0 -29   -0.28    0.58
   1   0 -29    0.58    0.64
   2   0 -29   -0.43    0.55
   3   0 -29    2.30    1.14
   4   0 -29    4.52    1.30
  -3   1 -29    9.30    1.70
  -2   1 -29    1.00    0.70
  -1   1 -29    0.49    0.69
   0   1 -29   31.08    2.16
   1   1 -29    0.62    0.70
   2   1 -29    2.98    1.09
   2  -2 -28   19.26    2.54
  -3  -1 -28    7.75    1.55
  -2  -1 -28   -0.66    0.71
  -1  -1 -28    4.68    1.30
   0  -1 -28   -0.48    0.47
   1  -1 -28    6.32    1.04
   2  -1 -28    0.05    0.61
   3  -1 -28   13.61    1.41
   4  -1 -28    3.82    0.92
  -4   0 -28    4.97    1.36
  -3   0 -28   10.11    1.75
  -2   0 -28   23.53    1.76
  -1   0 -28    2.26    0.76
   0   0 -28   -0.53    0.54
   1   0 -28    1.94    0.70
   2   0 -28   23.24    1.82
   3   0 -28   10.77    1.24
   4   0 -28    4.96    0.91
   5   0 -28    6.40    1.44
  -4   1 -28    4.02    1.24
  -3   1 -28    8.58    1.18
  -2   1 -28    0.29    0.65
  -1   1 -28    4.33    0.94
   0   1 -28   -0.25    0.59
   1   1 -28    6.89    1.08
   2   1 -28   -0.42    0.58
   3   1 -28   12.02    1.31
  -2   2 -28   22.81    2.52
  -1   2 -28    3.05    1.16
  -3  -2 -27   -0.39    0.76
  -2  -2 -27    3.31    1.18
  -1  -2 -27    0.08    0.88
   0  -2 -27    0.63    0.95
   1  -2 -27    2.06    1.06
   2  -2 -27    6.17    1.10
   3  -2 -27   -0.18    0.62
   4  -2 -27    2.54    1.32
  -5  -1 -27   11.82    1.83
  -4  -1 -27    5.32    1.25
  -3  -1 -27   -0.63    0.64
  -2  -1 -27   12.49    1.85
  -1  -1 -27    1.75    0.93
   0  -1 -27    6.66    1.02
   1  -1 -27    0.63    0.61
   2  -1 -27   12.27    1.35
   3  -1 -27    0.12    0.57
   4  -1 -27    6.03    1.01
   5  -1 -27    9.73    1.26
   6  -1 -27   -0.27    0.82
  -5   0 -27   26.83    2.76
  -4   0 -27    3.38    1.11
  -3   0 -27    0.46    0.76
  -2   0 -27    7.37    1.01
  -1   0 -27    1.99    0.68
   0   0 -27    0.07    0.52
   1   0 -27    1.53    0.68
   2   0 -27    4.07    0.84
   3   0 -27    0.38    0.59
   4   0 -27    2.29    0.76
   5   0 -27   33.48    2.03
   6   0 -27    1.62    0.97
  -5   1 -27   12.55    1.89
  -4   1 -27    7.61    1.07
  -3   1 -27   -0.24    0.56
  -2   1 -27   10.58    1.24
  -1   1 -27    2.08    0.73
   0   1 -27    2.50    0.76
   1   1 -27    1.36    0.68
   2   1 -27    7.95    1.13
   3   1 -27    0.01    0.60
   4   1 -27    6.05    1.49
   5   1 -27    9.09    1.74
  -5   2 -27   21.37    2.59
  -4   2 -27    2.00    0.76
  -3   2 -27   -0.30    0.62
  -2   2 -27    5.10    0.99
  -1   2 -27    1.29    0.71
   0   2 -27    0.57    0.67
   1   2 -27   -0.22    0.99
   2   2 -27    3.91    1.42
   3   2 -27   -0.55    0.94
  -5  -2 -26    0.79    0.97
  -4  -2 -26   -0.37    0.79
  -3  -2 -26   12.77    1.94
  -2  -2 -26    0.34    0.83
  -1  -2 -26    3.20    1.16
   0  -2 -26   16.19    2.20
   1  -2 -26    3.60    0.88
   2  -2 -26    2.80    0.81
   3  -2 -26   12.99    1.39
   4  -2 -26   -0.28    0.58
   5  -2 -26    2.97    0.82
  -6  -1 -26    0.68    0.90
  -5  -1 -26    2.84    1.09
  -4  -1 -26    2.49    1.03
  -3  -1 -26    1.53    0.93
  -2  -1 -26    0.84    0.80
  -1  -1 -26   -0.39    0.47
   0  -1 -26   -0.35    0.53
   1  -1 -26    0.99    0.54
   2  -1 -26    0.20    0.56
   3  -1 -26    1.42    0.61
   4  -1 -26    1.68    0.71
   5  -1 -26    3.88    0.86
   6  -1 -26   -0.73    0.59
   7  -1 -26   -0.22    0.79
  -7   0 -26    0.35    0.84
  -6   0 -26    3.75    1.22
  -5   0 -26    1.84    0.97
  -4   0 -26    0.16    0.75
  -3   0 -26   16.70    2.06
  -2   0 -26    2.02    0.67
  -1   0 -26    3.77    0.81
   0   0 -26   17.96    1.51
   1   0 -26    4.45    0.85
   2   0 -26    1.14    0.59
   3   0 -26   18.64    1.58
   4   0 -26    0.02    0.57
   5   0 -26    3.29    0.80
   6   0 -26    7.12    1.06
   7   0 -26   -0.06    0.90
  -6   1 -26    0.74    0.83
  -5   1 -26    5.77    1.35
  -4   1 -26    2.93    0.77
  -3   1 -26    1.33    0.71
  -2   1 -26    0.22    0.60
  -1   1 -26    0.62    0.63
   0   1 -26    0.03    0.54
   1   1 -26   -0.10    0.53
   2   1 -26    0.32    0.61
   3   1 -26   -0.10    0.52
   4   1 -26    2.32    1.10
   5   1 -26    4.57    1.37
   6   1 -26    1.05    1.00
  -5   2 -26    2.75    0.85
  -4   2 -26    0.44    0.66
  -3   2 -26   14.54    1.43
  -2   2 -26    1.36    0.69
  -1   2 -26    3.22    0.86
   0   2 -26   19.43    1.59
   1   2 -26    2.41    1.15
   2   2 -26    0.77    1.03
   3   2 -26   13.85    2.16
   4   2 -26    0.90    1.08
   5   2 -26    3.66    1.46
  -4  -3 -25   -0.37    0.98
  -3  -3 -25    5.72    1.54
  -2  -3 -25    0.20    0.92
  -1  -3 -25    4.90    1.33
   0  -3 -25   37.58    3.26
   1  -3 -25    4.34    1.32
   2  -3 -25    0.03    0.87
   3  -3 -25    1.48    1.55
   4  -3 -25    1.29    1.34
  -7  -2 -25    9.49    1.67
  -6  -2 -25    0.68    0.70
  -5  -2 -25   -0.21    0.73
  -4  -2 -25    7.60    1.53
  -3  -2 -25    4.84    1.25
  -2  -2 -25    0.25    0.82
  -1  -2 -25    3.13    1.10
   0  -2 -25    1.83    0.95
   1  -2 -25    4.71    0.91
   2  -2 -25    0.15    0.61
   3  -2 -25    5.95    0.96
   4  -2 -25    8.96    1.18
   5  -2 -25    0.08    0.60
   6  -2 -25   -0.27    0.59
  -8  -1 -25    1.49    0.96
  -7  -1 -25    6.87    1.48
  -6  -1 -25    7.89    1.53
  -5  -1 -25   -0.37    0.66
  -4  -1 -25    1.02    0.85
  -3  -1 -25    4.99    1.25
  -2  -1 -25    3.30    1.02
  -1  -1 -25    6.42    0.92
   0  -1 -25   42.50    2.13
   1  -1 -25    5.55    0.91
   2  -1 -25    2.43    0.66
   3  -1 -25    3.81    0.83
   4  -1 -25    0.82    0.57
   5  -1 -25    0.15    0.58
   6  -1 -25    7.88    1.12
   7  -1 -25    7.10    1.07
   8  -1 -25    0.13    0.77
  -8   0 -25    1.06    0.90
  -7   0 -25    9.24    1.62
  -6   0 -25    1.18    0.81
  -5   0 -25    0.87    0.80
  -4   0 -25    8.47    1.52
  -3   0 -25    9.72    1.11
  -2   0 -25    0.30    0.49
  -1   0 -25    6.40    0.94
   0   0 -25    0.28    0.51
   1   0 -25    3.58    0.77
   2   0 -25    0.39    0.53
   3   0 -25   10.23    1.18
   4   0 -25   12.57    1.28
   5   0 -25   -0.63    0.48
   6   0 -25   -0.32    0.53
   7   0 -25    6.88    1.63
   8   0 -25    0.50    0.99
  -7   1 -25    6.46    1.43
  -6   1 -25    4.58    1.25
  -5   1 -25   -0.18    0.59
  -4   1 -25    1.31    0.65
  -3   1 -25    5.27    0.91
  -2   1 -25    1.12    0.65
  -1   1 -25    5.22    0.89
   0   1 -25   40.66    2.84
   1   1 -25    6.36    0.95
   2   1 -25    2.63    0.73
   3   1 -25    5.06    0.90
   4   1 -25    0.50    0.59
   5   1 -25    0.26    0.85
   6   1 -25    4.49    1.38
   7   1 -25   10.01    1.85
  -6   2 -25   -0.40    0.62
  -5   2 -25   -0.44    0.59
  -4   2 -25    8.60    1.18
  -3   2 -25    7.71    1.09
  -2   2 -25    0.07    0.55
  -1   2 -25    3.33    0.84
   0   2 -25   -0.17    0.53
   1   2 -25    3.20    1.28
   2   2 -25   -0.62    0.83
   3   2 -25    5.73    1.56
   4   2 -25    9.27    1.91
   5   2 -25   -0.17    0.97
   6   2 -25   -1.31    0.84
   7   2 -25    9.37    1.77
  -4   3 -25    1.00    0.98
  -3   3 -25    3.76    1.38
  -2   3 -25    2.90    1.34
  -1   3 -25    2.74    1.30
   1   3 -25    1.70    1.23
   2   3 -25    0.81    1.16
  -5  -3 -24   31.00    2.97
  -4  -3 -24    1.18    0.76
  -3  -3 -24    1.85    1.09
  -2  -3 -24    4.38    1.35
  -1  -3 -24    3.68    1.20
   0  -3 -24   -0.76    0.75
   1  -3 -24    4.46    1.32
   2  -3 -24    3.44    1.13
   3  -3 -24   -0.02    0.73
   4  -3 -24    1.51    0.75
   5  -3 -24   32.23    3.59
  -8  -2 -24    2.88    1.15
  -7  -2 -24    1.23    0.72
  -6  -2 -24   -0.40    0.58
  -5  -2 -24   -1.27    0.51
  -4  -2 -24   16.62    2.10
  -3  -2 -24    6.29    1.38
  -2  -2 -24   14.17    1.90
  -1  -2 -24    6.48    1.37
   0  -2 -24   19.64    1.70
   1  -2 -24    6.90    1.08
   2  -2 -24   12.54    1.33
   3  -2 -24    8.29    1.12
   4  -2 -24   16.83    1.53
   5  -2 -24   -0.76    0.49
   6  -2 -24    0.04    0.60
   7  -2 -24    2.91    0.80
  -9  -1 -24    3.97    1.19
  -8  -1 -24    7.83    1.53
  -7  -1 -24    1.94    0.72
  -6  -1 -24   35.66    2.64
  -5  -1 -24   41.94    2.84
  -4  -1 -24    0.61    0.68
  -3  -1 -24    1.50    0.88
  -2  -1 -24    3.89    1.11
  -1  -1 -24    5.21    0.84
   0  -1 -24    0.06    0.49
   1  -1 -24    6.33    0.92
   2  -1 -24    6.47    0.90
   3  -1 -24    0.70    0.59
   4  -1 -24    1.84    0.66
   5  -1 -24   37.98    2.13
   6  -1 -24   31.76    2.11
   7  -1 -24    0.89    0.60
   8  -1 -24   10.32    1.20
   9  -1 -24    7.88    1.50
  -9   0 -24    3.12    1.16
  -8   0 -24    4.39    1.27
  -7   0 -24    0.92    0.84
  -6   0 -24    0.33    0.82
  -5   0 -24   -0.08    0.67
  -4   0 -24   16.84    1.96
  -3   0 -24    9.66    1.08
  -2   0 -24   13.86    1.29
  -1   0 -24    8.58    1.00
   0   0 -24   21.18    1.58
   1   0 -24    9.03    1.02
   2   0 -24   14.42    1.31
   3   0 -24    8.20    1.03
   4   0 -24   17.06    1.44
   5   0 -24   -0.16    0.48
   6   0 -24    0.36    0.56
   7   0 -24    3.48    0.78
   8   0 -24    5.21    1.46
   9   0 -24    1.16    0.92
  -8   1 -24    9.22    1.67
  -7   1 -24    1.51    0.98
  -6   1 -24   26.33    2.62
  -5   1 -24   37.93    1.96
  -4   1 -24    1.61    0.63
  -3   1 -24    0.60    0.56
  -2   1 -24    3.77    0.78
  -1   1 -24    3.69    0.79
   0   1 -24    0.32    0.53
   1   1 -24    4.21    0.77
   2   1 -24    3.67    0.77
   3   1 -24   -0.06    0.48
   4   1 -24    1.66    0.64
   5   1 -24   31.34    3.14
   6   1 -24   29.50    3.03
   7   1 -24    1.62    0.75
   8   1 -24    8.53    1.21
   9   1 -24    7.16    1.63
  -7   2 -24    1.73    1.00
  -6   2 -24    0.79    0.72
  -5   2 -24    0.21    0.64
  -4   2 -24   16.02    1.48
  -3   2 -24    7.26    1.03
  -2   2 -24   12.47    1.31
  -1   2 -24    7.43    1.02
   0   2 -24   15.50    1.43
   1   2 -24    7.86    1.02
   2   2 -24    8.52    1.77
   3   2 -24    3.00    1.33
   4   2 -24   15.27    2.18
   5   2 -24   -0.49    0.63
   6   2 -24    0.00    0.65
   7   2 -24    2.94    0.92
   8   2 -24    3.33    1.35
  -5   3 -24   29.90    2.87
  -4   3 -24    0.78    0.69
  -3   3 -24    0.44    0.68
  -2   3 -24    1.51    1.21
  -1   3 -24    2.97    1.28
   0   3 -24    0.10    0.98
   1   3 -24    5.34    1.49
   2   3 -24    2.49    1.26
   3   3 -24   -1.24    0.94
   4   3 -24   -0.59    0.68
   5   3 -24   26.59    2.13
  -1  -4 -23    4.19    1.36
   0  -4 -23    0.25    0.99
  -5  -3 -23   -0.49    0.62
  -4  -3 -23    8.62    1.18
  -3  -3 -23    0.12    0.63
  -2  -3 -23   13.26    1.92
  -1  -3 -23   47.63    3.24
   0  -3 -23    8.17    1.56
   1  -3 -23   49.88    3.29
   2  -3 -23   12.09    1.51
   3  -3 -23    0.27    0.72
   4  -3 -23    5.37    1.05
   5  -3 -23   -0.22    0.66
   6  -3 -23    1.54    1.21
  -8  -2 -23   16.59    1.52
  -7  -2 -23   -0.33    0.58
  -6  -2 -23    7.79    1.09
  -5  -2 -23   -0.46    0.53
  -4  -2 -23    4.22    0.84
  -3  -2 -23    1.67    0.90
  -2  -2 -23    4.77    1.13
  -1  -2 -23    8.23    1.42
   0  -2 -23    0.44    0.56
   1  -2 -23    6.85    1.08
   2  -2 -23    1.87    0.69
   3  -2 -23    3.04    0.81
   4  -2 -23    3.56    0.84
   5  -2 -23   -0.73    0.48
   6  -2 -23   11.23    1.27
   7  -2 -23    0.65    0.63
   8  -2 -23   17.37    1.60
  -9  -1 -23    4.60    1.23
  -8  -1 -23    0.40    0.74
  -7  -1 -23    5.81    0.89
  -6  -1 -23    2.27    0.71
  -5  -1 -23    0.98    0.83
  -4  -1 -23    9.84    1.55
  -3  -1 -23    0.40    0.67
  -2  -1 -23   15.92    1.32
  -1  -1 -23   74.62    2.81
   0  -1 -23    7.88    0.94
   1  -1 -23   65.87    2.74
   2  -1 -23   16.77    1.40
   3  -1 -23    0.21    0.49
   4  -1 -23    9.40    1.09
   5  -1 -23   -0.34    0.48
   6  -1 -23    1.10    0.62
   7  -1 -23    6.13    0.96
   8  -1 -23    0.16    0.56
   9  -1 -23    4.63    0.75
  10  -1 -23   -0.18    0.63
  -9   0 -23    0.76    0.90
  -8   0 -23   15.66    2.04
  -7   0 -23    0.88    0.82
  -6   0 -23   11.01    1.62
  -5   0 -23    1.08    0.79
  -4   0 -23    3.53    1.02
  -3   0 -23    3.26    0.68
  -2   0 -23    2.89    0.66
  -1   0 -23    8.75    1.04
   0   0 -23    0.11    0.48
   1   0 -23    9.85    1.07
   2   0 -23    4.54    0.77
   3   0 -23    3.66    0.72
   4   0 -23    4.37    0.82
   5   0 -23    0.00    0.48
   6   0 -23   12.72    1.26
   7   0 -23    0.53    0.42
   8   0 -23   19.74    1.66
   9   0 -23   -0.09    0.61
  10   0 -23    1.78    1.04
  -9   1 -23    4.40    1.25
  -8   1 -23   -1.31    0.69
  -7   1 -23    1.58    0.95
  -6   1 -23    1.03    0.88
  -5   1 -23   -0.11    0.52
  -4   1 -23   10.92    1.15
  -3   1 -23    0.47    0.52
  -2   1 -23   13.34    1.23
  -1   1 -23   68.40    2.77
   0   1 -23    6.94    0.96
   1   1 -23   69.26    2.78
   2   1 -23   16.71    1.38
   3   1 -23   -0.06    0.47
   4   1 -23    8.79    1.06
   5   1 -23   -0.36    0.66
   6   1 -23    1.78    0.71
   7   1 -23    2.84    0.81
   8   1 -23    0.05    0.61
   9   1 -23    6.71    1.04
  -7   2 -23    0.25    0.81
  -6   2 -23    8.87    1.17
  -5   2 -23    0.93    0.61
  -4   2 -23    4.69    0.88
  -3   2 -23    2.64    0.75
  -2   2 -23    2.38    0.72
  -1   2 -23    6.59    0.94
   0   2 -23   -0.05    0.49
   1   2 -23    6.42    0.94
   2   2 -23    4.35    1.32
   3   2 -23    2.42    1.18
   4   2 -23    4.31    0.88
   5   2 -23   -1.12    0.57
   6   2 -23    9.42    1.26
   7   2 -23    0.02    0.62
   8   2 -23   17.48    1.68
  -6   3 -23    2.57    0.85
  -5   3 -23    0.47    0.73
  -4   3 -23    6.85    1.06
  -3   3 -23   -0.20    0.60
  -2   3 -23   10.01    1.89
  -1   3 -23   38.79    3.29
   0   3 -23    6.79    1.63
   2   3 -23    6.22    1.63
   3   3 -23   -0.90    0.64
   4   3 -23    5.84    1.11
   5   3 -23   -0.46    0.71
   6   3 -23    0.51    0.80
   2   4 -23    0.63    1.19
  -1  -4 -22    5.13    1.41
   0  -4 -22    5.68    1.48
   1  -4 -22    4.80    1.39
   2  -4 -22    1.76    1.13
   4  -4 -22    5.25    2.19
  -6  -3 -22    2.17    1.12
  -5  -3 -22    6.62    1.04
  -4  -3 -22    2.65    0.83
  -3  -3 -22    5.18    0.96
  -2  -3 -22    0.39    0.85
  -1  -3 -22    2.51    1.02
   0  -3 -22   -0.77    0.68
   1  -3 -22    2.71    1.10
   2  -3 -22    0.52    0.70
   3  -3 -22    3.68    0.94
   4  -3 -22    1.55    0.79
   5  -3 -22    6.92    1.15
   6  -3 -22    3.47    0.88
  -9  -2 -22    0.67    0.98
  -8  -2 -22    0.55    0.64
  -7  -2 -22   16.53    1.46
  -6  -2 -22    1.00    0.64
  -5  -2 -22    2.14    0.70
  -4  -2 -22   11.30    1.18
  -3  -2 -22   31.80    1.86
  -2  -2 -22    4.23    1.15
  -1  -2 -22    9.50    1.49
   0  -2 -22    7.12    1.05
   1  -2 -22    9.62    1.20
   2  -2 -22    4.54    0.86
   3  -2 -22   31.36    1.90
   4  -2 -22   10.66    1.17
   5  -2 -22    1.09    0.61
   6  -2 -22    0.21    0.55
   7  -2 -22   15.13    1.48
   8  -2 -22   -0.31    0.55
   9  -2 -22    0.02    0.78
 -10  -1 -22    4.80    1.27
  -9  -1 -22    5.40    1.28
  -8  -1 -22    0.70    0.55
  -7  -1 -22   -0.63    0.49
  -6  -1 -22    4.23    0.79
  -5  -1 -22    8.22    0.98
  -4  -1 -22    4.16    1.09
  -3  -1 -22    3.89    1.06
  -2  -1 -22    0.85    0.49
  -1  -1 -22    2.33    0.61
   0  -1 -22    0.03    0.41
   1  -1 -22    2.42    0.66
   2  -1 -22    0.99    0.52
   3  -1 -22    4.94    0.78
   4  -1 -22    5.58    0.86
   5  -1 -22    9.55    1.10
   6  -1 -22    2.45    0.71
   7  -1 -22   -0.04    0.53
   8  -1 -22    1.52    0.53
   9  -1 -22    6.86    0.84
  10  -1 -22    4.53    0.92
 -10   0 -22    0.51    0.89
  -9   0 -22   -0.52    0.71
  -8   0 -22    0.38    0.77
  -7   0 -22   17.89    2.06
  -6   0 -22   -0.06    0.66
  -5   0 -22   -0.26    0.61
  -4   0 -22   12.62    1.16
  -3   0 -22   39.86    1.92
  -2   0 -22    3.99    0.72
  -1   0 -22   11.83    1.14
   0   0 -22    9.67    1.05
   1   0 -22   11.67    1.13
   2   0 -22    4.62    0.77
   3   0 -22   40.80    1.96
   4   0 -22   13.67    1.25
   5   0 -22    1.65    0.59
   6   0 -22    1.85    0.49
   7   0 -22   20.98    1.29
   8   0 -22    0.11    0.54
   9   0 -22   -0.11    0.60
  10   0 -22    0.69    0.73
  -9   1 -22    6.13    1.41
  -8   1 -22    2.13    0.95
  -7   1 -22   -0.20    0.59
  -6   1 -22    1.79    0.91
  -5   1 -22    6.71    0.92
  -4   1 -22    4.80    0.82
  -3   1 -22    6.00    0.84
  -2   1 -22   -0.05    0.43
  -1   1 -22    1.34    0.57
   0   1 -22   -0.51    0.41
   1   1 -22    3.19    0.67
   2   1 -22    0.99    0.51
   3   1 -22    6.47    0.87
   4   1 -22    5.22    0.65
   5   1 -22    9.00    0.98
   6   1 -22    2.43    0.73
   7   1 -22    0.15    0.55
   8   1 -22    2.57    0.80
   9   1 -22    6.67    1.10
  10   1 -22    5.71    1.06
  -8   2 -22    0.96    0.96
  -7   2 -22   16.02    1.46
  -6   2 -22    1.19    0.63
  -5   2 -22    1.16    0.65
  -4   2 -22   11.07    1.19
  -3   2 -22   34.43    2.48
  -2   2 -22    1.84    0.63
  -1   2 -22    9.16    1.09
   0   2 -22    7.49    0.94
   1   2 -22    8.98    1.02
   2   2 -22    3.68    1.20
   3   2 -22   34.09    1.96
   4   2 -22   11.83    1.32
   5   2 -22    1.61    0.71
   6   2 -22    0.72    0.69
   7   2 -22   17.23    1.61
   8   2 -22   -1.06    0.59
   9   2 -22    0.22    0.70
  -7   3 -22   -0.24    0.64
  -6   3 -22    2.27    0.79
  -5   3 -22    4.92    0.96
  -4   3 -22    2.26    0.76
  -3   3 -22    4.49    0.89
  -2   3 -22   -0.82    0.53
  -1   3 -22    2.84    1.22
   0   3 -22    0.16    0.93
   1   3 -22    2.03    1.14
   2   3 -22   -1.32    0.56
   3   3 -22    2.88    0.86
   4   3 -22    2.71    0.86
   5   3 -22    6.49    1.13
   6   3 -22    1.82    0.85
   7   3 -22   -0.74    0.70
  -1   4 -22    4.49    1.56
   0   4 -22    5.87    1.61
   1   4 -22    3.61    0.92
   2   4 -22    2.97    0.94
   3   4 -22   16.45    2.21
  -3  -4 -21    7.52    1.67
  -2  -4 -21    0.85    1.04
  -1  -4 -21   12.20    1.89
   0  -4 -21   -0.65    0.76
   1  -4 -21   17.22    2.23
   2  -4 -21   -0.03    0.94
   3  -4 -21    8.63    1.66
   4  -4 -21   20.05    1.92
   5  -4 -21    1.90    1.54
  -7  -3 -21    1.95    1.06
  -6  -3 -21   23.81    2.56
  -5  -3 -21    0.47    0.60
  -4  -3 -21    0.06    0.59
  -3  -3 -21    0.32    0.58
  -2  -3 -21    6.81    1.04
  -1  -3 -21    3.72    1.12
   0  -3 -21    2.37    0.95
   1  -3 -21    4.58    0.99
   2  -3 -21    7.29    1.09
   3  -3 -21    0.28    0.66
   4  -3 -21    1.48    0.74
   5  -3 -21    1.81    0.76
   6  -3 -21   21.48    1.79
   7  -3 -21    1.13    0.70
 -10  -2 -21   14.27    2.00
  -9  -2 -21   17.26    2.12
  -8  -2 -21    0.65    0.65
  -7  -2 -21   -0.14    0.59
  -6  -2 -21    0.97    0.60
  -5  -2 -21    0.84    0.59
  -4  -2 -21   29.01    1.75
  -3  -2 -21   14.86    1.30
  -2  -2 -21   -0.39    0.63
  -1  -2 -21   24.92    1.98
   0  -2 -21   -0.31    0.48
   1  -2 -21   26.19    1.88
   2  -2 -21    0.55    0.55
   3  -2 -21   12.56    1.27
   4  -2 -21   31.98    1.86
   5  -2 -21    0.39    0.51
   6  -2 -21    0.47    0.50
   7  -2 -21    1.36    0.55
   8  -2 -21    1.28    0.66
   9  -2 -21   17.82    1.32
  10  -2 -21   16.84    2.35
 -11  -1 -21    1.21    0.92
 -10  -1 -21    0.31    0.82
  -9  -1 -21    1.62    0.90
  -8  -1 -21    3.94    0.81
  -7  -1 -21    1.71    0.61
  -6  -1 -21   30.37    1.64
  -5  -1 -21    1.02    0.51
  -4  -1 -21    1.20    0.57
  -3  -1 -21   -0.58    0.57
  -2  -1 -21    8.28    0.96
  -1  -1 -21    6.67    0.86
   0  -1 -21    2.92    0.67
   1  -1 -21    5.34    0.81
   2  -1 -21   11.31    1.10
   3  -1 -21    0.60    0.47
   4  -1 -21    1.70    0.57
   5  -1 -21    2.05    0.61
   6  -1 -21   33.58    1.49
   7  -1 -21    0.18    0.42
   8  -1 -21    3.61    0.64
   9  -1 -21    2.77    0.62
  10  -1 -21   -0.38    0.46
 -11   0 -21    1.52    1.00
 -10   0 -21   12.91    1.86
  -9   0 -21   12.82    1.79
  -8   0 -21    0.96    0.83
  -7   0 -21    0.32    0.73
  -6   0 -21    1.28    0.78
  -5   0 -21   -0.31    0.53
  -4   0 -21   39.61    1.84
  -3   0 -21   18.03    1.34
  -2   0 -21    0.87    0.47
  -1   0 -21   32.58    1.64
   0   0 -21   -0.88    0.38
   1   0 -21   33.86    1.66
   2   0 -21    0.77    0.49
   3   0 -21   17.59    1.36
   4   0 -21   35.99    1.82
   5   0 -21    1.98    0.46
   6   0 -21    0.54    0.40
   7   0 -21    1.76    0.50
   8   0 -21    0.81    0.47
   9   0 -21   20.22    1.68
  10   0 -21   14.49    1.46
  11   0 -21    1.39    0.75
 -10   1 -21    1.06    0.96
  -9   1 -21    4.08    1.16
  -8   1 -21    4.47    1.19
  -7   1 -21    1.84    0.87
  -6   1 -21   29.68    1.75
  -5   1 -21    0.44    0.48
  -4   1 -21    0.71    0.50
  -3   1 -21   -0.23    0.43
  -2   1 -21   10.69    1.05
  -1   1 -21    4.46    0.73
   0   1 -21    3.19    0.67
   1   1 -21    4.96    0.79
   2   1 -21   11.36    1.09
   3   1 -21   -0.14    0.34
   4   1 -21    1.59    0.48
   5   1 -21    1.94    0.49
   6   1 -21   31.42    2.03
   7   1 -21    1.03    0.63
   8   1 -21    4.41    0.88
   9   1 -21    1.91    0.78
  10   1 -21    0.38    0.67
  11   1 -21    3.74    1.30
  -9   2 -21   13.96    1.99
  -8   2 -21    0.21    0.85
  -7   2 -21    0.63    0.61
  -6   2 -21    0.69    0.58
  -5   2 -21    0.37    0.58
  -4   2 -21   27.78    1.86
  -3   2 -21   14.83    1.32
  -2   2 -21    0.54    0.51
  -1   2 -21   19.96    1.54
   0   2 -21    0.47    0.47
   1   2 -21   24.76    1.55
   2   2 -21    0.55    0.55
   3   2 -21   13.47    1.30
   4   2 -21   32.12    1.91
   5   2 -21    0.33    0.61
   6   2 -21    0.72    0.71
   7   2 -21    0.55    0.71
   8   2 -21    1.36    0.71
   9   2 -21   18.27    1.70
  10   2 -21   16.37    2.28
  -8   3 -21    0.66    1.15
  -7   3 -21    1.21    0.74
  -6   3 -21   16.73    1.56
  -5   3 -21    1.09    0.63
  -4   3 -21    1.30    0.69
  -3   3 -21    0.41    0.61
  -2   3 -21    5.59    0.92
  -1   3 -21    3.30    1.23
   0   3 -21    2.69    0.77
   1   3 -21    2.77    0.77
   2   3 -21    3.85    0.88
   3   3 -21   -0.03    0.58
   4   3 -21    1.81    0.78
   5   3 -21   -0.13    0.65
   6   3 -21   21.50    1.85
   7   3 -21    1.68    0.80
   8   3 -21    3.31    1.30
  -3   4 -21    5.65    1.53
  -2   4 -21   -0.82    0.92
  -1   4 -21   14.81    2.23
   0   4 -21   -0.50    0.62
   1   4 -21   13.60    1.47
   2   4 -21   -0.49    0.64
   3   4 -21    6.31    1.14
   4   4 -21   19.62    1.87
   5   4 -21    0.08    1.22
  -5  -4 -20    0.02    1.02
  -4  -4 -20   10.65    1.85
  -3  -4 -20    8.70    1.71
  -2  -4 -20   14.69    2.10
  -1  -4 -20    6.20    1.41
   0  -4 -20    3.40    1.21
   1  -4 -20    5.67    1.35
   2  -4 -20   17.25    2.23
   3  -4 -20    7.19    1.17
   4  -4 -20   12.15    1.49
   5  -4 -20    0.99    0.78
  -8  -3 -20   12.21    1.92
  -7  -3 -20    0.14    0.97
  -6  -3 -20    0.72    0.97
  -5  -3 -20   10.00    1.15
  -4  -3 -20    1.04    0.61
  -3  -3 -20   -0.04    0.57
  -2  -3 -20   34.24    1.84
  -1  -3 -20    0.13    0.78
   0  -3 -20   -0.32    0.69
   1  -3 -20    0.32    0.62
   2  -3 -20   38.97    2.17
   3  -3 -20   -0.39    0.57
   4  -3 -20    3.85    0.87
   5  -3 -20   10.36    1.23
   6  -3 -20    1.95    0.75
   7  -3 -20    0.67    0.63
   8  -3 -20   11.22    1.32
 -10  -2 -20    5.21    1.37
  -9  -2 -20    8.34    1.55
  -8  -2 -20   27.81    1.83
  -7  -2 -20    0.74    0.62
  -6  -2 -20    0.32    0.54
  -5  -2 -20    3.03    0.68
  -4  -2 -20   19.01    1.47
  -3  -2 -20    9.82    1.06
  -2  -2 -20   29.64    1.73
  -1  -2 -20    9.47    1.24
   0  -2 -20   11.26    1.26
   1  -2 -20   10.71    1.22
   2  -2 -20   32.36    1.84
   3  -2 -20   10.57    1.13
   4  -2 -20   21.32    1.58
   5  -2 -20    1.62    0.62
   6  -2 -20   -0.66    0.41
   7  -2 -20    0.98    0.50
   8  -2 -20   28.27    1.62
   9  -2 -20    5.01    0.78
  10  -2 -20    4.31    0.76
 -11  -1 -20   10.60    1.68
 -10  -1 -20    2.23    0.93
  -9  -1 -20    0.12    0.52
  -8  -1 -20   17.77    1.39
  -7  -1 -20    2.12    0.62
  -6  -1 -20    1.49    0.57
  -5  -1 -20   14.54    1.21
  -4  -1 -20    3.88    0.71
  -3  -1 -20    0.55    0.48
  -2  -1 -20   47.73    2.07
  -1  -1 -20    0.99    0.53
   0  -1 -20    0.34    0.44
   1  -1 -20    1.93    0.54
   2  -1 -20   48.16    2.10
   3  -1 -20    0.33    0.44
   4  -1 -20    4.10    0.73
   5  -1 -20   14.42    1.01
   6  -1 -20    2.41    0.51
   7  -1 -20    1.67    0.51
   8  -1 -20   17.34    1.19
   9  -1 -20    0.39    0.45
  10  -1 -20    1.04    0.55
  11  -1 -20   12.90    1.42
 -11   0 -20    9.67    1.65
 -10   0 -20    5.50    1.29
  -9   0 -20    4.57    1.16
  -8   0 -20   30.53    2.41
  -7   0 -20    0.84    0.69
  -6   0 -20   -0.51    0.43
  -5   0 -20    4.22    0.99
  -4   0 -20   22.14    1.39
  -3   0 -20   12.81    1.11
  -2   0 -20   34.80    1.68
  -1   0 -20   13.38    1.15
   0   0 -20   10.97    1.07
   1   0 -20   13.06    1.14
   2   0 -20   36.51    1.72
   3   0 -20   11.39    1.07
   4   0 -20   24.02    1.26
   5   0 -20    1.91    0.47
   6   0 -20   -0.14    0.34
   7   0 -20    1.08    0.43
   8   0 -20   33.44    1.51
   9   0 -20    5.44    0.95
  10   0 -20    5.71    0.98
  11   0 -20   11.47    1.36
 -11   1 -20   11.00    1.79
 -10   1 -20    2.50    1.05
  -9   1 -20    0.95    0.83
  -8   1 -20   12.91    1.86
  -7   1 -20    1.30    0.81
  -6   1 -20    2.04    0.61
  -5   1 -20   14.00    1.20
  -4   1 -20    2.16    0.60
  -3   1 -20    0.07    0.45
  -2   1 -20   45.96    2.07
  -1   1 -20    1.64    0.54
   0   1 -20   -0.22    0.35
   1   1 -20    1.60    0.54
   2   1 -20   48.74    1.65
   3   1 -20    0.19    0.35
   4   1 -20    3.78    0.57
   5   1 -20   13.67    0.95
   6   1 -20    2.39    0.63
   7   1 -20    2.46    0.70
   8   1 -20   20.40    1.64
   9   1 -20    0.62    0.66
  10   1 -20    2.57    0.80
  11   1 -20   12.05    1.42
 -10   2 -20    2.92    1.18
  -9   2 -20    3.42    1.18
  -8   2 -20   19.37    2.32
  -7   2 -20   -0.05    0.52
  -6   2 -20   -0.15    0.51
  -5   2 -20    2.18    0.64
  -4   2 -20   16.36    1.39
  -3   2 -20    8.84    1.01
  -2   2 -20   26.62    1.65
  -1   2 -20    8.44    0.98
   0   2 -20    9.48    1.00
   1   2 -20    8.09    0.75
   2   2 -20   27.71    1.30
   3   2 -20    9.61    1.00
   4   2 -20   19.50    1.55
   5   2 -20    1.66    0.71
   6   2 -20    0.16    0.61
   7   2 -20    0.65    0.68
   8   2 -20   28.16    2.03
   9   2 -20    6.04    1.07
  10   2 -20    4.33    0.98
  -8   3 -20   11.50    1.31
  -7   3 -20   -0.39    0.61
  -6   3 -20    1.25    0.69
  -5   3 -20    9.04    1.14
  -4   3 -20    1.49    0.68
  -3   3 -20   -0.37    0.55
  -2   3 -20   31.28    2.39
  -1   3 -20    0.54    0.59
   0   3 -20    0.53    0.56
   1   3 -20    0.14    0.57
   2   3 -20   30.21    1.89
   3   3 -20    0.35    0.61
   4   3 -20    1.41    0.74
   5   3 -20    9.51    1.26
   6   3 -20    1.12    0.74
   7   3 -20    1.59    0.81
   8   3 -20   14.73    1.58
  -6   4 -20    0.31    0.93
  -5   4 -20    0.41    1.04
  -3   4 -20    3.95    1.33
  -1   4 -20    3.72    0.88
   0   4 -20    3.24    0.87
   1   4 -20    3.91    0.89
   2   4 -20   15.70    1.55
   3   4 -20    3.25    0.95
   4   4 -20   11.13    1.40
   5   4 -20    1.31    0.87
   6   4 -20    0.31    1.14
  -5  -4 -19    3.76    1.35
  -4  -4 -19    4.92    1.32
  -3  -4 -19    0.93    0.95
  -2  -4 -19    0.29    0.96
  -1  -4 -19   -0.29    0.58
   0  -4 -19   -0.47    0.69
   1  -4 -19   -0.77    0.74
   2  -4 -19    0.51    0.85
   3  -4 -19    1.07    0.72
   4  -4 -19    8.51    1.23
   5  -4 -19    7.93    1.21
   6  -4 -19   10.81    1.40
  -9  -3 -19    4.32    1.35
  -8  -3 -19    9.58    1.73
  -7  -3 -19   21.60    2.41
  -6  -3 -19   32.82    2.52
  -5  -3 -19    2.12    0.72
  -4  -3 -19   22.94    1.66
  -3  -3 -19    6.76    0.96
  -2  -3 -19    1.95    0.67
  -1  -3 -19    2.00    0.64
   0  -3 -19   10.08    1.56
   1  -3 -19    4.91    0.89
   2  -3 -19    2.28    0.71
   3  -3 -19   10.27    1.22
   4  -3 -19   21.63    1.72
   5  -3 -19    2.78    0.73
   6  -3 -19   28.72    2.02
   7  -3 -19   24.93    1.88
   8  -3 -19   10.30    1.02
   9  -3 -19    2.80    1.48
 -11  -2 -19    0.51    1.03
 -10  -2 -19   23.21    2.39
  -9  -2 -19    3.89    1.24
  -8  -2 -19    1.05    0.60
  -7  -2 -19    3.57    0.76
  -6  -2 -19   23.95    1.60
  -5  -2 -19   11.27    1.12
  -4  -2 -19    7.92    0.93
  -3  -2 -19    2.06    0.57
  -2  -2 -19    0.62    0.48
  -1  -2 -19   -0.16    0.56
   0  -2 -19   -0.97    0.38
   1  -2 -19    0.49    0.53
   2  -2 -19   -0.30    0.45
   3  -2 -19    1.50    0.56
   4  -2 -19    7.27    0.94
   5  -2 -19   12.70    1.22
   6  -2 -19   23.91    1.38
   7  -2 -19    2.60    0.58
   8  -2 -19    0.19    0.46
   9  -2 -19    4.85    0.78
  10  -2 -19   22.78    1.50
 -11  -1 -19    4.83    1.23
 -10  -1 -19    1.43    0.81
  -9  -1 -19    2.53    0.68
  -8  -1 -19   15.31    1.27
  -7  -1 -19   36.61    1.72
  -6  -1 -19   43.96    1.93
  -5  -1 -19    3.90    0.67
  -4  -1 -19   30.71    1.57
  -3  -1 -19   11.33    0.86
  -2  -1 -19    2.50    0.60
  -1  -1 -19    4.23    0.71
   0  -1 -19   12.70    1.13
   1  -1 -19    5.19    0.75
   2  -1 -19    2.77    0.62
   3  -1 -19    9.01    1.02
   4  -1 -19   33.12    1.65
   5  -1 -19    2.90    0.50
   6  -1 -19   42.21    1.98
   7  -1 -19   35.15    1.53
   8  -1 -19   16.96    1.15
   9  -1 -19    3.83    0.66
  10  -1 -19    1.28    0.54
  11  -1 -19    4.68    0.78
 -12   0 -19   -0.43    0.91
 -11   0 -19   -0.05    0.77
 -10   0 -19   28.25    2.64
  -9   0 -19    5.38    1.23
  -8   0 -19    0.18    0.66
  -7   0 -19    2.42    0.85
  -6   0 -19   29.01    1.48
  -5   0 -19   16.06    0.96
  -4   0 -19    8.72    0.93
  -3   0 -19    1.24    0.50
  -2   0 -19    0.84    0.46
  -1   0 -19   -0.20    0.39
   0   0 -19    0.47    0.41
   1   0 -19   -0.04    0.36
   2   0 -19    1.06    0.42
   3   0 -19    1.93    0.44
   4   0 -19    9.95    0.78
   5   0 -19   13.65    0.94
   6   0 -19   27.24    1.32
   7   0 -19    3.01    0.54
   8   0 -19    0.26    0.40
   9   0 -19    6.57    1.00
  10   0 -19   25.51    1.89
  11   0 -19    0.82    0.72
  12   0 -19    0.45    0.86
 -11   1 -19    7.06    1.45
 -10   1 -19    2.17    0.97
  -9   1 -19    3.15    1.05
  -8   1 -19   14.18    1.82
  -7   1 -19   35.81    2.54
  -6   1 -19   41.18    1.91
  -5   1 -19    3.74    0.70
  -4   1 -19   30.76    1.62
  -3   1 -19   11.34    1.04
  -2   1 -19    2.83    0.64
  -1   1 -19    5.59    0.78
   0   1 -19   13.59    1.13
   1   1 -19    4.41    0.56
   2   1 -19    2.91    0.48
   3   1 -19   10.83    0.82
   4   1 -19   33.82    1.32
   5   1 -19    4.73    0.62
   6   1 -19   43.81    2.09
   7   1 -19   32.72    1.85
   8   1 -19   15.51    1.42
   9   1 -19    4.76    0.94
  10   1 -19    1.04    0.70
  11   1 -19    4.21    0.97
 -10   2 -19   21.81    2.51
  -9   2 -19    4.18    1.22
  -8   2 -19   -0.03    0.53
  -7   2 -19    1.60    0.65
  -6   2 -19   21.04    1.59
  -5   2 -19    9.84    1.06
  -4   2 -19    7.34    0.95
  -3   2 -19    1.84    0.60
  -2   2 -19    0.33    0.48
  -1   2 -19    0.30    0.45
   0   2 -19   -0.03    0.32
   1   2 -19    0.18    0.34
   2   2 -19    0.28    0.37
   3   2 -19    1.01    0.56
   4   2 -19    7.69    1.00
   5   2 -19    8.72    1.12
   6   2 -19   23.08    1.76
   7   2 -19    4.29    0.88
   8   2 -19    1.03    0.73
   9   2 -19    7.76    1.11
  10   2 -19   32.04    3.32
  -9   3 -19    2.45    0.81
  -8   3 -19   11.87    1.83
  -7   3 -19   20.88    2.39
  -5   3 -19    1.51    0.67
  -4   3 -19   17.73    2.04
  -3   3 -19    5.33    0.87
  -2   3 -19    2.71    0.52
  -1   3 -19    2.01    0.63
   0   3 -19    8.80    0.97
   1   3 -19    3.07    0.74
   2   3 -19    1.86    0.66
   3   3 -19    8.80    1.10
   4   3 -19   24.72    1.80
   5   3 -19    3.22    0.87
   6   3 -19   28.43    2.10
   7   3 -19   22.69    1.90
   8   3 -19   14.00    1.48
  -7   4 -19    1.56    0.98
  -6   4 -19   11.19    1.32
  -5   4 -19    4.77    1.43
  -4   4 -19    3.84    1.28
  -3   4 -19    1.21    1.07
  -2   4 -19   -0.45    0.56
  -1   4 -19   -0.37    0.60
   0   4 -19   -0.07    0.59
   1   4 -19    0.52    0.64
   2   4 -19    0.42    0.66
   3   4 -19    0.09    0.66
   4   4 -19    5.49    1.11
   5   4 -19    7.73    1.18
   6   4 -19   11.07    1.42
  -1  -5 -18   12.85    2.05
  -6  -4 -18   -0.26    0.93
  -5  -4 -18    3.01    1.19
  -4  -4 -18    9.30    1.69
  -3  -4 -18    3.46    1.19
  -2  -4 -18    0.96    1.00
  -1  -4 -18    0.47    0.62
   0  -4 -18    0.13    0.73
   1  -4 -18    0.86    0.86
   2  -4 -18    0.16    0.77
   3  -4 -18    6.00    0.98
   4  -4 -18   11.46    1.33
   5  -4 -18    3.37    0.87
   6  -4 -18   -0.59    0.61
   7  -4 -18    5.80    1.67
  -9  -3 -18   -0.31    0.87
  -8  -3 -18    0.22    0.85
  -7  -3 -18    1.80    1.02
  -6  -3 -18    0.37    0.86
  -5  -3 -18    0.23    0.54
  -4  -3 -18    1.15    0.60
  -3  -3 -18   40.31    1.97
  -2  -3 -18    1.55    0.60
  -1  -3 -18   18.58    1.44
   0  -3 -18    0.38    0.51
   1  -3 -18   19.36    1.51
   2  -3 -18    1.41    0.61
   3  -3 -18   42.04    2.09
   4  -3 -18    1.28    0.57
   5  -3 -18    0.37    0.51
   6  -3 -18    1.34    0.63
   7  -3 -18    1.99    0.59
   8  -3 -18    0.53    0.51
   9  -3 -18    2.00    0.67
  10  -3 -18   -0.68    1.30
 -11  -2 -18   -0.01    0.90
 -10  -2 -18    5.43    1.38
  -9  -2 -18    4.60    1.21
  -8  -2 -18    0.92    0.59
  -7  -2 -18   10.99    1.10
  -6  -2 -18   -0.44    0.44
  -5  -2 -18    2.99    0.66
  -4  -2 -18   15.24    1.26
  -3  -2 -18    7.36    0.89
  -2  -2 -18    2.65    0.61
  -1  -2 -18    0.55    0.43
   0  -2 -18    0.26    0.53
   1  -2 -18   -0.22    0.49
   2  -2 -18    1.83    0.60
   3  -2 -18    7.85    0.97
   4  -2 -18   17.60    1.37
   5  -2 -18    1.83    0.48
   6  -2 -18   -0.27    0.35
   7  -2 -18    8.90    0.90
   8  -2 -18    1.49    0.54
   9  -2 -18    4.28    0.74
  10  -2 -18    5.23    0.79
  11  -2 -18    0.20    0.64
 -11  -1 -18    6.27    1.30
 -10  -1 -18    0.30    0.79
  -9  -1 -18    2.75    0.69
  -8  -1 -18    0.64    0.47
  -7  -1 -18    4.31    0.69
  -6  -1 -18    1.73    0.54
  -5  -1 -18    1.15    0.52
  -4  -1 -18    4.68    0.70
  -3  -1 -18   66.24    2.03
  -2  -1 -18    1.86    0.44
  -1  -1 -18   29.01    1.46
   0  -1 -18   -0.72    0.33
   1  -1 -18   29.57    1.49
   2  -1 -18    2.49    0.57
   3  -1 -18   67.03    2.03
   4  -1 -18    4.38    0.59
   5  -1 -18    0.61    0.38
   6  -1 -18    0.47    0.41
   7  -1 -18    3.46    0.57
   8  -1 -18    0.05    0.36
   9  -1 -18    2.59    0.57
  10  -1 -18    1.15    0.52
  11  -1 -18    7.56    0.90
  12  -1 -18    6.70    1.11
 -12   0 -18   -1.00    0.74
 -11   0 -18    0.87    0.88
 -10   0 -18    5.05    1.20
  -9   0 -18    5.77    1.21
  -8   0 -18    0.87    0.72
  -7   0 -18   11.04    1.01
  -6   0 -18   -0.05    0.37
  -5   0 -18    4.94    0.56
  -4   0 -18   20.37    1.28
  -3   0 -18    9.57    0.93
  -2   0 -18    2.83    0.59
  -1   0 -18    0.62    0.41
   0   0 -18    0.47    0.45
   1   0 -18   -0.20    0.34
   2   0 -18    3.52    0.47
   3   0 -18   10.31    0.75
   4   0 -18   22.08    1.11
   5   0 -18    3.47    0.51
   6   0 -18    0.60    0.36
   7   0 -18   10.78    0.87
   8   0 -18    1.07    0.43
   9   0 -18    7.70    1.07
  10   0 -18    8.54    1.12
  11   0 -18    0.31    0.61
  12   0 -18    0.71    0.68
 -12   1 -18    5.11    1.37
 -11   1 -18    6.52    1.44
 -10   1 -18    1.61    0.87
  -9   1 -18    1.76    0.83
  -8   1 -18    0.59    0.70
  -7   1 -18    3.78    0.99
  -6   1 -18    1.96    0.56
  -5   1 -18    1.08    0.50
  -4   1 -18    4.25    0.70
  -3   1 -18   68.66    2.52
  -2   1 -18    2.09    0.55
  -1   1 -18   25.11    1.39
   0   1 -18    0.10    0.30
   1   1 -18   26.63    1.11
   2   1 -18    2.05    0.43
   3   1 -18   61.53    1.97
   4   1 -18    3.84    0.54
   5   1 -18    1.33    0.43
   6   1 -18    0.95    0.59
   7   1 -18    4.57    0.84
   8   1 -18    0.47    0.54
   9   1 -18    3.34    0.82
  10   1 -18    1.02    0.68
  11   1 -18    8.90    1.19
 -11   2 -18    0.09    0.83
 -10   2 -18    3.29    1.15
  -9   2 -18    3.96    1.17
  -8   2 -18    0.77    0.58
  -7   2 -18    8.12    1.00
  -6   2 -18    0.31    0.51
  -5   2 -18    1.52    0.58
  -4   2 -18   16.14    1.31
  -3   2 -18    7.66    0.89
  -2   2 -18    2.16    0.60
  -1   2 -18    0.00    0.30
   0   2 -18    0.07    0.33
   1   2 -18    0.15    0.33
   2   2 -18    2.13    0.45
   3   2 -18    7.37    0.94
   4   2 -18   18.11    1.47
   5   2 -18    4.42    0.84
   6   2 -18   -0.38    0.52
   7   2 -18    8.74    1.14
   8   2 -18    0.72    0.63
   9   2 -18    8.92    1.17
  10   2 -18    3.93    1.44
  11   2 -18    1.58    1.17
  -9   3 -18    1.04    0.67
  -8   3 -18    0.05    0.59
  -7   3 -18    3.31    0.78
  -6   3 -18    1.16    0.62
  -5   3 -18    1.52    0.63
  -4   3 -18    1.55    0.62
  -3   3 -18   43.32    1.87
  -2   3 -18    1.53    0.47
  -1   3 -18   18.75    1.12
   0   3 -18   -0.30    0.44
   1   3 -18   18.09    1.41
   2   3 -18    1.97    0.64
   3   3 -18   42.97    2.11
   4   3 -18    1.37    0.69
   5   3 -18    0.89    0.66
   6   3 -18    0.65    0.68
   7   3 -18    2.20    0.79
   8   3 -18    0.43    0.72
   9   3 -18    1.26    1.22
  -7   4 -18    5.17    0.99
  -6   4 -18    0.32    0.65
  -5   4 -18    1.66    0.75
  -4   4 -18   11.35    1.19
  -3   4 -18    1.56    0.67
  -2   4 -18    1.41    0.63
  -1   4 -18   -0.23    0.54
   0   4 -18    0.82    0.63
   1   4 -18    1.15    0.67
   2   4 -18    0.58    0.69
   3   4 -18    3.16    0.86
   4   4 -18    7.03    1.11
   5   4 -18    0.23    0.71
   6   4 -18   -1.40    0.64
  -2  -5 -17   -0.38    1.07
  -1  -5 -17    0.19    0.99
   3  -5 -17    5.46    1.39
  -7  -4 -17    1.53    1.06
  -6  -4 -17   16.79    2.17
  -5  -4 -17   20.49    2.30
  -4  -4 -17    1.97    1.00
  -3  -4 -17    2.32    1.08
  -2  -4 -17    4.68    1.26
  -1  -4 -17    0.25    0.54
   0  -4 -17    0.22    0.52
   1  -4 -17   -0.20    0.73
   2  -4 -17   10.28    1.15
   3  -4 -17    2.59    0.76
   4  -4 -17    0.74    0.60
   5  -4 -17   19.22    1.65
   6  -4 -17   15.27    1.49
   7  -4 -17    0.79    0.66
   8  -4 -17    6.97    1.56
 -10  -3 -17    1.55    1.04
  -9  -3 -17    0.42    0.87
  -8  -3 -17    0.47    0.86
  -7  -3 -17   19.66    2.17
  -6  -3 -17    1.42    0.83
  -5  -3 -17    4.10    0.79
  -4  -3 -17   28.57    1.55
  -3  -3 -17    4.88    0.81
  -2  -3 -17    1.48    0.58
  -1  -3 -17   -0.45    0.45
   0  -3 -17   71.60    2.24
   1  -3 -17   -0.06    0.43
   2  -3 -17    1.27    0.55
   3  -3 -17    6.33    0.89
   4  -3 -17   31.14    1.97
   5  -3 -17    3.75    0.77
   6  -3 -17    0.32    0.39
   7  -3 -17   23.10    1.41
   8  -3 -17    0.20    0.51
   9  -3 -17    1.08    0.58
  10  -3 -17    0.84    1.54
 -12  -2 -17    1.08    0.92
 -11  -2 -17    1.09    0.89
 -10  -2 -17    2.64    1.05
  -9  -2 -17    4.46    1.23
  -8  -2 -17   15.23    1.27
  -7  -2 -17    1.19    0.54
  -6  -2 -17   30.67    1.58
  -5  -2 -17   30.60    1.59
  -4  -2 -17    0.94    0.49
  -3  -2 -17    4.12    0.70
  -2  -2 -17   16.81    1.05
  -1  -2 -17   -0.17    0.35
   0  -2 -17    0.01    0.46
   1  -2 -17    0.82    0.50
   2  -2 -17   16.72    1.33
   3  -2 -17    4.56    0.74
   4  -2 -17    1.13    0.39
   5  -2 -17   33.07    1.37
   6  -2 -17   31.46    1.38
   7  -2 -17    0.37    0.42
   8  -2 -17   15.87    1.21
   9  -2 -17    5.63    0.78
  10  -2 -17    3.95    0.71
  11  -2 -17    0.88    0.71
 -11  -1 -17    5.33    1.24
 -10  -1 -17    1.68    0.63
  -9  -1 -17    1.11    0.57
  -8  -1 -17    0.64    0.48
  -7  -1 -17   27.28    1.45
  -6  -1 -17   -0.57    0.36
  -5  -1 -17    4.70    0.69
  -4  -1 -17   47.17    1.90
  -3  -1 -17    8.51    0.72
  -2  -1 -17    3.52    0.49
  -1  -1 -17    0.34    0.42
   0  -1 -17  110.72    3.65
   1  -1 -17    1.07    0.49
   2  -1 -17    2.45    0.41
   3  -1 -17    8.52    0.72
   4  -1 -17   44.97    1.95
   5  -1 -17    5.00    0.61
   6  -1 -17   -0.40    0.31
   7  -1 -17   30.61    1.37
   8  -1 -17   -0.15    0.36
   9  -1 -17    0.58    0.41
  10  -1 -17    2.28    0.57
  11  -1 -17    6.93    1.06
  12  -1 -17    1.00    0.70
 -13   0 -17    1.14    0.95
 -12   0 -17   -0.25    0.71
 -11   0 -17    2.98    1.05
 -10   0 -17    3.28    0.96
  -9   0 -17    5.29    1.16
  -8   0 -17   15.93    1.82
  -7   0 -17    0.33    0.44
  -6   0 -17   40.72    1.73
  -5   0 -17   41.68    1.39
  -4   0 -17    1.45    0.37
  -3   0 -17    5.90    0.73
  -2   0 -17   21.08    1.19
  -1   0 -17   -0.02    0.36
   0   0 -17    0.06    0.39
   1   0 -17    0.74    0.32
   2   0 -17   20.83    0.98
   3   0 -17    5.09    0.56
   4   0 -17    1.77    0.42
   5   0 -17   39.49    1.44
   6   0 -17   38.98    1.45
   7   0 -17   -0.09    0.34
   8   0 -17   17.83    1.10
   9   0 -17    6.77    0.97
  10   0 -17    2.05    0.70
  11   0 -17    1.96    0.74
  12   0 -17    0.29    0.66
 -12   1 -17   -0.21    0.91
 -11   1 -17    3.41    1.10
 -10   1 -17    3.91    1.10
  -9   1 -17    0.35    0.74
  -8   1 -17   -0.04    0.67
  -7   1 -17   27.11    1.55
  -6   1 -17    0.29    0.41
  -5   1 -17    3.60    0.66
  -4   1 -17   47.15    1.95
  -3   1 -17    7.37    0.84
  -2   1 -17    3.56    0.64
  -1   1 -17    0.65    0.31
   0   1 -17  111.10    2.88
   1   1 -17    0.19    0.32
   2   1 -17    2.14    0.42
   3   1 -17    9.55    0.73
   4   1 -17   44.11    1.54
   5   1 -17    5.16    0.60
   6   1 -17   -0.11    0.47
   7   1 -17   29.19    1.75
   8   1 -17    0.00    0.49
   9   1 -17    0.76    0.60
  10   1 -17    2.56    0.78
  11   1 -17    4.85    0.95
  12   1 -17    0.07    1.04
 -11   2 -17    0.34    0.84
 -10   2 -17    5.50    1.31
  -9   2 -17    4.60    1.20
  -8   2 -17   14.37    1.28
  -7   2 -17    0.32    0.52
  -6   2 -17   29.28    1.66
  -5   2 -17   32.32    1.67
  -4   2 -17    0.13    0.44
  -3   2 -17    4.76    0.74
  -2   2 -17   15.75    0.94
  -1   2 -17   -0.35    0.29
   0   2 -17    0.25    0.32
   1   2 -17    0.04    0.33
   2   2 -17   15.58    0.96
   3   2 -17    4.56    0.77
   4   2 -17    1.18    0.60
   5   2 -17   31.26    1.77
   6   2 -17   31.27    1.86
   7   2 -17    0.69    0.58
   8   2 -17   14.02    1.38
   9   2 -17    4.75    0.94
  10   2 -17    3.91    1.35
  11   2 -17    1.40    1.16
 -10   3 -17    0.51    0.97
  -9   3 -17    0.97    0.67
  -8   3 -17    0.13    0.58
  -7   3 -17   15.08    1.38
  -6   3 -17   -0.23    0.51
  -5   3 -17    4.02    0.78
  -4   3 -17   24.63    1.25
  -3   3 -17    5.37    0.63
  -2   3 -17    1.41    0.42
  -1   3 -17    0.97    0.42
   0   3 -17   73.90    3.76
   1   3 -17    0.26    0.51
   2   3 -17    0.67    0.54
   3   3 -17    5.14    0.85
   4   3 -17   25.87    1.82
   5   3 -17    3.59    0.83
   6   3 -17   -1.01    0.53
   7   3 -17   20.47    1.72
   8   3 -17   -1.08    0.84
   9   3 -17    0.88    1.10
  -8   4 -17    8.43    1.72
  -7   4 -17   -0.56    0.57
  -6   4 -17   13.94    1.38
  -5   4 -17   16.81    1.18
  -4   4 -17    0.77    0.58
  -3   4 -17    1.95    0.66
  -2   4 -17    7.19    0.97
  -1   4 -17    0.00    0.52
   0   4 -17   -0.23    0.55
   1   4 -17    0.22    0.58
   2   4 -17    8.57    1.12
   3   4 -17    2.72    0.81
   4   4 -17    0.88    0.73
   5   4 -17   20.01    1.75
   6   4 -17   15.33    1.57
   7   4 -17   -0.02    1.09
  -3   5 -17    2.93    1.07
  -2   5 -17   -0.16    0.84
  -1   5 -17    0.00    0.67
   1   5 -17    1.04    0.71
   2   5 -17    0.80    1.17
   3   5 -17    1.87    1.36
  -3  -5 -16   -0.48    0.98
  -2  -5 -16    1.51    1.10
  -1  -5 -16   -0.20    0.96
   3  -5 -16    0.85    0.89
   4  -5 -16   -0.23    0.62
  -8  -4 -16   13.05    1.96
  -7  -4 -16    1.56    1.04
  -6  -4 -16   -0.10    0.84
  -5  -4 -16    1.96    1.08
  -4  -4 -16    0.55    0.81
  -3  -4 -16    1.54    0.99
  -2  -4 -16   82.64    4.33
  -1  -4 -16   21.08    1.56
   0  -4 -16    4.47    0.82
   1  -4 -16   22.37    2.28
   2  -4 -16   80.90    3.01
   3  -4 -16    2.20    0.70
   4  -4 -16   -0.04    0.55
   5  -4 -16    1.33    0.66
   6  -4 -16   -0.14    0.58
   7  -4 -16    1.59    0.60
   8  -4 -16    8.72    1.25
 -10  -3 -16    6.32    1.52
  -9  -3 -16    3.24    1.11
  -8  -3 -16   31.89    2.84
  -7  -3 -16   -0.05    0.74
  -6  -3 -16   18.68    2.08
  -5  -3 -16    1.39    0.58
  -4  -3 -16    0.25    0.48
  -3  -3 -16   -0.91    0.39
  -2  -3 -16    9.61    1.02
  -1  -3 -16    1.63    0.55
   0  -3 -16   -0.03    0.35
   1  -3 -16    0.80    0.51
   2  -3 -16   10.29    1.07
   3  -3 -16   -0.12    0.45
   4  -3 -16    0.81    0.36
   5  -3 -16    1.24    0.44
   6  -3 -16   24.31    1.37
   7  -3 -16    0.33    0.44
   8  -3 -16   34.19    1.71
   9  -3 -16    1.12    0.62
  10  -3 -16    9.34    1.50
 -12  -2 -16    3.82    1.20
 -11  -2 -16   10.41    1.62
 -10  -2 -16    3.52    1.11
  -9  -2 -16    3.19    1.08
  -8  -2 -16   21.26    1.47
  -7  -2 -16    4.44    0.74
  -6  -2 -16   -0.47    0.38
  -5  -2 -16    2.14    0.57
  -4  -2 -16    1.85    0.54
  -3  -2 -16    4.95    0.70
  -2  -2 -16  159.85    3.86
  -1  -2 -16   45.38    1.55
   0  -2 -16    9.61    0.98
   1  -2 -16   45.92    1.94
   2  -2 -16  167.81    4.88
   3  -2 -16    4.80    0.54
   4  -2 -16    1.08    0.38
   5  -2 -16    2.78    0.51
   6  -2 -16    0.63    0.40
   7  -2 -16    3.47    0.62
   8  -2 -16   21.39    1.42
   9  -2 -16    5.41    0.79
  10  -2 -16    2.33    0.63
  11  -2 -16    8.60    1.24
  12  -2 -16    4.05    1.33
 -11  -1 -16   12.62    1.64
 -10  -1 -16   13.49    1.18
  -9  -1 -16    2.11    0.61
  -8  -1 -16   47.25    1.98
  -7  -1 -16   -0.55    0.35
  -6  -1 -16   33.00    1.56
  -5  -1 -16    2.30    0.53
  -4  -1 -16    0.25    0.39
  -3  -1 -16   -0.14    0.31
  -2  -1 -16   11.93    0.83
  -1  -1 -16    1.51    0.50
   0  -1 -16   -0.09    0.39
   1  -1 -16    2.06    0.52
   2  -1 -16   12.28    0.77
   3  -1 -16    0.11    0.30
   4  -1 -16    0.25    0.32
   5  -1 -16    2.37    0.49
   6  -1 -16   34.26    1.41
   7  -1 -16   -0.23    0.30
   8  -1 -16   42.45    1.67
   9  -1 -16    1.17    0.47
  10  -1 -16   14.56    1.09
  11  -1 -16   14.07    1.37
  12  -1 -16    9.31    1.24
  13  -1 -16   -0.99    0.81
 -13   0 -16    0.78    0.90
 -12   0 -16    5.28    1.31
 -11   0 -16    9.84    1.55
 -10   0 -16    3.78    1.02
  -9   0 -16    4.61    1.04
  -8   0 -16   20.69    2.05
  -7   0 -16    6.17    0.74
  -6   0 -16    0.13    0.39
  -5   0 -16    3.64    0.46
  -4   0 -16    1.59    0.38
  -3   0 -16    6.37    0.72
  -2   0 -16  200.97    5.73
  -1   0 -16   50.28    1.98
   0   0 -16    8.28    0.62
   1   0 -16   50.53    1.58
   2   0 -16  196.02    4.62
   3   0 -16    5.95    0.59
   4   0 -16    1.73    0.40
   5   0 -16    3.57    0.49
   6   0 -16    0.69    0.33
   7   0 -16    6.14    0.65
   8   0 -16   26.83    1.26
   9   0 -16    5.55    0.67
  10   0 -16    2.53    0.68
  11   0 -16   13.29    1.36
  12   0 -16    6.19    1.03
 -12   1 -16    7.71    1.54
 -11   1 -16   12.76    1.81
 -10   1 -16   11.21    1.72
  -9   1 -16    2.74    0.94
  -8   1 -16   48.27    2.93
  -7   1 -16   -0.34    0.39
  -6   1 -16   32.51    1.57
  -5   1 -16    3.11    0.57
  -4   1 -16    0.55    0.40
  -3   1 -16    0.23    0.39
  -2   1 -16   11.11    0.97
  -1   1 -16    1.29    0.34
   0   1 -16    0.06    0.30
   1   1 -16    1.63    0.40
   2   1 -16   14.46    0.86
   3   1 -16   -0.16    0.29
   4   1 -16   -0.11    0.28
   5   1 -16    1.99    0.42
   6   1 -16   32.65    1.30
   7   1 -16   -0.33    0.46
   8   1 -16   45.93    2.19
   9   1 -16    2.68    0.72
  10   1 -16   11.68    1.29
  11   1 -16   10.43    1.26
  12   1 -16   11.56    1.96
 -11   2 -16    8.53    1.60
 -10   2 -16    3.36    1.13
  -9   2 -16    3.38    0.74
  -8   2 -16   23.17    1.45
  -7   2 -16    3.00    0.66
  -6   2 -16    0.25    0.44
  -5   2 -16    1.92    0.55
  -4   2 -16    0.50    0.46
  -3   2 -16    4.47    0.51
  -2   2 -16  147.01    4.45
  -1   2 -16   41.68    1.43
   0   2 -16    6.93    0.62
   1   2 -16   39.02    1.41
   2   2 -16  148.47    3.77
   3   2 -16    4.37    0.74
   4   2 -16    0.52    0.53
   5   2 -16    3.07    0.71
   6   2 -16    0.18    0.51
   7   2 -16    2.51    0.73
   8   2 -16   18.07    1.55
   9   2 -16    2.45    0.75
  10   2 -16    2.66    1.27
  11   2 -16    6.32    1.66
 -10   3 -16    7.73    1.09
  -9   3 -16    1.28    0.66
  -8   3 -16   30.84    2.56
  -7   3 -16   -0.29    0.50
  -6   3 -16   19.75    1.54
  -5   3 -16    0.84    0.40
  -4   3 -16    0.52    0.35
  -3   3 -16    0.28    0.34
  -2   3 -16    9.05    0.75
  -1   3 -16    1.16    0.40
   0   3 -16   -0.27    0.40
   1   3 -16    0.55    0.49
   2   3 -16    7.09    0.93
   3   3 -16   -0.77    0.41
   4   3 -16    0.81    0.58
   5   3 -16    1.37    0.65
   6   3 -16   20.48    1.66
   7   3 -16   -0.70    0.58
   8   3 -16   29.28    3.02
   9   3 -16    1.50    1.19
  10   3 -16    7.46    1.79
  -8   4 -16   10.21    1.26
  -7   4 -16    1.95    0.74
  -6   4 -16    0.22    0.59
  -5   4 -16    1.55    0.50
  -4   4 -16    0.37    0.54
  -3   4 -16    2.65    0.67
  -2   4 -16   70.07    3.94
  -1   4 -16   19.28    1.50
   0   4 -16    2.80    0.73
   1   4 -16   17.90    1.54
   2   4 -16   76.75    4.25
   3   4 -16    1.59    0.69
   4   4 -16    0.73    0.64
   5   4 -16    1.24    0.72
   6   4 -16    0.68    1.05
   7   4 -16    1.51    1.09
   8   4 -16   12.38    2.14
  -4   5 -16    0.95    0.86
  -3   5 -16    0.01    0.82
  -2   5 -16    2.27    0.79
  -1   5 -16    0.32    0.61
   0   5 -16    0.37    0.68
   1   5 -16    0.27    0.72
   2   5 -16    4.18    1.01
   3   5 -16    0.41    1.12
  -4  -5 -15    0.71    0.99
  -3  -5 -15    1.84    1.17
  -2  -5 -15   -0.08    0.91
  -1  -5 -15    1.19    1.10
   0  -5 -15   71.27    4.10
   3  -5 -15    1.56    1.01
   4  -5 -15    0.72    0.72
   5  -5 -15   -0.27    0.92
  -8  -4 -15   18.45    2.30
  -7  -4 -15    0.24    0.78
  -6  -4 -15   -0.99    0.76
  -5  -4 -15    2.01    0.96
  -4  -4 -15   23.84    2.44
  -3  -4 -15    6.27    1.33
  -2  -4 -15   10.59    1.63
  -1  -4 -15   15.73    1.30
   0  -4 -15    0.43    0.51
   1  -4 -15   17.99    1.94
   2  -4 -15    8.28    0.99
   3  -4 -15    4.91    0.83
   4  -4 -15   27.09    1.83
   5  -4 -15    1.38    0.48
   6  -4 -15   -0.33    0.39
   7  -4 -15    0.22    0.47
   8  -4 -15   22.93    1.85
   9  -4 -15    8.28    1.97
 -11  -3 -15    0.42    1.01
 -10  -3 -15    1.69    1.08
  -9  -3 -15    1.65    0.90
  -8  -3 -15    4.67    1.22
  -7  -3 -15    0.41    0.73
  -6  -3 -15    1.56    0.83
  -5  -3 -15    0.54    0.50
  -4  -3 -15    2.03    0.58
  -3  -3 -15    4.20    0.66
  -2  -3 -15    1.91    0.57
  -1  -3 -15    3.62    0.61
   0  -3 -15  144.58    3.64
   1  -3 -15    2.27    0.57
   2  -3 -15    1.94    0.57
   3  -3 -15    3.59    0.51
   4  -3 -15    1.58    0.42
   5  -3 -15    0.02    0.34
   6  -3 -15    1.69    0.49
   7  -3 -15    0.42    0.39
   8  -3 -15    1.77    0.58
   9  -3 -15    3.40    0.98
  10  -3 -15    1.97    1.00
  11  -3 -15    2.31    1.88
 -12  -2 -15    0.83    0.93
 -11  -2 -15    1.26    0.94
 -10  -2 -15   20.12    2.15
  -9  -2 -15   16.03    1.86
  -8  -2 -15   38.17    1.79
  -7  -2 -15   -0.19    0.41
  -6  -2 -15   -0.08    0.41
  -5  -2 -15    2.06    0.55
  -4  -2 -15   48.48    1.98
  -3  -2 -15    9.20    0.89
  -2  -2 -15   17.50    0.97
  -1  -2 -15   31.28    1.21
   0  -2 -15   -0.45    0.30
   1  -2 -15   31.73    1.55
   2  -2 -15   17.69    0.95
   3  -2 -15   11.82    0.81
   4  -2 -15   49.04    1.65
   5  -2 -15    1.94    0.46
   6  -2 -15   -0.21    0.34
   7  -2 -15    0.12    0.40
   8  -2 -15   36.58    1.73
   9  -2 -15   14.80    1.17
  10  -2 -15   22.03    1.83
  11  -2 -15    1.63    0.73
  12  -2 -15    0.29    0.67
 -11  -1 -15    3.23    0.71
 -10  -1 -15    2.66    0.62
  -9  -1 -15    3.05    0.61
  -8  -1 -15    3.38    0.64
  -7  -1 -15    0.11    0.40
  -6  -1 -15    3.19    0.58
  -5  -1 -15    0.50    0.41
  -4  -1 -15    3.14    0.47
  -3  -1 -15    6.68    0.62
  -2  -1 -15    4.73    0.54
  -1  -1 -15    5.33    0.56
   0  -1 -15  227.50    6.50
   1  -1 -15    5.49    0.50
   2  -1 -15    3.88    0.48
   3  -1 -15    5.94    0.60
   4  -1 -15    3.13    0.50
   5  -1 -15    0.66    0.37
   6  -1 -15    3.09    0.54
   7  -1 -15    0.57    0.37
   8  -1 -15    3.71    0.56
   9  -1 -15    4.30    0.62
  10  -1 -15    1.35    0.50
  11  -1 -15    2.73    0.79
  12  -1 -15    4.11    0.90
  13  -1 -15    7.01    1.56
 -13   0 -15    4.24    1.25
 -12   0 -15    1.44    0.92
 -11   0 -15    0.23    0.76
 -10   0 -15   23.58    2.20
  -9   0 -15   15.76    1.80
  -8   0 -15   52.16    1.98
  -7   0 -15    0.11    0.39
  -6   0 -15    0.14    0.36
  -5   0 -15    3.28    0.45
  -4   0 -15   59.47    1.76
  -3   0 -15   16.47    0.88
  -2   0 -15   20.46    1.15
  -1   0 -15   39.39    1.70
   0   0 -15   -0.18    0.26
   1   0 -15   44.46    1.40
   2   0 -15   21.88    0.98
   3   0 -15   13.88    0.84
   4   0 -15   60.91    1.83
   5   0 -15    3.24    0.46
   6   0 -15    0.51    0.32
   7   0 -15   -0.17    0.30
   8   0 -15   50.61    1.73
   9   0 -15   20.14    1.18
  10   0 -15   21.52    1.65
  11   0 -15    1.23    0.65
  12   0 -15    2.28    0.74
  13   0 -15    3.80    1.39
 -13   1 -15    3.42    1.19
 -12   1 -15    3.03    1.10
 -11   1 -15    1.27    0.85
 -10   1 -15    0.96    0.83
  -9   1 -15    5.10    1.14
  -8   1 -15    3.17    0.94
  -7   1 -15    0.44    0.40
  -6   1 -15    1.88    0.50
  -5   1 -15    0.99    0.45
  -4   1 -15    2.24    0.53
  -3   1 -15    7.01    0.77
  -2   1 -15    5.60    0.48
  -1   1 -15    5.20    0.50
   0   1 -15  223.56    5.16
   1   1 -15    4.93    0.51
   2   1 -15    5.16    0.54
   3   1 -15    4.38    0.53
   4   1 -15    2.79    0.45
   5   1 -15    0.93    0.34
   6   1 -15    3.50    0.49
   7   1 -15    0.99    0.53
   8   1 -15    3.12    0.72
   9   1 -15    5.12    0.84
  10   1 -15    2.25    0.73
  11   1 -15    2.35    0.73
  12   1 -15    2.03    1.15
 -12   2 -15   -0.40    0.88
 -11   2 -15    0.25    0.84
 -10   2 -15   15.14    2.00
  -9   2 -15   14.46    1.26
  -8   2 -15   40.26    2.66
  -7   2 -15    0.53    0.48
  -6   2 -15    0.94    0.49
  -5   2 -15    2.53    0.58
  -4   2 -15   50.27    1.57
  -3   2 -15   11.82    0.77
  -2   2 -15   16.74    0.87
  -1   2 -15   31.16    1.17
   0   2 -15   -0.13    0.28
   1   2 -15   28.68    1.15
   2   2 -15   16.66    0.88
   3   2 -15   12.49    0.79
   4   2 -15   46.30    2.10
   5   2 -15    1.07    0.57
   6   2 -15    0.67    0.55
   7   2 -15   -0.09    0.51
   8   2 -15   38.11    2.09
   9   2 -15   15.82    1.44
  10   2 -15   19.24    2.50
  11   2 -15    0.33    1.08
  12   2 -15    0.40    1.07
 -10   3 -15    1.84    0.71
  -9   3 -15    2.23    0.71
  -8   3 -15    1.07    0.63
  -7   3 -15    0.19    0.50
  -6   3 -15    2.17    0.48
  -5   3 -15   -0.31    0.31
  -4   3 -15    0.96    0.38
  -3   3 -15    2.97    0.49
  -2   3 -15    1.66    0.42
  -1   3 -15    3.26    0.49
   0   3 -15  142.51    4.54
   1   3 -15    1.72    0.51
   2   3 -15    1.44    0.57
   3   3 -15    2.68    0.65
   4   3 -15    1.40    0.62
   5   3 -15   -0.78    0.45
   6   3 -15    1.83    0.71
   7   3 -15   -0.31    0.55
   8   3 -15    0.45    0.97
   9   3 -15    2.47    1.18
  10   3 -15    1.28    1.18
  -9   4 -15    6.64    1.57
  -8   4 -15   21.56    1.75
  -7   4 -15   -0.14    0.56
  -6   4 -15   -0.26    0.38
  -5   4 -15    0.71    0.45
  -4   4 -15   23.89    1.35
  -3   4 -15    5.49    0.84
  -2   4 -15    8.46    1.01
  -1   4 -15   14.78    1.30
   0   4 -15    0.46    0.50
   1   4 -15   16.40    1.42
   2   4 -15    7.78    1.05
   3   4 -15    4.53    0.88
   4   4 -15   22.98    1.77
   5   4 -15    0.23    0.59
   6   4 -15   -1.84    0.76
   7   4 -15    2.10    1.16
   8   4 -15   18.78    2.59
  -5   5 -15   -0.34    0.72
  -4   5 -15    0.56    0.66
  -3   5 -15    1.05    0.68
  -2   5 -15    0.32    0.61
  -1   5 -15   -0.07    0.57
   0   5 -15   65.85    2.95
   1   5 -15    1.69    0.78
   2   5 -15    1.11    0.72
   3   5 -15    2.77    0.91
  -5  -5 -14    2.46    1.26
  -4  -5 -14   16.40    2.11
  -3  -5 -14    1.97    1.14
  -2  -5 -14    0.04    0.84
  -1  -5 -14    2.22    1.11
   0  -5 -14    0.16    0.95
   3  -5 -14    0.83    0.90
   4  -5 -14   16.04    2.23
   5  -5 -14    2.36    1.13
  -9  -4 -14    0.38    0.90
  -8  -4 -14    0.37    0.90
  -7  -4 -14   12.72    1.89
  -6  -4 -14    3.21    1.05
  -5  -4 -14    1.17    0.85
  -4  -4 -14    0.50    0.80
  -3  -4 -14    4.62    1.18
  -2  -4 -14    4.86    1.20
  -1  -4 -14    0.61    0.49
   0  -4 -14    2.26    0.65
   1  -4 -14    0.63    0.42
   2  -4 -14    6.17    0.85
   3  -4 -14    3.84    0.72
   4  -4 -14    0.25    0.38
   5  -4 -14    0.91    0.45
   6  -4 -14    1.98    0.54
   7  -4 -14   20.00    1.62
   8  -4 -14    0.06    0.62
   9  -4 -14    0.98    0.76
 -11  -3 -14    0.61    0.93
 -10  -3 -14    1.36    0.95
  -9  -3 -14   18.87    2.13
  -8  -3 -14    2.29    0.96
  -7  -3 -14   -0.17    0.67
  -6  -3 -14   55.73    3.22
  -5  -3 -14    2.41    0.90
  -4  -3 -14   37.98    1.68
  -3  -3 -14    2.86    0.63
  -2  -3 -14    2.59    0.56
  -1  -3 -14    5.10    0.56
   0  -3 -14    0.50    0.33
   1  -3 -14    5.20    0.59
   2  -3 -14    1.28    0.38
   3  -3 -14    2.87    0.47
   4  -3 -14   37.93    1.40
   5  -3 -14    4.55    0.60
   6  -3 -14   54.13    1.88
   7  -3 -14    0.70    0.43
   8  -3 -14   -0.20    0.40
   9  -3 -14   18.45    1.77
  10  -3 -14    0.29    0.83
  11  -3 -14   -0.12    0.74
 -13  -2 -14   -0.18    0.94
 -12  -2 -14   -0.05    0.90
 -11  -2 -14   -0.22    0.79
 -10  -2 -14    6.91    1.34
  -9  -2 -14   -0.01    0.69
  -8  -2 -14    0.20    0.45
  -7  -2 -14   29.08    1.49
  -6  -2 -14    2.24    0.56
  -5  -2 -14    1.50    0.49
  -4  -2 -14    0.48    0.39
  -3  -2 -14    8.49    0.85
  -2  -2 -14   13.33    0.82
  -1  -2 -14    1.41    0.38
   0  -2 -14    5.22    0.57
   1  -2 -14    0.88    0.30
   2  -2 -14   14.48    0.79
   3  -2 -14    7.61    0.64
   4  -2 -14    0.22    0.31
   5  -2 -14    1.33    0.42
   6  -2 -14    2.81    0.52
   7  -2 -14   29.76    1.51
   8  -2 -14    1.80    0.52
   9  -2 -14    0.05    0.39
  10  -2 -14    6.89    1.14
  11  -2 -14    0.34    0.63
  12  -2 -14    1.23    0.73
 -11  -1 -14    1.16    0.56
 -10  -1 -14    1.03    0.54
  -9  -1 -14   25.54    1.39
  -8  -1 -14    0.90    0.46
  -7  -1 -14    1.85    0.50
  -6  -1 -14   86.36    2.86
  -5  -1 -14    7.70    0.78
  -4  -1 -14   60.57    1.81
  -3  -1 -14    4.70    0.52
  -2  -1 -14    2.83    0.44
  -1  -1 -14    9.59    0.68
   0  -1 -14   -0.16    0.19
   1  -1 -14    8.49    0.60
   2  -1 -14    3.54    0.45
   3  -1 -14    5.35    0.57
   4  -1 -14   60.05    2.22
   5  -1 -14    6.88    0.71
   6  -1 -14   84.20    2.96
   7  -1 -14    0.07    0.35
   8  -1 -14    0.42    0.37
   9  -1 -14   26.68    1.28
  10  -1 -14    0.75    0.44
  11  -1 -14    0.48    0.54
  12  -1 -14    1.60    0.73
  13  -1 -14    0.99    0.66
 -13   0 -14    0.08    0.80
 -12   0 -14    0.97    0.92
 -11   0 -14   -0.28    0.72
 -10   0 -14    9.47    1.43
  -9   0 -14   -0.53    0.54
  -8   0 -14    1.06    0.45
  -7   0 -14   40.50    1.62
  -6   0 -14    2.62    0.41
  -5   0 -14    2.05    0.37
  -4   0 -14   -0.66    0.24
  -3   0 -14   10.59    0.68
  -2   0 -14   16.69    1.07
  -1   0 -14    1.93    0.33
   0   0 -14    5.87    0.50
   1   0 -14    1.71    0.35
   2   0 -14   15.51    0.82
   3   0 -14    9.91    0.70
   4   0 -14    0.03    0.30
   5   0 -14    1.75    0.36
   6   0 -14    3.24    0.46
   7   0 -14   38.32    1.41
   8   0 -14    1.30    0.39
   9   0 -14    0.33    0.35
  10   0 -14    9.31    1.09
  11   0 -14   -0.23    0.51
  12   0 -14    1.98    0.71
  13   0 -14    0.55    1.01
 -13   1 -14    1.52    1.12
 -12   1 -14    2.88    1.09
 -11   1 -14   -0.24    0.70
 -10   1 -14    1.53    0.85
  -9   1 -14   20.80    2.17
  -8   1 -14   -0.02    0.36
  -7   1 -14    0.94    0.45
  -6   1 -14   87.10    2.93
  -5   1 -14    5.81    0.72
  -4   1 -14   58.78    2.19
  -3   1 -14    4.38    0.43
  -2   1 -14    3.12    0.40
  -1   1 -14    8.54    0.58
   0   1 -14   -0.49    0.21
   1   1 -14    8.23    0.62
   2   1 -14    3.56    0.45
   3   1 -14    5.07    0.53
   4   1 -14   60.67    1.80
   5   1 -14    8.25    0.65
   6   1 -14   87.40    2.39
   7   1 -14    0.47    0.48
   8   1 -14    0.38    0.51
   9   1 -14   26.37    1.63
  10   1 -14    0.62    0.55
  11   1 -14    2.53    1.18
  12   1 -14    3.74    1.32
  13   1 -14    0.58    1.02
 -12   2 -14    1.19    0.92
 -11   2 -14   -0.47    0.76
 -10   2 -14    4.94    1.25
  -9   2 -14    0.68    0.53
  -8   2 -14    1.39    0.56
  -7   2 -14   32.60    1.60
  -6   2 -14    2.81    0.59
  -5   2 -14    1.03    0.34
  -4   2 -14    0.03    0.26
  -3   2 -14    6.98    0.59
  -2   2 -14   12.02    0.77
  -1   2 -14    1.25    0.35
   0   2 -14    5.07    0.52
   1   2 -14    1.94    0.39
   2   2 -14   12.70    0.80
   3   2 -14    7.73    0.63
   4   2 -14    0.49    0.47
   5   2 -14    1.27    0.54
   6   2 -14    1.33    0.59
   7   2 -14   32.26    1.78
   8   2 -14    0.15    0.50
   9   2 -14    0.15    0.56
  10   2 -14    9.16    1.75
  11   2 -14    0.86    1.06
  12   2 -14    1.92    1.19
 -11   3 -14    1.73    1.02
 -10   3 -14    1.76    0.62
  -9   3 -14   15.85    1.41
  -8   3 -14    0.87    0.56
  -7   3 -14    0.10    0.33
  -6   3 -14   51.30    1.76
  -5   3 -14    4.29    0.55
  -4   3 -14   34.54    1.34
  -3   3 -14    2.46    0.46
  -2   3 -14    1.90    0.42
  -1   3 -14    4.21    0.54
   0   3 -14    0.19    0.39
   1   3 -14    4.35    0.71
   2   3 -14    3.02    0.65
   3   3 -14    2.06    0.61
   4   3 -14   36.97    1.83
   5   3 -14    5.43    0.86
   6   3 -14   52.03    2.38
   7   3 -14    1.50    0.68
   8   3 -14    0.08    0.97
   9   3 -14   17.23    2.34
  10   3 -14    0.47    1.08
  11   3 -14   -0.45    1.02
  -9   4 -14    0.18    0.63
  -8   4 -14   -0.07    0.59
  -7   4 -14   18.10    1.17
  -6   4 -14    0.97    0.46
  -5   4 -14    0.64    0.42
  -4   4 -14    0.23    0.39
  -3   4 -14    4.07    0.73
  -2   4 -14    5.72    0.84
  -1   4 -14    0.31    0.48
   0   4 -14    1.76    0.63
   1   4 -14    1.11    0.56
   2   4 -14    6.08    0.92
   3   4 -14    3.06    0.76
   4   4 -14    0.09    0.57
   5   4 -14    0.66    0.67
   6   4 -14    1.60    1.01
   7   4 -14   18.67    2.48
   8   4 -14    0.07    0.98
  -5   5 -14   -0.01    0.84
  -4   5 -14   15.45    1.43
  -3   5 -14    0.69    0.62
  -2   5 -14    0.14    0.60
  -1   5 -14    2.13    0.72
   0   5 -14   -0.18    0.56
   1   5 -14    1.03    0.73
   2   5 -14    1.35    0.74
   3   5 -14    0.94    0.74
   4   5 -14   16.60    2.31
  -6  -5 -13   12.16    1.89
  -5  -5 -13    7.56    1.54
  -4  -5 -13    8.99    1.62
  -3  -5 -13    1.59    1.04
  -2  -5 -13   10.95    1.75
  -1  -5 -13   23.65    2.38
   3  -5 -13    3.65    1.17
   4  -5 -13    8.66    1.63
   5  -5 -13    6.57    1.54
   6  -5 -13   10.40    1.26
  -9  -4 -13    5.04    1.37
  -8  -4 -13    0.98    0.90
  -7  -4 -13    3.28    1.08
  -6  -4 -13    4.23    1.18
  -5  -4 -13   -0.61    0.71
  -4  -4 -13    4.14    1.09
  -3  -4 -13   -0.59    0.65
  -2  -4 -13    7.78    1.35
  -1  -4 -13    2.92    0.65
   0  -4 -13   -0.09    0.43
   1  -4 -13    1.92    0.46
   2  -4 -13    8.65    0.96
   3  -4 -13    0.28    0.37
   4  -4 -13    2.63    0.53
   5  -4 -13    0.64    0.40
   6  -4 -13    5.16    0.68
   7  -4 -13    0.95    0.62
   8  -4 -13    0.51    0.62
   9  -4 -13    6.08    1.08
 -11  -3 -13    6.72    1.47
 -10  -3 -13    2.40    1.05
  -9  -3 -13   17.22    2.01
  -8  -3 -13    1.03    0.81
  -7  -3 -13   -0.38    0.52
  -6  -3 -13   23.97    2.22
  -5  -3 -13   12.65    1.60
  -4  -3 -13   15.70    1.17
  -3  -3 -13    5.26    0.71
  -2  -3 -13   29.28    1.45
  -1  -3 -13   50.92    1.63
   0  -3 -13   10.32    0.75
   1  -3 -13   52.18    1.40
   2  -3 -13   30.37    1.15
   3  -3 -13    5.04    0.57
   4  -3 -13   16.01    0.98
   5  -3 -13   14.22    0.95
   6  -3 -13   23.91    1.32
   7  -3 -13   -0.25    0.33
   8  -3 -13    1.35    0.50
   9  -3 -13   16.16    1.61
  10  -3 -13    3.04    0.96
  11  -3 -13    8.26    1.25
 -13  -2 -13    3.29    1.10
 -12  -2 -13    9.61    1.58
 -11  -2 -13   37.91    2.64
 -10  -2 -13    7.70    1.33
  -9  -2 -13    8.68    1.39
  -8  -2 -13    0.20    0.42
  -7  -2 -13    2.76    0.54
  -6  -2 -13   11.57    0.98
  -5  -2 -13    0.13    0.38
  -4  -2 -13    9.28    0.85
  -3  -2 -13   -0.35    0.31
  -2  -2 -13   16.94    0.84
  -1  -2 -13    5.16    0.52
   0  -2 -13    0.13    0.20
   1  -2 -13    5.18    0.47
   2  -2 -13   17.65    0.87
   3  -2 -13    0.06    0.26
   4  -2 -13    8.33    0.69
   5  -2 -13    0.33    0.31
   6  -2 -13   11.15    0.88
   7  -2 -13    3.03    0.56
   8  -2 -13    0.68    0.42
   9  -2 -13   12.57    1.06
  10  -2 -13    6.94    1.09
  11  -2 -13   40.03    2.28
  12  -2 -13   10.43    1.16
  13  -2 -13    0.78    0.99
 -11  -1 -13   13.66    1.17
 -10  -1 -13    3.57    0.66
  -9  -1 -13   23.69    1.35
  -8  -1 -13    1.61    0.50
  -7  -1 -13    0.32    0.37
  -6  -1 -13   40.91    1.68
  -5  -1 -13   20.03    1.15
  -4  -1 -13   28.37    1.10
  -3  -1 -13    7.98    0.64
  -2  -1 -13   51.36    1.55
  -1  -1 -13   91.71    2.34
   0  -1 -13   17.66    0.73
   1  -1 -13   90.25    2.28
   2  -1 -13   49.54    1.89
   3  -1 -13    7.72    0.64
   4  -1 -13   25.52    1.16
   5  -1 -13   20.78    1.22
   6  -1 -13   41.15    1.75
   7  -1 -13   -0.32    0.29
   8  -1 -13    2.83    0.51
   9  -1 -13   24.59    1.20
  10  -1 -13    3.36    0.75
  11  -1 -13   13.77    1.34
  12  -1 -13    2.07    0.74
  13  -1 -13    0.51    0.67
 -13   0 -13    1.05    0.87
 -12   0 -13   10.78    1.59
 -11   0 -13   46.90    2.82
 -10   0 -13    8.35    1.33
  -9   0 -13   15.51    1.68
  -8   0 -13    0.16    0.38
  -7   0 -13    3.05    0.52
  -6   0 -13   15.42    0.81
  -5   0 -13    0.52    0.28
  -4   0 -13   10.78    0.66
  -3   0 -13    0.28    0.26
  -2   0 -13   22.58    0.70
  -1   0 -13    7.18    0.48
   0   0 -13    0.30    0.22
   1   0 -13    6.72    0.53
   2   0 -13   22.96    0.92
   3   0 -13    0.33    0.27
   4   0 -13   10.60    0.73
   5   0 -13    0.39    0.31
   6   0 -13   14.56    0.90
   7   0 -13    3.34    0.48
   8   0 -13   -0.16    0.29
   9   0 -13   17.03    1.03
  10   0 -13    9.35    1.07
  11   0 -13   36.67    1.95
  12   0 -13   13.69    1.37
  13   0 -13    2.26    1.15
 -13   1 -13   -0.32    0.80
 -12   1 -13    1.32    0.95
 -11   1 -13   14.44    1.86
 -10   1 -13    5.39    1.15
  -9   1 -13   18.58    2.03
  -8   1 -13    1.81    0.51
  -7   1 -13    0.76    0.41
  -6   1 -13   43.19    1.74
  -5   1 -13   21.83    0.87
  -4   1 -13   27.67    0.95
  -3   1 -13    9.07    0.56
  -2   1 -13   49.79    1.43
  -1   1 -13   89.29    2.26
   0   1 -13   18.10    0.79
   1   1 -13   86.64    2.28
   2   1 -13   50.87    1.52
   3   1 -13    9.34    0.65
   4   1 -13   28.47    1.08
   5   1 -13   20.12    0.97
   6   1 -13   40.69    1.41
   7   1 -13   -0.24    0.41
   8   1 -13    1.72    0.61
   9   1 -13   27.54    1.61
  10   1 -13    2.35    0.66
  11   1 -13   14.56    2.06
  12   1 -13    2.36    1.16
  13   1 -13    1.29    1.02
 -12   2 -13    7.69    1.53
 -10   2 -13    6.20    1.32
  -9   2 -13   12.91    1.13
  -8   2 -13    0.23    0.43
  -7   2 -13    1.94    0.53
  -6   2 -13   11.75    0.76
  -5   2 -13    0.14    0.24
  -4   2 -13    7.22    0.60
  -3   2 -13    0.49    0.28
  -2   2 -13   15.91    0.83
  -1   2 -13    4.01    0.46
   0   2 -13    0.37    0.30
   1   2 -13    5.37    0.52
   2   2 -13   16.17    0.83
   3   2 -13   -0.01    0.27
   4   2 -13    6.85    0.83
   5   2 -13    0.33    0.45
   6   2 -13   10.41    1.10
   7   2 -13    3.74    0.76
   8   2 -13    0.34    0.51
   9   2 -13   13.42    1.28
  10   2 -13   11.70    1.90
  11   2 -13   38.83    3.55
  12   2 -13   14.62    2.19
 -11   3 -13    7.01    0.99
 -10   3 -13    1.40    0.66
  -9   3 -13   13.88    1.30
  -8   3 -13    1.55    0.60
  -7   3 -13    0.40    0.31
  -6   3 -13   24.69    1.17
  -5   3 -13   11.22    0.82
  -4   3 -13   16.13    0.97
  -3   3 -13    3.27    0.49
  -2   3 -13   30.04    1.19
  -1   3 -13   53.68    1.68
   0   3 -13    9.61    0.72
   1   3 -13   52.79    2.16
   2   3 -13   28.98    1.56
   3   3 -13    5.03    0.76
   4   3 -13   15.18    1.24
   5   3 -13   12.85    1.21
   6   3 -13   25.52    1.61
   7   3 -13    0.37    0.57
   8   3 -13    2.05    1.06
   9   3 -13   21.46    2.54
  10   3 -13    3.25    1.38
  11   3 -13    7.68    1.81
  -9   4 -13    6.31    1.03
  -8   4 -13   -0.31    0.40
  -7   4 -13    1.72    0.50
  -6   4 -13    5.83    0.69
  -5   4 -13    0.05    0.36
  -4   4 -13    3.56    0.57
  -3   4 -13    0.20    0.44
  -2   4 -13    8.05    0.95
  -1   4 -13    1.87    0.61
   0   4 -13   -0.27    0.41
   1   4 -13    2.71    0.66
   2   4 -13    6.83    0.98
   3   4 -13    0.48    0.54
   4   4 -13    1.47    0.67
   5   4 -13   -0.12    0.53
   6   4 -13    3.65    1.25
   7   4 -13    1.46    1.10
   8   4 -13   -0.14    0.99
   9   4 -13    5.85    1.60
  -6   5 -13   14.03    1.83
  -5   5 -13    5.68    0.94
  -4   5 -13    7.05    1.03
  -3   5 -13    2.31    0.76
  -2   5 -13   10.74    1.21
  -1   5 -13   18.64    1.57
   0   5 -13    4.14    0.87
   1   5 -13   19.92    1.65
   2   5 -13   13.64    1.42
   3   5 -13    1.47    0.76
   4   5 -13   10.90    1.82
   5   5 -13    4.34    1.39
  -6  -5 -12    9.82    1.70
  -5  -5 -12   11.43    1.81
  -4  -5 -12    2.01    1.07
  -3  -5 -12    0.09    0.89
  -2  -5 -12    9.79    1.65
  -1  -5 -12    2.45    1.08
   3  -5 -12    0.81    0.80
   4  -5 -12    1.36    0.96
   5  -5 -12   11.61    1.26
   6  -5 -12   12.70    1.34
   7  -5 -12   -0.05    0.83
  -9  -4 -12    1.16    1.00
  -8  -4 -12   -0.83    0.67
  -7  -4 -12   12.16    1.76
  -6  -4 -12    6.38    1.26
  -5  -4 -12   10.18    1.54
  -4  -4 -12   83.01    4.36
  -3  -4 -12    0.32    0.71
  -2  -4 -12    2.72    0.94
  -1  -4 -12    2.02    0.58
   0  -4 -12   12.11    1.06
   1  -4 -12    1.49    0.40
   2  -4 -12    2.73    0.48
   3  -4 -12    0.15    0.34
   4  -4 -12   86.00    2.53
   5  -4 -12   10.39    0.87
   6  -4 -12    3.72    0.73
   7  -4 -12   11.79    1.26
   8  -4 -12    0.40    0.59
   9  -4 -12    0.89    0.74
  10  -4 -12    2.87    1.65
 -11  -3 -12    2.81    1.11
 -10  -3 -12    6.70    1.33
  -9  -3 -12   21.86    2.27
  -8  -3 -12    6.65    1.29
  -7  -3 -12   -0.25    0.62
  -6  -3 -12   33.05    2.28
  -5  -3 -12   23.49    2.11
  -4  -3 -12    3.76    0.61
  -3  -3 -12    0.17    0.41
  -2  -3 -12   24.03    1.29
  -1  -3 -12    3.64    0.45
   0  -3 -12   -0.28    0.21
   1  -3 -12    4.06    0.40
   2  -3 -12   28.13    1.08
   3  -3 -12    1.06    0.33
   4  -3 -12    3.43    0.49
   5  -3 -12   24.58    1.16
   6  -3 -12   30.64    1.32
   7  -3 -12    0.80    0.39
   8  -3 -12    5.73    0.95
   9  -3 -12   29.08    2.15
  10  -3 -12    4.88    1.00
  11  -3 -12    6.31    1.15
  12  -3 -12   37.66    2.95
 -13  -2 -12    1.14    1.03
 -12  -2 -12    2.83    1.15
 -11  -2 -12    1.00    0.87
 -10  -2 -12    6.39    1.30
  -9  -2 -12    3.52    0.95
  -8  -2 -12    0.79    0.68
  -7  -2 -12   24.50    1.27
  -6  -2 -12    9.24    0.85
  -5  -2 -12   22.00    1.18
  -4  -2 -12  181.24    5.15
  -3  -2 -12    0.63    0.27
  -2  -2 -12    4.93    0.48
  -1  -2 -12    4.19    0.44
   0  -2 -12   27.69    0.83
   1  -2 -12    3.67    0.36
   2  -2 -12    5.15    0.48
   3  -2 -12   -0.18    0.25
   4  -2 -12  183.22    4.30
   5  -2 -12   23.68    1.08
   6  -2 -12    9.03    0.78
   7  -2 -12   24.30    1.21
   8  -2 -12    1.10    0.44
   9  -2 -12    2.50    0.54
  10  -2 -12    7.73    1.07
  11  -2 -12    0.60    0.62
  12  -2 -12    3.13    0.84
  13  -2 -12    0.10    0.65
 -12  -1 -12   47.48    2.99
 -11  -1 -12    7.25    1.25
 -10  -1 -12    9.07    0.92
  -9  -1 -12   42.52    1.75
  -8  -1 -12    7.30    0.77
  -7  -1 -12   -0.03    0.33
  -6  -1 -12   53.97    2.01
  -5  -1 -12   40.92    1.63
  -4  -1 -12    7.39    0.61
  -3  -1 -12    0.36    0.28
  -2  -1 -12   46.87    1.43
  -1  -1 -12    7.15    0.36
   0  -1 -12    0.07    0.16
   1  -1 -12    8.07    0.54
   2  -1 -12   50.59    1.46
   3  -1 -12    0.70    0.32
   4  -1 -12    5.51    0.59
   5  -1 -12   38.85    1.56
   6  -1 -12   55.31    1.85
   7  -1 -12   -0.06    0.31
   8  -1 -12    8.21    0.74
   9  -1 -12   39.44    1.53
  10  -1 -12    8.63    1.00
  11  -1 -12    8.85    1.08
  12  -1 -12   51.28    2.41
  13  -1 -12    0.14    0.60
 -13   0 -12    0.20    0.81
 -12   0 -12    6.94    1.28
 -11   0 -12    0.66    0.69
 -10   0 -12    7.34    1.23
  -9   0 -12    2.74    0.56
  -8   0 -12    1.81    0.47
  -7   0 -12   28.80    1.31
  -6   0 -12   12.07    0.70
  -5   0 -12   31.27    1.04
  -4   0 -12  241.20    5.32
  -3   0 -12    0.19    0.25
  -2   0 -12    7.04    0.38
  -1   0 -12    5.77    0.43
   0   0 -12   37.33    1.15
   1   0 -12    6.01    0.49
   2   0 -12    6.63    0.53
   3   0 -12    0.65    0.29
   4   0 -12  233.58    5.41
   5   0 -12   27.32    1.09
   6   0 -12   11.44    0.77
   7   0 -12   31.80    1.19
   8   0 -12    1.73    0.40
   9   0 -12    4.74    0.57
  10   0 -12    8.83    1.03
  11   0 -12    0.51    0.50
  12   0 -12    5.80    0.94
  13   0 -12   -0.11    0.90
  14   0 -12    2.34    1.13
 -14   1 -12    8.13    1.69
 -13   1 -12    1.56    0.99
 -12   1 -12   47.99    3.20
 -11   1 -12    8.06    1.43
 -10   1 -12    5.71    1.16
  -9   1 -12   45.25    2.73
  -8   1 -12    7.80    0.80
  -7   1 -12    0.36    0.39
  -6   1 -12   58.52    2.10
  -5   1 -12   43.38    1.08
  -4   1 -12    7.51    0.49
  -3   1 -12    0.44    0.22
  -2   1 -12   47.24    1.35
  -1   1 -12    6.87    0.50
   0   1 -12   -0.36    0.21
   1   1 -12    7.01    0.52
   2   1 -12   48.37    1.43
   3   1 -12    0.37    0.27
   4   1 -12    7.13    0.57
   5   1 -12   43.04    1.39
   6   1 -12   54.69    1.69
   7   1 -12    0.43    0.44
   8   1 -12    7.06    0.91
   9   1 -12   41.40    1.97
  10   1 -12    7.03    0.93
  11   1 -12    9.54    1.67
  12   1 -12   53.21    3.66
  13   1 -12    0.73    0.97
 -13   2 -12    0.75    0.97
 -12   2 -12    2.40    1.10
 -11   2 -12    0.34    0.80
 -10   2 -12    5.35    0.80
  -9   2 -12    2.87    0.64
  -8   2 -12    1.61    0.54
  -7   2 -12   22.20    1.36
  -6   2 -12    8.93    0.90
  -5   2 -12   23.29    0.93
  -4   2 -12  181.95    4.21
  -3   2 -12    0.46    0.28
  -2   2 -12    5.43    0.50
  -1   2 -12    3.39    0.44
   0   2 -12   25.50    0.98
   1   2 -12    3.75    0.44
   2   2 -12    4.20    0.46
   3   2 -12    0.20    0.28
   4   2 -12  179.17    5.35
   5   2 -12   21.79    1.46
   6   2 -12    9.41    1.00
   7   2 -12   24.24    1.62
   8   2 -12    1.93    0.60
   9   2 -12    1.82    1.00
  10   2 -12    6.98    1.60
  11   2 -12    0.31    0.99
  12   2 -12    2.98    1.29
  13   2 -12    1.20    1.12
 -11   3 -12    3.57    0.82
 -10   3 -12    6.19    0.92
  -9   3 -12   27.06    1.67
  -8   3 -12    4.13    0.79
  -7   3 -12   -0.29    0.41
  -6   3 -12   35.70    1.33
  -5   3 -12   25.93    1.13
  -4   3 -12    2.30    0.44
  -3   3 -12    0.41    0.32
  -2   3 -12   27.06    1.11
  -1   3 -12    4.58    0.52
   0   3 -12   -0.35    0.26
   1   3 -12    4.45    0.68
   2   3 -12   28.37    1.50
   3   3 -12    0.52    0.48
   4   3 -12    3.48    0.69
   5   3 -12   25.93    1.56
   6   3 -12   31.80    1.71
   7   3 -12   -0.46    0.48
   8   3 -12    4.16    1.25
   9   3 -12   27.45    2.82
  10   3 -12    5.33    1.53
  11   3 -12    3.06    1.36
 -10   4 -12    3.93    1.30
  -9   4 -12    0.76    0.46
  -8   4 -12    2.06    0.53
  -7   4 -12   14.46    1.04
  -6   4 -12    3.76    0.56
  -5   4 -12    7.81    0.75
  -4   4 -12   87.56    2.54
  -3   4 -12   -0.34    0.38
  -2   4 -12    2.45    0.63
  -1   4 -12    2.71    0.63
   0   4 -12   11.90    1.11
   1   4 -12    1.68    0.57
   2   4 -12    2.70    0.70
   3   4 -12    0.50    0.57
   4   4 -12   86.24    3.26
   5   4 -12    9.09    1.12
   6   4 -12    4.92    1.32
   7   4 -12   17.54    2.31
   8   4 -12    0.07    0.97
   9   4 -12    0.45    1.07
  -6   5 -12   11.73    1.27
  -5   5 -12   10.22    1.15
  -4   5 -12    1.81    0.68
  -3   5 -12    1.11    0.61
  -2   5 -12   10.75    1.20
  -1   5 -12    0.91    0.63
   0   5 -12    0.06    0.53
   1   5 -12    0.90    0.63
   2   5 -12   12.27    1.32
   3   5 -12   -1.07    0.59
   4   5 -12    0.82    0.95
   5   5 -12   11.39    1.99
   6   5 -12   13.86    2.12
  -7  -5 -11    4.45    1.28
  -6  -5 -11   29.31    2.73
  -5  -5 -11    3.06    1.16
  -4  -5 -11    2.26    0.98
  -3  -5 -11   10.33    1.69
  -2  -5 -11    5.47    1.26
  -1  -5 -11    0.08    0.80
   3  -5 -11    8.91    1.04
   4  -5 -11    0.88    0.57
   5  -5 -11    3.26    0.77
   6  -5 -11   25.53    1.85
   7  -5 -11    2.89    0.86
 -10  -4 -11   32.15    3.01
  -9  -4 -11   -0.41    0.77
  -8  -4 -11   -0.09    0.78
  -7  -4 -11    1.35    0.90
  -6  -4 -11    1.76    0.90
  -5  -4 -11   -0.04    0.65
  -4  -4 -11   41.63    2.68
  -3  -4 -11   13.74    1.67
  -2  -4 -11   11.10    1.53
  -1  -4 -11    5.48    0.71
   0  -4 -11    0.08    0.28
   1  -4 -11    4.03    0.41
   2  -4 -11   12.91    0.87
   3  -4 -11   13.21    0.91
   4  -4 -11   42.69    1.54
   5  -4 -11   -0.23    0.34
   6  -4 -11    2.49    0.66
   7  -4 -11    2.55    0.69
   8  -4 -11   -0.97    0.47
   9  -4 -11    1.17    0.68
  10  -4 -11   36.93    2.36
 -12  -3 -11    1.04    1.01
 -11  -3 -11    0.71    0.90
 -10  -3 -11   -0.62    0.78
  -9  -3 -11    2.67    1.03
  -8  -3 -11    2.05    0.86
  -7  -3 -11    5.79    1.10
  -6  -3 -11   49.42    3.11
  -5  -3 -11    7.62    1.20
  -4  -3 -11    2.41    0.50
  -3  -3 -11   25.97    1.26
  -2  -3 -11   16.25    1.09
  -1  -3 -11    3.95    0.45
   0  -3 -11   26.28    0.85
   1  -3 -11    3.01    0.36
   2  -3 -11   14.50    0.84
   3  -3 -11   25.08    1.04
   4  -3 -11    2.19    0.42
   5  -3 -11    7.62    0.70
   6  -3 -11   58.90    1.91
   7  -3 -11    3.91    0.57
   8  -3 -11    1.08    0.54
   9  -3 -11    0.12    0.63
  10  -3 -11   -0.01    0.60
  11  -3 -11   -0.45    0.64
  12  -3 -11    2.34    0.88
 -13  -2 -11    4.58    1.23
 -12  -2 -11    5.67    1.29
 -11  -2 -11    5.10    1.17
 -10  -2 -11   61.11    3.52
  -9  -2 -11    1.04    0.74
  -8  -2 -11   -0.18    0.59
  -7  -2 -11    4.51    0.64
  -6  -2 -11    5.65    0.69
  -5  -2 -11   -0.03    0.35
  -4  -2 -11   85.34    2.80
  -3  -2 -11   30.50    1.02
  -2  -2 -11   24.93    0.91
  -1  -2 -11    9.46    0.46
   0  -2 -11    0.28    0.19
   1  -2 -11   10.11    0.54
   2  -2 -11   24.15    0.92
   3  -2 -11   30.97    1.11
   4  -2 -11   87.51    2.37
   5  -2 -11    0.59    0.32
   6  -2 -11    6.45    0.65
   7  -2 -11    3.51    0.56
   8  -2 -11    0.28    0.34
   9  -2 -11   -0.19    0.44
  10  -2 -11   68.02    2.89
  11  -2 -11    4.96    0.95
  12  -2 -11    6.66    1.02
  13  -2 -11    6.52    1.07
 -12  -1 -11    1.71    0.91
 -11  -1 -11   -0.09    0.61
 -10  -1 -11    0.09    0.42
  -9  -1 -11    4.22    0.63
  -8  -1 -11    0.25    0.38
  -7  -1 -11    6.86    0.71
  -6  -1 -11  101.07    3.10
  -5  -1 -11   13.43    0.92
  -4  -1 -11    4.04    0.44
  -3  -1 -11   46.53    1.37
  -2  -1 -11   28.79    0.99
  -1  -1 -11    7.24    0.34
   0  -1 -11   46.95    1.14
   1  -1 -11    7.00    0.48
   2  -1 -11   28.79    1.24
   3  -1 -11   43.03    1.66
   4  -1 -11    4.90    0.53
   5  -1 -11   13.92    0.92
   6  -1 -11   94.32    3.16
   7  -1 -11    6.45    0.65
   8  -1 -11    1.08    0.40
   9  -1 -11    4.28    0.57
  10  -1 -11    0.96    0.52
  11  -1 -11    0.87    0.54
  12  -1 -11    2.70    0.73
  13  -1 -11   13.59    1.40
  14  -1 -11    5.70    1.48
 -13   0 -11    6.92    1.34
 -12   0 -11   10.02    1.56
 -11   0 -11    7.77    1.27
  -9   0 -11    0.50    0.41
  -8   0 -11    0.31    0.33
  -7   0 -11    4.80    0.57
  -6   0 -11    8.79    0.57
  -5   0 -11    0.42    0.23
  -4   0 -11  119.48    2.78
  -3   0 -11   42.38    1.24
  -2   0 -11   34.90    0.87
  -1   0 -11   12.61    0.59
   0   0 -11    0.58    0.21
   1   0 -11   13.06    0.65
   2   0 -11   33.23    1.11
   3   0 -11   43.25    1.33
   4   0 -11  113.61    2.87
   5   0 -11    0.19    0.24
   6   0 -11    7.14    0.61
   7   0 -11    5.10    0.54
   8   0 -11    0.32    0.29
   9   0 -11    1.44    0.39
  10   0 -11   75.26    2.95
  11   0 -11    6.26    0.90
  12   0 -11    9.42    1.73
  13   0 -11    8.81    1.74
  14   0 -11    8.76    1.73
 -14   1 -11    5.55    1.40
 -13   1 -11   11.33    1.78
 -12   1 -11    2.79    1.02
 -11   1 -11   -0.18    0.68
 -10   1 -11   -0.73    0.62
  -9   1 -11    2.52    0.83
  -8   1 -11    0.69    0.39
  -7   1 -11    7.03    0.70
  -6   1 -11  105.68    3.19
  -5   1 -11   13.96    0.68
  -4   1 -11    4.48    0.34
  -3   1 -11   45.19    1.27
  -2   1 -11   26.90    0.92
  -1   1 -11    5.87    0.44
   0   1 -11   47.56    1.35
   1   1 -11    5.85    0.47
   2   1 -11   28.23    0.98
   3   1 -11   43.04    1.33
   4   1 -11    3.66    0.42
   5   1 -11   13.95    0.73
   6   1 -11   97.89    2.57
   7   1 -11    5.52    0.77
   8   1 -11    1.23    0.51
   9   1 -11    2.06    0.60
  10   1 -11   -0.30    0.46
  11   1 -11    0.77    0.91
  12   1 -11    4.90    1.41
  13   1 -11   12.83    2.07
  14   1 -11    6.54    1.61
 -13   2 -11    5.74    1.39
 -12   2 -11    7.87    1.44
 -11   2 -11    4.84    1.22
 -10   2 -11   66.68    3.58
  -9   2 -11    0.14    0.43
  -8   2 -11    0.26    0.39
  -7   2 -11    3.75    0.64
  -6   2 -11    6.57    0.75
  -5   2 -11    0.25    0.38
  -4   2 -11   90.70    2.31
  -3   2 -11   29.10    1.07
  -2   2 -11   25.99    0.96
  -1   2 -11    9.87    0.62
   0   2 -11    0.00    0.23
   1   2 -11    8.86    0.60
   2   2 -11   23.94    0.93
   3   2 -11   30.85    1.07
   4   2 -11   85.97    2.98
   5   2 -11    0.54    0.46
   6   2 -11    4.87    0.73
   7   2 -11    4.28    0.76
   8   2 -11    0.11    0.42
   9   2 -11   -0.40    0.72
  10   2 -11   65.20    4.08
  11   2 -11    6.72    1.58
  12   2 -11    8.13    1.68
  13   2 -11    4.50    1.42
 -12   3 -11    0.46    0.96
 -11   3 -11    0.43    0.58
 -10   3 -11   -0.07    0.48
  -9   3 -11    2.28    0.62
  -8   3 -11    0.53    0.48
  -7   3 -11    4.66    0.75
  -6   3 -11   58.73    3.38
  -5   3 -11    8.66    0.69
  -4   3 -11    2.22    0.41
  -3   3 -11   22.95    1.01
  -2   3 -11   15.22    0.89
  -1   3 -11    3.60    0.45
   0   3 -11   25.96    1.04
   1   3 -11    2.56    0.56
   2   3 -11   16.11    1.19
   3   3 -11   25.57    1.39
   4   3 -11    2.86    0.61
   5   3 -11    8.14    0.94
   6   3 -11   58.84    2.40
   7   3 -11    3.56    1.16
   8   3 -11    0.23    0.81
   9   3 -11    2.37    1.06
  10   3 -11    0.32    0.96
  11   3 -11    1.32    1.21
  12   3 -11    1.63    1.26
 -10   4 -11   34.55    2.13
  -9   4 -11    0.26    0.62
  -8   4 -11    0.76    0.59
  -7   4 -11    1.74    0.49
  -6   4 -11    3.41    0.56
  -5   4 -11   -0.21    0.34
  -4   4 -11   35.22    1.46
  -3   4 -11   13.38    0.93
  -2   4 -11   11.42    1.07
  -1   4 -11    4.71    0.73
   0   4 -11   -0.39    0.41
   1   4 -11    4.02    0.72
   2   4 -11   13.49    1.20
   3   4 -11   12.13    1.19
   4   4 -11   44.36    2.07
   5   4 -11   -0.04    0.55
   6   4 -11    3.52    1.09
   7   4 -11    3.42    1.23
   8   4 -11   -0.91    0.82
   9   4 -11   -1.28    0.90
  10   4 -11   43.65    3.84
  -7   5 -11    1.73    0.91
  -6   5 -11   23.13    1.74
  -5   5 -11    1.30    0.65
  -4   5 -11    1.77    0.64
  -3   5 -11    7.31    1.01
  -2   5 -11    6.45    0.96
  -1   5 -11    1.26    0.61
   0   5 -11   11.06    1.22
   1   5 -11    1.13    0.64
   2   5 -11    5.40    0.97
   3   5 -11    4.96    1.29
   4   5 -11    0.97    0.96
   5   5 -11    5.09    1.40
   6   5 -11   24.67    2.80
  -7  -5 -10    1.78    1.06
  -6  -5 -10    2.68    1.00
  -5  -5 -10    0.58    0.87
  -4  -5 -10    0.87    0.83
  -3  -5 -10   -0.64    0.68
  -2  -5 -10    9.42    1.54
  -1  -5 -10    0.18    0.57
   0  -5 -10    0.02    0.77
   2  -5 -10   10.77    1.12
   3  -5 -10   -0.03    0.48
   4  -5 -10   -0.36    0.50
   5  -5 -10    0.70    0.55
   6  -5 -10    0.01    0.55
   7  -5 -10    2.94    0.81
 -10  -4 -10   13.13    1.89
  -9  -4 -10    1.56    0.96
  -8  -4 -10    7.59    1.38
  -7  -4 -10    8.51    1.46
  -6  -4 -10    0.32    0.73
  -5  -4 -10    1.10    0.77
  -4  -4 -10   12.38    1.55
  -3  -4 -10    0.58    0.63
  -2  -4 -10    6.41    1.13
  -1  -4 -10   37.93    1.34
   0  -4 -10   53.13    1.29
   1  -4 -10   37.12    1.02
   2  -4 -10    4.77    0.58
   3  -4 -10    0.30    0.33
   4  -4 -10   10.41    0.82
   5  -4 -10    1.04    0.50
   6  -4 -10    0.28    0.46
   7  -4 -10    8.03    1.02
   8  -4 -10    5.60    0.88
   9  -4 -10    0.97    0.61
  10  -4 -10   15.03    1.59
 -12  -3 -10   20.54    2.33
 -11  -3 -10    1.22    0.87
 -10  -3 -10   11.02    1.59
  -9  -3 -10    0.59    0.76
  -8  -3 -10   -0.06    0.62
  -7  -3 -10    4.09    0.98
  -6  -3 -10    2.76    0.84
  -5  -3 -10    1.25    0.68
  -4  -3 -10    0.45    0.36
  -3  -3 -10    0.22    0.34
  -2  -3 -10   22.90    1.14
  -1  -3 -10    2.84    0.31
   0  -3 -10    0.07    0.19
   1  -3 -10    1.84    0.27
   2  -3 -10   21.43    0.78
   3  -3 -10    0.05    0.25
   4  -3 -10    0.34    0.30
   5  -3 -10    1.23    0.36
   6  -3 -10    2.21    0.47
   7  -3 -10    5.11    0.65
   8  -3 -10    1.05    0.52
   9  -3 -10    0.55    0.54
  10  -3 -10   15.41    1.53
  11  -3 -10    0.73    0.66
  12  -3 -10   24.04    1.95
 -14  -2 -10    6.52    1.47
 -13  -2 -10    1.69    0.96
 -12  -2 -10    1.45    0.92
 -11  -2 -10    7.46    1.38
 -10  -2 -10   26.47    2.04
  -9  -2 -10    3.18    0.89
  -8  -2 -10    8.89    1.27
  -7  -2 -10   20.17    1.26
  -6  -2 -10    0.84    0.39
  -5  -2 -10    2.55    0.48
  -4  -2 -10   21.89    1.10
  -3  -2 -10    0.52    0.23
  -2  -2 -10   11.32    0.62
  -1  -2 -10   81.51    1.73
   0  -2 -10  111.48    2.31
   1  -2 -10   80.07    1.78
   2  -2 -10   12.17    0.69
   3  -2 -10    0.64    0.26
   4  -2 -10   21.58    0.93
   5  -2 -10    2.24    0.41
   6  -2 -10    0.71    0.33
   7  -2 -10   18.74    1.11
   8  -2 -10   10.13    0.86
   9  -2 -10    2.21    0.64
  10  -2 -10   24.57    1.84
  11  -2 -10   11.10    1.23
  12  -2 -10   -0.27    0.55
  13  -2 -10    3.04    0.83
  14  -2 -10    5.67    1.48
 -12  -1 -10   35.25    2.38
 -11  -1 -10   -0.32    0.61
 -10  -1 -10   22.14    1.27
  -9  -1 -10    0.91    0.41
  -8  -1 -10    2.50    0.51
  -7  -1 -10    5.83    0.66
  -6  -1 -10    4.80    0.59
  -5  -1 -10    1.84    0.41
  -4  -1 -10    0.18    0.27
  -3  -1 -10    0.14    0.22
  -2  -1 -10   40.42    1.19
  -1  -1 -10    4.65    0.27
   0  -1 -10   -0.03    0.13
   1  -1 -10    5.04    0.40
   2  -1 -10   39.20    1.20
   3  -1 -10    0.44    0.24
   4  -1 -10    0.18    0.25
   5  -1 -10    2.01    0.39
   6  -1 -10    3.77    0.50
   7  -1 -10    7.62    0.68
   8  -1 -10    1.91    0.42
   9  -1 -10    1.61    0.57
  10  -1 -10   21.68    1.43
  11  -1 -10    1.02    0.52
  12  -1 -10   34.28    1.99
  13  -1 -10    2.07    0.72
  14  -1 -10    1.54    0.98
 -13   0 -10    2.41    0.97
 -12   0 -10   -0.87    0.56
 -11   0 -10   14.34    1.66
 -10   0 -10   35.66    2.33
  -9   0 -10    2.84    0.53
  -8   0 -10   14.13    0.98
  -7   0 -10   26.39    0.92
  -6   0 -10    0.96    0.29
  -5   0 -10    3.77    0.37
  -4   0 -10   31.50    0.77
  -3   0 -10    1.03    0.24
  -2   0 -10   16.26    0.67
  -1   0 -10  115.84    2.30
   0   0 -10  159.70    3.61
   1   0 -10  113.06    2.72
   2   0 -10   16.65    0.72
   3   0 -10    0.58    0.23
   4   0 -10   30.32    1.06
   5   0 -10    3.87    0.44
   6   0 -10    1.45    0.35
   7   0 -10   26.18    1.08
   8   0 -10   14.18    0.87
   9   0 -10    1.83    0.54
  10   0 -10   34.51    1.82
  11   0 -10   16.35    1.34
  12   0 -10   -0.46    0.69
  13   0 -10    1.06    0.97
  14   0 -10    6.53    1.55
 -14   1 -10    0.37    0.89
 -13   1 -10    4.19    1.20
 -12   1 -10   33.88    2.55
 -11   1 -10    0.69    0.78
 -10   1 -10   15.77    1.85
  -9   1 -10    1.52    0.45
  -8   1 -10    1.16    0.41
  -7   1 -10    7.09    0.72
  -6   1 -10    4.58    0.58
  -5   1 -10    2.13    0.32
  -4   1 -10    0.24    0.22
  -3   1 -10    0.36    0.18
  -2   1 -10   39.60    1.14
  -1   1 -10    4.59    0.38
   0   1 -10   -0.07    0.18
   1   1 -10    4.41    0.38
   2   1 -10   38.66    1.19
   3   1 -10   -0.07    0.21
   4   1 -10    0.06    0.22
   5   1 -10    1.93    0.34
   6   1 -10    4.30    0.45
   7   1 -10    6.49    0.80
   8   1 -10    2.03    0.54
   9   1 -10    0.31    0.44
  10   1 -10   20.08    1.45
  11   1 -10    0.30    0.81
  12   1 -10   36.32    3.28
  13   1 -10    3.27    1.22
  14   1 -10    0.29    0.94
 -13   2 -10    2.87    1.17
 -12   2 -10   -0.68    0.75
 -11   2 -10    8.85    1.49
 -10   2 -10   24.84    1.51
  -9   2 -10    1.35    0.50
  -8   2 -10    9.13    0.92
  -7   2 -10   19.54    1.28
  -6   2 -10    0.60    0.42
  -5   2 -10    1.95    0.51
  -4   2 -10   20.53    1.18
  -3   2 -10    0.77    0.27
  -2   2 -10   11.60    0.68
  -1   2 -10   80.57    2.08
   0   2 -10  113.60    2.73
   1   2 -10   82.44    2.09
   2   2 -10   10.54    0.64
   3   2 -10    0.79    0.25
   4   2 -10   23.08    1.30
   5   2 -10    2.67    0.59
   6   2 -10    1.25    0.50
   7   2 -10   18.52    1.36
   8   2 -10   10.84    1.04
   9   2 -10    0.85    0.87
  10   2 -10   30.71    2.86
  11   2 -10   10.61    1.89
  12   2 -10    0.88    1.02
  13   2 -10    2.46    1.21
 -12   3 -10   18.50    2.29
 -11   3 -10    0.50    0.58
 -10   3 -10   11.93    1.20
  -9   3 -10   -0.29    0.46
  -8   3 -10    0.95    0.51
  -7   3 -10    4.83    0.74
  -6   3 -10    2.09    0.55
  -5   3 -10    0.77    0.47
  -4   3 -10   -0.35    0.23
  -3   3 -10    0.31    0.27
  -2   3 -10   23.37    0.97
  -1   3 -10    2.48    0.41
   0   3 -10   -0.23    0.25
   1   3 -10    1.87    0.49
   2   3 -10   22.06    1.32
   3   3 -10    0.43    0.41
   4   3 -10   -0.25    0.39
   5   3 -10    1.09    0.50
   6   3 -10    2.45    0.63
   7   3 -10    6.07    1.32
   8   3 -10    0.83    0.85
   9   3 -10   -0.51    0.77
  10   3 -10   12.20    1.98
  11   3 -10    1.49    1.22
  12   3 -10   20.38    2.71
 -10   4 -10   14.51    1.43
  -9   4 -10    0.36    0.60
  -8   4 -10    4.07    0.85
  -7   4 -10    8.38    1.03
  -6   4 -10    0.72    0.39
  -5   4 -10    0.33    0.34
  -4   4 -10   10.15    0.82
  -3   4 -10    0.49    0.36
  -2   4 -10    5.52    0.76
  -1   4 -10   31.58    1.67
   0   4 -10   49.65    2.17
   1   4 -10   32.55    1.69
   2   4 -10    3.68    0.70
   3   4 -10    0.76    0.53
   4   4 -10    9.40    1.04
   5   4 -10    0.59    0.80
   6   4 -10    0.15    0.81
   7   4 -10    9.12    1.67
   8   4 -10    5.96    1.53
   9   4 -10    2.06    1.15
  10   4 -10   13.11    2.13
  -8   5 -10    0.45    0.96
  -7   5 -10    2.33    0.71
  -6   5 -10    1.37    0.62
  -5   5 -10    0.32    0.56
  -4   5 -10    0.65    0.53
  -3   5 -10   -0.47    0.44
  -2   5 -10   11.45    1.20
  -1   5 -10    0.08    0.54
   0   5 -10    0.16    0.53
   1   5 -10    0.74    0.57
   2   5 -10   10.44    1.18
   3   5 -10    0.46    0.84
   4   5 -10   -0.36    0.77
   5   5 -10    0.12    0.85
   6   5 -10    0.76    1.00
   7   5 -10    1.79    1.26
  -1  -6  -9   -0.70    1.01
  -7  -5  -9   -0.19    0.90
  -6  -5  -9    4.42    1.24
  -5  -5  -9    1.04    0.90
  -4  -5  -9   -0.97    0.78
  -3  -5  -9    3.84    1.14
  -2  -5  -9   30.04    1.86
  -1  -5  -9    2.73    1.04
   0  -5  -9   12.69    1.67
   1  -5  -9    4.95    0.78
   2  -5  -9   30.16    2.30
   3  -5  -9    2.98    0.72
   4  -5  -9    0.70    0.57
   5  -5  -9   -0.24    0.50
   6  -5  -9    4.20    0.81
   7  -5  -9   -0.08    0.60
 -10  -4  -9    2.04    1.08
  -9  -4  -9   -0.52    0.72
  -8  -4  -9   35.69    2.69
  -7  -4  -9    4.22    1.08
  -6  -4  -9    4.88    1.10
  -5  -4  -9   40.41    2.65
  -4  -4  -9    0.15    0.62
  -3  -4  -9    2.96    0.91
  -2  -4  -9    0.88    0.49
  -1  -4  -9    0.14    0.42
   0  -4  -9   -0.13    0.23
   1  -4  -9    0.10    0.23
   2  -4  -9    1.22    0.29
   3  -4  -9    1.73    0.40
   4  -4  -9    0.29    0.34
   5  -4  -9   40.96    1.89
   6  -4  -9    4.83    0.74
   7  -4  -9    4.00    0.75
   8  -4  -9   39.36    2.04
   9  -4  -9    0.37    0.55
  10  -4  -9    1.00    0.71
 -12  -3  -9   -0.23    0.82
 -11  -3  -9    3.56    1.09
 -10  -3  -9    0.40    0.73
  -9  -3  -9   -0.15    0.70
  -8  -3  -9   37.13    2.61
  -7  -3  -9   -0.42    0.53
  -6  -3  -9    9.03    1.29
  -5  -3  -9   -0.04    0.53
  -4  -3  -9    2.27    0.44
  -3  -3  -9    5.93    0.63
  -2  -3  -9   75.19    1.97
  -1  -3  -9   12.14    0.53
   0  -3  -9   33.75    0.87
   1  -3  -9   11.19    0.54
   2  -3  -9   74.79    1.55
   3  -3  -9    6.62    0.47
   4  -3  -9    1.27    0.35
   5  -3  -9    1.12    0.35
   6  -3  -9    9.13    0.77
   7  -3  -9    0.26    0.39
   8  -3  -9   44.87    2.08
   9  -3  -9    1.13    0.60
  10  -3  -9    0.63    0.58
  11  -3  -9    6.41    1.06
  12  -3  -9    1.88    0.80
 -14  -2  -9    0.11    0.89
 -13  -2  -9    1.02    0.93
 -12  -2  -9   12.09    1.64
 -11  -2  -9    0.63    0.75
 -10  -2  -9    1.02    0.72
  -9  -2  -9    0.46    0.58
  -8  -2  -9   74.86    3.74
  -7  -2  -9    7.66    0.75
  -6  -2  -9   11.16    0.86
  -5  -2  -9   91.06    2.83
  -4  -2  -9    0.27    0.32
  -3  -2  -9    5.29    0.40
  -2  -2  -9    3.29    0.34
  -1  -2  -9    0.20    0.16
   0  -2  -9   -0.11    0.16
   1  -2  -9    0.22    0.18
   2  -2  -9    2.86    0.35
   3  -2  -9    5.32    0.37
   4  -2  -9    0.01    0.25
   5  -2  -9   87.38    2.39
   6  -2  -9   11.13    0.79
   7  -2  -9    9.76    0.77
   8  -2  -9   76.57    2.92
   9  -2  -9    1.04    0.52
  10  -2  -9    0.19    0.48
  11  -2  -9    0.41    0.54
  12  -2  -9    9.98    1.19
  13  -2  -9    2.33    0.77
  14  -2  -9   -0.26    0.84
 -13  -1  -9    0.66    0.78
 -12  -1  -9    0.66    0.76
 -11  -1  -9    6.29    1.14
 -10  -1  -9    1.10    0.45
  -9  -1  -9    1.87    0.47
  -8  -1  -9   69.32    2.39
  -7  -1  -9   -0.01    0.31
  -6  -1  -9   17.54    0.96
  -5  -1  -9    1.01    0.27
  -4  -1  -9    4.56    0.41
  -3  -1  -9   13.25    0.63
  -2  -1  -9  141.32    3.23
  -1  -1  -9   20.57    0.75
   0  -1  -9   62.34    1.34
   1  -1  -9   21.44    0.73
   2  -1  -9  140.19    3.25
   3  -1  -9   11.30    0.66
   4  -1  -9    5.17    0.48
   5  -1  -9    1.27    0.32
   6  -1  -9   15.04    0.90
   7  -1  -9   -0.02    0.27
   8  -1  -9   69.66    2.12
   9  -1  -9    2.47    0.60
  10  -1  -9    0.66    0.50
  11  -1  -9    8.99    1.01
  12  -1  -9    0.80    0.56
  13  -1  -9   -0.59    0.71
  14  -1  -9    7.44    1.65
 -13   0  -9    5.24    1.22
 -12   0  -9   16.20    1.82
 -11   0  -9    0.09    0.64
 -10   0  -9    1.92    0.50
  -9   0  -9    0.73    0.41
  -8   0  -9  105.07    3.15
  -7   0  -9   11.94    0.62
  -6   0  -9   11.91    0.60
  -5   0  -9  126.43    2.90
  -4   0  -9    0.15    0.19
  -3   0  -9    6.82    0.29
  -2   0  -9    3.52    0.23
  -1   0  -9    0.03    0.14
   0   0  -9    0.26    0.20
   1   0  -9   -0.02    0.20
   2   0  -9    3.50    0.36
   3   0  -9    6.89    0.50
   4   0  -9    0.10    0.20
   5   0  -9  123.44    3.02
   6   0  -9   11.48    0.71
   7   0  -9   11.69    0.75
   8   0  -9  100.12    2.68
   9   0  -9    0.71    0.45
  10   0  -9    1.70    0.56
  11   0  -9   -0.33    0.40
  12   0  -9   12.01    1.86
  13   0  -9    5.13    1.39
  14   0  -9    0.91    0.93
 -14   1  -9    9.51    1.64
 -13   1  -9    0.86    0.90
 -12   1  -9    1.09    0.82
 -11   1  -9    9.42    1.41
 -10   1  -9    1.77    0.76
  -9   1  -9    3.06    0.54
  -8   1  -9   74.48    2.48
  -7   1  -9    0.14    0.31
  -6   1  -9   16.75    0.70
  -5   1  -9    2.02    0.29
  -4   1  -9    4.49    0.37
  -3   1  -9   12.52    0.56
  -2   1  -9  139.01    3.19
  -1   1  -9   20.01    0.71
   0   1  -9   59.91    1.57
   1   1  -9   19.54    0.73
   2   1  -9  139.05    3.23
   3   1  -9   10.94    0.58
   4   1  -9    4.40    0.40
   5   1  -9    1.56    0.30
   6   1  -9   15.60    0.76
   7   1  -9   -0.19    0.23
   8   1  -9   71.43    2.65
   9   1  -9    3.54    0.66
  10   1  -9    2.10    0.96
  11   1  -9    8.34    1.60
  12   1  -9    1.61    1.08
  13   1  -9    1.88    1.07
  14   1  -9    9.48    1.77
 -13   2  -9    1.90    1.08
 -12   2  -9    7.83    1.54
 -11   2  -9   -0.66    0.68
 -10   2  -9    1.45    0.51
  -9   2  -9    0.42    0.40
  -8   2  -9   76.57    2.69
  -7   2  -9    6.03    0.75
  -6   2  -9    9.22    0.84
  -5   2  -9   91.03    2.94
  -4   2  -9    0.08    0.34
  -3   2  -9    4.62    0.44
  -2   2  -9    1.95    0.31
  -1   2  -9   -0.42    0.18
   0   2  -9   -0.11    0.19
   1   2  -9   -0.34    0.19
   2   2  -9    3.18    0.36
   3   2  -9    5.36    0.42
   4   2  -9    0.23    0.37
   5   2  -9   92.03    3.02
   6   2  -9    9.98    0.95
   7   2  -9    7.87    0.88
   8   2  -9   70.30    2.72
   9   2  -9    0.16    0.75
  10   2  -9    1.09    0.92
  11   2  -9    1.81    1.11
  12   2  -9   10.02    1.82
  13   2  -9    6.43    1.57
  14   2  -9    1.44    1.17
 -12   3  -9    0.75    0.62
 -11   3  -9    4.42    0.82
 -10   3  -9    0.65    0.54
  -9   3  -9    0.86    0.52
  -8   3  -9   39.98    1.89
  -7   3  -9   -0.39    0.37
  -6   3  -9    9.05    0.92
  -5   3  -9    0.70    0.42
  -4   3  -9    1.41    0.35
  -3   3  -9    6.67    0.58
  -2   3  -9   71.84    2.05
  -1   3  -9   11.44    0.72
   0   3  -9   33.25    1.17
   1   3  -9   12.50    0.99
   2   3  -9   77.92    2.65
   3   3  -9    6.56    0.78
   4   3  -9    2.16    0.56
   5   3  -9   -0.36    0.39
   6   3  -9    9.42    0.97
   7   3  -9    0.23    0.65
   8   3  -9   38.73    2.92
   9   3  -9    1.68    0.97
  10   3  -9    1.81    1.11
  11   3  -9    4.86    1.50
  12   3  -9   -0.17    1.07
 -11   4  -9   -0.28    0.79
 -10   4  -9    1.09    0.60
  -9   4  -9   -0.10    0.51
  -8   4  -9   35.42    1.99
  -7   4  -9    5.10    0.86
  -6   4  -9    4.87    0.79
  -5   4  -9   38.69    1.50
  -4   4  -9   -0.16    0.28
  -3   4  -9    2.32    0.46
  -2   4  -9    0.64    0.44
  -1   4  -9   -0.13    0.38
   0   4  -9   -0.50    0.36
   1   4  -9   -0.10    0.40
   2   4  -9    0.59    0.44
   3   4  -9    1.52    0.59
   4   4  -9    0.54    0.46
   5   4  -9   40.18    2.80
   6   4  -9    3.92    1.15
   7   4  -9    3.26    1.21
   8   4  -9   36.87    3.32
   9   4  -9    0.26    0.97
  10   4  -9    0.73    1.09
  -8   5  -9   14.94    2.15
  -7   5  -9    0.02    0.43
  -6   5  -9    2.93    0.74
  -5   5  -9    1.48    0.58
  -4   5  -9    0.92    0.59
  -3   5  -9    1.70    0.64
  -2   5  -9   27.31    1.83
  -1   5  -9    4.42    0.82
   0   5  -9   15.58    1.38
   1   5  -9    4.44    0.85
   2   5  -9   28.79    1.93
   3   5  -9    3.10    1.09
   4   5  -9    0.05    0.82
   5   5  -9    0.45    0.89
   6   5  -9    4.89    1.37
   7   5  -9   -0.21    1.00
   0   6  -9   -0.30    0.93
  -1  -6  -8    4.06    1.37
  -8  -5  -8   38.74    2.87
  -7  -5  -8    5.04    1.36
  -6  -5  -8   22.33    2.35
  -5  -5  -8    7.40    1.37
  -4  -5  -8    4.92    1.19
  -3  -5  -8   22.65    1.60
  -2  -5  -8   10.30    1.08
  -1  -5  -8    6.75    1.33
   0  -5  -8    0.00    0.76
   1  -5  -8    9.82    1.01
   2  -5  -8   10.47    1.54
   3  -5  -8   21.32    2.12
   4  -5  -8    2.72    0.67
   5  -5  -8    5.57    0.89
   6  -5  -8   24.93    1.79
   7  -5  -8    3.87    0.84
   8  -5  -8   32.12    3.07
 -10  -4  -8    0.85    0.94
  -9  -4  -8    0.71    0.83
  -8  -4  -8   -0.91    0.70
  -7  -4  -8    0.92    0.78
  -6  -4  -8    2.48    0.86
  -5  -4  -8   -0.17    0.66
  -4  -4  -8   12.76    1.54
  -3  -4  -8    0.90    0.50
  -2  -4  -8   41.51    1.77
  -1  -4  -8   11.50    0.99
   0  -4  -8   43.14    1.10
   1  -4  -8   12.97    0.63
   2  -4  -8   39.95    1.06
   3  -4  -8    1.73    0.40
   4  -4  -8    7.84    0.86
   5  -4  -8    0.52    0.44
   6  -4  -8    2.89    0.65
   7  -4  -8    0.10    0.48
   8  -4  -8    0.20    0.48
   9  -4  -8   -0.03    0.53
  10  -4  -8    2.07    0.81
 -12  -3  -8    0.42    0.88
 -11  -3  -8    1.35    0.91
 -10  -3  -8    9.62    1.49
  -9  -3  -8    6.09    1.19
  -8  -3  -8   68.59    3.67
  -7  -3  -8   11.38    1.42
  -6  -3  -8   51.01    2.91
  -5  -3  -8   13.50    1.49
  -4  -3  -8   11.13    1.30
  -3  -3  -8   52.02    1.88
  -2  -3  -8   29.92    0.88
  -1  -3  -8   25.00    0.72
   0  -3  -8   -0.15    0.18
   1  -3  -8   25.97    0.74
   2  -3  -8   29.77    0.80
   3  -3  -8   56.50    1.39
   4  -3  -8   11.80    0.77
   5  -3  -8   12.27    0.82
   6  -3  -8   49.88    2.09
   7  -3  -8   11.39    1.06
   8  -3  -8   69.85    2.75
   9  -3  -8    5.47    0.84
  10  -3  -8    7.54    1.05
  11  -3  -8    0.32    0.60
  12  -3  -8    0.41    0.62
  13  -3  -8    0.67    0.99
 -14  -2  -8   17.11    2.05
 -13  -2  -8   22.36    2.32
 -12  -2  -8    1.20    0.91
 -11  -2  -8    6.30    1.23
 -10  -2  -8    4.03    1.06
  -9  -2  -8    0.52    0.65
  -8  -2  -8    0.52    0.59
  -7  -2  -8    0.76    0.38
  -6  -2  -8    7.70    0.72
  -5  -2  -8    0.11    0.31
  -4  -2  -8   22.72    1.01
  -3  -2  -8    2.70    0.28
  -2  -2  -8   93.40    2.24
  -1  -2  -8   26.97    0.73
   0  -2  -8   95.62    1.77
   1  -2  -8   26.85    0.68
   2  -2  -8   92.07    1.95
   3  -2  -8    2.35    0.25
   4  -2  -8   20.62    0.67
   5  -2  -8    0.05    0.24
   6  -2  -8    8.20    0.67
   7  -2  -8    0.03    0.29
   8  -2  -8    0.33    0.43
   9  -2  -8   -0.13    0.41
  10  -2  -8    2.63    0.69
  11  -2  -8    6.93    0.98
  12  -2  -8    2.54    0.71
  13  -2  -8   25.99    1.88
 -13  -1  -8    0.57    0.82
 -12  -1  -8    0.30    0.71
 -11  -1  -8    0.46    0.74
 -10  -1  -8   12.14    0.99
  -9  -1  -8   10.17    0.86
  -8  -1  -8  127.72    3.69
  -7  -1  -8   22.00    1.05
  -6  -1  -8   98.91    2.87
  -5  -1  -8   24.66    1.08
  -4  -1  -8   21.24    0.72
  -3  -1  -8  112.15    2.50
  -2  -1  -8   57.25    1.44
  -1  -1  -8   51.62    1.08
   0  -1  -8   -0.07    0.12
   1  -1  -8   47.31    1.28
   2  -1  -8   54.47    1.46
   3  -1  -8  102.31    3.14
   4  -1  -8   19.14    0.94
   5  -1  -8   25.06    0.98
   6  -1  -8   94.88    2.52
   7  -1  -8   19.80    0.96
   8  -1  -8  116.20    3.97
   9  -1  -8    8.75    0.97
  10  -1  -8   13.18    1.18
  11  -1  -8    2.56    0.64
  12  -1  -8    0.92    0.58
  13  -1  -8    0.72    0.83
  14  -1  -8   10.51    1.83
 -13   0  -8   35.13    2.46
 -12   0  -8    3.01    0.93
 -11   0  -8    9.02    1.29
 -10   0  -8    4.85    0.66
  -9   0  -8    0.50    0.38
  -8   0  -8    0.51    0.35
  -7   0  -8    0.71    0.25
  -6   0  -8   11.86    0.55
  -5   0  -8   -0.10    0.17
  -4   0  -8   27.81    0.85
  -3   0  -8    2.95    0.30
  -2   0  -8  139.08    2.62
  -1   0  -8   38.98    0.88
   0   0  -8  134.87    3.08
   1   0  -8   35.56    1.07
   2   0  -8  137.86    3.17
   3   0  -8    2.79    0.33
   4   0  -8   27.47    0.95
   5   0  -8   -0.06    0.21
   6   0  -8   11.41    0.65
   7   0  -8    0.75    0.29
   8   0  -8   -0.01    0.38
   9   0  -8    0.04    0.39
  10   0  -8    5.81    0.79
  11   0  -8    8.22    0.94
  12   0  -8    1.09    0.86
  13   0  -8   31.21    2.98
  14   0  -8   18.13    2.30
 -15   1  -8    2.04    1.17
 -14   1  -8   11.40    1.82
 -13   1  -8    2.50    0.99
 -12   1  -8   -0.39    0.69
 -11   1  -8    0.82    0.71
 -10   1  -8   12.98    1.58
  -9   1  -8   11.33    0.89
  -8   1  -8  123.71    3.75
  -7   1  -8   20.52    1.05
  -6   1  -8   93.43    2.28
  -5   1  -8   24.95    0.82
  -4   1  -8   20.56    0.71
  -3   1  -8  106.04    3.13
  -2   1  -8   55.85    1.42
  -1   1  -8   48.30    1.28
   0   1  -8    0.03    0.16
   1   1  -8   47.13    1.30
   2   1  -8   52.28    1.43
   3   1  -8  105.98    2.52
   4   1  -8   21.31    0.77
   5   1  -8   25.86    0.90
   6   1  -8   93.05    2.37
   7   1  -8   19.00    0.69
   8   1  -8  120.44    3.92
   9   1  -8   10.29    0.99
  10   1  -8   11.62    1.67
  11   1  -8    1.01    0.82
  12   1  -8    1.65    0.99
  13   1  -8    2.37    1.04
  14   1  -8   14.87    2.17
 -14   2  -8   15.57    2.14
 -13   2  -8   19.97    2.39
 -12   2  -8    1.75    0.98
 -11   2  -8    5.24    0.78
 -10   2  -8    4.67    0.71
  -9   2  -8    0.87    0.47
  -8   2  -8    0.81    0.41
  -7   2  -8    0.44    0.37
  -6   2  -8    8.02    0.78
  -5   2  -8    0.02    0.33
  -4   2  -8   18.60    1.02
  -3   2  -8    2.28    0.42
  -2   2  -8   89.05    2.28
  -1   2  -8   25.85    0.91
   0   2  -8   97.23    2.34
   1   2  -8   25.09    0.88
   2   2  -8   92.11    2.26
   3   2  -8    2.24    0.29
   4   2  -8   22.82    1.15
   5   2  -8   -0.08    0.39
   6   2  -8    9.98    0.91
   7   2  -8   -0.10    0.41
   8   2  -8    0.39    0.75
   9   2  -8    1.80    0.87
  10   2  -8    4.58    1.21
  11   2  -8    6.23    1.48
  12   2  -8    0.51    1.04
  13   2  -8   22.93    2.66
  14   2  -8   15.40    2.29
 -12   3  -8    0.75    0.60
 -11   3  -8    0.45    0.53
 -10   3  -8    7.09    0.92
  -9   3  -8    4.22    0.74
  -8   3  -8   66.80    2.61
  -7   3  -8   10.71    1.01
  -6   3  -8   51.17    2.10
  -5   3  -8   13.62    1.05
  -4   3  -8   10.74    0.93
  -3   3  -8   56.60    1.66
  -2   3  -8   26.72    1.04
  -1   3  -8   25.03    0.97
   0   3  -8   -0.12    0.25
   1   3  -8   26.34    1.29
   2   3  -8   29.15    1.38
   3   3  -8   54.84    2.12
   4   3  -8    9.49    0.92
   5   3  -8   13.68    1.09
   6   3  -8   53.22    2.14
   7   3  -8    9.88    1.53
   8   3  -8   60.64    3.82
   9   3  -8    5.88    1.37
  10   3  -8    4.61    1.35
  11   3  -8    0.95    1.05
  12   3  -8    1.09    1.08
  13   3  -8   -0.87    0.97
 -11   4  -8    3.51    1.16
 -10   4  -8    2.27    0.72
  -9   4  -8    0.12    0.53
  -8   4  -8    0.13    0.52
  -7   4  -8    0.66    0.50
  -6   4  -8    2.80    0.66
  -5   4  -8    0.48    0.33
  -4   4  -8    8.17    0.73
  -3   4  -8    1.39    0.38
  -2   4  -8   36.87    1.75
  -1   4  -8   13.39    1.10
   0   4  -8   44.38    1.90
   1   4  -8   11.62    1.08
   2   4  -8   42.35    1.85
   3   4  -8    1.34    0.54
   4   4  -8    9.67    1.03
   5   4  -8    0.35    0.70
   6   4  -8    4.93    1.19
   7   4  -8    0.13    0.85
   8   4  -8   -0.30    0.84
   9   4  -8   -0.33    0.93
  10   4  -8    3.95    1.37
  11   4  -8    2.68    1.30
  -8   5  -8   35.40    1.90
  -7   5  -8    3.30    0.65
  -6   5  -8   21.83    1.63
  -5   5  -8    4.83    0.83
  -4   5  -8    2.84    0.69
  -3   5  -8   19.39    1.53
  -2   5  -8   10.89    1.14
  -1   5  -8    9.58    1.07
   0   5  -8   -0.25    0.47
   1   5  -8    9.67    1.10
   2   5  -8   12.23    1.22
   3   5  -8   20.06    2.22
   4   5  -8    5.18    1.32
   5   5  -8    4.35    1.29
   6   5  -8   24.14    2.58
   7   5  -8    4.20    1.38
   8   5  -8   32.10    3.30
  -1   6  -8    5.68    1.55
  -2  -6  -7    1.98    1.20
  -1  -6  -7    0.30    1.03
   0  -6  -7   -0.25    0.93
  -8  -5  -7    0.89    0.89
  -7  -5  -7   12.60    1.78
  -6  -5  -7    1.79    0.95
  -5  -5  -7    1.30    0.89
  -4  -5  -7    0.48    0.59
  -3  -5  -7   21.38    1.55
  -2  -5  -7    2.60    0.69
  -1  -5  -7    5.48    1.26
   0  -5  -7   65.04    3.58
   1  -5  -7    6.59    1.27
   2  -5  -7    3.28    0.68
   3  -5  -7   23.28    2.23
   4  -5  -7    1.25    0.78
   5  -5  -7    2.65    0.72
   6  -5  -7    0.73    0.56
   7  -5  -7   12.80    1.31
   8  -5  -7    0.05    0.59
 -11  -4  -7   -0.06    0.82
 -10  -4  -7   21.76    2.32
  -9  -4  -7    0.25    0.76
  -8  -4  -7   10.09    1.55
  -7  -4  -7   -0.39    0.59
  -6  -4  -7   31.69    2.34
  -5  -4  -7    1.47    0.74
  -4  -4  -7    0.04    0.44
  -3  -4  -7   25.47    1.35
  -2  -4  -7    1.88    0.51
  -1  -4  -7    1.75    0.51
   0  -4  -7   -0.18    0.21
   1  -4  -7    1.56    0.29
   2  -4  -7    3.00    0.34
   3  -4  -7   24.20    1.04
   4  -4  -7    0.04    0.38
   5  -4  -7    2.84    0.64
   6  -4  -7   35.77    1.75
   7  -4  -7    0.33    0.45
   8  -4  -7    9.56    1.11
   9  -4  -7   -0.04    0.55
  10  -4  -7   22.72    1.81
  11  -4  -7    0.00    0.62
 -13  -3  -7    6.07    1.42
 -12  -3  -7    0.58    0.87
 -11  -3  -7    6.38    1.31
 -10  -3  -7   18.19    2.03
  -9  -3  -7   -0.43    0.63
  -8  -3  -7    1.22    0.70
  -7  -3  -7   23.65    1.88
  -6  -3  -7    0.41    0.58
  -5  -3  -7    5.53    1.00
  -4  -3  -7    1.83    0.67
  -3  -3  -7   53.61    1.56
  -2  -3  -7   10.24    0.53
  -1  -3  -7   18.82    0.61
   0  -3  -7  181.64    3.22
   1  -3  -7   18.90    0.61
   2  -3  -7    9.45    0.48
   3  -3  -7   56.08    1.37
   4  -3  -7    3.38    0.35
   5  -3  -7    5.81    0.59
   6  -3  -7    1.58    0.47
   7  -3  -7   26.70    1.45
   8  -3  -7    0.52    0.43
   9  -3  -7    0.38    0.45
  10  -3  -7   17.63    1.53
  11  -3  -7    5.13    0.94
  12  -3  -7    1.93    0.73
  13  -3  -7    4.34    1.30
 -14  -2  -7    0.24    0.99
 -13  -2  -7    1.02    0.91
 -12  -2  -7    0.17    0.80
 -11  -2  -7    0.54    0.72
 -10  -2  -7   39.12    2.50
  -9  -2  -7   -0.01    0.56
  -8  -2  -7   19.00    1.79
  -7  -2  -7   -1.01    0.41
  -6  -2  -7   75.08    2.46
  -5  -2  -7    6.73    0.62
  -4  -2  -7    0.51    0.29
  -3  -2  -7   57.08    1.46
  -2  -2  -7    6.32    0.41
  -1  -2  -7    3.77    0.25
   0  -2  -7   -0.11    0.13
   1  -2  -7    3.96    0.27
   2  -2  -7    6.17    0.33
   3  -2  -7   57.10    1.32
   4  -2  -7    0.01    0.16
   5  -2  -7    7.29    0.58
   6  -2  -7   76.62    2.16
   7  -2  -7    0.39    0.37
   8  -2  -7   21.67    1.36
   9  -2  -7    0.83    0.49
  10  -2  -7   34.99    1.87
  11  -2  -7   -0.32    0.45
  12  -2  -7    0.18    0.51
  13  -2  -7    1.41    0.68
  14  -2  -7    0.62    0.86
 -13  -1  -7    8.03    1.34
 -12  -1  -7    1.38    0.80
 -11  -1  -7    8.51    1.25
 -10  -1  -7   30.32    1.41
  -9  -1  -7    0.15    0.33
  -8  -1  -7    0.51    0.37
  -7  -1  -7   46.42    1.66
  -6  -1  -7    3.22    0.47
  -5  -1  -7   11.78    0.77
  -4  -1  -7    6.51    0.35
  -3  -1  -7  106.94    2.42
  -2  -1  -7   18.54    0.63
  -1  -1  -7   36.94    0.84
   0  -1  -7  363.99    6.55
   1  -1  -7   37.15    0.89
   2  -1  -7   17.42    0.67
   3  -1  -7  103.31    3.07
   4  -1  -7    5.89    0.47
   5  -1  -7   11.03    0.69
   6  -1  -7    2.98    0.41
   7  -1  -7   47.51    1.51
   8  -1  -7    0.36    0.38
   9  -1  -7    0.55    0.43
  10  -1  -7   29.74    1.68
  11  -1  -7    6.84    0.91
  12  -1  -7    1.16    0.55
  13  -1  -7    7.61    1.54
  14  -1  -7   10.79    1.79
 -13   0  -7    0.85    0.87
 -12   0  -7    1.78    0.79
 -11   0  -7   -0.43    0.55
 -10   0  -7   52.44    1.96
  -9   0  -7   -0.08    0.33
  -8   0  -7   28.04    1.22
  -7   0  -7    0.19    0.21
  -6   0  -7  118.02    2.62
  -5   0  -7    9.45    0.46
  -4   0  -7    0.12    0.16
  -3   0  -7   84.58    1.96
  -2   0  -7    9.44    0.32
  -1   0  -7    6.15    0.39
   0   0  -7    0.00    0.16
   1   0  -7    6.23    0.40
   2   0  -7    9.16    0.50
   3   0  -7   83.28    2.04
   4   0  -7    0.00    0.11
   5   0  -7    8.61    0.40
   6   0  -7  106.73    2.30
   7   0  -7    0.47    0.26
   8   0  -7   26.54    1.36
   9   0  -7   -0.09    0.32
  10   0  -7   51.83    2.12
  11   0  -7   -0.08    0.38
  12   0  -7    0.72    0.77
  13   0  -7    1.98    1.03
  14   0  -7    1.88    1.05
  15   0  -7    0.34    0.91
 -15   1  -7   -0.95    0.90
 -14   1  -7   11.54    1.78
 -13   1  -7    5.62    1.28
 -12   1  -7    2.29    0.89
 -11   1  -7    7.65    1.28
 -10   1  -7   34.18    2.19
  -9   1  -7    0.59    0.35
  -8   1  -7    0.26    0.33
  -7   1  -7   46.37    1.30
  -6   1  -7    3.56    0.33
  -5   1  -7   11.90    0.53
  -4   1  -7    6.60    0.39
  -3   1  -7  107.21    2.42
  -2   1  -7   18.43    0.63
  -1   1  -7   38.11    1.03
   0   1  -7  361.67    7.61
   1   1  -7   38.21    1.05
   2   1  -7   18.11    0.65
   3   1  -7  102.55    2.46
   4   1  -7    6.32    0.42
   5   1  -7   12.03    0.57
   6   1  -7    3.24    0.36
   7   1  -7   42.68    1.38
   8   1  -7    0.02    0.27
   9   1  -7    0.38    0.40
  10   1  -7   29.77    2.66
  11   1  -7    7.69    1.48
  12   1  -7    2.90    1.14
  13   1  -7    8.86    1.65
  14   1  -7    8.13    1.63
  15   1  -7    1.42    1.05
 -14   2  -7    2.06    1.06
 -13   2  -7    1.53    0.95
 -12   2  -7    0.15    0.76
 -11   2  -7   -0.32    0.40
 -10   2  -7   33.81    1.69
  -9   2  -7   -0.74    0.32
  -8   2  -7   19.58    1.19
  -7   2  -7    0.46    0.36
  -6   2  -7   79.62    2.62
  -5   2  -7    6.34    0.66
  -4   2  -7    0.25    0.31
  -3   2  -7   57.64    1.95
  -2   2  -7    5.69    0.44
  -1   2  -7    4.31    0.38
   0   2  -7    0.05    0.18
   1   2  -7    4.55    0.38
   2   2  -7    5.61    0.40
   3   2  -7   57.56    1.49
   4   2  -7   -0.03    0.32
   5   2  -7    6.22    0.71
   6   2  -7   77.02    2.68
   7   2  -7    0.46    0.42
   8   2  -7   18.69    1.15
   9   2  -7    0.58    0.46
  10   2  -7   41.21    2.94
  11   2  -7    1.00    0.93
  12   2  -7    0.85    0.96
  13   2  -7    0.91    1.06
  14   2  -7    3.40    1.37
 -12   3  -7    1.46    0.63
 -11   3  -7    5.03    0.83
 -10   3  -7   19.03    2.09
  -9   3  -7    0.18    0.41
  -8   3  -7   -0.14    0.38
  -7   3  -7   24.87    1.36
  -6   3  -7    2.27    0.52
  -5   3  -7    5.04    0.66
  -4   3  -7    1.98    0.48
  -3   3  -7   55.30    2.01
  -2   3  -7   10.93    0.68
  -1   3  -7   18.07    0.84
   0   3  -7  182.29    5.27
   1   3  -7   18.29    1.11
   2   3  -7    8.52    0.79
   3   3  -7   57.09    2.09
   4   3  -7    3.06    0.58
   5   3  -7    7.38    0.83
   6   3  -7    1.45    0.74
   7   3  -7   26.11    2.38
   8   3  -7    0.75    0.78
   9   3  -7   -0.52    0.45
  10   3  -7   17.01    2.24
  11   3  -7    3.54    1.26
  12   3  -7    0.75    1.13
  13   3  -7    1.83    1.23
 -11   4  -7   -0.12    0.52
 -10   4  -7   18.57    1.57
  -9   4  -7    0.13    0.52
  -8   4  -7   10.10    1.11
  -7   4  -7    0.66    0.50
  -6   4  -7   33.63    1.70
  -5   4  -7    2.14    0.57
  -4   4  -7    0.22    0.31
  -3   4  -7   24.07    1.10
  -2   4  -7    2.40    0.55
  -1   4  -7    2.38    0.54
   0   4  -7   -0.99    0.29
   1   4  -7    1.76    0.53
   2   4  -7    2.97    0.60
   3   4  -7   26.69    1.52
   4   4  -7    0.08    0.46
   5   4  -7    1.50    0.84
   6   4  -7   31.62    2.48
   7   4  -7    0.25    0.77
   8   4  -7   10.20    1.76
   9   4  -7   -1.45    0.76
  10   4  -7   20.12    1.65
  11   4  -7   -0.29    1.03
  -8   5  -7    0.12    0.63
  -7   5  -7   12.43    1.02
  -6   5  -7    1.17    0.55
  -5   5  -7    2.28    0.65
  -4   5  -7    0.55    0.52
  -3   5  -7   18.52    1.47
  -2   5  -7    4.21    0.75
  -1   5  -7    7.30    0.94
   0   5  -7   59.20    2.57
   1   5  -7    6.50    0.95
   2   5  -7    2.27    0.66
   3   5  -7   18.89    2.14
   4   5  -7    1.05    0.83
   5   5  -7    0.64    0.91
   6   5  -7    2.03    1.10
   7   5  -7   16.01    2.17
   8   5  -7   -0.86    0.89
  -2   6  -7    1.92    1.12
  -1   6  -7    1.65    1.06
  -2  -6  -6    2.59    1.26
  -1  -6  -6   13.34    1.96
   0  -6  -6    4.51    1.31
  -8  -5  -6    8.70    1.63
  -7  -5  -6    2.65    1.07
  -6  -5  -6    0.72    0.87
  -5  -5  -6   -0.03    0.55
  -4  -5  -6    6.61    0.96
  -3  -5  -6    0.76    0.55
  -2  -5  -6    0.76    0.83
  -1  -5  -6    6.34    1.23
   0  -5  -6    0.30    0.73
   1  -5  -6    5.86    1.19
   2  -5  -6    0.48    0.49
   3  -5  -6    0.25    0.74
   4  -5  -6    9.47    1.47
   5  -5  -6   -0.49    0.64
   6  -5  -6    0.34    0.74
   7  -5  -6   -0.07    0.71
   8  -5  -6    5.94    1.38
 -11  -4  -6    0.08    0.86
 -10  -4  -6    2.04    0.97
  -9  -4  -6    6.72    1.32
  -8  -4  -6   24.99    2.37
  -7  -4  -6    0.01    0.62
  -6  -4  -6   25.52    2.28
  -5  -4  -6    2.36    0.62
  -4  -4  -6    9.75    0.95
  -3  -4  -6   18.75    1.29
  -2  -4  -6    5.88    0.75
  -1  -4  -6   36.97    1.63
   0  -4  -6   11.49    0.65
   1  -4  -6   38.46    1.01
   2  -4  -6    6.18    0.59
   3  -4  -6   18.28    0.96
   4  -4  -6   11.02    1.01
   5  -4  -6    2.38    0.58
   6  -4  -6   26.52    1.59
   7  -4  -6    0.91    0.50
   8  -4  -6   26.83    1.80
   9  -4  -6    5.07    0.89
  10  -4  -6    2.82    0.75
  11  -4  -6    0.11    0.60
 -13  -3  -6   -1.47    0.88
 -12  -3  -6    0.83    0.91
 -11  -3  -6    3.85    1.12
 -10  -3  -6    1.19    0.86
  -9  -3  -6    1.44    0.80
  -8  -3  -6   13.06    1.61
  -7  -3  -6    4.82    1.01
  -6  -3  -6    0.76    0.61
  -5  -3  -6    0.73    0.60
  -4  -3  -6   18.95    1.16
  -3  -3  -6    1.74    0.32
  -2  -3  -6    2.16    0.28
  -1  -3  -6   15.41    0.55
   0  -3  -6    0.01    0.17
   1  -3  -6   16.32    0.56
   2  -3  -6    1.87    0.25
   3  -3  -6    1.04    0.25
   4  -3  -6   22.11    0.76
   5  -3  -6   -0.05    0.31
   6  -3  -6    1.15    0.45
   7  -3  -6    3.96    0.67
   8  -3  -6   15.49    1.24
   9  -3  -6    0.47    0.45
  10  -3  -6    0.63    0.53
  11  -3  -6    3.48    0.80
  12  -3  -6    0.43    0.61
  13  -3  -6   -0.45    0.60
 -14  -2  -6    1.15    1.00
 -13  -2  -6   -0.27    0.77
 -12  -2  -6    2.96    0.98
 -11  -2  -6    0.54    0.73
 -10  -2  -6    2.20    0.84
  -9  -2  -6    7.05    1.16
  -8  -2  -6   54.84    2.96
  -7  -2  -6    0.96    0.59
  -6  -2  -6   59.45    1.99
  -5  -2  -6    5.74    0.56
  -4  -2  -6   22.44    0.97
  -3  -2  -6   43.29    1.15
  -2  -2  -6   15.11    0.51
  -1  -2  -6   90.67    1.65
   0  -2  -6   28.34    0.67
   1  -2  -6   89.27    1.66
   2  -2  -6   14.98    0.46
   3  -2  -6   43.80    1.06
   4  -2  -6   22.27    0.69
   5  -2  -6    5.61    0.37
   6  -2  -6   62.78    1.79
   7  -2  -6    0.26    0.38
   8  -2  -6   57.46    2.26
   9  -2  -6    8.21    0.95
  10  -2  -6    5.09    0.80
  11  -2  -6    0.71    0.52
  12  -2  -6    2.19    0.68
  13  -2  -6    0.81    0.62
  14  -2  -6    0.04    0.85
 -13  -1  -6    0.16    0.81
 -12  -1  -6    0.00    0.69
 -11  -1  -6    2.65    0.83
 -10  -1  -6    3.04    0.53
  -9  -1  -6    1.29    0.41
  -8  -1  -6   27.50    1.22
  -7  -1  -6    6.99    0.64
  -6  -1  -6    2.90    0.43
  -5  -1  -6    1.09    0.30
  -4  -1  -6   39.59    1.36
  -3  -1  -6    1.54    0.18
  -2  -1  -6    3.70    0.28
  -1  -1  -6   34.42    0.77
   0  -1  -6    0.10    0.12
   1  -1  -6   33.23    0.81
   2  -1  -6    2.92    0.29
   3  -1  -6    0.92    0.23
   4  -1  -6   39.61    1.18
   5  -1  -6    0.91    0.26
   6  -1  -6    2.84    0.39
   7  -1  -6    7.51    0.79
   8  -1  -6   26.57    1.45
   9  -1  -6    0.71    0.44
  10  -1  -6    3.57    0.66
  11  -1  -6    3.34    0.66
  12  -1  -6   -0.30    0.43
  13  -1  -6    0.06    0.76
  14  -1  -6   10.10    1.76
  15  -1  -6    7.81    1.59
 -13   0  -6    0.09    0.79
 -12   0  -6    2.89    0.92
 -11   0  -6    1.11    0.48
 -10   0  -6    6.69    0.71
  -9   0  -6   14.38    0.96
  -8   0  -6   79.04    1.97
  -7   0  -6    0.65    0.23
  -6   0  -6   88.73    2.07
  -5   0  -6    8.46    0.43
  -4   0  -6   35.64    0.94
  -3   0  -6   66.90    1.59
  -2   0  -6   23.16    0.70
  -1   0  -6  150.65    2.81
   0   0  -6   47.54    1.18
   1   0  -6  149.62    3.33
   2   0  -6   24.16    0.78
   3   0  -6   66.11    1.68
   4   0  -6   32.57    0.81
   5   0  -6    7.43    0.38
   6   0  -6   83.79    1.85
   7   0  -6    0.56    0.30
   8   0  -6   71.90    2.62
   9   0  -6   12.93    1.04
  10   0  -6    4.55    0.69
  11   0  -6    0.90    0.74
  12   0  -6    3.05    1.02
  13   0  -6   -0.05    0.70
  14   0  -6   -0.02    0.77
  15   0  -6    1.21    0.99
 -15   1  -6    9.50    1.69
 -14   1  -6    8.30    1.54
 -13   1  -6   -0.22    0.69
 -12   1  -6    0.69    0.76
 -11   1  -6    4.02    0.99
 -10   1  -6    4.14    0.58
  -9   1  -6    1.15    0.40
  -8   1  -6   28.14    1.24
  -7   1  -6    6.97    0.48
  -6   1  -6    2.85    0.30
  -5   1  -6    1.29    0.21
  -4   1  -6   40.30    1.06
  -3   1  -6    1.44    0.19
  -2   1  -6    3.00    0.37
  -1   1  -6   35.27    0.94
   0   1  -6   -0.16    0.13
   1   1  -6   34.59    0.95
   2   1  -6    2.91    0.28
   3   1  -6    1.56    0.21
   4   1  -6   38.64    1.11
   5   1  -6    1.02    0.23
   6   1  -6    2.74    0.50
   7   1  -6    8.16    0.57
   8   1  -6   26.10    1.05
   9   1  -6    1.46    0.48
  10   1  -6    2.41    0.93
  11   1  -6    5.01    1.22
  12   1  -6   -0.25    0.74
  13   1  -6    0.69    0.90
  14   1  -6    7.06    1.54
  15   1  -6   10.26    1.90
 -14   2  -6   -0.77    0.82
 -13   2  -6    0.42    0.81
 -12   2  -6    2.28    0.98
 -11   2  -6    0.72    0.47
 -10   2  -6    4.11    0.66
  -9   2  -6    7.38    0.81
  -8   2  -6   55.13    2.10
  -7   2  -6    0.64    0.36
  -6   2  -6   55.86    2.10
  -5   2  -6    5.80    0.61
  -4   2  -6   21.59    1.04
  -3   2  -6   42.09    1.55
  -2   2  -6   13.98    0.77
  -1   2  -6   89.48    2.18
   0   2  -6   28.26    0.89
   1   2  -6   91.51    2.16
   2   2  -6   14.41    0.59
   3   2  -6   41.74    1.15
   4   2  -6   22.42    1.11
   5   2  -6    5.91    0.66
   6   2  -6   62.94    2.21
   7   2  -6    0.37    0.41
   8   2  -6   55.06    2.13
   9   2  -6    8.78    0.91
  10   2  -6    1.82    1.01
  11   2  -6    0.93    0.91
  12   2  -6    2.27    1.15
  13   2  -6    0.59    0.94
  14   2  -6   -0.81    0.91
 -13   3  -6    1.53    0.99
 -12   3  -6   -0.57    0.51
 -11   3  -6    1.84    0.63
 -10   3  -6    1.11    0.52
  -9   3  -6    0.26    0.45
  -8   3  -6   14.53    1.18
  -7   3  -6    4.23    0.66
  -6   3  -6    1.27    0.47
  -5   3  -6    0.69    0.38
  -4   3  -6   19.52    1.09
  -3   3  -6    0.87    0.36
  -2   3  -6    1.68    0.34
  -1   3  -6   15.07    0.76
   0   3  -6   -0.03    0.21
   1   3  -6   16.82    1.01
   2   3  -6    1.93    0.47
   3   3  -6    0.96    0.40
   4   3  -6   21.38    1.24
   5   3  -6    0.08    0.38
   6   3  -6    1.38    0.72
   7   3  -6    2.08    0.90
   8   3  -6   13.03    1.73
   9   3  -6    0.58    0.55
  10   3  -6    2.13    0.68
  11   3  -6    3.99    1.33
  12   3  -6    2.45    1.23
  13   3  -6    0.41    1.10
 -11   4  -6    0.96    0.64
 -10   4  -6    2.70    0.74
  -9   4  -6    3.62    0.76
  -8   4  -6   28.07    1.66
  -7   4  -6    0.38    0.46
  -6   4  -6   24.95    1.52
  -5   4  -6    2.22    0.57
  -4   4  -6   10.74    0.97
  -3   4  -6   18.43    0.96
  -2   4  -6    6.90    0.63
  -1   4  -6   35.37    1.68
   0   4  -6    9.84    0.95
   1   4  -6   39.29    1.74
   2   4  -6    5.14    0.74
   3   4  -6   18.87    1.33
   4   4  -6   11.98    1.55
   5   4  -6    1.88    0.84
   6   4  -6   31.61    2.64
   7   4  -6   -0.02    0.75
   8   4  -6   27.45    2.73
   9   4  -6    3.89    0.82
  10   4  -6    3.34    0.84
  11   4  -6    1.35    1.12
  -8   5  -6    8.45    1.11
  -7   5  -6    1.42    0.66
  -6   5  -6    0.87    0.47
  -5   5  -6   -0.03    0.45
  -4   5  -6    5.95    0.87
  -3   5  -6    0.29    0.46
  -2   5  -6   -0.10    0.42
  -1   5  -6    6.01    0.84
   0   5  -6    0.08    0.44
   1   5  -6    7.11    0.96
   2   5  -6   -0.37    0.60
   3   5  -6    0.23    0.71
   4   5  -6    7.10    1.40
   5   5  -6   -0.19    0.73
   6   5  -6    0.22    0.89
   7   5  -6    2.22    1.18
   8   5  -6    7.19    1.65
  -2   6  -6    5.14    1.40
  -1   6  -6    9.38    1.79
  -2  -6  -5   38.66    2.97
  -1  -6  -5    4.39    1.35
   0  -6  -5    0.39    0.92
   1  -6  -5    0.85    1.02
  -8  -5  -5    4.96    1.32
  -7  -5  -5    0.70    0.84
  -6  -5  -5    0.79    0.79
  -5  -5  -5    1.26    0.62
  -4  -5  -5   32.92    1.72
  -3  -5  -5    1.80    0.64
  -2  -5  -5    2.56    0.96
  -1  -5  -5    5.33    1.17
   0  -5  -5    2.03    0.86
   1  -5  -5    5.24    1.12
   2  -5  -5    2.86    0.64
   3  -5  -5    2.31    0.64
   4  -5  -5   30.04    2.66
   5  -5  -5    0.25    0.73
   6  -5  -5    0.39    0.74
   7  -5  -5    0.86    0.84
   8  -5  -5   12.38    1.86
 -11  -4  -5    1.87    1.02
 -10  -4  -5    0.01    0.84
  -9  -4  -5    0.41    0.75
  -8  -4  -5    0.48    0.70
  -7  -4  -5    1.12    0.75
  -6  -4  -5    5.90    1.16
  -5  -4  -5    2.08    0.59
  -4  -4  -5    0.67    0.46
  -3  -4  -5    0.18    0.41
  -2  -4  -5   94.28    3.12
  -1  -4  -5    9.19    0.85
   0  -4  -5    0.20    0.29
   1  -4  -5    6.98    0.59
   2  -4  -5   97.03    2.54
   3  -4  -5    0.55    0.32
   4  -4  -5    0.04    0.29
   5  -4  -5    1.03    0.44
   6  -4  -5    4.87    0.75
   7  -4  -5    1.55    0.54
   8  -4  -5   -0.15    0.42
   9  -4  -5    1.02    0.55
  10  -4  -5    1.54    0.68
  11  -4  -5    1.39    0.66
 -13  -3  -5   -1.68    0.75
 -12  -3  -5   17.80    2.05
 -11  -3  -5    0.71    0.76
 -10  -3  -5    5.03    1.15
  -9  -3  -5    4.17    1.03
  -8  -3  -5   21.64    2.02
  -7  -3  -5    2.51    0.79
  -6  -3  -5    0.24    0.55
  -5  -3  -5    4.25    0.64
  -4  -3  -5   74.48    2.50
  -3  -3  -5    5.16    0.44
  -2  -3  -5    6.94    0.51
  -1  -3  -5   14.82    0.53
   0  -3  -5   11.14    0.47
   1  -3  -5   14.65    0.55
   2  -3  -5    6.52    0.39
   3  -3  -5    5.79    0.43
   4  -3  -5   72.39    1.95
   5  -3  -5    4.25    0.43
   6  -3  -5   -0.15    0.29
   7  -3  -5    3.37    0.61
   8  -3  -5   26.24    1.51
   9  -3  -5    5.67    0.77
  10  -3  -5    7.05    0.97
  11  -3  -5    0.47    0.56
  12  -3  -5   20.85    1.67
  13  -3  -5    0.04    0.60
 -14  -2  -5    0.14    0.81
 -13  -2  -5    3.10    1.14
 -12  -2  -5   72.31    4.06
 -11  -2  -5    2.19    0.88
 -10  -2  -5    6.21    1.19
  -9  -2  -5    1.52    0.67
  -8  -2  -5    0.00    0.52
  -7  -2  -5    5.11    0.91
  -6  -2  -5   12.28    0.81
  -5  -2  -5    3.50    0.44
  -4  -2  -5    0.31    0.25
  -3  -2  -5    0.89    0.23
  -2  -2  -5  230.56    4.24
  -1  -2  -5   18.22    0.50
   0  -2  -5   -0.20    0.11
   1  -2  -5   18.99    0.51
   2  -2  -5  219.80    3.79
   3  -2  -5    1.03    0.19
   4  -2  -5    0.36    0.17
   5  -2  -5    3.47    0.30
   6  -2  -5   11.15    0.93
   7  -2  -5    3.94    0.63
   8  -2  -5   -0.27    0.33
   9  -2  -5    2.54    0.61
  10  -2  -5    7.73    0.93
  11  -2  -5    1.85    0.59
  12  -2  -5   78.16    3.05
  13  -2  -5    3.69    0.79
  14  -2  -5    0.71    0.90
 -14  -1  -5    7.57    1.46
 -13  -1  -5   -0.67    0.64
 -12  -1  -5   30.08    2.19
 -11  -1  -5    0.95    0.69
 -10  -1  -5    9.37    0.84
  -9  -1  -5   11.76    0.87
  -8  -1  -5   43.30    1.59
  -7  -1  -5    4.86    0.53
  -6  -1  -5   -0.09    0.25
  -5  -1  -5    8.39    0.59
  -4  -1  -5  148.08    3.98
  -3  -1  -5   11.14    0.38
  -2  -1  -5   12.02    0.43
  -1  -1  -5   35.02    0.76
   0  -1  -5   24.97    0.54
   1  -1  -5   33.54    0.70
   2  -1  -5   11.60    0.38
   3  -1  -5   11.29    0.38
   4  -1  -5  143.06    3.23
   5  -1  -5    8.03    0.34
   6  -1  -5    0.09    0.15
   7  -1  -5    2.76    0.54
   8  -1  -5   40.01    1.76
   9  -1  -5    9.31    0.92
  10  -1  -5   10.84    1.02
  11  -1  -5    1.01    0.49
  12  -1  -5   30.44    1.70
  13  -1  -5    0.22    0.74
  14  -1  -5   11.90    1.84
  15  -1  -5    0.42    0.81
 -12   0  -5  108.72    4.86
 -11   0  -5    3.61    0.61
 -10   0  -5   13.36    0.97
  -9   0  -5    4.59    0.59
  -8   0  -5    0.10    0.21
  -7   0  -5    5.85    0.41
  -6   0  -5   18.12    0.64
  -5   0  -5    5.35    0.35
  -4   0  -5    0.80    0.17
  -3   0  -5    1.55    0.19
  -2   0  -5  368.94    7.58
  -1   0  -5   31.54    0.69
   0   0  -5   -0.32    0.16
   1   0  -5   31.09    0.88
   2   0  -5  354.93    7.64
   3   0  -5    1.68    0.23
   4   0  -5    0.85    0.16
   5   0  -5    5.11    0.32
   6   0  -5   17.18    0.62
   7   0  -5    5.12    0.48
   8   0  -5   -0.19    0.30
   9   0  -5    3.86    0.61
  10   0  -5   10.96    0.97
  11   0  -5    3.24    1.02
  12   0  -5   95.44    5.09
  13   0  -5    6.00    1.29
  14   0  -5   -0.59    0.78
  15   0  -5   -0.91    0.81
 -15   1  -5    0.07    0.91
 -14   1  -5    8.61    1.55
 -13   1  -5   -1.04    0.66
 -12   1  -5   29.83    2.23
 -11   1  -5    0.93    0.68
 -10   1  -5   10.46    0.86
  -9   1  -5   10.55    0.83
  -8   1  -5   43.70    1.63
  -7   1  -5    4.19    0.37
  -6   1  -5   -0.15    0.17
  -5   1  -5    8.06    0.41
  -4   1  -5  152.07    3.24
  -3   1  -5   11.56    0.41
  -2   1  -5   12.15    0.61
  -1   1  -5   35.77    0.93
   0   1  -5   24.89    0.73
   1   1  -5   33.18    0.91
   2   1  -5   11.36    0.45
   3   1  -5   11.15    0.45
   4   1  -5  140.69    3.28
   5   1  -5    7.63    0.43
   6   1  -5   -0.14    0.21
   7   1  -5    4.79    0.45
   8   1  -5   40.18    1.34
   9   1  -5   10.93    0.96
  10   1  -5   10.27    1.51
  11   1  -5    2.36    1.01
  12   1  -5   28.64    2.71
  13   1  -5   -0.18    0.78
  14   1  -5   10.63    1.73
  15   1  -5    0.57    1.03
 -14   2  -5    1.06    0.96
 -13   2  -5    3.38    1.13
 -12   2  -5   76.45    4.15
 -11   2  -5    2.38    0.56
 -10   2  -5    6.67    0.80
  -9   2  -5    2.43    0.52
  -8   2  -5    0.17    0.34
  -7   2  -5    4.23    0.56
  -6   2  -5   11.25    0.87
  -5   2  -5    3.53    0.48
  -4   2  -5    0.46    0.28
  -3   2  -5    1.21    0.32
  -2   2  -5  239.81    8.48
  -1   2  -5   18.40    0.68
   0   2  -5    0.07    0.16
   1   2  -5   19.43    0.66
   2   2  -5  224.68    4.88
   3   2  -5    1.12    0.33
   4   2  -5    0.61    0.33
   5   2  -5    4.15    0.55
   6   2  -5   12.60    0.93
   7   2  -5    3.71    0.58
   8   2  -5   -0.52    0.36
   9   2  -5    1.74    0.55
  10   2  -5    6.11    0.84
  11   2  -5    2.88    1.15
  12   2  -5   76.21    4.41
  13   2  -5    7.70    1.55
  14   2  -5   -0.86    0.79
 -13   3  -5    0.22    0.94
 -12   3  -5   14.90    1.90
 -11   3  -5   -0.11    0.49
 -10   3  -5    4.89    0.81
  -9   3  -5    5.88    0.79
  -8   3  -5   21.30    1.35
  -7   3  -5    4.64    0.66
  -6   3  -5   -0.57    0.30
  -5   3  -5    3.71    0.57
  -4   3  -5   72.74    2.48
  -3   3  -5    5.50    0.62
  -2   3  -5    6.08    0.62
  -1   3  -5   14.55    0.72
   0   3  -5   11.06    0.64
   1   3  -5   14.91    0.70
   2   3  -5    5.91    0.66
   3   3  -5    5.83    0.64
   4   3  -5   72.82    2.51
   5   3  -5    3.16    0.56
   6   3  -5   -0.37    0.53
   7   3  -5    2.91    0.94
   8   3  -5   22.48    2.23
   9   3  -5    6.65    0.88
  10   3  -5    5.88    0.91
  11   3  -5    1.57    1.05
  12   3  -5   19.96    2.47
  13   3  -5    0.36    1.01
 -11   4  -5    0.58    0.60
 -10   4  -5    4.02    0.80
  -9   4  -5    0.70    0.55
  -8   4  -5    0.34    0.50
  -7   4  -5    1.00    0.57
  -6   4  -5    4.17    0.74
  -5   4  -5    1.46    0.52
  -4   4  -5    0.07    0.39
  -3   4  -5    0.26    0.29
  -2   4  -5   89.46    2.51
  -1   4  -5    7.41    0.76
   0   4  -5    0.04    0.36
   1   4  -5    6.46    0.78
   2   4  -5   97.04    3.23
   3   4  -5    0.12    0.37
   4   4  -5   -0.13    0.59
   5   4  -5    1.49    0.77
   6   4  -5    4.07    1.10
   7   4  -5   -0.46    0.67
   8   4  -5    0.30    0.87
   9   4  -5    1.24    0.65
  10   4  -5    3.34    0.84
  11   4  -5    1.42    0.76
  12   4  -5   51.73    3.85
  -9   5  -5    2.81    1.21
  -8   5  -5   10.39    1.21
  -7   5  -5    1.61    0.66
  -6   5  -5    0.48    0.54
  -5   5  -5    1.73    0.57
  -4   5  -5   29.51    1.64
  -3   5  -5    2.19    0.62
  -2   5  -5    2.47    0.61
  -1   5  -5    5.51    0.82
   0   5  -5    2.00    0.60
   1   5  -5    5.41    0.83
   2   5  -5    3.39    1.01
   3   5  -5    1.36    0.80
   4   5  -5   30.44    2.73
   5   5  -5    1.30    0.92
   6   5  -5    0.41    0.79
   7   5  -5    1.63    1.08
   8   5  -5   11.79    1.96
   9   5  -5    1.75    1.24
  -3   6  -5    0.84    0.97
  -2   6  -5   27.86    2.99
  -1   6  -5    2.43    0.78
   0   6  -5   -0.07    0.80
   1   6  -5    0.35    0.88
   2   6  -5   32.82    3.01
  -2  -6  -4    8.73    1.68
  -1  -6  -4    0.90    1.00
   0  -6  -4    4.52    1.31
   1  -6  -4   -0.23    0.93
  -8  -5  -4    1.53    0.98
  -7  -5  -4    4.46    1.18
  -6  -5  -4   -0.48    0.54
  -5  -5  -4    1.20    0.59
  -4  -5  -4   43.03    2.01
  -3  -5  -4    1.40    0.58
  -2  -5  -4    9.08    1.46
  -1  -5  -4    1.49    0.86
   0  -5  -4   -0.18    0.68
   1  -5  -4    0.97    0.81
   2  -5  -4    5.44    0.80
   3  -5  -4    1.60    0.59
   4  -5  -4   39.17    2.78
   5  -5  -4    0.18    0.72
   6  -5  -4    0.31    0.67
   7  -5  -4    5.49    1.30
   8  -5  -4    0.99    0.79
 -11  -4  -4   -0.68    0.81
 -10  -4  -4    1.80    0.92
  -9  -4  -4    8.52    1.48
  -8  -4  -4    4.02    1.06
  -7  -4  -4   29.11    2.13
  -6  -4  -4   71.55    2.72
  -5  -4  -4    0.49    0.46
  -4  -4  -4   16.92    1.23
  -3  -4  -4    6.30    0.77
  -2  -4  -4   28.64    1.43
  -1  -4  -4   -0.13    0.35
   0  -4  -4    8.67    0.65
   1  -4  -4    0.35    0.29
   2  -4  -4   30.91    1.43
   3  -4  -4    7.12    0.63
   4  -4  -4   15.58    0.93
   5  -4  -4    0.86    0.45
   6  -4  -4   70.57    2.71
   7  -4  -4   25.75    1.57
   8  -4  -4    2.59    0.66
   9  -4  -4    9.90    1.09
  10  -4  -4    1.87    0.68
  11  -4  -4    0.33    0.58
 -13  -3  -4    4.97    1.29
 -12  -3  -4   12.63    1.80
 -11  -3  -4    3.39    1.07
 -10  -3  -4   56.77    3.38
  -9  -3  -4    3.99    1.00
  -8  -3  -4    2.08    0.79
  -7  -3  -4   15.18    1.62
  -6  -3  -4    0.22    0.52
  -5  -3  -4    5.19    0.66
  -4  -3  -4  106.68    3.28
  -3  -3  -4    3.61    0.54
  -2  -3  -4   15.91    0.71
  -1  -3  -4    2.40    0.33
   0  -3  -4   -0.21    0.15
   1  -3  -4    3.78    0.30
   2  -3  -4   16.93    0.57
   3  -3  -4    3.96    0.42
   4  -3  -4  103.17    2.60
   5  -3  -4    4.33    0.44
   6  -3  -4    0.58    0.38
   7  -3  -4   13.18    1.11
   8  -3  -4    2.34    0.55
   9  -3  -4    5.98    0.81
  10  -3  -4   60.38    2.51
  11  -3  -4    3.48    0.78
  12  -3  -4   13.14    1.32
  13  -3  -4    7.58    1.10
 -14  -2  -4    7.01    1.48
 -13  -2  -4    0.33    0.78
 -12  -2  -4    1.20    0.83
 -11  -2  -4   -0.28    0.65
 -10  -2  -4    3.71    0.94
  -9  -2  -4   16.76    1.76
  -8  -2  -4    7.30    1.11
  -7  -2  -4   60.59    3.06
  -6  -2  -4  161.76    4.45
  -5  -2  -4    0.63    0.27
  -4  -2  -4   40.02    1.15
  -3  -2  -4   18.96    0.70
  -2  -2  -4   77.40    1.59
  -1  -2  -4    0.18    0.12
   0  -2  -4   21.08    0.53
   1  -2  -4    0.18    0.13
   2  -2  -4   75.69    1.43
   3  -2  -4   20.45    0.63
   4  -2  -4   39.43    1.01
   5  -2  -4    1.12    0.24
   6  -2  -4  159.62    3.72
   7  -2  -4   60.84    2.22
   8  -2  -4    5.33    0.72
   9  -2  -4   19.41    1.36
  10  -2  -4    2.94    0.64
  11  -2  -4   -0.27    0.45
  12  -2  -4    1.77    0.60
  13  -2  -4    0.17    0.55
  14  -2  -4    9.57    1.67
 -14  -1  -4   32.50    2.51
 -13  -1  -4   12.83    1.63
 -12  -1  -4   21.29    2.04
 -11  -1  -4    4.42    0.98
 -10  -1  -4   98.67    4.62
  -9  -1  -4   11.13    0.84
  -8  -1  -4    3.36    0.47
  -7  -1  -4   28.14    1.17
  -6  -1  -4    0.33    0.26
  -5  -1  -4   10.33    0.60
  -4  -1  -4  217.38    5.61
  -3  -1  -4    7.35    0.49
  -2  -1  -4   35.99    0.89
  -1  -1  -4    7.10    0.25
   0  -1  -4   -0.08    0.10
   1  -1  -4    6.74    0.26
   2  -1  -4   34.90    0.79
   3  -1  -4    7.22    0.30
   4  -1  -4  210.89    4.01
   5  -1  -4    9.82    0.41
   6  -1  -4   -0.11    0.17
   7  -1  -4   27.74    0.96
   8  -1  -4    4.69    0.64
   9  -1  -4   12.59    1.02
  10  -1  -4  103.08    3.46
  11  -1  -4    8.59    0.92
  12  -1  -4   24.09    1.48
  13  -1  -4   11.92    1.78
  14  -1  -4   29.32    2.87
  15  -1  -4    0.63    0.89
 -12   0  -4    1.52    0.79
 -11   0  -4   -0.02    0.38
 -10   0  -4    4.89    0.63
  -9   0  -4   29.50    1.25
  -8   0  -4   10.21    0.55
  -7   0  -4   85.83    2.05
  -6   0  -4  250.08    5.12
  -5   0  -4    2.14    0.22
  -4   0  -4   67.56    1.54
  -3   0  -4   37.64    0.91
  -2   0  -4  133.11    2.87
  -1   0  -4    0.49    0.15
   0   0  -4   36.44    0.89
   1   0  -4    0.20    0.15
   2   0  -4  133.23    2.94
   3   0  -4   34.22    0.80
   4   0  -4   63.65    1.37
   5   0  -4    1.47    0.21
   6   0  -4  218.25    5.22
   7   0  -4   79.66    2.16
   8   0  -4    8.93    0.65
   9   0  -4   26.41    1.36
  10   0  -4    4.05    0.62
  11   0  -4    0.41    0.62
  12   0  -4   -0.06    0.70
  13   0  -4   -0.50    0.63
  14   0  -4    7.78    1.56
  15   0  -4    0.36    0.84
 -15   1  -4    0.72    0.93
 -14   1  -4   36.06    2.65
 -13   1  -4   13.60    1.73
 -12   1  -4   21.09    2.08
 -11   1  -4    7.08    1.17
 -10   1  -4  103.95    3.29
  -9   1  -4   12.09    0.89
  -8   1  -4    3.34    0.38
  -7   1  -4   29.38    0.93
  -6   1  -4    0.28    0.18
  -5   1  -4    9.31    0.45
  -4   1  -4  213.20    4.59
  -3   1  -4    6.93    0.30
  -2   1  -4   31.25    1.59
  -1   1  -4    6.48    0.44
   0   1  -4    0.14    0.14
   1   1  -4    7.41    0.34
   2   1  -4   33.63    0.90
   3   1  -4    6.74    0.33
   4   1  -4  208.20    4.62
   5   1  -4    9.20    0.69
   6   1  -4    0.09    0.22
   7   1  -4   29.33    1.02
   8   1  -4    3.59    0.43
   9   1  -4   12.27    1.01
  10   1  -4  105.54    5.08
  11   1  -4    8.50    1.46
  12   1  -4   23.94    2.39
  13   1  -4   14.29    1.92
  14   1  -4   34.80    3.12
  15   1  -4    0.52    0.95
 -14   2  -4    7.59    1.51
 -13   2  -4    0.96    0.82
 -12   2  -4    0.37    0.52
 -11   2  -4    0.27    0.43
 -10   2  -4    4.02    0.65
  -9   2  -4   19.57    1.21
  -8   2  -4    6.67    0.72
  -7   2  -4   58.61    2.14
  -6   2  -4  158.50    4.66
  -5   2  -4    1.16    0.37
  -4   2  -4   41.09    1.50
  -3   2  -4   20.76    0.93
  -2   2  -4   76.62    2.33
  -1   2  -4    0.30    0.19
   0   2  -4   19.01    0.67
   1   2  -4    0.30    0.16
   2   2  -4   75.72    1.82
   3   2  -4   22.29    0.98
   4   2  -4   41.86    1.52
   5   2  -4    1.26    0.39
   6   2  -4  153.39    4.63
   7   2  -4   57.73    3.27
   8   2  -4    6.68    0.77
   9   2  -4   22.43    1.33
  10   2  -4    4.25    0.72
  11   2  -4    0.85    0.86
  12   2  -4   -0.91    0.72
  13   2  -4   -0.48    0.87
  14   2  -4    4.16    1.30
 -13   3  -4    4.26    0.88
 -12   3  -4   12.53    1.25
 -11   3  -4    5.23    0.83
 -10   3  -4   55.74    2.37
  -9   3  -4    6.42    0.82
  -8   3  -4    1.56    0.52
  -7   3  -4   14.72    1.13
  -6   3  -4    0.43    0.33
  -5   3  -4    3.58    0.58
  -4   3  -4  100.28    3.25
  -3   3  -4    4.17    0.55
  -2   3  -4   15.81    0.90
  -1   3  -4    3.50    0.38
   0   3  -4   -0.25    0.18
   1   3  -4    3.43    0.36
   2   3  -4   17.04    0.99
   3   3  -4    3.89    0.55
   4   3  -4  102.72    3.26
   5   3  -4    4.54    0.62
   6   3  -4   -0.69    0.47
   7   3  -4   14.28    1.70
   8   3  -4    1.82    0.85
   9   3  -4    5.88    0.83
  10   3  -4   53.87    2.39
  11   3  -4    4.95    0.89
  12   3  -4   13.91    2.14
  13   3  -4    9.24    1.76
 -11   4  -4    0.16    0.58
 -10   4  -4    0.96    0.62
  -9   4  -4   10.31    1.13
  -8   4  -4    3.54    0.70
  -7   4  -4   24.04    1.51
  -6   4  -4   70.33    2.69
  -5   4  -4    0.66    0.44
  -4   4  -4   17.68    1.25
  -3   4  -4    8.65    0.83
  -2   4  -4   31.35    1.17
  -1   4  -4    0.44    0.37
   0   4  -4    8.86    0.87
   1   4  -4    0.08    0.33
   2   4  -4   32.99    1.52
   3   4  -4    8.04    0.85
   4   4  -4   18.57    1.85
   5   4  -4    0.67    0.69
   6   4  -4   75.89    3.94
   7   4  -4   30.44    2.58
   8   4  -4    4.41    1.23
   9   4  -4    8.79    1.10
  10   4  -4    0.75    0.66
  11   4  -4    0.85    0.69
  -9   5  -4    4.07    1.29
  -8   5  -4    0.10    0.56
  -7   5  -4    8.25    1.06
  -6   5  -4   -0.50    0.50
  -5   5  -4    1.51    0.58
  -4   5  -4   42.02    2.00
  -3   5  -4    1.64    0.57
  -2   5  -4    5.10    0.80
  -1   5  -4    0.66    0.46
   0   5  -4    0.18    0.44
   1   5  -4    1.19    0.55
   2   5  -4    4.87    1.11
   3   5  -4    1.37    0.87
   4   5  -4   41.21    2.90
   5   5  -4    0.58    0.77
   6   5  -4    1.55    0.91
   7   5  -4    6.52    1.41
   8   5  -4    0.13    0.91
   9   5  -4    2.00    1.28
  -3   6  -4    4.16    1.35
  -2   6  -4    8.56    1.14
  -1   6  -4    1.16    0.65
   0   6  -4    2.48    1.10
   1   6  -4    0.87    0.89
   2   6  -4   10.09    1.65
   3   6  -4    2.85    1.20
  -2  -6  -3    0.60    1.08
  -1  -6  -3    0.14    0.94
   0  -6  -3    0.78    0.97
   1  -6  -3   -0.34    0.87
   2  -6  -3    1.40    1.01
  -9  -5  -3    3.36    1.17
  -8  -5  -3    0.37    0.85
  -7  -5  -3   11.08    1.24
  -6  -5  -3    5.13    0.88
  -5  -5  -3    2.19    0.66
  -4  -5  -3   51.45    2.24
  -3  -5  -3    0.11    0.75
  -2  -5  -3    7.36    1.33
  -1  -5  -3    9.35    1.43
   0  -5  -3    3.96    1.05
   1  -5  -3    6.42    1.24
   2  -5  -3    4.66    0.74
   3  -5  -3    1.07    0.52
   4  -5  -3   52.87    2.21
   5  -5  -3    2.43    0.89
   6  -5  -3    3.38    1.05
   7  -5  -3   12.21    1.74
   8  -5  -3    0.18    0.74
 -11  -4  -3    9.60    1.66
 -10  -4  -3    1.41    0.90
  -9  -4  -3    5.67    1.30
  -8  -4  -3   10.29    1.52
  -7  -4  -3    1.76    0.59
  -6  -4  -3    1.84    0.59
  -5  -4  -3    0.37    0.45
  -4  -4  -3   22.38    1.33
  -3  -4  -3   10.12    0.92
  -2  -4  -3    4.34    0.62
  -1  -4  -3    0.33    0.37
   0  -4  -3   -0.32    0.35
   1  -4  -3    1.52    0.46
   2  -4  -3    5.40    0.68
   3  -4  -3    9.22    0.86
   4  -4  -3   23.17    1.05
   5  -4  -3    0.84    0.35
   6  -4  -3    1.22    0.51
   7  -4  -3    1.28    0.52
   8  -4  -3   11.66    1.15
   9  -4  -3    7.94    1.01
  10  -4  -3    0.26    0.51
  11  -4  -3    8.31    1.54
 -13  -3  -3    3.87    1.29
 -12  -3  -3    1.48    0.92
 -11  -3  -3    3.60    1.11
 -10  -3  -3   31.37    2.35
  -9  -3  -3   12.13    1.59
  -8  -3  -3    0.40    0.64
  -7  -3  -3   25.66    1.92
  -6  -3  -3   11.06    0.97
  -5  -3  -3    5.25    0.67
  -4  -3  -3  138.89    4.00
  -3  -3  -3    0.89    0.38
  -2  -3  -3   15.15    0.67
  -1  -3  -3   21.93    0.78
   0  -3  -3    8.93    0.43
   1  -3  -3   20.27    0.61
   2  -3  -3   15.98    0.61
   3  -3  -3    0.36    0.26
   4  -3  -3  131.77    3.21
   5  -3  -3    4.90    0.47
   6  -3  -3   12.86    0.74
   7  -3  -3   28.23    1.41
   8  -3  -3    0.23    0.41
   9  -3  -3   10.86    1.08
  10  -3  -3   29.38    1.64
  11  -3  -3    5.14    0.81
  12  -3  -3    0.88    0.61
  13  -3  -3    2.84    0.74
 -14  -2  -3    6.64    1.52
 -13  -2  -3    6.75    1.37
 -12  -2  -3   49.86    3.11
 -11  -2  -3   19.33    1.94
 -10  -2  -3    1.88    0.76
  -9  -2  -3   14.70    1.60
  -8  -2  -3   25.08    1.78
  -7  -2  -3    4.45    0.83
  -6  -2  -3    2.76    0.70
  -5  -2  -3    2.06    0.28
  -4  -2  -3   56.96    1.47
  -3  -2  -3   22.64    0.73
  -2  -2  -3   10.15    0.45
  -1  -2  -3    2.53    0.20
   0  -2  -3   -0.02    0.11
   1  -2  -3    2.19    0.19
   2  -2  -3   10.40    0.38
   3  -2  -3   22.15    0.66
   4  -2  -3   58.15    1.51
   5  -2  -3    2.44    0.30
   6  -2  -3    3.64    0.38
   7  -2  -3    3.49    0.39
   8  -2  -3   24.48    1.28
   9  -2  -3   18.28    1.29
  10  -2  -3    0.13    0.41
  11  -2  -3   17.78    1.36
  12  -2  -3   52.32    2.26
  13  -2  -3   10.95    1.16
  14  -2  -3    8.76    1.59
 -14  -1  -3    0.10    0.83
 -13  -1  -3    3.15    0.96
 -12  -1  -3    3.81    0.94
 -11  -1  -3    4.80    1.00
 -10  -1  -3   46.89    2.74
  -9  -1  -3   22.49    1.09
  -8  -1  -3    1.61    0.39
  -7  -1  -3   48.55    1.71
  -6  -1  -3   25.31    1.01
  -5  -1  -3    9.64    0.57
  -4  -1  -3  265.83    6.86
  -3  -1  -3    1.02    0.22
  -2  -1  -3   36.65    0.78
  -1  -1  -3   52.20    0.93
   0  -1  -3   21.69    0.47
   1  -1  -3   51.60    0.95
   2  -1  -3   34.87    0.80
   3  -1  -3    1.28    0.16
   4  -1  -3  261.86    4.92
   5  -1  -3    8.22    0.45
   6  -1  -3   24.07    0.85
   7  -1  -3   50.39    1.46
   8  -1  -3    1.42    0.32
   9  -1  -3   21.70    1.27
  10  -1  -3   52.44    2.09
  11  -1  -3    6.55    0.80
  12  -1  -3    4.83    1.12
  13  -1  -3    4.05    1.13
  14  -1  -3    0.79    0.74
  15  -1  -3    0.13    0.79
 -12   0  -3   67.98    2.43
 -11   0  -3   24.79    1.25
 -10   0  -3    1.49    0.45
  -9   0  -3   28.94    1.23
  -8   0  -3   36.19    1.08
  -7   0  -3    5.82    0.41
  -6   0  -3    5.14    0.35
  -5   0  -3    4.59    0.31
  -4   0  -3   98.79    2.14
  -3   0  -3   41.49    0.97
  -2   0  -3   18.65    0.51
  -1   0  -3    4.12    0.21
   0   0  -3   -0.01    0.09
   1   0  -3    3.85    0.24
   2   0  -3   18.09    0.57
   3   0  -3   38.01    0.87
   4   0  -3   91.75    1.90
   5   0  -3    4.61    0.38
   6   0  -3    5.47    0.44
   7   0  -3    5.75    0.51
   8   0  -3   31.82    1.18
   9   0  -3   23.77    1.03
  10   0  -3    0.90    0.41
  11   0  -3   23.31    2.28
  12   0  -3   65.06    3.71
  13   0  -3    7.13    1.36
  14   0  -3   16.57    2.09
  15   0  -3    0.08    0.85
 -15   1  -3    0.38    0.93
 -14   1  -3    1.01    0.82
 -13   1  -3    2.53    1.00
 -12   1  -3    2.07    0.81
 -11   1  -3    8.10    1.22
 -10   1  -3   53.30    1.96
  -9   1  -3   23.62    1.12
  -8   1  -3    1.23    0.28
  -7   1  -3   52.29    1.41
  -6   1  -3   26.03    0.82
  -5   1  -3    8.88    0.42
  -4   1  -3  264.70    5.64
  -3   1  -3    1.00    0.13
  -2   1  -3   36.98    1.18
  -1   1  -3   53.17    2.12
   0   1  -3   21.55    0.62
   1   1  -3   51.77    1.22
   2   1  -3   37.12    0.90
   3   1  -3    1.35    0.15
   4   1  -3  263.01    7.09
   5   1  -3    8.28    0.62
   6   1  -3   25.69    0.88
   7   1  -3   52.61    1.49
   8   1  -3    1.67    0.35
   9   1  -3   21.55    1.30
  10   1  -3   50.10    2.11
  11   1  -3    6.45    1.23
  12   1  -3    2.34    0.96
  13   1  -3    1.62    0.93
  14   1  -3    1.20    0.89
  15   1  -3   -1.34    0.79
 -14   2  -3    8.21    1.54
 -13   2  -3    6.85    1.36
 -12   2  -3   45.34    2.08
 -11   2  -3   18.49    1.31
 -10   2  -3    0.02    0.37
  -9   2  -3   17.30    1.18
  -8   2  -3   24.02    1.21
  -7   2  -3    3.27    0.52
  -6   2  -3    3.28    0.51
  -5   2  -3    2.16    0.39
  -4   2  -3   56.82    1.91
  -3   2  -3   21.84    0.96
  -2   2  -3   10.37    0.62
  -1   2  -3    1.83    0.29
   0   2  -3   -0.08    0.13
   1   2  -3    2.50    0.24
   2   2  -3   10.11    0.42
   3   2  -3   22.36    0.97
   4   2  -3   56.42    1.88
   5   2  -3    2.48    0.43
   6   2  -3    3.73    0.52
   7   2  -3    2.92    0.55
   8   2  -3   25.58    1.37
   9   2  -3   19.00    1.31
  10   2  -3    0.87    0.53
  11   2  -3   16.93    1.40
  12   2  -3   51.89    3.33
  13   2  -3   10.01    1.78
  14   2  -3   11.79    1.93
 -13   3  -3    2.30    0.73
 -12   3  -3    1.22    0.58
 -11   3  -3    3.13    0.71
 -10   3  -3   30.38    1.61
  -9   3  -3   10.25    0.98
  -8   3  -3    0.00    0.37
  -7   3  -3   25.81    1.35
  -6   3  -3   13.48    1.03
  -5   3  -3    4.84    0.64
  -4   3  -3  133.33    4.02
  -3   3  -3    0.24    0.30
  -2   3  -3   15.08    0.89
  -1   3  -3   21.62    0.82
   0   3  -3    9.36    0.56
   1   3  -3   21.64    0.78
   2   3  -3   16.44    0.90
   3   3  -3    0.48    0.34
   4   3  -3  129.79    3.97
   5   3  -3    4.49    0.89
   6   3  -3   10.88    1.37
   7   3  -3   28.09    2.11
   8   3  -3    1.11    0.52
   9   3  -3   12.63    1.15
  10   3  -3   28.45    1.71
  11   3  -3    5.19    0.93
  12   3  -3    1.42    1.08
 -11   4  -3   10.10    1.18
 -10   4  -3    0.17    0.56
  -9   4  -3    8.01    1.02
  -8   4  -3   11.05    1.11
  -7   4  -3    0.27    0.43
  -6   4  -3    1.77    0.54
  -5   4  -3    0.47    0.40
  -4   4  -3   21.47    1.23
  -3   4  -3    9.57    0.88
  -2   4  -3    3.86    0.47
  -1   4  -3    0.78    0.40
   0   4  -3    0.34    0.36
   1   4  -3    1.06    0.41
   2   4  -3    5.26    0.66
   3   4  -3   10.52    0.94
   4   4  -3   23.48    2.05
   5   4  -3    1.83    0.77
   6   4  -3    0.78    0.70
   7   4  -3    2.34    0.87
   8   4  -3    8.51    1.52
   9   4  -3    7.18    1.02
  10   4  -3    0.26    0.61
  11   4  -3    9.00    1.20
  12   4  -3   31.51    2.99
  -9   5  -3    2.67    1.14
  -8   5  -3   -0.05    0.57
  -7   5  -3    9.47    1.15
  -6   5  -3    5.78    0.91
  -5   5  -3    1.50    0.82
  -4   5  -3   50.34    2.28
  -3   5  -3    0.70    0.47
  -2   5  -3    5.25    0.78
  -1   5  -3    7.23    0.91
   0   5  -3    4.01    0.70
   1   5  -3    7.67    0.92
   2   5  -3    6.57    1.23
   3   5  -3    0.05    0.67
   4   5  -3   51.88    3.27
   5   5  -3    0.93    0.81
   6   5  -3    3.48    1.14
   7   5  -3   11.25    1.75
   8   5  -3   -0.12    0.89
   9   5  -3    5.40    0.99
  -3   6  -3    5.90    1.44
  -2   6  -3    1.23    0.68
  -1   6  -3    1.05    0.92
   0   6  -3   -0.76    0.72
   1   6  -3   -0.57    0.76
   2   6  -3    1.70    0.99
   3   6  -3    4.63    1.29
   4   6  -3    9.74    1.76
  -3  -6  -2   -0.06    0.99
  -2  -6  -2    0.94    1.15
  -1  -6  -2    0.69    1.00
   0  -6  -2    3.47    1.25
   1  -6  -2    2.14    1.09
   2  -6  -2    1.95    1.02
  -9  -5  -2    7.04    1.41
  -8  -5  -2   14.00    1.90
  -7  -5  -2   -0.22    0.57
  -6  -5  -2   -0.22    0.51
  -5  -5  -2   21.69    1.56
  -4  -5  -2    0.90    0.59
  -3  -5  -2   -0.55    0.72
  -2  -5  -2   34.30    2.46
  -1  -5  -2   -0.63    0.58
   0  -5  -2   -0.14    0.66
   1  -5  -2    1.03    0.73
   2  -5  -2   32.81    1.67
   3  -5  -2    1.41    0.56
   4  -5  -2    0.03    0.46
   5  -5  -2   24.43    2.30
   6  -5  -2   -1.01    0.58
   7  -5  -2    0.38    0.70
   8  -5  -2   16.22    2.03
 -11  -4  -2   -1.12    0.70
 -10  -4  -2    0.31    0.80
  -9  -4  -2    2.72    0.96
  -8  -4  -2    1.90    0.85
  -7  -4  -2    1.98    0.61
  -6  -4  -2    6.52    0.85
  -5  -4  -2   17.03    1.26
  -4  -4  -2    0.61    0.45
  -3  -4  -2    2.21    0.50
  -2  -4  -2   -0.06    0.36
  -1  -4  -2    4.17    0.60
   0  -4  -2   12.62    0.92
   1  -4  -2    5.66    0.66
   2  -4  -2   -0.12    0.33
   3  -4  -2    3.33    0.56
   4  -4  -2    0.54    0.41
   5  -4  -2   20.38    1.19
   6  -4  -2    5.05    1.05
   7  -4  -2    3.31    0.66
   8  -4  -2    0.13    0.59
   9  -4  -2    4.74    1.06
  10  -4  -2   -0.70    0.59
  11  -4  -2    0.09    0.75
 -13  -3  -2   -1.32    0.76
 -12  -3  -2    3.42    1.11
 -11  -3  -2   11.69    1.68
 -10  -3  -2    7.02    1.30
  -9  -3  -2    7.02    1.27
  -8  -3  -2   33.98    2.32
  -7  -3  -2   -0.01    0.56
  -6  -3  -2    0.25    0.39
  -5  -3  -2   53.52    2.02
  -4  -3  -2    3.12    0.54
  -3  -3  -2    3.44    0.52
  -2  -3  -2   84.07    2.65
  -1  -3  -2    1.48    0.39
   0  -3  -2   -0.25    0.20
   1  -3  -2    2.13    0.27
   2  -3  -2   85.81    1.86
   3  -3  -2    2.69    0.37
   4  -3  -2    3.12    0.40
   5  -3  -2   53.69    1.59
   6  -3  -2   -0.04    0.24
   7  -3  -2    0.18    0.37
   8  -3  -2   33.49    1.66
   9  -3  -2    7.34    0.89
  10  -3  -2    8.14    0.97
  11  -3  -2   12.34    1.20
  12  -3  -2    3.61    0.78
  13  -3  -2    0.20    0.60
 -14  -2  -2   10.94    1.81
 -13  -2  -2    1.54    0.88
 -12  -2  -2   14.89    1.82
 -11  -2  -2   -0.68    0.61
 -10  -2  -2    0.62    0.63
  -9  -2  -2    4.57    0.96
  -8  -2  -2    1.01    0.59
  -7  -2  -2    4.57    0.87
  -6  -2  -2   16.55    1.28
  -5  -2  -2   43.64    1.17
  -4  -2  -2    1.73    0.21
  -3  -2  -2    5.90    0.34
  -2  -2  -2    0.17    0.14
  -1  -2  -2   10.07    0.37
   0  -2  -2   28.51    0.64
   1  -2  -2   10.03    0.34
   2  -2  -2    0.23    0.12
   3  -2  -2    6.35    0.42
   4  -2  -2    1.62    0.25
   5  -2  -2   41.31    1.23
   6  -2  -2   17.20    0.78
   7  -2  -2    5.42    0.48
   8  -2  -2    1.10    0.43
   9  -2  -2    6.60    0.78
  10  -2  -2    0.10    0.40
  11  -2  -2    0.24    0.42
  12  -2  -2   18.14    1.41
  13  -2  -2    0.87    0.79
  14  -2  -2   12.30    1.87
 -14  -1  -2    4.05    1.13
 -13  -1  -2    0.05    0.68
 -12  -1  -2    3.62    0.99
 -11  -1  -2   18.08    1.79
 -10  -1  -2   13.22    1.50
  -9  -1  -2   12.99    0.91
  -8  -1  -2   63.09    2.11
  -7  -1  -2    1.61    0.34
  -6  -1  -2    0.07    0.22
  -5  -1  -2  106.47    3.01
  -4  -1  -2    6.77    0.45
  -3  -1  -2    6.46    0.36
  -2  -1  -2  195.13    4.09
  -1  -1  -2    5.28    0.23
   0  -1  -2   -0.12    0.09
   1  -1  -2    5.31    0.22
   2  -1  -2  193.55    3.58
   3  -1  -2    6.47    0.30
   4  -1  -2    6.11    0.36
   5  -1  -2  107.88    2.53
   6  -1  -2   -0.12    0.18
   7  -1  -2    1.36    0.31
   8  -1  -2   65.06    1.82
   9  -1  -2   16.43    1.11
  10  -1  -2   15.57    1.13
  11  -1  -2   18.81    1.21
  12  -1  -2    7.17    1.33
  13  -1  -2   -0.81    0.52
  14  -1  -2    1.79    0.89
  15  -1  -2    0.16    0.82
 -12   0  -2   22.89    1.27
 -11   0  -2    0.34    0.40
 -10   0  -2    0.58    0.36
  -9   0  -2    8.84    0.75
  -8   0  -2    2.68    0.45
  -7   0  -2    7.63    0.61
  -6   0  -2   26.63    1.00
  -5   0  -2   71.09    2.03
  -4   0  -2    3.43    0.32
  -3   0  -2   11.52    0.52
  -2   0  -2   -0.13    0.10
  -1   0  -2   19.55    0.47
   0   0  -2   52.36    1.13
   1   0  -2   18.79    0.51
   2   0  -2    0.02    0.10
   3   0  -2   11.32    0.39
   4   0  -2    3.31    0.30
   5   0  -2   68.30    1.76
   6   0  -2   24.17    0.89
   7   0  -2    8.70    0.58
   8   0  -2    3.39    0.43
   9   0  -2    9.95    0.68
  10   0  -2    0.09    0.57
  11   0  -2    1.22    0.72
  12   0  -2   23.33    2.23
  13   0  -2    0.46    0.76
  14   0  -2   17.33    2.07
  15   0  -2   23.02    2.45
 -14   1  -2    0.44    0.85
 -13   1  -2   -0.15    0.66
 -12   1  -2    6.44    1.17
 -11   1  -2   17.90    1.13
 -10   1  -2   11.95    0.93
  -9   1  -2   14.59    0.88
  -8   1  -2   66.52    2.10
  -7   1  -2    1.45    0.32
  -6   1  -2    0.47    0.23
  -5   1  -2  109.55    2.98
  -4   1  -2    6.02    0.37
  -3   1  -2    6.82    0.29
  -2   1  -2  196.59    5.13
  -1   1  -2    5.87    0.37
   0   1  -2   -0.03    0.11
   1   1  -2    5.40    0.26
   2   1  -2  188.56    5.10
   3   1  -2    7.28    0.48
   4   1  -2    7.29    0.52
   5   1  -2  107.33    2.54
   6   1  -2    0.13    0.20
   7   1  -2    1.28    0.29
   8   1  -2   63.36    2.33
   9   1  -2   14.81    1.12
  10   1  -2   13.84    1.17
  11   1  -2   19.35    2.01
  12   1  -2    7.95    1.36
  13   1  -2    0.15    0.72
  14   1  -2    2.15    1.03
 -14   2  -2   13.43    1.88
 -13   2  -2    0.19    0.68
 -12   2  -2   15.36    1.24
 -11   2  -2   -0.02    0.40
 -10   2  -2    0.74    0.43
  -9   2  -2    5.72    0.71
  -8   2  -2    1.40    0.44
  -7   2  -2    5.12    0.61
  -6   2  -2   16.09    0.97
  -5   2  -2   41.01    1.57
  -4   2  -2    1.28    0.33
  -3   2  -2    6.46    0.54
  -2   2  -2   -0.02    0.19
  -1   2  -2    8.97    0.54
   0   2  -2   29.11    0.83
   1   2  -2   10.28    0.42
   2   2  -2    0.04    0.12
   3   2  -2    6.52    0.51
   4   2  -2    1.87    0.35
   5   2  -2   42.81    1.52
   6   2  -2   17.41    0.93
   7   2  -2    6.19    0.72
   8   2  -2    2.07    0.53
   9   2  -2    5.59    0.79
  10   2  -2    0.02    0.47
  11   2  -2   -0.40    0.52
  12   2  -2   16.59    2.07
  13   2  -2    0.33    0.89
 -13   3  -2    1.05    0.60
 -12   3  -2    3.38    0.78
 -11   3  -2   11.21    1.12
 -10   3  -2    6.87    0.85
  -9   3  -2    8.13    0.90
  -8   3  -2   34.23    1.63
  -7   3  -2    0.31    0.38
  -6   3  -2   -0.10    0.32
  -5   3  -2   51.33    1.97
  -4   3  -2    2.97    0.51
  -3   3  -2    2.71    0.46
  -2   3  -2   83.15    2.67
  -1   3  -2    1.10    0.31
   0   3  -2    0.12    0.19
   1   3  -2    1.76    0.26
   2   3  -2   82.51    2.68
   3   3  -2    3.30    0.48
   4   3  -2    2.67    0.46
   5   3  -2   52.10    2.82
   6   3  -2   -0.04    0.50
   7   3  -2    0.55    0.67
   8   3  -2   37.50    1.73
   9   3  -2    8.14    0.93
  10   3  -2    8.18    1.01
  11   3  -2   12.76    1.28
  12   3  -2    5.76    0.99
 -11   4  -2   -0.17    0.56
 -10   4  -2    0.34    0.53
  -9   4  -2    3.64    0.74
  -8   4  -2    0.27    0.47
  -7   4  -2    1.82    0.56
  -6   4  -2    8.80    0.93
  -5   4  -2   21.72    1.30
  -4   4  -2    0.80    0.40
  -3   4  -2    2.41    0.51
  -2   4  -2   -0.32    0.24
  -1   4  -2    3.09    0.54
   0   4  -2   11.21    0.93
   1   4  -2    4.15    0.61
   2   4  -2   -0.26    0.31
   3   4  -2    1.02    0.44
   4   4  -2    1.04    0.63
   5   4  -2   20.76    1.96
   6   4  -2    7.93    1.31
   7   4  -2    1.74    0.84
   8   4  -2    0.78    0.55
   9   4  -2    3.33    0.78
  10   4  -2    0.68    0.66
  11   4  -2    1.11    0.99
  12   4  -2    9.73    1.81
  -9   5  -2    6.79    1.45
  -8   5  -2   13.26    1.34
  -7   5  -2    0.19    0.59
  -6   5  -2    0.15    0.50
  -5   5  -2   17.63    2.15
  -4   5  -2    1.55    0.55
  -3   5  -2    1.64    0.55
  -2   5  -2   31.52    1.66
  -1   5  -2   -0.05    0.39
   0   5  -2   -0.38    0.40
   1   5  -2    0.78    0.48
   2   5  -2   31.10    2.36
   3   5  -2    1.16    0.76
   4   5  -2    2.03    0.86
   5   5  -2   22.18    2.23
   6   5  -2   -1.07    0.67
   7   5  -2    0.67    0.89
   8   5  -2   13.41    1.34
   9   5  -2    3.79    1.25
  -4   6  -2   -0.15    0.83
  -3   6  -2    1.82    0.99
  -2   6  -2   -0.18    0.55
  -1   6  -2    4.02    1.12
   0   6  -2    5.51    1.30
   1   6  -2    2.32    1.10
   2   6  -2   -0.83    0.77
   3   6  -2    0.58    0.92
   4   6  -2   -0.48    0.85
  -3  -6  -1    3.53    1.22
  -2  -6  -1    0.74    1.04
  -1  -6  -1    0.22    0.96
   0  -6  -1    0.01    0.95
   1  -6  -1    0.98    0.97
   2  -6  -1    0.52    0.94
   3  -6  -1    2.34    1.12
  -9  -5  -1    0.15    0.83
  -8  -5  -1    2.04    1.02
  -7  -5  -1    0.79    0.62
  -6  -5  -1    0.20    0.58
  -5  -5  -1    6.90    0.91
  -4  -5  -1    0.19    0.52
  -3  -5  -1    6.21    1.30
  -2  -5  -1   58.31    3.44
  -1  -5  -1    1.45    0.81
   0  -5  -1    0.58    0.70
   1  -5  -1    0.82    0.81
   2  -5  -1   55.63    2.34
   3  -5  -1    6.95    0.88
   4  -5  -1   -0.17    0.42
   5  -5  -1    4.61    0.76
   6  -5  -1   -0.09    0.68
   7  -5  -1   -0.13    0.61
   8  -5  -1    3.21    1.04
 -11  -4  -1    4.77    1.27
 -10  -4  -1    2.27    1.02
  -9  -4  -1    4.24    1.16
  -8  -4  -1   32.54    2.39
  -7  -4  -1    8.20    0.95
  -6  -4  -1   54.54    2.27
  -5  -4  -1   15.18    1.17
  -4  -4  -1    7.13    0.82
  -3  -4  -1    6.64    0.76
  -2  -4  -1    0.34    0.37
  -1  -4  -1    0.80    0.40
   0  -4  -1    0.31    0.54
   1  -4  -1    0.72    0.42
   2  -4  -1    0.50    0.39
   3  -4  -1   10.60    0.90
   4  -4  -1    8.44    0.82
   5  -4  -1   16.63    1.13
   6  -4  -1   57.98    2.16
   7  -4  -1    8.21    1.28
   8  -4  -1   30.77    2.32
   9  -4  -1    0.85    0.74
  10  -4  -1    0.69    0.75
  11  -4  -1    0.99    0.82
 -13  -3  -1    5.87    1.45
 -12  -3  -1    0.50    0.90
 -11  -3  -1    0.77    0.76
 -10  -3  -1    7.30    1.29
  -9  -3  -1    0.43    0.66
  -8  -3  -1    5.11    1.05
  -7  -3  -1    0.42    0.43
  -6  -3  -1    0.22    0.38
  -5  -3  -1   13.75    1.01
  -4  -3  -1    0.15    0.36
  -3  -3  -1   20.55    1.05
  -2  -3  -1  149.79    4.34
  -1  -3  -1    1.01    0.33
   0  -3  -1    1.42    0.27
   1  -3  -1    1.46    0.28
   2  -3  -1  152.39    3.05
   3  -3  -1   21.48    0.85
   4  -3  -1    0.88    0.28
   5  -3  -1   13.17    0.76
   6  -3  -1    0.20    0.26
   7  -3  -1    0.45    0.28
   8  -3  -1    6.87    0.79
   9  -3  -1    0.52    0.43
  10  -3  -1    6.87    0.89
  11  -3  -1    1.14    0.54
  12  -3  -1    1.70    0.92
  13  -3  -1    5.98    1.32
 -14  -2  -1    4.01    1.27
 -13  -2  -1    0.25    0.81
 -12  -2  -1    0.72    0.82
 -11  -2  -1    2.96    0.93
 -10  -2  -1    1.50    0.74
  -9  -2  -1    4.72    1.00
  -8  -2  -1   68.42    3.45
  -7  -2  -1   21.83    1.64
  -6  -2  -1  122.03    3.70
  -5  -2  -1   38.06    1.49
  -4  -2  -1   17.94    0.90
  -3  -2  -1   21.76    0.66
  -2  -2  -1    2.03    0.21
  -1  -2  -1    1.86    0.21
   0  -2  -1   -0.05    0.11
   1  -2  -1    1.85    0.19
   2  -2  -1    2.04    0.20
   3  -2  -1   22.64    0.76
   4  -2  -1   18.27    0.71
   5  -2  -1   38.83    1.17
   6  -2  -1  125.95    2.98
   7  -2  -1   23.44    0.91
   8  -2  -1   66.64    1.89
   9  -2  -1    4.47    0.66
  10  -2  -1    2.45    0.56
  11  -2  -1    2.24    0.58
  12  -2  -1    1.06    0.53
  13  -2  -1   -0.55    0.67
  14  -2  -1    5.00    1.25
 -15  -1  -1    6.25    1.35
 -14  -1  -1    0.87    0.86
 -13  -1  -1    9.70    1.49
 -12  -1  -1    1.95    0.89
 -11  -1  -1    1.07    0.71
 -10  -1  -1    9.88    1.32
  -9  -1  -1    1.34    0.39
  -8  -1  -1   13.12    0.79
  -7  -1  -1    0.88    0.30
  -6  -1  -1    0.35    0.24
  -5  -1  -1   27.46    0.98
  -4  -1  -1    1.26    0.22
  -3  -1  -1   50.29    1.24
  -2  -1  -1  355.50    7.12
  -1  -1  -1    1.83    0.17
   0  -1  -1    3.04    0.16
   1  -1  -1    2.09    0.14
   2  -1  -1  339.66    6.23
   3  -1  -1   51.16    1.27
   4  -1  -1    1.02    0.20
   5  -1  -1   27.86    0.87
   6  -1  -1    0.98    0.24
   7  -1  -1    1.02    0.28
   8  -1  -1   13.95    0.74
   9  -1  -1    1.44    0.35
  10  -1  -1   12.20    1.00
  11  -1  -1    2.08    0.51
  12  -1  -1    1.82    0.86
  13  -1  -1    7.66    1.37
  14  -1  -1    2.18    0.88
  15  -1  -1    6.75    1.49
 -12   0  -1    0.21    0.41
 -11   0  -1    3.51    0.58
 -10   0  -1    2.31    0.47
  -9   0  -1    6.78    0.65
  -8   0  -1   97.36    2.89
  -7   0  -1   35.87    1.28
  -6   0  -1  188.41    4.94
  -5   0  -1   65.21    1.93
  -4   0  -1   33.29    1.04
  -3   0  -1   40.48    1.22
  -2   0  -1    4.25    0.26
  -1   0  -1    4.31    0.18
   1   0  -1    3.87    0.16
   2   0  -1    3.73    0.19
   3   0  -1   40.91    1.08
   4   0  -1   30.78    0.92
   5   0  -1   66.04    1.68
   6   0  -1  179.61    4.17
   7   0  -1   34.83    1.13
   8   0  -1   96.41    2.47
   9   0  -1    7.45    0.60
  10   0  -1    2.59    0.56
  11   0  -1    2.89    0.88
  12   0  -1    0.11    0.64
  13   0  -1   -0.06    0.66
  14   0  -1    9.21    1.54
  15   0  -1   -0.41    0.71
 -14   1  -1    0.13    0.84
 -13   1  -1    9.06    1.44
 -12   1  -1    2.30    0.84
 -11   1  -1    1.36    0.73
 -10   1  -1    9.69    1.27
  -9   1  -1    1.77    0.40
  -8   1  -1   14.54    0.82
  -7   1  -1    0.70    0.30
  -6   1  -1    0.45    0.24
  -5   1  -1   27.04    0.96
  -4   1  -1    1.46    0.22
  -3   1  -1   50.02    1.93
  -1   1  -1    2.18    0.24
   0   1  -1    3.06    0.24
   1   1  -1    1.99    0.23
   2   1  -1  337.01    8.85
   3   1  -1   49.80    1.55
   4   1  -1    1.09    0.25
   5   1  -1   27.62    0.84
   6   1  -1    0.85    0.22
   7   1  -1    1.13    0.26
   8   1  -1   12.73    1.01
   9   1  -1    1.25    0.50
  10   1  -1   10.85    1.03
  11   1  -1    2.04    0.63
  12   1  -1    1.65    0.84
  13   1  -1   10.85    1.60
  14   1  -1    1.17    0.95
 -14   2  -1    2.08    1.06
 -13   2  -1    0.37    0.79
 -12   2  -1    0.44    0.45
 -11   2  -1    2.04    0.56
 -10   2  -1    2.22    0.54
  -9   2  -1    5.59    0.68
  -8   2  -1   68.39    3.40
  -7   2  -1   26.02    1.71
  -6   2  -1  119.13    5.16
  -5   2  -1   39.45    2.05
  -4   2  -1   18.08    0.86
  -3   2  -1   21.72    0.65
  -2   2  -1    2.01    0.29
  -1   2  -1    2.13    0.29
   0   2  -1    0.06    0.12
   1   2  -1    1.77    0.20
   2   2  -1    1.91    0.18
   3   2  -1   22.91    0.91
   4   2  -1   19.11    0.85
   5   2  -1   40.50    1.40
   6   2  -1  126.12    5.29
   7   2  -1   25.16    1.29
   8   2  -1   71.15    2.50
   9   2  -1    5.19    0.77
  10   2  -1    2.08    0.63
  11   2  -1    3.56    0.72
  12   2  -1    0.88    0.65
 -13   3  -1    4.96    0.87
 -12   3  -1    0.79    0.56
 -11   3  -1    0.46    0.49
 -10   3  -1    5.18    0.82
  -9   3  -1    0.28    0.40
  -8   3  -1    6.22    0.75
  -7   3  -1    0.12    0.34
  -6   3  -1    0.23    0.31
  -5   3  -1   14.33    1.02
  -4   3  -1    0.60    0.35
  -3   3  -1   20.06    1.01
  -2   3  -1  151.78    4.39
  -1   3  -1    2.00    0.35
   0   3  -1    1.68    0.28
   1   3  -1    1.12    0.24
   2   3  -1  153.18    4.38
   3   3  -1   21.28    1.01
   4   3  -1   -0.08    0.30
   5   3  -1   14.41    1.43
   6   3  -1   -0.62    0.44
   7   3  -1    0.36    0.60
   8   3  -1    7.53    0.85
   9   3  -1    1.04    0.55
  10   3  -1    7.73    0.99
  11   3  -1    1.07    0.66
  12   3  -1    1.37    1.11
 -11   4  -1    1.09    0.62
 -10   4  -1    0.96    0.57
  -9   4  -1    2.19    0.64
  -8   4  -1   33.06    1.71
  -7   4  -1    9.66    1.00
  -6   4  -1   57.00    2.30
  -5   4  -1   17.36    1.24
  -4   4  -1    9.13    0.89
  -3   4  -1    8.56    0.83
  -2   4  -1    1.15    0.41
  -1   4  -1    0.91    0.39
   0   4  -1    1.63    0.42
   1   4  -1    0.06    0.32
   2   4  -1    0.43    0.37
   3   4  -1    8.18    1.16
   4   4  -1    7.93    1.19
   5   4  -1   14.76    1.65
   6   4  -1   56.87    3.19
   7   4  -1   10.95    1.51
   8   4  -1   33.33    1.76
   9   4  -1    2.59    0.72
  10   4  -1    1.48    0.97
  11   4  -1    2.12    1.16
  12   4  -1    0.75    1.14
  -9   5  -1   -0.20    0.83
  -8   5  -1    2.59    0.71
  -7   5  -1    0.10    0.52
  -6   5  -1    0.13    0.52
  -5   5  -1    5.85    0.85
  -4   5  -1   -0.05    0.64
  -3   5  -1    7.70    0.90
  -2   5  -1   56.97    2.37
  -1   5  -1    1.17    0.52
   0   5  -1    0.90    0.47
   1   5  -1    0.73    0.66
   2   5  -1   58.42    3.35
   3   5  -1    8.00    1.29
   4   5  -1    0.18    0.65
   5   5  -1    6.10    1.30
   6   5  -1   -0.41    0.75
   7   5  -1   -0.11    0.77
   8   5  -1    3.29    1.19
   9   5  -1    0.19    0.94
  -4   6  -1    0.31    1.00
  -3   6  -1    4.67    0.88
  -2   6  -1   -0.14    0.56
  -1   6  -1   -0.23    0.76
   0   6  -1    2.46    0.98
   1   6  -1    0.14    0.87
   2   6  -1    0.20    0.79
   3   6  -1    1.55    1.03
   4   6  -1    4.30    1.30
  -3  -6   0    0.19    0.99
  -2  -6   0    1.00    1.01
  -1  -6   0    0.86    1.02
   0  -6   0  152.40    7.41
   1  -6   0    0.78    1.00
   2  -6   0    1.83    1.02
   3  -6   0    0.25    0.94
  -9  -5   0   -0.12    0.92
  -8  -5   0   14.83    1.43
  -7  -5   0   -0.25    0.55
  -6  -5   0    7.97    1.00
  -5  -5   0    0.22    0.55
  -4  -5   0   10.56    1.67
  -3  -5   0   -0.81    0.55
  -2  -5   0    2.36    0.93
  -1  -5   0   -0.43    0.63
   0  -5   0    0.49    0.75
   1  -5   0   -1.02    0.61
   2  -5   0   -0.28    0.65
   3  -5   0    0.00    0.47
   4  -5   0   10.45    1.08
   5  -5   0    0.45    0.48
   6  -5   0    7.03    1.31
   7  -5   0   -0.58    0.61
   8  -5   0   15.65    2.01
 -11  -4   0   -0.03    0.79
 -10  -4   0   14.09    1.90
  -9  -4   0    0.33    0.72
  -8  -4   0    6.13    0.88
  -7  -4   0   -0.47    0.43
  -6  -4   0    0.88    0.53
  -5  -4   0   -0.50    0.37
  -4  -4   0    5.66    0.72
  -3  -4   0    0.22    0.39
  -2  -4   0   -0.26    0.34
  -1  -4   0    0.47    0.37
   0  -4   0  433.63   16.04
   1  -4   0   -0.19    0.31
   2  -4   0    0.02    0.34
   3  -4   0    0.14    0.38
   4  -4   0    4.90    0.66
   5  -4   0   -0.45    0.32
   6  -4   0    0.62    0.42
   7  -4   0   -0.73    0.46
   8  -4   0    3.66    0.98
   9  -4   0   -0.10    0.59
  10  -4   0   16.54    1.92
  11  -4   0   -1.18    0.60
 -13  -3   0    1.16    0.99
 -12  -3   0   -0.43    0.72
 -11  -3   0    0.32    0.73
 -10  -3   0   72.54    3.93
  -9  -3   0    0.62    0.68
  -8  -3   0   31.73    2.25
  -7  -3   0    0.52    0.41
  -6  -3   0   17.80    1.17
  -5  -3   0    0.07    0.34
  -4  -3   0   27.21    1.25
  -3  -3   0   -0.23    0.28
  -2  -3   0    2.65    0.43
  -1  -3   0   -0.22    0.25
   0  -3   0   -0.11    0.21
   1  -3   0   -0.04    0.20
   2  -3   0    2.90    0.31
   3  -3   0   -0.38    0.25
   4  -3   0   26.06    0.99
   5  -3   0    0.11    0.24
   6  -3   0   17.24    0.84
   7  -3   0   -0.19    0.27
   8  -3   0   35.68    1.28
   9  -3   0   -0.11    0.36
  10  -3   0   71.09    2.79
  11  -3   0    0.18    0.67
  12  -3   0    2.08    0.91
  13  -3   0   -0.02    0.74
 -14  -2   0   44.28    3.05
 -13  -2   0    0.93    0.86
 -12  -2   0    2.48    0.93
 -11  -2   0   -0.81    0.59
 -10  -2   0   30.23    2.17
  -9  -2   0    0.09    0.59
  -8  -2   0   13.91    1.48
  -7  -2   0    0.21    0.46
  -6  -2   0    2.10    0.46
  -5  -2   0    0.24    0.32
  -4  -2   0   13.91    0.82
  -3  -2   0    0.01    0.23
  -2  -2   0    0.08    0.21
  -1  -2   0    0.18    0.20
   0  -2   0  940.90   19.66
   1  -2   0   -0.02    0.12
   2  -2   0    0.21    0.13
   3  -2   0   -0.14    0.16
   4  -2   0   13.83    0.62
   5  -2   0   -0.22    0.20
   6  -2   0    1.60    0.30
   7  -2   0    0.67    0.28
   8  -2   0   12.80    0.76
   9  -2   0   -0.51    0.29
  10  -2   0   28.93    1.48
  11  -2   0   -0.55    0.34
  12  -2   0    3.48    0.69
  13  -2   0    0.78    0.71
  14  -2   0   40.32    2.93
  15  -2   0   -0.33    0.81
 -15  -1   0    0.70    0.95
 -14  -1   0    0.00    0.78
 -13  -1   0    1.52    0.90
 -12  -1   0    2.65    0.90
 -11  -1   0    0.41    0.62
 -10  -1   0  128.78    5.65
  -9  -1   0    0.36    0.30
  -8  -1   0   62.61    2.09
  -7  -1   0   -0.21    0.22
  -6  -1   0   34.89    1.23
  -5  -1   0   -0.12    0.15
  -4  -1   0   50.61    1.27
  -3  -1   0    0.14    0.12
  -2  -1   0    4.69    0.37
  -1  -1   0    0.05    0.10
   0  -1   0   -1.09    0.10
   1  -1   0   -0.06    0.10
   2  -1   0    5.99    0.32
   3  -1   0    0.04    0.14
   4  -1   0   51.62    1.32
   5  -1   0    0.11    0.18
   6  -1   0   36.12    1.11
   7  -1   0   -0.21    0.22
   8  -1   0   65.46    1.84
   9  -1   0   -0.12    0.27
  10  -1   0  130.98    4.03
  11  -1   0    0.05    0.37
  12  -1   0    4.16    0.96
  13  -1   0    0.05    0.64
  14  -1   0   -0.61    0.67
  15  -1   0   -0.11    0.79
 -12   0   0    3.28    0.62
 -11   0   0    0.36    0.40
 -10   0   0   42.85    1.62
  -9   0   0   -0.57    0.27
  -8   0   0   15.46    0.88
  -7   0   0    0.14    0.26
  -6   0   0    3.11    0.36
  -5   0   0   -0.46    0.17
  -4   0   0   26.07    0.89
  -3   0   0    0.15    0.16
  -2   0   0   -0.03    0.11
  -1   0   0   -0.03    0.05
   1   0   0    0.04    0.11
   2   0   0    0.05    0.12
   3   0   0   -0.13    0.16
   4   0   0   26.15    0.81
   5   0   0    0.09    0.17
   6   0   0    3.05    0.34
   7   0   0    0.09    0.23
   8   0   0   17.49    0.80
   9   0   0    0.00    0.27
  10   0   0   37.78    1.73
  11   0   0   -0.36    0.50
  12   0   0    2.67    0.87
  13   0   0   -0.66    0.59
  14   0   0   44.64    2.99
 -14   1   0    0.76    0.80
 -13   1   0   -0.11    0.71
 -12   1   0    1.30    0.74
 -11   1   0   -0.47    0.50
 -10   1   0  129.91    5.64
  -9   1   0   -0.28    0.29
  -8   1   0   67.73    2.13
  -7   1   0    0.11    0.26
  -6   1   0   37.24    1.26
  -5   1   0    0.02    0.19
  -4   1   0   50.68    1.52
  -3   1   0    0.08    0.14
  -2   1   0    5.92    0.32
  -1   1   0    0.18    0.20
   0   1   0   -1.00    0.14
   1   1   0   -0.16    0.12
   2   1   0    5.29    0.34
   3   1   0   -0.01    0.16
   4   1   0   54.22    1.30
   5   1   0   -0.18    0.15
   6   1   0   37.43    1.07
   7   1   0   -0.13    0.20
   8   1   0   67.90    2.36
   9   1   0   -0.19    0.41
  10   1   0  130.43    4.14
  11   1   0   -0.21    0.45
  12   1   0    0.73    0.72
  13   1   0   -0.23    0.62
 -14   2   0   41.45    2.98
 -13   2   0    0.66    0.82
 -12   2   0    1.92    0.57
 -11   2   0   -0.20    0.38
 -10   2   0   28.36    2.08
  -9   2   0   -0.67    0.44
  -8   2   0    9.17    1.21
  -7   2   0   -0.64    0.39
  -6   2   0    2.44    0.64
  -5   2   0   -0.28    0.20
  -4   2   0   14.43    0.61
  -3   2   0    0.12    0.16
  -2   2   0    0.14    0.19
  -1   2   0    0.00    0.16
   0   2   0  996.10   24.55
   1   2   0   -0.02    0.11
   2   2   0    0.05    0.11
   3   2   0    0.43    0.21
   4   2   0   14.74    0.71
   5   2   0    0.36    0.24
   6   2   0    2.52    0.49
   7   2   0   -0.33    0.36
   8   2   0   13.49    1.05
   9   2   0   -0.42    0.41
  10   2   0   30.78    1.63
  11   2   0   -1.15    0.49
  12   2   0    2.58    0.75
 -13   3   0   -0.06    0.59
 -12   3   0    1.17    0.64
 -11   3   0   -0.29    0.43
 -10   3   0   71.87    2.81
  -9   3   0   -0.42    0.34
  -8   3   0   34.09    1.63
  -7   3   0    0.55    0.34
  -6   3   0   16.17    1.13
  -5   3   0   -0.22    0.28
  -4   3   0   26.52    1.23
  -3   3   0   -0.17    0.25
  -2   3   0    2.93    0.45
  -1   3   0   -0.10    0.23
   0   3   0   -0.30    0.18
   1   3   0    0.10    0.18
   2   3   0    1.99    0.39
   3   3   0   -0.24    0.26
   4   3   0   26.46    1.15
   5   3   0    0.75    0.51
   6   3   0   16.43    1.59
   7   3   0    0.26    0.40
   8   3   0   38.21    1.73
   9   3   0    0.37    0.48
  10   3   0   78.92    2.94
  11   3   0    0.63    0.88
  12   3   0    2.76    1.24
 -11   4   0   -0.11    0.55
 -10   4   0   14.60    1.36
  -9   4   0    0.12    0.50
  -8   4   0    4.79    0.82
  -7   4   0   -0.27    0.36
  -6   4   0    0.56    0.48
  -5   4   0   -0.06    0.38
  -4   4   0    5.97    0.74
  -3   4   0   -0.76    0.29
  -2   4   0    0.31    0.34
  -1   4   0   -0.11    0.23
   0   4   0  416.16   11.34
   1   4   0   -0.38    0.30
   2   4   0    0.28    0.34
   3   4   0    0.05    0.49
   4   4   0    4.89    0.93
   5   4   0    0.68    0.61
   6   4   0    2.09    0.80
   7   4   0    0.89    0.76
   8   4   0    4.94    0.82
   9   4   0    0.02    0.57
  10   4   0   14.49    1.95
  11   4   0   -0.48    0.90
  12   4   0    1.42    1.11
  -9   5   0   -0.69    0.75
  -8   5   0   17.43    1.53
  -7   5   0    0.49    0.56
  -6   5   0    6.71    0.93
  -5   5   0    0.51    0.49
  -4   5   0   10.69    1.61
  -3   5   0   -0.36    0.39
  -2   5   0    1.78    0.54
  -1   5   0    0.67    0.43
   0   5   0   -0.25    0.38
   1   5   0    0.82    0.65
   2   5   0    1.77    0.77
   3   5   0   -0.40    0.58
   4   5   0   10.58    1.52
   5   5   0   -0.05    0.70
   6   5   0    7.64    1.36
   7   5   0    0.30    0.78
   8   5   0   16.82    2.15
  -4   6   0    2.38    1.10
  -3   6   0    0.62    0.58
  -2   6   0    0.21    0.57
  -1   6   0    0.37    0.78
   0   6   0  164.42    7.36
   1   6   0    0.40    0.82
   2   6   0   -0.35    0.77
   3   6   0    0.47    0.83
   4   6   0    1.43    1.02
  -2  -6   1    0.35    0.96
  -1  -6   1    0.08    0.90
   0  -6   1    0.49    0.98
   1  -6   1   -0.11    0.93
   2  -6   1   -0.75    0.90
   3  -6   1    3.08    1.17
   4  -6   1    5.24    1.35
  -9  -5   1    0.20    0.97
  -8  -5   1    2.92    0.80
  -7  -5   1    1.08    0.68
  -6  -5   1    0.17    0.54
  -5  -5   1    5.61    0.87
  -4  -5   1   -1.02    0.72
  -3  -5   1    6.58    1.31
  -2  -5   1   52.64    3.34
  -1  -5   1    1.06    0.83
   0  -5   1    1.02    0.76
   1  -5   1    0.74    0.71
   2  -5   1   66.73    3.47
   3  -5   1    7.61    0.94
   4  -5   1    0.20    0.49
   5  -5   1    4.47    0.75
   6  -5   1    0.42    0.53
   7  -5   1   -0.05    0.65
   8  -5   1    2.25    1.02
 -11  -4   1    0.51    0.94
 -10  -4   1    1.71    0.99
  -9  -4   1    2.57    0.98
  -8  -4   1   31.55    1.69
  -7  -4   1    8.67    0.98
  -6  -4   1   52.91    2.22
  -5  -4   1   15.86    1.19
  -4  -4   1    7.78    0.82
  -3  -4   1    9.93    0.89
  -2  -4   1    0.69    0.40
  -1  -4   1    0.17    0.35
   0  -4   1    1.47    0.66
   1  -4   1    0.79    0.40
   2  -4   1    0.66    0.42
   3  -4   1    7.84    0.82
   4  -4   1    8.16    0.83
   5  -4   1   15.29    1.13
   6  -4   1   55.35    2.15
   7  -4   1    8.01    0.85
   8  -4   1   34.12    2.39
   9  -4   1    3.80    0.99
  10  -4   1    1.27    0.79
  11  -4   1    0.75    0.84
 -13  -3   1    6.33    1.43
 -12  -3   1   -0.56    0.73
 -11  -3   1    1.69    0.87
 -10  -3   1    7.07    1.28
  -9  -3   1    0.32    0.63
  -8  -3   1    7.55    0.84
  -7  -3   1    0.29    0.42
  -6  -3   1   -0.06    0.36
  -5  -3   1   14.94    1.04
  -4  -3   1    0.72    0.37
  -3  -3   1   20.75    1.03
  -2  -3   1  153.87    4.33
  -1  -3   1    1.95    0.38
   0  -3   1    1.18    0.26
   1  -3   1    1.17    0.26
   2  -3   1  153.82    3.46
   3  -3   1   21.11    1.04
   4  -3   1    0.72    0.34
   5  -3   1   14.34    0.89
   6  -3   1    0.22    0.30
   7  -3   1    0.46    0.35
   8  -3   1    7.08    0.72
   9  -3   1    0.48    0.58
  10  -3   1    7.68    1.25
  11  -3   1    1.21    0.73
  12  -3   1    1.22    0.81
  13  -3   1    7.03    1.42
 -14  -2   1    9.84    1.68
 -13  -2   1    0.29    0.79
 -12  -2   1    0.46    0.79
 -11  -2   1    2.20    0.90
 -10  -2   1    2.73    0.88
  -9  -2   1    5.73    1.05
  -8  -2   1   67.94    3.44
  -7  -2   1   23.47    1.70
  -6  -2   1  119.98    3.66
  -5  -2   1   41.32    1.51
  -4  -2   1   18.32    0.90
  -3  -2   1   21.72    0.95
  -2  -2   1    1.95    0.32
  -1  -2   1    1.65    0.29
   0  -2   1    0.24    0.15
   1  -2   1    1.96    0.21
   2  -2   1    1.79    0.19
   3  -2   1   21.91    0.76
   4  -2   1   18.82    0.72
   5  -2   1   37.04    1.17
   6  -2   1  126.26    2.99
   7  -2   1   23.69    0.92
   8  -2   1   67.34    1.92
   9  -2   1    4.38    0.51
  10  -2   1    1.50    0.48
  11  -2   1    3.33    0.64
  12  -2   1    0.97    0.70
  13  -2   1    0.72    0.72
  14  -2   1    5.24    1.20
  15  -2   1    0.22    0.85
 -15  -1   1    6.20    1.36
 -14  -1   1    0.03    0.94
 -13  -1   1   10.07    1.56
 -12  -1   1    0.64    0.78
 -11  -1   1    1.40    0.71
 -10  -1   1   13.58    1.49
  -9  -1   1    0.48    0.55
  -8  -1   1   12.11    0.76
  -7  -1   1    0.98    0.29
  -6  -1   1    0.68    0.23
  -5  -1   1   26.22    0.94
  -4  -1   1    1.07    0.16
  -3  -1   1   51.65    1.57
  -2  -1   1  346.22    8.76
  -1  -1   1    1.98    0.25
   0  -1   1    3.27    0.21
   1  -1   1    1.89    0.24
   2  -1   1  338.12    7.23
   3  -1   1   51.21    1.28
   4  -1   1    0.98    0.21
   5  -1   1   27.76    0.89
   6  -1   1    0.20    0.24
   7  -1   1    0.96    0.30
   8  -1   1   13.83    0.77
   9  -1   1    1.16    0.35
  10  -1   1   11.52    0.78
  11  -1   1    1.45    0.72
  12  -1   1    2.44    0.82
  13  -1   1    9.78    1.51
  14  -1   1    1.88    0.96
 -13   0   1   -0.13    0.69
 -12   0   1    1.27    0.52
 -11   0   1    4.18    0.60
 -10   0   1    3.08    0.51
  -9   0   1    6.42    0.65
  -8   0   1   96.69    2.90
  -7   0   1   35.66    1.29
  -6   0   1  188.21    4.95
  -5   0   1   64.06    1.92
  -4   0   1   29.94    1.02
  -3   0   1   40.74    1.22
  -2   0   1    3.80    0.25
  -1   0   1    3.92    0.28
   1   0   1    4.74    0.44
   2   0   1    4.26    0.23
   3   0   1   44.59    1.09
   4   0   1   32.46    0.91
   5   0   1   66.18    1.67
   6   0   1  185.93    4.17
   7   0   1   33.03    1.10
   8   0   1   95.84    2.45
   9   0   1    7.75    0.59
  10   0   1    2.01    0.55
  11   0   1    3.23    0.68
  12   0   1    0.69    0.66
  13   0   1    1.63    0.74
 -14   1   1    1.48    0.92
 -13   1   1   10.78    1.54
 -12   1   1    2.73    0.86
 -11   1   1    1.19    0.65
 -10   1   1   10.72    0.87
  -9   1   1    1.30    0.41
  -8   1   1   14.16    0.85
  -7   1   1    1.32    0.33
  -6   1   1    0.79    0.27
  -5   1   1   27.16    0.99
  -4   1   1    0.74    0.20
  -3   1   1   52.95    1.49
  -2   1   1  353.00    8.67
   1   1   1    2.27    0.21
   2   1   1  345.49    8.79
   3   1   1   54.57    1.48
   4   1   1    1.23    0.16
   5   1   1   28.43    0.82
   6   1   1    1.04    0.19
   7   1   1    1.13    0.44
   8   1   1   14.42    1.05
   9   1   1    0.94    0.51
  10   1   1   13.03    1.12
  11   1   1    1.44    0.60
  12   1   1    1.91    0.66
 -14   2   1    6.08    1.41
 -13   2   1   -0.13    0.51
 -12   2   1    2.04    0.87
 -11   2   1    2.09    0.83
 -10   2   1    1.61    0.66
  -9   2   1    4.51    0.92
  -8   2   1   71.58    3.43
  -7   2   1   22.97    1.63
  -6   2   1  121.90    3.46
  -5   2   1   38.06    1.29
  -4   2   1   19.46    0.76
  -3   2   1   21.86    0.81
  -2   2   1    1.36    0.37
  -1   2   1    2.09    0.38
   0   2   1   -0.04    0.16
   1   2   1    2.59    0.30
   2   2   1    1.53    0.25
   3   2   1   21.36    0.84
   4   2   1   19.81    0.79
   5   2   1   39.56    1.31
   6   2   1  124.91    3.69
   7   2   1   23.18    1.23
   8   2   1   71.92    2.50
   9   2   1    5.94    0.81
  10   2   1    2.36    0.66
  11   2   1    3.32    0.76
  12   2   1   -0.81    0.92
 -14   3   1   -0.48    0.77
 -13   3   1    5.32    0.90
 -12   3   1    1.37    0.61
 -11   3   1    0.44    0.48
 -10   3   1    7.20    0.90
  -9   3   1    0.96    0.47
  -8   3   1    8.21    0.86
  -7   3   1    0.70    0.58
  -6   3   1    0.38    0.44
  -5   3   1   12.81    0.97
  -4   3   1    0.22    0.33
  -3   3   1   21.28    1.03
  -2   3   1  153.59    4.38
  -1   3   1    1.22    0.31
   0   3   1    1.20    0.24
   1   3   1    1.61    0.25
   2   3   1  155.71    4.34
   3   3   1   20.83    0.98
   4   3   1   -0.03    0.41
   5   3   1   14.51    1.37
   6   3   1    0.62    0.57
   7   3   1    0.23    0.40
   8   3   1    7.53    0.89
   9   3   1    0.94    0.53
  10   3   1    6.48    0.93
  11   3   1   -0.49    0.84
  12   3   1    1.67    1.17
  13   3   1    4.57    1.48
 -11   4   1    2.06    0.70
 -10   4   1    0.29    0.53
  -9   4   1    2.86    0.68
  -8   4   1   29.77    1.65
  -7   4   1    7.70    0.94
  -6   4   1   58.37    2.29
  -5   4   1   17.55    1.23
  -4   4   1    9.56    0.89
  -3   4   1    8.32    0.81
  -2   4   1    0.68    0.36
  -1   4   1    0.62    0.28
   0   4   1   -0.22    0.30
   1   4   1    0.62    0.36
   2   4   1    0.62    0.37
   3   4   1    8.64    1.17
   4   4   1    8.89    1.19
   5   4   1   15.54    1.64
   6   4   1   59.52    3.16
   7   4   1   11.07    1.06
   8   4   1   33.36    1.75
   9   4   1    2.40    1.01
  10   4   1   -0.98    0.78
  11   4   1    2.39    1.10
  12   4   1    0.80    1.16
  -9   5   1    0.90    0.91
  -8   5   1    2.80    0.80
  -7   5   1    0.78    0.56
  -6   5   1   -0.09    0.50
  -5   5   1    5.18    0.85
  -4   5   1    0.38    0.70
  -3   5   1    6.39    0.86
  -2   5   1   55.77    2.33
  -1   5   1    1.29    0.50
   0   5   1   -0.10    0.41
   1   5   1   -0.10    0.54
   2   5   1   59.75    3.30
   3   5   1    6.66    1.18
   4   5   1   -0.37    0.63
   5   5   1    6.55    1.24
   6   5   1   -0.39    0.69
   7   5   1   -0.25    0.71
   8   5   1    4.78    1.32
  -4   6   1    4.01    1.28
  -3   6   1    3.53    0.83
  -2   6   1   -0.37    0.64
  -1   6   1    0.31    0.77
   0   6   1    0.67    0.80
   1   6   1    0.53    0.78
   2   6   1    0.08    0.76
   3   6   1    4.05    1.16
  -2  -6   2    0.90    1.00
  -1  -6   2    2.02    1.01
   0  -6   2    6.28    1.49
   1  -6   2    0.92    1.03
   2  -6   2   -0.09    0.95
   3  -6   2    0.93    0.96
   4  -6   2   -0.12    0.92
  -9  -5   2    6.12    1.39
  -8  -5   2   13.53    1.34
  -7  -5   2   -0.09    0.55
  -6  -5   2    0.39    0.59
  -5  -5   2   19.71    2.22
  -4  -5   2   -0.44    0.67
  -3  -5   2    2.34    1.00
  -2  -5   2   32.00    2.43
  -1  -5   2    0.70    0.86
   0  -5   2   -0.57    0.58
   1  -5   2    1.14    0.81
   2  -5   2   35.67    2.45
   3  -5   2    1.65    0.55
   4  -5   2   -0.64    0.45
   5  -5   2   22.19    1.55
   6  -5   2    0.37    0.52
   7  -5   2    0.66    0.76
   8  -5   2   11.87    1.73
 -11  -4   2    0.38    0.90
 -10  -4   2   -0.39    0.77
  -9  -4   2    3.29    1.03
  -8  -4   2    0.74    0.55
  -7  -4   2    3.53    0.67
  -6  -4   2    6.81    0.85
  -5  -4   2   17.86    1.28
  -4  -4   2    0.77    0.43
  -3  -4   2    2.10    0.51
  -2  -4   2    0.14    0.36
  -1  -4   2    4.97    1.00
   0  -4   2   12.49    1.43
   1  -4   2    5.84    1.04
   2  -4   2    0.09    0.37
   3  -4   2    2.71    0.53
   4  -4   2    0.80    0.40
   5  -4   2   19.53    1.21
   6  -4   2    7.50    0.82
   7  -4   2    2.02    0.54
   8  -4   2    0.78    0.66
   9  -4   2    2.21    0.88
  10  -4   2    0.45    0.68
  11  -4   2    0.34    0.70
 -13  -3   2    0.21    0.83
 -12  -3   2    5.18    1.27
 -11  -3   2   12.44    1.67
 -10  -3   2    8.73    1.43
  -9  -3   2    9.19    1.37
  -8  -3   2   32.99    1.64
  -7  -3   2    0.71    0.44
  -6  -3   2    0.64    0.40
  -5  -3   2   52.64    1.98
  -4  -3   2    2.89    0.50
  -3  -3   2    3.14    0.48
  -2  -3   2   86.45    2.65
  -1  -3   2    3.25    0.43
   0  -3   2   -0.15    0.24
   1  -3   2    1.92    0.29
   2  -3   2   85.03    2.68
   3  -3   2    3.01    0.47
   4  -3   2    2.32    0.45
   5  -3   2   53.39    1.92
   6  -3   2    0.19    0.31
   7  -3   2    0.89    0.38
   8  -3   2   34.36    1.52
   9  -3   2    7.15    1.19
  10  -3   2    7.57    1.24
  11  -3   2   11.18    1.52
  12  -3   2    4.38    1.08
  13  -3   2    1.50    0.87
 -14  -2   2   13.76    1.90
 -13  -2   2    0.72    0.86
 -12  -2   2   16.38    2.00
 -11  -2   2    0.21    0.65
 -10  -2   2    0.67    0.70
  -9  -2   2    7.15    1.13
  -8  -2   2    1.43    0.70
  -7  -2   2    5.93    0.68
  -6  -2   2   17.32    1.00
  -5  -2   2   42.31    1.56
  -4  -2   2    1.93    0.37
  -3  -2   2    5.45    0.51
  -2  -2   2    0.26    0.23
  -1  -2   2    9.45    0.56
   0  -2   2   27.83    0.82
   1  -2   2    9.41    0.41
   2  -2   2    0.22    0.12
   3  -2   2    6.23    0.52
   4  -2   2    1.83    0.29
   5  -2   2   42.27    1.26
   6  -2   2   17.62    0.76
   7  -2   2    6.45    0.54
   8  -2   2    1.46    0.35
   9  -2   2    7.01    0.60
  10  -2   2    0.59    0.41
  11  -2   2    0.36    0.57
  12  -2   2   17.91    1.89
  13  -2   2    0.45    0.65
  14  -2   2   12.33    1.70
  15  -2   2   19.47    2.22
 -15  -1   2    0.67    0.96
 -14  -1   2    2.25    1.06
 -13  -1   2    1.20    0.85
 -12  -1   2    4.66    1.12
 -11  -1   2   18.72    1.86
 -10  -1   2   13.51    1.52
  -9  -1   2   13.86    1.46
  -8  -1   2   61.84    2.08
  -7  -1   2    1.32    0.31
  -6  -1   2    0.20    0.20
  -5  -1   2  109.48    2.46
  -4  -1   2    6.56    0.31
  -3  -1   2    6.65    0.46
  -2  -1   2  191.23    5.03
  -1  -1   2    5.09    0.35
   0  -1   2   -0.14    0.12
   1  -1   2    5.17    0.36
   2  -1   2  190.63    5.03
   3  -1   2    6.85    0.39
   4  -1   2    6.42    0.41
   5  -1   2  108.67    2.56
   6  -1   2    0.07    0.20
   7  -1   2    1.05    0.28
   8  -1   2   65.91    1.87
   9  -1   2   14.38    0.84
  10  -1   2   13.78    0.84
  11  -1   2   21.79    1.91
  12  -1   2    7.25    1.22
  13  -1   2   -0.32    0.66
  14  -1   2    1.14    0.82
 -13   0   2   -0.68    0.66
 -12   0   2   22.89    1.28
 -11   0   2    0.03    0.39
 -10   0   2   -0.37    0.34
  -9   0   2    8.20    0.74
  -8   0   2    2.36    0.43
  -7   0   2    7.88    0.62
  -6   0   2   25.99    1.01
  -5   0   2   66.94    2.02
  -4   0   2    3.30    0.31
  -3   0   2   11.58    0.51
  -2   0   2   -0.25    0.22
  -1   0   2   17.61    0.84
   0   0   2   50.75    1.92
   1   0   2   19.73    1.04
   2   0   2    0.42    0.19
   3   0   2   12.68    0.46
   4   0   2    3.45    0.28
   5   0   2   71.22    1.75
   6   0   2   25.93    0.86
   7   0   2    8.60    0.51
   8   0   2    2.67    0.36
   9   0   2    9.51    0.88
  10   0   2    0.53    0.41
  11   0   2    0.08    0.46
  12   0   2   24.07    2.12
  13   0   2    0.11    0.64
 -14   1   2    0.96    0.85
 -13   1   2   -0.56    0.65
 -12   1   2    5.75    1.08
 -11   1   2   15.88    1.73
 -10   1   2   13.91    0.99
  -9   1   2   13.32    0.93
  -8   1   2   69.28    2.17
  -7   1   2    1.49    0.36
  -6   1   2   -0.19    0.22
  -5   1   2  109.48    3.02
  -4   1   2    7.47    0.47
  -3   1   2    6.58    0.41
  -2   1   2  188.99    6.97
   1   1   2    5.23    0.43
   2   1   2  201.27    4.99
   3   1   2    7.02    0.47
   4   1   2    6.17    0.50
   5   1   2  109.78    3.14
   6   1   2    0.32    0.13
   7   1   2    1.49    0.45
   8   1   2   68.10    2.33
   9   1   2   13.69    1.09
  10   1   2   14.99    1.19
  11   1   2   21.84    1.49
  12   1   2    5.91    0.90
 -14   2   2   13.18    1.87
 -13   2   2   -0.78    0.70
 -12   2   2   13.32    1.76
 -11   2   2   -0.24    0.60
 -10   2   2    0.54    0.59
  -9   2   2    8.96    1.22
  -8   2   2    0.57    0.57
  -7   2   2    5.12    0.89
  -6   2   2   17.17    0.81
  -5   2   2   42.94    1.43
  -4   2   2    1.31    0.27
  -3   2   2    6.69    0.47
  -2   2   2    0.09    0.25
   1   2   2    9.30    0.52
   2   2   2   -0.07    0.14
   3   2   2    5.90    0.40
   4   2   2    1.95    0.26
   5   2   2   43.95    1.57
   6   2   2   18.25    1.06
   7   2   2    5.41    0.70
   8   2   2    1.43    0.50
   9   2   2    7.42    0.86
  10   2   2   -0.11    0.49
  11   2   2    0.28    0.85
  12   2   2   17.19    2.14
  13   2   2    0.99    1.12
 -13   3   2    0.28    0.56
 -12   3   2    3.13    0.75
 -11   3   2   10.33    1.09
 -10   3   2    7.87    1.34
  -9   3   2    8.00    1.26
  -8   3   2   34.40    2.28
  -7   3   2    1.11    0.62
  -6   3   2    0.45    0.49
  -5   3   2   52.95    2.73
  -4   3   2    1.42    0.55
  -3   3   2    3.70    0.68
  -2   3   2   84.06    2.66
  -1   3   2    2.04    0.37
   0   3   2   -0.11    0.21
   1   3   2    1.61    0.26
   2   3   2   87.98    2.07
   3   3   2    3.14    0.42
   4   3   2    2.36    0.61
   5   3   2   54.34    2.70
   6   3   2    0.12    0.36
   7   3   2    0.87    0.46
   8   3   2   37.20    1.72
   9   3   2    9.37    1.01
  10   3   2    7.87    1.45
  11   3   2   10.55    1.79
  12   3   2    6.29    1.51
  13   3   2   -0.09    1.13
 -11   4   2   -0.22    0.53
 -10   4   2    1.81    0.62
  -9   4   2    4.16    0.77
  -8   4   2    0.41    0.48
  -7   4   2    2.76    0.61
  -6   4   2    6.10    0.80
  -5   4   2   18.60    1.31
  -4   4   2    0.53    0.38
  -3   4   2    1.37    0.45
  -2   4   2   -0.23    0.32
  -1   4   2    3.56    0.44
   0   4   2   11.15    0.91
   1   4   2    4.55    0.58
   2   4   2    0.10    0.31
   3   4   2    2.14    0.71
   4   4   2    0.33    0.50
   5   4   2   21.02    1.87
   6   4   2    6.02    1.12
   7   4   2    2.57    0.62
   8   4   2    0.65    0.71
   9   4   2    2.69    1.07
  10   4   2   -0.58    0.75
  11   4   2   -0.16    0.93
  -9   5   2    3.00    1.13
  -8   5   2   12.88    1.35
  -7   5   2    0.32    0.54
  -6   5   2   -0.66    0.44
  -5   5   2   22.27    1.59
  -4   5   2    1.15    0.78
  -3   5   2    1.28    0.80
  -2   5   2   32.20    1.65
  -1   5   2    0.73    0.46
   0   5   2    0.07    0.37
   1   5   2    0.35    0.61
   2   5   2   26.50    2.14
   3   5   2    1.89    0.76
   4   5   2    0.49    0.69
   5   5   2   19.52    2.06
   7   5   2    0.32    0.82
   8   5   2   16.18    2.05
  -4   6   2   -0.49    0.89
  -3   6   2    0.07    0.57
  -2   6   2   -0.48    0.70
  -1   6   2    0.88    0.87
   0   6   2    6.96    1.40
   1   6   2   -0.29    0.67
   2   6   2    0.07    0.78
   3   6   2    0.80    0.83
  -2  -6   3    1.39    1.03
  -1  -6   3    0.45    1.01
   0  -6   3   -0.47    0.82
   1  -6   3    0.55    0.92
   2  -6   3    2.76    1.15
   3  -6   3    6.83    1.53
   4  -6   3    7.26    1.54
  -9  -5   3    5.38    1.00
  -8  -5   3   -0.06    0.61
  -7  -5   3    9.88    1.15
  -6  -5   3    3.78    0.78
  -5  -5   3    0.82    0.86
  -4  -5   3   56.00    3.38
  -3  -5   3    0.24    0.73
  -2  -5   3    3.61    1.05
  -1  -5   3    8.08    1.36
   0  -5   3    1.64    0.85
   1  -5   3    8.17    1.38
   2  -5   3    4.46    1.14
   3  -5   3   -0.01    0.67
   4  -5   3   53.99    2.30
   5  -5   3    1.48    0.59
   6  -5   3    6.58    0.91
   7  -5   3   10.88    1.63
   8  -5   3    0.01    0.70
 -11  -4   3    9.11    1.64
 -10  -4   3    0.56    0.86
  -9  -4   3    7.88    0.99
  -8  -4   3    9.82    1.05
  -7  -4   3    1.35    0.55
  -6  -4   3    0.64    0.46
  -5  -4   3    0.48    0.45
  -4  -4   3   21.64    1.30
  -3  -4   3    8.68    0.85
  -2  -4   3    3.97    0.59
  -1  -4   3    2.14    0.75
   0  -4   3   -0.25    0.52
   1  -4   3    1.41    0.70
   2  -4   3    6.22    0.74
   3  -4   3    9.22    0.90
   4  -4   3   23.41    1.26
   5  -4   3    1.84    0.47
   6  -4   3    1.40    0.50
   7  -4   3    1.57    0.51
   8  -4   3   11.19    1.04
   9  -4   3    7.52    1.29
  10  -4   3    0.09    0.65
  11  -4   3    8.40    1.49
 -13  -3   3    1.39    1.02
 -12  -3   3    1.73    0.96
 -11  -3   3    4.27    1.20
 -10  -3   3   29.13    2.59
  -9  -3   3   12.30    1.61
  -8  -3   3    0.18    0.42
  -7  -3   3   27.09    1.39
  -6  -3   3   11.54    0.96
  -5  -3   3    4.91    0.63
  -4  -3   3  138.20    3.97
  -3  -3   3    0.21    0.34
  -2  -3   3   14.63    0.84
  -1  -3   3   21.84    0.98
   0  -3   3   10.38    0.65
   1  -3   3   21.91    0.77
   2  -3   3   15.21    0.92
   3  -3   3    0.17    0.31
   4  -3   3  131.89    3.92
   5  -3   3    4.23    0.57
   6  -3   3   12.78    0.93
   7  -3   3   26.90    1.29
   8  -3   3    1.01    0.44
   9  -3   3   13.01    1.03
  10  -3   3   29.35    2.18
  11  -3   3    4.53    1.05
  12  -3   3    0.92    0.75
  13  -3   3    4.35    1.16
 -14  -2   3   11.63    1.86
 -13  -2   3    4.24    1.23
 -12  -2   3   51.53    3.21
 -11  -2   3   15.35    1.81
 -10  -2   3    1.64    0.76
  -9  -2   3   18.37    1.78
  -8  -2   3   22.72    1.75
  -7  -2   3    4.05    0.60
  -6  -2   3    3.12    0.52
  -5  -2   3    2.33    0.43
  -4  -2   3   57.30    1.88
  -3  -2   3   24.19    0.98
  -2  -2   3   10.27    0.62
  -1  -2   3    2.21    0.31
   0  -2   3   -0.07    0.18
   1  -2   3    2.21    0.22
   2  -2   3   10.01    0.66
   3  -2   3   21.42    0.95
   4  -2   3   54.41    1.83
   5  -2   3    2.13    0.39
   6  -2   3    4.00    0.51
   7  -2   3    4.42    0.57
   8  -2   3   25.17    1.23
   9  -2   3   17.92    1.17
  10  -2   3    1.11    0.48
  11  -2   3   17.34    1.81
  12  -2   3   46.35    2.94
  13  -2   3    8.74    1.39
  14  -2   3   12.54    1.69
 -15  -1   3   -0.84    0.91
 -14  -1   3   -0.26    0.82
 -13  -1   3    2.82    0.98
 -12  -1   3    2.32    0.95
 -11  -1   3    8.71    1.30
 -10  -1   3   49.08    2.88
  -9  -1   3   18.45    1.76
  -8  -1   3    1.38    0.37
  -7  -1   3   50.68    1.69
  -6  -1   3   24.70    0.96
  -5  -1   3    8.22    0.40
  -4  -1   3  268.45    5.59
  -3  -1   3    1.25    0.24
  -2  -1   3   36.26    1.14
  -1  -1   3   51.05    1.49
   0  -1   3   22.03    0.73
   1  -1   3   51.97    1.18
   2  -1   3   33.82    1.14
   3  -1   3    0.90    0.25
   4  -1   3  266.24    6.95
   5  -1   3    9.04    0.51
   6  -1   3   26.86    0.94
   7  -1   3   50.59    1.56
   8  -1   3    1.31    0.35
   9  -1   3   22.93    1.00
  10  -1   3   49.44    2.06
  11  -1   3    7.05    0.83
  12  -1   3    0.44    0.68
  13  -1   3    2.81    0.89
 -13   0   3    9.18    1.42
 -12   0   3   65.32    3.50
 -11   0   3   25.69    1.31
 -10   0   3    1.04    0.44
  -9   0   3   27.83    1.23
  -8   0   3   35.85    1.38
  -7   0   3    5.47    0.54
  -6   0   3    5.27    0.47
  -5   0   3    3.35    0.37
  -4   0   3   92.53    2.62
  -3   0   3   36.52    1.73
  -2   0   3   16.57    0.97
  -1   0   3    4.76    0.42
   0   0   3    0.27    0.13
   1   0   3    4.28    0.57
   2   0   3   18.30    0.69
   3   0   3   40.16    1.30
   4   0   3   99.23    2.78
   5   0   3    3.98    0.33
   6   0   3    4.71    0.39
   7   0   3    6.04    0.46
   8   0   3   35.80    1.16
   9   0   3   25.64    1.37
  10   0   3    1.12    0.50
  11   0   3   27.58    1.52
  12   0   3   66.65    2.57
 -14   1   3   -0.31    0.72
 -13   1   3    3.40    0.98
 -12   1   3    1.46    0.80
 -11   1   3    7.05    1.15
 -10   1   3   55.14    1.96
  -9   1   3   20.78    1.09
  -8   1   3    1.38    0.38
  -7   1   3   54.36    1.76
  -6   1   3   26.58    1.05
  -5   1   3    7.66    0.55
  -4   1   3  271.03    6.88
  -3   1   3    1.60    0.36
  -2   1   3   35.27    1.57
   1   1   3   50.84    1.99
   2   1   3   36.58    1.11
   3   1   3    1.05    0.24
   4   1   3  269.06    6.95
   5   1   3    9.79    0.67
   6   1   3   28.47    1.21
   7   1   3   54.16    1.91
   8   1   3    0.89    0.47
   9   1   3   25.56    1.30
  10   1   3   52.73    2.11
  11   1   3    6.57    0.90
  12   1   3    4.68    1.32
  13   1   3    5.99    1.53
 -14   2   3    7.90    1.50
 -13   2   3    6.37    1.35
 -12   2   3   50.03    3.09
 -11   2   3   14.64    1.75
 -10   2   3    0.84    0.63
  -9   2   3   17.00    1.71
  -8   2   3   23.11    1.73
  -7   2   3    3.45    0.48
  -6   2   3    2.65    0.41
  -5   2   3    2.19    0.37
  -4   2   3   57.11    1.78
  -3   2   3   23.41    0.90
   1   2   3    2.11    0.39
   2   2   3    9.17    0.50
   3   2   3   23.14    0.82
   4   2   3   57.41    1.69
   5   2   3    2.65    0.44
   6   2   3    3.34    0.53
   7   2   3    3.89    0.60
   8   2   3   25.37    1.35
   9   2   3   18.41    1.32
  10   2   3    1.84    0.93
  11   2   3   17.42    2.10
  12   2   3   48.43    3.42
  13   2   3    9.20    1.88
 -13   3   3    2.40    0.76
 -12   3   3    1.67    0.64
 -11   3   3    2.69    0.97
 -10   3   3   30.73    2.30
  -9   3   3   11.70    1.50
  -8   3   3   -0.18    0.53
  -7   3   3   24.52    1.87
  -6   3   3   14.70    1.45
  -5   3   3    5.62    0.91
  -4   3   3  133.28    5.54
  -3   3   3    0.51    0.28
  -2   3   3   15.54    1.14
  -1   3   3   21.83    0.98
   0   3   3   10.47    0.70
   1   3   3   21.84    0.97
   2   3   3   13.92    0.80
   3   3   3    0.40    0.27
   4   3   3  128.33    5.37
   5   3   3    5.35    0.83
   6   3   3   11.93    0.95
   7   3   3   26.88    1.38
   8   3   3    0.73    0.48
   9   3   3   13.61    1.71
  10   3   3   32.34    2.52
  11   3   3    3.02    1.16
  12   3   3    2.25    1.24
  13   3   3    0.04    1.17
 -11   4   3   10.70    1.21
 -10   4   3    0.43    0.52
  -9   4   3    9.93    1.11
  -8   4   3    8.28    0.98
  -7   4   3    0.50    0.47
  -6   4   3    1.12    0.53
  -5   4   3    1.22    0.46
  -4   4   3   21.97    1.23
  -3   4   3   10.96    0.93
  -2   4   3    4.42    0.59
  -1   4   3    1.61    0.41
   0   4   3   -0.02    0.29
   1   4   3    0.83    0.37
   2   4   3    4.20    0.80
   3   4   3   10.73    1.27
   4   4   3   25.26    1.76
   5   4   3   -1.34    0.40
   6   4   3    1.53    0.51
   7   4   3    2.44    0.91
   8   4   3   12.31    1.68
   9   4   3    8.97    1.56
  10   4   3   -0.77    0.90
  11   4   3   11.96    1.97
  -9   5   3    5.56    1.39
  -8   5   3    0.40    0.60
  -7   5   3   11.87    1.27
  -6   5   3    5.80    0.87
  -5   5   3    2.35    0.65
  -4   5   3   45.37    3.22
  -3   5   3    0.88    0.71
  -2   5   3    6.19    0.79
  -1   5   3    5.81    0.80
   0   5   3    3.02    0.88
   1   5   3    7.99    1.27
   2   5   3    5.84    1.08
   3   5   3   -0.64    0.58
   4   5   3   54.38    3.09
   6   5   3    8.12    1.50
   7   5   3   15.47    2.01
   8   5   3    1.29    1.01
  -4   6   3    8.73    1.66
  -3   6   3    4.87    0.93
  -2   6   3    1.63    0.92
  -1   6   3    0.78    0.80
   0   6   3   -0.76    0.64
   1   6   3   -0.20    0.77
   2   6   3    1.70    0.92
  -1  -6   4   -0.42    0.94
   0  -6   4    2.74    1.18
   1  -6   4   -0.82    0.90
   2  -6   4    9.19    1.63
   3  -6   4    2.77    1.17
  -9  -5   4    1.84    0.79
  -8  -5   4   -0.06    0.63
  -7  -5   4    5.23    0.91
  -6  -5   4    0.23    0.58
  -5  -5   4    1.51    1.01
  -4  -5   4   41.79    2.90
  -3  -5   4    2.55    0.92
  -2  -5   4    6.90    1.38
  -1  -5   4    1.98    0.93
   0  -5   4    1.03    0.79
   1  -5   4    1.45    0.85
   2  -5   4    3.10    1.10
   3  -5   4    0.49    0.82
   4  -5   4   41.77    1.97
   5  -5   4    0.77    0.53
   6  -5   4   -0.25    0.45
   7  -5   4    5.57    0.90
   8  -5   4    1.05    0.84
 -11  -4   4   -0.19    0.83
 -10  -4   4    0.94    0.92
  -9  -4   4    9.18    1.07
  -8  -4   4    1.88    0.61
  -7  -4   4   26.19    1.45
  -6  -4   4   70.29    2.65
  -5  -4   4    0.54    0.42
  -4  -4   4   17.46    1.19
  -3  -4   4    8.30    0.81
  -2  -4   4   30.50    1.40
  -1  -4   4    0.96    0.64
   0  -4   4    8.29    1.24
   1  -4   4   -0.56    0.49
   2  -4   4   32.21    1.51
   3  -4   4    7.58    0.81
   4  -4   4   16.32    1.19
   5  -4   4    0.58    0.43
   6  -4   4   70.21    2.61
   7  -4   4   23.21    1.53
   8  -4   4    4.25    0.71
   9  -4   4    8.98    1.43
  10  -4   4    2.03    0.87
  11  -4   4    0.98    0.77
 -13  -3   4    7.05    1.55
 -12  -3   4   12.38    1.87
 -11  -3   4    3.71    1.18
 -10  -3   4   57.50    3.43
  -9  -3   4    5.82    1.19
  -8  -3   4    1.16    0.49
  -7  -3   4   14.25    1.10
  -6  -3   4   -0.13    0.37
  -5  -3   4    6.06    0.66
  -4  -3   4  101.71    3.19
  -3  -3   4    4.15    0.54
  -2  -3   4   17.45    0.91
  -1  -3   4    3.24    0.44
   0  -3   4    0.30    0.26
   1  -3   4    3.32    0.33
   2  -3   4   15.84    1.03
   3  -3   4    3.15    0.52
   4  -3   4  102.74    3.19
   5  -3   4    4.55    0.58
   6  -3   4    0.09    0.32
   7  -3   4   16.28    1.10
   8  -3   4    2.55    0.53
   9  -3   4    5.84    0.74
  10  -3   4   61.84    3.30
  11  -3   4    6.80    1.23
  12  -3   4   15.60    1.83
  13  -3   4    9.60    1.50
 -14  -2   4    6.25    1.48
 -13  -2   4   -0.30    0.74
 -12  -2   4    0.43    0.81
 -11  -2   4    0.59    0.73
 -10  -2   4    1.44    0.76
  -9  -2   4   21.91    1.98
  -8  -2   4    6.08    1.01
  -7  -2   4   62.02    2.14
  -6  -2   4  159.52    4.59
  -5  -2   4    1.11    0.36
  -4  -2   4   41.12    1.47
  -3  -2   4   21.12    0.90
  -2  -2   4   78.16    2.28
  -1  -2   4   -0.01    0.20
   0  -2   4   20.14    0.79
   1  -2   4    0.25    0.15
   2  -2   4   74.50    2.30
   3  -2   4   19.99    0.90
   4  -2   4   41.46    1.46
   5  -2   4    0.73    0.31
   6  -2   4  161.63    4.57
   7  -2   4   60.63    2.12
   8  -2   4    6.93    0.74
   9  -2   4   20.70    1.23
  10  -2   4    2.98    0.61
  11  -2   4    0.13    0.55
  12  -2   4    0.59    0.62
  13  -2   4    1.19    0.75
 -15  -1   4    0.86    1.03
 -14  -1   4   33.19    2.56
 -13  -1   4   12.59    1.73
 -12  -1   4   20.32    2.07
 -11  -1   4    8.78    1.32
 -10  -1   4   97.10    4.74
  -9  -1   4   11.33    1.39
  -8  -1   4    3.46    0.46
  -7  -1   4   29.62    1.13
  -6  -1   4    0.05    0.18
  -5  -1   4    9.46    0.43
  -4  -1   4  214.61    5.63
  -3  -1   4    7.27    0.48
  -2  -1   4   36.53    1.14
  -1  -1   4    7.72    0.44
   0  -1   4    0.52    0.18
   1  -1   4    7.17    0.31
   2  -1   4   36.96    1.16
   3  -1   4    7.12    0.50
   4  -1   4  216.62    5.67
   5  -1   4    8.46    0.66
   6  -1   4    0.62    0.32
   7  -1   4   31.65    1.49
   8  -1   4    3.51    0.60
   9  -1   4   12.62    1.04
  10  -1   4  101.07    3.38
  11  -1   4    8.00    0.87
  12  -1   4   20.71    1.97
 -13   0   4    1.90    0.95
 -12   0   4    1.18    0.77
 -11   0   4   -0.31    0.38
 -10   0   4    3.69    0.56
  -9   0   4   28.80    1.27
  -8   0   4    9.34    0.73
  -7   0   4   83.93    2.55
  -6   0   4  232.42    6.23
  -5   0   4    1.53    0.29
  -4   0   4   60.51    2.72
  -3   0   4   33.84    1.67
  -2   0   4  129.09    4.97
  -1   0   4    0.42    0.17
   0   0   4   35.87    1.51
   1   0   4    1.12    0.54
   2   0   4  134.56    3.54
   3   0   4   37.88    1.21
   4   0   4   65.92    2.00
   5   0   4    2.06    0.37
   6   0   4  245.44    6.43
   7   0   4   86.96    2.71
   8   0   4    8.60    0.81
   9   0   4   27.65    1.37
  10   0   4    3.80    0.65
  11   0   4   -0.32    0.42
  12   0   4    0.03    0.92
 -14   1   4   34.56    2.52
 -13   1   4    9.13    1.46
 -12   1   4   22.47    2.09
 -11   1   4    6.35    0.79
 -10   1   4  106.67    3.27
  -9   1   4   11.22    0.89
  -8   1   4    4.19    0.53
  -7   1   4   27.32    1.17
  -6   1   4    0.35    0.27
  -5   1   4   10.32    0.61
  -4   1   4  215.45    7.89
  -3   1   4    6.80    0.66
  -2   1   4   35.11    1.61
   1   1   4    7.37    0.65
   2   1   4   36.69    1.09
   3   1   4    7.52    0.46
   4   1   4  217.37    5.65
   5   1   4   10.03    0.69
   6   1   4    0.53    0.35
   7   1   4   33.17    1.36
   8   1   4    2.46    0.57
   9   1   4   11.89    1.00
  10   1   4  104.03    3.43
  11   1   4    8.35    1.54
  12   1   4   20.55    2.40
  13   1   4    9.70    1.85
 -14   2   4    5.68    1.34
 -13   2   4   -0.21    0.76
 -12   2   4    0.09    0.70
 -11   2   4    0.24    0.60
 -10   2   4    3.78    0.89
  -9   2   4   21.34    1.66
  -8   2   4    5.71    0.97
  -7   2   4   58.19    2.00
  -6   2   4  164.04    4.48
  -5   2   4    1.05    0.32
  -4   2   4   40.53    1.40
  -3   2   4   20.22    1.17
  -2   2   4   73.52    3.11
   2   2   4   77.93    2.18
   3   2   4   20.93    0.76
   4   2   4   39.76    1.43
   5   2   4    1.53    0.37
   6   2   4  167.04    4.61
   7   2   4   58.71    2.17
   8   2   4    7.57    0.82
   9   2   4   20.29    2.08
  10   2   4    1.89    0.98
  11   2   4    0.76    0.96
  12   2   4    0.45    1.13
  13   2   4    0.73    1.23
  14   2   4    7.28    1.87
 -13   3   4    8.58    1.11
 -12   3   4   12.95    1.79
 -11   3   4    4.46    1.14
 -10   3   4   53.55    3.30
  -9   3   4    5.94    1.12
  -8   3   4    1.92    0.74
  -7   3   4   15.89    1.59
  -6   3   4    0.16    0.48
  -5   3   4    5.03    0.83
  -4   3   4  107.85    4.53
  -3   3   4    3.62    0.46
  -2   3   4   15.48    1.21
  -1   3   4    4.74    0.70
   0   3   4   -0.14    0.30
   1   3   4    3.72    0.43
   2   3   4   18.01    0.84
   3   3   4    4.13    0.69
   4   3   4  104.52    4.33
   5   3   4    4.50    0.57
   6   3   4    0.48    0.37
   7   3   4   17.22    1.18
   8   3   4    1.12    0.77
   9   3   4    6.73    1.31
  10   3   4   64.47    3.71
  11   3   4    4.15    1.34
  12   3   4   12.77    2.03
  13   3   4    5.66    1.70
 -11   4   4   -0.15    0.58
 -10   4   4    0.97    0.61
  -9   4   4    8.72    1.05
  -8   4   4    2.77    0.62
  -7   4   4   27.17    1.51
  -6   4   4   77.88    2.77
  -5   4   4    0.95    0.46
  -4   4   4   18.50    1.25
  -3   4   4    7.07    0.77
  -2   4   4   31.26    1.42
  -1   4   4    0.16    0.31
   0   4   4    9.04    0.77
   1   4   4   -0.10    0.29
   2   4   4   29.81    1.93
   3   4   4    8.86    1.11
   4   4   4   17.23    1.57
   5   4   4    0.95    0.60
   6   4   4   66.70    3.80
   7   4   4   26.35    2.40
   8   4   4    2.90    1.04
   9   4   4    9.27    1.63
  10   4   4    1.90    1.13
  11   4   4    0.82    1.10
  -9   5   4    3.60    1.22
  -8   5   4    1.12    0.67
  -7   5   4    5.51    0.93
  -6   5   4   -0.07    0.50
  -5   5   4    0.15    0.49
  -4   5   4   40.03    1.93
  -3   5   4    2.02    0.87
  -2   5   4    6.52    0.85
  -1   5   4    1.29    0.47
   0   5   4   -0.98    0.42
   1   5   4    1.84    0.72
   2   5   4    7.08    1.19
   3   5   4    1.47    0.75
   6   5   4    0.62    0.85
   7   5   4    4.60    1.26
   8   5   4    0.62    0.94
  -4   6   4    4.79    1.44
  -3   6   4    2.10    0.74
  -2   6   4    6.94    1.40
  -1   6   4   -0.37    0.69
   0   6   4    3.36    1.10
   1   6   4   -0.48    0.72
  -1  -6   5    2.19    1.17
   0  -6   5   -0.63    0.90
   1  -6   5    2.63    1.22
   2  -6   5   36.55    2.89
  -9  -5   5    2.48    0.82
  -8  -5   5    8.19    1.12
  -7  -5   5    0.49    0.66
  -6  -5   5    0.34    0.87
  -5  -5   5    0.60    0.79
  -4  -5   5   25.93    2.56
  -3  -5   5    0.92    0.90
  -2  -5   5    3.50    1.04
  -1  -5   5    4.39    1.15
   0  -5   5    0.28    0.76
   1  -5   5    5.87    1.24
   2  -5   5    4.14    1.09
   3  -5   5    2.84    0.97
   4  -5   5   28.66    2.25
   5  -5   5    1.68    0.61
   6  -5   5   -0.04    0.50
   7  -5   5    0.36    0.56
   8  -5   5    9.45    1.59
 -11  -4   5    1.42    0.98
 -10  -4   5    3.10    1.06
  -9  -4   5    1.16    0.63
  -8  -4   5   -0.26    0.45
  -7  -4   5    2.09    0.60
  -6  -4   5    5.32    0.78
  -5  -4   5    1.60    0.51
  -4  -4   5    0.20    0.41
  -3  -4   5    0.08    0.40
  -2  -4   5   92.29    4.47
  -1  -4   5    7.05    1.14
   0  -4   5   -0.36    0.58
   1  -4   5    5.83    1.07
   2  -4   5   90.03    4.44
   3  -4   5    0.29    0.38
   4  -4   5    0.07    0.38
   5  -4   5    2.33    0.53
   6  -4   5    4.94    0.71
   7  -4   5    1.94    0.56
   8  -4   5    0.74    0.47
   9  -4   5    1.72    0.58
  10  -4   5    3.08    1.00
  11  -4   5    1.05    0.86
 -13  -3   5   -0.34    0.92
 -12  -3   5   18.85    2.29
 -11  -3   5    0.34    0.83
 -10  -3   5    7.35    1.37
  -9  -3   5    6.33    0.84
  -8  -3   5   24.77    1.40
  -7  -3   5    2.64    0.56
  -6  -3   5    0.21    0.37
  -5  -3   5    3.16    0.55
  -4  -3   5   68.65    2.39
  -3  -3   5    5.81    0.62
  -2  -3   5    6.04    0.61
  -1  -3   5   15.79    0.82
   0  -3   5    9.66    0.65
   1  -3   5   13.80    1.36
   2  -3   5    5.92    0.64
   3  -3   5    5.26    0.61
   4  -3   5   75.24    2.45
   5  -3   5    3.88    0.56
   6  -3   5    0.14    0.31
   7  -3   5    1.45    0.46
   8  -3   5   24.17    1.29
   9  -3   5    5.39    0.73
  10  -3   5    7.48    0.88
  11  -3   5    0.78    0.72
  12  -3   5   17.55    1.92
  13  -3   5   -0.21    0.68
 -14  -2   5    2.58    1.15
 -13  -2   5    5.92    1.43
 -12  -2   5   75.83    4.21
 -11  -2   5    2.99    1.00
 -10  -2   5    8.03    1.33
  -9  -2   5    3.02    0.91
  -8  -2   5   -0.06    0.36
  -7  -2   5    3.41    0.55
  -6  -2   5   11.59    0.87
  -5  -2   5    3.12    0.49
  -4  -2   5    0.46    0.29
  -3  -2   5    0.91    0.30
  -2  -2   5  226.56    5.98
  -1  -2   5   17.74    0.78
   0  -2   5   -0.05    0.18
   1  -2   5   18.57    0.61
   2  -2   5  219.91    6.01
   3  -2   5    1.25    0.30
   4  -2   5    0.49    0.28
   5  -2   5    3.92    0.50
   6  -2   5   10.84    0.83
   7  -2   5    3.73    0.56
   8  -2   5   -0.12    0.33
   9  -2   5    3.04    0.61
  10  -2   5    8.01    0.88
  11  -2   5    3.06    0.68
  12  -2   5   78.13    3.97
  13  -2   5    4.30    1.08
 -15  -1   5    0.79    1.05
 -14  -1   5    7.59    1.47
 -13  -1   5   -0.08    0.74
 -12  -1   5   23.63    2.35
 -11  -1   5    0.57    0.67
 -10  -1   5    8.74    1.30
  -9  -1   5    8.54    1.24
  -8  -1   5   42.39    1.53
  -7  -1   5    4.66    0.48
  -6  -1   5    0.37    0.19
  -5  -1   5    7.81    0.40
  -4  -1   5  147.35    3.99
  -3  -1   5   10.92    0.57
  -2  -1   5   11.87    0.56
  -1  -1   5   35.87    1.11
   0  -1   5   25.21    0.86
   1  -1   5   34.54    0.88
   2  -1   5   11.25    0.41
   3  -1   5   11.85    0.61
   4  -1   5  145.74    4.02
   5  -1   5    7.11    0.61
   6  -1   5    0.12    0.30
   7  -1   5    4.36    0.63
   8  -1   5   40.82    1.90
   9  -1   5    9.59    0.93
  10  -1   5   10.49    0.99
  11  -1   5    0.73    0.51
  12  -1   5   30.32    1.58
 -14   0   5    1.67    0.96
 -13   0   5    5.84    1.29
 -12   0   5   99.13    4.79
 -11   0   5    4.36    0.66
 -10   0   5   10.78    0.91
  -9   0   5    4.94    0.61
  -8   0   5    0.75    0.32
  -7   0   5    4.55    0.51
  -6   0   5   16.66    0.81
  -5   0   5    4.82    0.71
  -4   0   5    0.27    0.31
  -3   0   5    1.21    0.18
  -2   0   5  361.02    9.15
  -1   0   5   32.36    0.99
   0   0   5   -0.49    0.20
   1   0   5   32.41    1.67
   2   0   5  366.24    9.21
   3   0   5    1.76    0.23
   4   0   5    0.44    0.22
   5   0   5    5.14    0.48
   6   0   5   17.89    0.95
   7   0   5    5.85    0.62
   8   0   5    0.41    0.38
   9   0   5    4.69    0.64
  10   0   5   12.53    1.03
  11   0   5    2.70    1.06
  12   0   5  101.10    5.19
  13   0   5    7.22    1.55
 -14   1   5   12.15    1.69
 -13   1   5    0.20    0.68
 -12   1   5   31.78    2.22
 -11   1   5    1.19    0.48
 -10   1   5   10.38    0.92
  -9   1   5   10.08    0.84
  -8   1   5   40.81    1.59
  -7   1   5    4.81    0.54
  -6   1   5    0.23    0.29
  -5   1   5    7.44    0.82
  -4   1   5  151.83    5.63
  -3   1   5   10.61    0.84
  -2   1   5   11.53    0.83
   0   1   5   24.47    1.20
   1   1   5   33.27    1.60
   2   1   5   12.53    0.50
   3   1   5   10.94    0.57
   4   1   5  146.22    4.00
   5   1   5    7.70    0.62
   6   1   5   -0.46    0.30
   7   1   5    4.35    0.59
   8   1   5   43.13    1.71
   9   1   5   10.36    0.94
  10   1   5   14.23    1.91
  11   1   5    1.16    1.05
  12   1   5   28.52    2.86
  13   1   5   -0.41    1.05
 -14   2   5    0.86    0.88
 -13   2   5    5.39    1.21
 -12   2   5   71.54    4.05
 -11   2   5    2.03    0.84
 -10   2   5    7.62    1.23
  -9   2   5    4.16    0.93
  -8   2   5    0.54    0.57
  -7   2   5    3.81    0.51
  -6   2   5   10.94    0.79
  -5   2   5    2.86    0.42
  -4   2   5    0.69    0.40
  -3   2   5    0.66    0.38
  -2   2   5  231.10    8.37
   2   2   5  221.34    8.20
   3   2   5    1.42    0.19
   4   2   5   -0.06    0.24
   5   2   5    4.07    0.50
   6   2   5   14.31    0.94
   7   2   5    4.91    0.63
   8   2   5   -0.08    0.59
   9   2   5    2.68    0.95
  10   2   5    7.07    1.35
  11   2   5    3.42    1.20
  12   2   5   81.04    4.78
  13   2   5    4.36    1.64
  14   2   5    2.30    1.47
 -13   3   5   -0.70    0.78
 -12   3   5   17.90    2.15
 -11   3   5    1.01    0.80
 -10   3   5    6.78    1.27
  -9   3   5    4.43    1.02
  -8   3   5   26.51    1.94
  -7   3   5    3.00    0.81
  -6   3   5    0.77    0.54
  -5   3   5    4.27    0.86
  -4   3   5   70.17    2.29
  -3   3   5    4.49    0.54
   1   3   5   15.53    0.78
   2   3   5    6.71    0.55
   3   3   5    5.74    0.76
   4   3   5   74.74    3.23
   5   3   5    4.10    0.57
   6   3   5   -0.15    0.34
   7   3   5    0.70    0.70
   8   3   5   21.03    2.16
   9   3   5    5.46    1.24
  10   3   5   10.92    1.71
  11   3   5   -0.29    0.89
  12   3   5   17.34    2.39
  13   3   5    0.06    1.12
 -11   4   5    2.12    0.74
 -10   4   5    3.95    0.80
  -9   4   5    1.17    0.74
  -8   4   5   -0.66    0.62
  -7   4   5    0.32    0.61
  -6   4   5    4.72    1.02
  -5   4   5    2.59    0.79
  -4   4   5    0.25    0.57
  -3   4   5    0.34    0.36
  -2   4   5   96.95    3.11
  -1   4   5    7.61    0.73
   0   4   5   -0.30    0.25
   1   4   5    9.60    0.79
   2   4   5   90.71    4.16
   3   4   5    0.19    0.46
   4   4   5    0.00    0.46
   5   4   5    2.05    0.85
   6   4   5    4.79    1.12
   7   4   5    1.74    0.88
   8   4   5   -0.40    0.67
   9   4   5    2.24    1.14
  10   4   5    3.26    1.30
  11   4   5    1.86    1.27
  -8   5   5   10.62    1.25
  -7   5   5    0.51    0.56
  -6   5   5    0.00    0.51
  -5   5   5    1.88    0.65
  -4   5   5   28.65    1.70
  -3   5   5    1.74    0.89
  -2   5   5    2.99    0.63
  -1   5   5    5.59    0.76
   0   5   5    4.26    0.94
   1   5   5    5.44    1.06
   2   5   5    3.53    0.95
   5   5   5    1.70    0.91
   6   5   5   -0.75    0.76
   7   5   5   -0.18    0.89
   8   5   5   10.45    1.78
  -4   6   5    0.03    0.95
  -3   6   5   -0.46    0.81
  -2   6   5   38.17    2.78
  -1   6   5    1.14    0.82
   0   6   5    0.62    0.84
  -9  -5   6   -0.60    0.83
  -8  -5   6    4.84    0.95
  -7  -5   6    2.10    0.70
  -6  -5   6    0.51    0.93
  -5  -5   6   -0.37    0.72
  -4  -5   6    7.49    1.46
  -3  -5   6   -0.02    0.74
  -2  -5   6    0.36    0.75
  -1  -5   6    6.22    1.31
   0  -5   6    0.23    0.77
   1  -5   6    7.36    1.41
   2  -5   6   -0.05    0.78
   3  -5   6    1.74    0.93
   4  -5   6    8.33    1.38
   5  -5   6   -0.15    0.50
   6  -5   6    1.37    0.64
   7  -5   6    0.53    0.58
   8  -5   6    8.03    1.06
 -11  -4   6    1.21    0.93
 -10  -4   6    3.25    1.07
  -9  -4   6    5.71    0.91
  -8  -4   6   25.43    1.71
  -7  -4   6    0.60    0.51
  -6  -4   6   25.69    1.52
  -5  -4   6    2.25    0.54
  -4  -4   6   10.97    0.96
  -3  -4   6   17.78    1.12
  -2  -4   6    5.93    1.05
  -1  -4   6   35.91    2.37
   0  -4   6   13.11    1.48
   1  -4   6   40.02    2.46
   2  -4   6    6.30    1.09
   3  -4   6   17.95    1.25
   4  -4   6    9.77    0.93
   5  -4   6    2.17    0.50
   6  -4   6   29.36    1.48
   7  -4   6   -0.40    0.38
   8  -4   6   28.24    1.53
   9  -4   6    4.91    0.81
  10  -4   6    2.11    0.89
  11  -4   6   -0.34    0.67
 -13  -3   6    2.07    1.13
 -12  -3   6   -0.04    0.84
 -11  -3   6    2.63    1.06
 -10  -3   6   -0.49    0.65
  -9  -3   6    0.65    0.48
  -8  -3   6   14.39    1.14
  -7  -3   6    2.79    0.59
  -6  -3   6    1.19    0.45
  -5  -3   6    0.63    0.40
  -4  -3   6   20.69    1.07
  -3  -3   6    1.26    0.39
  -2  -3   6    1.82    0.37
  -1  -3   6   16.04    0.87
   0  -3   6   -0.53    0.25
   1  -3   6   15.53    1.46
   2  -3   6    1.73    0.42
   3  -3   6    0.76    0.37
   4  -3   6   22.99    1.12
   5  -3   6    0.67    0.38
   6  -3   6    1.51    0.46
   7  -3   6    2.88    0.57
   8  -3   6   13.58    1.09
   9  -3   6   -0.20    0.41
  10  -3   6    0.30    0.47
  11  -3   6    2.18    0.79
  12  -3   6    0.63    0.71
 -14  -2   6    0.00    1.02
 -13  -2   6    1.21    1.01
 -12  -2   6    1.56    0.97
 -11  -2   6   -0.95    0.62
 -10  -2   6    4.33    1.09
  -9  -2   6    8.16    1.25
  -8  -2   6   52.80    2.05
  -7  -2   6    0.20    0.35
  -6  -2   6   58.65    2.06
  -5  -2   6    3.98    0.54
  -4  -2   6   21.65    1.00
  -3  -2   6   45.54    1.53
  -2  -2   6   15.12    0.75
  -1  -2   6   86.70    3.76
   0  -2   6   26.95    1.57
   1  -2   6   88.40    2.52
   2  -2   6   15.08    0.50
   3  -2   6   42.45    1.51
   4  -2   6   22.15    1.01
   5  -2   6    6.21    0.59
   6  -2   6   55.92    2.04
   7  -2   6    0.46    0.37
   8  -2   6   54.11    2.78
   9  -2   6    8.52    0.90
  10  -2   6    4.24    0.71
  11  -2   6    0.32    0.46
  12  -2   6    3.30    0.83
 -15  -1   6    6.20    1.55
 -14  -1   6    8.92    1.60
 -13  -1   6   -0.20    0.88
 -12  -1   6    0.90    0.83
 -11  -1   6    4.10    1.04
 -10  -1   6    4.00    1.02
  -9  -1   6    1.04    0.69
  -8  -1   6   26.55    1.89
  -7  -1   6    8.00    0.61
  -6  -1   6    3.88    0.33
  -5  -1   6    1.21    0.31
  -4  -1   6   39.47    1.34
  -3  -1   6    1.32    0.28
  -2  -1   6    3.18    0.34
  -1  -1   6   33.95    1.11
   0  -1   6   -0.22    0.17
   1  -1   6   33.19    1.09
   2  -1   6    3.33    0.25
   3  -1   6    1.50    0.27
   4  -1   6   40.39    1.39
   5  -1   6    1.05    0.32
   6  -1   6    3.01    0.48
   7  -1   6    7.06    0.79
   8  -1   6   29.25    1.51
   9  -1   6    1.52    0.47
  10  -1   6    1.48    0.56
  11  -1   6    3.31    0.65
  12  -1   6   -0.44    0.85
 -14   0   6    2.32    1.04
 -13   0   6    0.78    0.86
 -12   0   6    2.02    0.89
 -11   0   6    0.66    0.43
 -10   0   6    6.57    0.74
  -9   0   6   12.62    0.93
  -8   0   6   77.63    2.48
  -7   0   6    0.38    0.30
  -6   0   6   83.45    3.74
  -5   0   6    6.07    0.78
  -4   0   6   29.87    1.73
  -3   0   6   66.56    1.87
  -2   0   6   23.69    0.78
  -1   0   6  154.59    3.97
   0   0   6   46.99    2.00
   2   0   6   23.39    0.80
   3   0   6   70.56    1.98
   4   0   6   37.54    1.21
   5   0   6    7.99    0.56
   6   0   6   85.47    2.65
   7   0   6    0.49    0.34
   8   0   6   76.43    2.56
   9   0   6   13.37    1.00
  10   0   6    5.63    1.32
  11   0   6    0.72    0.98
  12   0   6    4.30    1.31
  13   0   6    1.55    1.15
 -13   1   6   -0.25    0.67
 -12   1   6    0.93    0.77
 -11   1   6    4.17    0.67
 -10   1   6    2.63    0.56
  -9   1   6    1.27    0.43
  -8   1   6   26.93    1.25
  -7   1   6    6.84    0.66
  -6   1   6    3.20    0.45
  -5   1   6    1.92    0.53
  -4   1   6   39.73    1.94
  -3   1   6    0.61    0.39
  -2   1   6    3.39    0.29
  -1   1   6   34.92    1.10
   0   1   6   -0.34    0.24
   1   1   6   32.70    1.63
   2   1   6    3.26    0.25
   3   1   6    1.77    0.25
   4   1   6   40.83    1.35
   5   1   6    1.79    0.34
   6   1   6    3.44    0.47
   7   1   6    8.34    0.72
   8   1   6   27.77    1.34
   9   1   6    1.02    0.92
  10   1   6    4.02    1.23
  11   1   6    5.79    1.43
  12   1   6    1.15    1.21
  13   1   6   -1.02    0.85
  14   1   6    8.12    1.83
 -14   2   6    0.03    0.83
 -13   2   6    0.97    0.89
 -12   2   6    2.02    0.91
 -11   2   6    0.97    0.72
 -10   2   6    5.06    1.04
  -9   2   6   10.47    1.33
  -8   2   6   55.45    2.00
  -7   2   6    0.72    0.38
  -6   2   6   58.38    2.00
  -5   2   6    6.08    0.59
  -4   2   6   23.98    1.40
  -3   2   6   42.90    2.08
  -2   2   6   15.60    1.05
   2   2   6   15.23    0.69
   3   2   6   43.17    1.44
   4   2   6   22.96    0.97
   5   2   6    5.49    0.57
   6   2   6   60.09    2.08
   7   2   6    0.24    0.63
   8   2   6   57.75    3.28
   9   2   6    7.85    1.40
  10   2   6    4.85    1.23
  11   2   6    0.60    0.98
  12   2   6    4.15    1.43
  13   2   6    0.28    1.28
  14   2   6    0.22    1.29
 -13   3   6    0.19    0.87
 -12   3   6   -0.22    0.75
 -11   3   6    2.83    0.99
 -10   3   6    2.28    0.83
  -9   3   6    0.33    0.58
  -8   3   6   17.19    1.73
  -7   3   6    3.22    0.86
  -6   3   6    1.48    0.63
  -5   3   6    0.31    0.48
  -4   3   6   20.25    1.01
  -3   3   6    1.21    0.49
   1   3   6   15.00    1.10
   2   3   6    1.94    0.35
   3   3   6    0.84    0.42
   4   3   6   19.59    1.07
   5   3   6    0.82    0.38
   6   3   6    1.91    0.77
   7   3   6    4.94    1.09
   8   3   6   16.43    1.89
   9   3   6    1.53    0.89
  10   3   6    3.30    1.19
  11   3   6    1.41    1.08
  12   3   6    1.27    1.23
  13   3   6   -0.56    1.28
 -11   4   6    0.49    0.63
 -10   4   6    1.78    0.95
  -9   4   6    5.34    1.27
  -8   4   6   27.76    2.52
  -7   4   6    0.20    0.62
  -6   4   6   25.98    2.00
  -5   4   6    1.89    0.77
  -4   4   6   11.66    1.39
  -3   4   6   16.29    1.64
  -2   4   6    5.98    0.70
  -1   4   6   37.69    1.58
   0   4   6   12.93    0.75
   1   4   6   37.41    1.53
   2   4   6    5.13    0.83
   3   4   6   19.00    1.47
   4   4   6   12.06    1.48
   5   4   6    2.55    0.87
   6   4   6   26.46    2.40
   7   4   6    1.20    0.86
   8   4   6   29.99    2.68
   9   4   6    3.32    1.23
  10   4   6    1.61    1.13
  11   4   6    2.52    1.24
  -8   5   6    7.45    1.10
  -7   5   6    1.21    0.66
  -6   5   6    2.18    0.69
  -5   5   6    0.17    0.51
  -4   5   6   10.99    1.12
  -3   5   6    0.04    0.68
  -2   5   6    0.74    0.46
  -1   5   6    6.69    0.84
   0   5   6    0.04    0.56
   1   5   6    4.76    1.02
   4   5   6    7.98    1.42
   5   5   6    0.50    0.87
   6   5   6    1.45    0.94
   7   5   6    2.25    1.09
   8   5   6    7.53    1.63
  -3   6   6    4.22    1.21
  -2   6   6    2.64    1.04
  -1   6   6   10.58    1.60
  -8  -5   7    0.11    0.66
  -7  -5   7   10.50    1.81
  -6  -5   7   -0.33    0.85
  -5  -5   7    1.37    0.91
  -4  -5   7    0.12    0.82
  -3  -5   7   20.95    2.22
  -2  -5   7    4.59    1.17
  -1  -5   7    7.74    1.35
   0  -5   7   64.96    3.73
   1  -5   7    6.62    1.32
   2  -5   7    4.96    1.18
   3  -5   7   23.44    2.26
   4  -5   7    0.02    0.71
   5  -5   7    0.98    0.95
   6  -5   7    0.91    0.62
   7  -5   7   11.55    1.19
   8  -5   7   -0.49    0.56
 -11  -4   7   -0.85    0.76
 -10  -4   7   17.16    2.20
  -9  -4   7    0.65    0.59
  -8  -4   7    9.47    1.05
  -7  -4   7    0.19    0.48
  -6  -4   7   33.67    1.67
  -5  -4   7    3.21    0.63
  -4  -4   7   -0.70    0.36
  -3  -4   7   24.81    1.27
  -2  -4   7    3.49    0.90
  -1  -4   7    2.23    0.83
   0  -4   7   -0.08    0.49
   1  -4   7    1.80    0.76
   2  -4   7    2.92    0.84
   3  -4   7   21.70    2.04
   4  -4   7   -0.08    0.36
   5  -4   7    2.76    0.60
   6  -4   7   33.14    1.64
   7  -4   7    0.67    0.47
   8  -4   7   12.03    1.12
   9  -4   7   -0.10    0.50
  10  -4   7   17.66    2.02
  11  -4   7    0.31    0.73
 -12  -3   7    2.31    1.10
 -11  -3   7    5.72    1.29
 -10  -3   7   19.44    2.09
  -9  -3   7    0.19    0.47
  -8  -3   7    0.34    0.43
  -7  -3   7   24.81    1.33
  -6  -3   7    1.81    0.50
  -5  -3   7    6.60    0.73
  -4  -3   7    2.35    0.48
  -3  -3   7   50.81    1.90
  -2  -3   7   10.96    0.79
  -1  -3   7   19.09    0.94
   0  -3   7  183.86    5.02
   1  -3   7   19.35    1.47
   2  -3   7    9.66    0.82
   3  -3   7   53.34    1.97
   4  -3   7    2.48    0.48
   5  -3   7    6.80    0.72
   6  -3   7    1.23    0.43
   7  -3   7   27.66    1.38
   8  -3   7   -0.26    0.36
   9  -3   7   -0.39    0.39
  10  -3   7   18.94    1.40
  11  -3   7    3.20    0.73
  12  -3   7    0.58    0.77
 -14  -2   7    0.43    0.99
 -13  -2   7    1.35    0.99
 -12  -2   7   -0.60    0.70
 -11  -2   7   -0.81    0.70
 -10  -2   7   41.03    2.65
  -9  -2   7    0.61    0.67
  -8  -2   7   17.80    1.19
  -7  -2   7    0.38    0.38
  -6  -2   7   76.83    2.53
  -5  -2   7    6.25    0.63
  -4  -2   7    0.18    0.29
  -3  -2   7   55.32    1.86
  -2  -2   7    5.96    0.52
  -1  -2   7    3.78    0.43
   0  -2   7   -0.27    0.19
   1  -2   7    3.94    0.37
   2  -2   7    6.33    0.57
   3  -2   7   57.15    1.89
   4  -2   7   -0.24    0.24
   5  -2   7    6.29    0.64
   6  -2   7   77.83    2.56
   7  -2   7    0.02    0.31
   8  -2   7   20.86    1.25
   9  -2   7    0.46    0.46
  10  -2   7   41.39    1.87
  11  -2   7   -0.51    0.44
  12  -2   7    0.01    0.95
 -15  -1   7    1.13    1.11
 -14  -1   7    8.95    1.63
 -13  -1   7    6.65    1.49
 -12  -1   7    1.57    0.85
 -11  -1   7    9.55    1.44
 -10  -1   7   29.12    2.18
  -9  -1   7   -0.47    0.58
  -8  -1   7    1.07    0.66
  -7  -1   7   43.62    1.57
  -6  -1   7    2.24    0.42
  -5  -1   7   11.62    0.69
  -4  -1   7    6.58    0.52
  -3  -1   7  101.98    2.93
  -2  -1   7   18.42    0.75
  -1  -1   7   36.69    1.23
   0  -1   7  353.57    9.21
   1  -1   7   38.37    1.22
   2  -1   7   19.19    0.60
   3  -1   7  106.53    2.37
   4  -1   7    5.40    0.49
   5  -1   7   12.31    0.74
   6  -1   7    3.41    0.51
   7  -1   7   45.99    1.89
   8  -1   7   -0.04    0.38
   9  -1   7    0.42    0.42
  10  -1   7   30.91    1.58
  11  -1   7    9.05    1.59
  12  -1   7    2.65    1.17
  13  -1   7    8.71    1.60
 -14   0   7    1.38    1.06
 -13   0   7    2.45    1.07
 -12   0   7   -0.41    0.69
 -11   0   7   -0.17    0.40
 -10   0   7   51.73    2.00
  -9   0   7    0.42    0.35
  -8   0   7   29.11    1.27
  -7   0   7    0.46    0.31
  -6   0   7  109.08    4.67
  -5   0   7    8.67    0.97
  -4   0   7    0.41    0.36
  -3   0   7   82.14    2.29
  -2   0   7    9.23    0.45
  -1   0   7    7.21    0.45
   0   0   7   -0.06    0.20
   1   0   7    6.72    0.79
   2   0   7    8.33    1.00
   3   0   7   81.87    2.36
   4   0   7   -0.02    0.15
   5   0   7    8.74    0.56
   6   0   7  111.78    3.29
   7   0   7    0.24    0.28
   8   0   7   26.82    1.29
   9   0   7   -0.69    0.72
  10   0   7   52.23    3.25
  11   0   7   -0.96    0.79
  12   0   7    2.50    1.16
  13   0   7    1.67    1.18
 -13   1   7    7.39    1.30
 -12   1   7    2.83    0.89
 -11   1   7    7.38    0.85
 -10   1   7   29.86    1.43
  -9   1   7    0.15    0.37
  -8   1   7    0.54    0.35
  -7   1   7   43.25    1.66
  -6   1   7    4.68    0.78
  -5   1   7   11.23    1.10
  -4   1   7    5.97    0.76
  -3   1   7  106.03    4.25
  -2   1   7   18.67    0.70
  -1   1   7   37.67    1.21
   0   1   7  356.04   13.10
   1   1   7   37.57    1.81
   2   1   7   17.87    1.26
   3   1   7  103.50    4.43
   4   1   7    7.77    0.49
   5   1   7   10.20    0.67
   6   1   7    3.68    0.45
   7   1   7   46.26    1.69
   8   1   7    0.26    0.81
   9   1   7   -0.57    0.73
  10   1   7   32.46    2.89
  11   1   7    9.75    1.71
  12   1   7    3.35    1.28
  13   1   7    7.06    1.69
  14   1   7    9.86    1.94
 -14   2   7    1.44    0.94
 -13   2   7   -0.05    0.75
 -12   2   7    0.58    0.79
 -11   2   7    0.78    0.71
 -10   2   7   41.82    2.52
  -9   2   7    0.84    0.59
  -8   2   7   19.01    1.12
  -7   2   7    0.14    0.32
  -6   2   7   81.08    2.51
  -5   2   7    5.88    0.82
  -4   2   7    0.61    0.44
  -3   2   7   56.19    2.60
  -2   2   7    7.51    0.84
   1   2   7    4.38    0.64
   2   2   7    6.17    0.46
   3   2   7   57.73    1.80
   4   2   7    0.14    0.26
   5   2   7    7.15    0.63
   6   2   7   75.52    3.81
   7   2   7    0.05    0.63
   8   2   7   18.86    2.00
   9   2   7    0.38    0.79
  10   2   7   34.56    2.76
  11   2   7   -0.61    0.93
  12   2   7   -0.65    1.04
  13   2   7    1.36    1.45
  14   2   7    1.10    1.44
 -13   3   7    3.16    1.17
 -12   3   7    1.18    0.86
 -11   3   7    5.77    1.29
 -10   3   7   20.34    2.10
  -9   3   7    0.13    0.53
  -8   3   7   -0.31    0.52
  -7   3   7   25.92    1.91
  -6   3   7    1.43    0.63
  -5   3   7    5.56    0.61
  -4   3   7    2.92    0.48
  -3   3   7   52.33    2.60
  -2   3   7    9.82    1.08
   1   3   7   18.58    1.23
   2   3   7    9.68    0.95
   3   3   7   52.12    1.85
   4   3   7    2.91    0.47
   5   3   7    6.27    1.06
   6   3   7    1.31    0.75
   7   3   7   27.42    2.17
   8   3   7    0.11    0.74
   9   3   7    2.01    1.01
  10   3   7   19.51    2.34
  11   3   7    2.98    1.26
  12   3   7   -0.03    1.12
  13   3   7    6.51    1.91
 -11   4   7    1.29    0.91
 -10   4   7   19.57    2.26
  -9   4   7    1.12    0.86
  -8   4   7   10.24    1.57
  -7   4   7    0.75    0.64
  -6   4   7   40.23    2.50
  -5   4   7    2.71    0.83
  -4   4   7   -0.29    0.52
  -3   4   7   23.64    1.76
  -2   4   7    3.72    0.82
  -1   4   7    1.85    0.45
   0   4   7   -0.31    0.27
   1   4   7    0.90    0.49
   2   4   7    2.95    0.68
   4   4   7   -0.10    0.62
   5   4   7    2.89    0.88
   6   4   7   35.27    2.51
   7   4   7    0.68    0.76
   8   4   7   12.40    1.82
   9   4   7   -0.24    0.93
  10   4   7   23.13    2.67
  11   4   7    0.33    1.12
  -8   5   7    0.31    0.62
  -7   5   7   12.88    1.35
  -6   5   7    1.13    0.62
  -5   5   7    2.27    0.69
  -4   5   7    0.59    0.51
  -3   5   7   20.28    2.16
  -2   5   7    5.10    0.75
  -1   5   7    9.46    1.32
   0   5   7   67.24    3.45
   3   5   7   20.74    2.11
   4   5   7    1.53    0.90
   5   5   7    2.48    0.96
   6   5   7    2.23    1.06
   7   5   7   12.56    1.85
   8   5   7    0.66    1.00
  -3   6   7   11.24    1.76
   2   6   7    1.09    1.07
  -8  -5   8   27.23    2.79
  -7  -5   8    3.01    1.16
  -6  -5   8   16.87    2.12
  -5  -5   8    5.47    1.29
  -4  -5   8    5.43    1.28
  -3  -5   8   20.33    2.23
  -2  -5   8   10.16    1.62
  -1  -5   8   11.33    1.63
   0  -5   8   -0.32    0.72
   1  -5   8    9.78    1.54
   2  -5   8   11.53    1.65
   3  -5   8   20.60    2.19
   4  -5   8    3.88    1.14
   5  -5   8    5.02    1.29
   6  -5   8   22.94    1.66
   7  -5   8    4.80    0.89
   8  -5   8   35.84    2.05
 -11  -4   8    2.70    1.25
 -10  -4   8    2.35    1.07
  -9  -4   8    0.20    0.57
  -8  -4   8   -0.03    0.55
  -7  -4   8    0.13    0.49
  -6  -4   8    3.01    0.63
  -5  -4   8    0.31    0.44
  -4  -4   8    7.62    0.84
  -3  -4   8   -0.21    0.63
  -2  -4   8   37.44    2.50
  -1  -4   8   13.61    1.55
   0  -4   8   40.05    2.58
   1  -4   8   11.13    1.44
   2  -4   8   38.68    2.52
   3  -4   8    0.55    0.68
   4  -4   8    8.82    0.90
   5  -4   8    0.07    0.43
   6  -4   8    1.80    0.54
   7  -4   8    0.08    0.46
   8  -4   8    0.09    0.48
   9  -4   8    1.60    0.64
  10  -4   8    1.14    0.61
  11  -4   8    2.74    1.05
 -12  -3   8    0.24    0.88
 -11  -3   8    1.18    0.88
 -10  -3   8    7.74    1.42
  -9  -3   8    4.28    0.73
  -8  -3   8   68.07    2.55
  -7  -3   8   11.20    0.99
  -6  -3   8   54.94    2.05
  -5  -3   8   12.37    0.96
  -4  -3   8   10.72    0.85
  -3  -3   8   52.28    1.92
  -2  -3   8   27.49    1.24
  -1  -3   8   24.94    1.12
   0  -3   8    0.47    0.29
   1  -3   8   23.46    1.71
   2  -3   8   28.45    1.89
   3  -3   8   53.60    1.99
   4  -3   8   11.74    0.93
   5  -3   8   14.44    1.04
   6  -3   8   51.26    2.02
   7  -3   8   10.04    0.94
   8  -3   8   72.40    2.61
   9  -3   8    5.74    0.79
  10  -3   8    7.26    0.94
  11  -3   8    1.86    0.66
 -14  -2   8   14.15    2.08
 -13  -2   8   20.90    2.37
 -12  -2   8    0.40    0.78
 -11  -2   8    5.40    1.25
 -10  -2   8    2.46    0.92
  -9  -2   8    0.27    0.60
  -8  -2   8    0.47    0.43
  -7  -2   8    0.37    0.38
  -6  -2   8    8.33    0.74
  -5  -2   8   -0.83    0.28
  -4  -2   8   20.96    1.00
  -3  -2   8    2.17    0.39
  -2  -2   8   93.48    2.74
  -1  -2   8   25.77    1.04
   0  -2   8   94.83    2.75
   1  -2   8   26.74    1.63
   2  -2   8   91.77    2.77
   3  -2   8    1.96    0.38
   4  -2   8   20.75    1.00
   5  -2   8   -0.03    0.27
   6  -2   8    7.51    0.72
   7  -2   8    0.49    0.37
   8  -2   8    0.37    0.40
   9  -2   8    0.69    0.52
  10  -2   8    1.54    0.62
  11  -2   8    7.49    1.67
  12  -2   8    0.08    1.02
 -14  -1   8   10.03    1.77
 -13  -1   8    1.43    0.94
 -12  -1   8   -0.74    0.69
 -11  -1   8    1.37    0.87
 -10  -1   8   13.46    1.65
  -9  -1   8   10.21    1.40
  -8  -1   8  126.88    5.47
  -7  -1   8   21.11    0.78
  -6  -1   8   92.64    2.82
  -5  -1   8   25.62    1.04
  -4  -1   8   18.28    0.85
  -3  -1   8  105.63    2.99
  -2  -1   8   55.42    1.70
  -1  -1   8   47.47    1.54
   0  -1   8    0.15    0.21
   1  -1   8   46.57    1.53
   2  -1   8   54.43    1.70
   3  -1   8  104.78    2.41
   4  -1   8   20.03    0.90
   5  -1   8   25.34    1.09
   6  -1   8   92.71    2.95
   7  -1   8   21.87    1.18
   8  -1   8  125.35    3.95
   9  -1   8   10.54    0.94
  10  -1   8   11.95    1.88
  11  -1   8   -0.26    0.86
  12  -1   8    1.22    1.02
  13  -1   8    0.61    1.04
 -14   0   8   18.50    2.18
 -13   0   8   32.34    2.48
 -12   0   8    3.17    1.04
 -11   0   8    8.20    0.87
 -10   0   8    5.25    0.68
  -9   0   8    0.20    0.37
  -8   0   8    0.54    0.37
  -7   0   8    1.21    0.65
  -6   0   8   11.58    1.21
  -5   0   8   -0.18    0.40
  -4   0   8   27.77    1.64
  -3   0   8    3.04    0.25
  -2   0   8  137.03    3.69
  -1   0   8   37.55    1.23
   0   0   8  141.90    3.74
   1   0   8   35.86    1.96
   3   0   8    3.46    0.26
   4   0   8   28.69    1.00
   5   0   8   -0.19    0.17
   6   0   8   10.74    0.69
   7   0   8    0.80    0.32
   8   0   8    0.15    0.82
   9   0   8    0.54    0.84
  10   0   8    6.37    1.39
  11   0   8    9.23    1.61
  12   0   8    1.04    1.12
  13   0   8   27.39    2.81
  14   0   8   21.64    2.51
 -13   1   8    1.91    0.92
 -12   1   8    0.66    0.55
 -11   1   8    2.11    0.59
 -10   1   8   12.48    1.03
  -9   1   8    9.37    0.87
  -8   1   8  121.28    3.69
  -7   1   8   18.72    1.03
  -6   1   8   92.08    4.06
  -5   1   8   23.43    1.56
  -4   1   8   21.65    1.35
  -3   1   8  105.31    4.34
  -2   1   8   55.28    1.65
  -1   1   8   49.29    1.54
   0   1   8   -0.30    0.32
   1   1   8   50.45    2.31
   2   1   8   57.42    2.64
   3   1   8  104.28    4.52
   4   1   8   19.47    1.51
   5   1   8   24.03    0.96
   6   1   8   88.89    4.44
   7   1   8   20.79    2.10
   8   1   8  117.12    5.78
   9   1   8   10.48    1.69
  10   1   8   10.79    1.79
  11   1   8    0.77    1.00
  12   1   8    1.19    1.04
  13   1   8    1.96    1.28
  14   1   8   13.00    2.18
 -14   2   8   13.84    1.97
 -13   2   8   22.44    2.34
 -12   2   8    2.81    0.97
 -11   2   8    5.21    1.20
 -10   2   8    3.24    0.88
  -9   2   8    0.06    0.52
  -8   2   8    0.09    0.37
  -7   2   8    0.81    0.40
  -6   2   8    6.26    0.93
  -5   2   8    0.27    0.48
  -4   2   8   20.43    1.46
  -3   2   8    1.90    0.55
  -2   2   8   91.81    3.89
   0   2   8   93.52    3.94
   1   2   8   29.76    1.57
   2   2   8   95.90    2.66
   3   2   8    1.98    0.31
   4   2   8   21.41    0.94
   5   2   8    0.28    0.57
   6   2   8    6.08    1.20
   7   2   8   -0.12    0.68
   8   2   8    2.52    0.94
   9   2   8    0.97    0.88
  10   2   8    4.16    1.30
  11   2   8    9.43    1.87
  12   2   8    1.67    1.26
  13   2   8   26.85    3.04
  14   2   8   19.16    2.78
 -12   3   8   -0.07    0.77
 -11   3   8    1.68    0.89
 -10   3   8    7.44    1.36
  -9   3   8    5.31    1.12
  -8   3   8   66.57    3.62
  -7   3   8   10.60    1.38
  -6   3   8   55.69    2.92
  -5   3   8   13.97    0.98
  -4   3   8    9.87    1.11
  -3   3   8   51.07    2.64
  -2   3   8   25.26    1.71
   1   3   8   24.51    1.44
   2   3   8   27.50    1.18
   3   3   8   53.47    1.86
   4   3   8   10.09    1.29
   5   3   8   14.17    1.54
   6   3   8   51.98    3.07
   7   3   8    9.69    1.48
   8   3   8   68.66    3.90
   9   3   8    4.23    1.25
  10   3   8    8.59    1.63
  11   3   8    0.15    1.12
  12   3   8    0.83    1.21
 -10   4   8    4.06    1.19
  -9   4   8   -0.46    0.58
  -8   4   8   -0.27    0.67
  -7   4   8    2.06    0.87
  -6   4   8    3.63    0.96
  -5   4   8   -0.03    0.54
  -4   4   8    8.24    1.22
  -3   4   8    0.92    0.60
  -2   4   8   40.59    2.36
   0   4   8   40.31    1.66
   1   4   8   11.27    1.23
   3   4   8    1.07    0.69
   4   4   8    8.00    1.27
   5   4   8    1.04    0.77
   6   4   8    2.69    0.92
   7   4   8   -0.10    0.81
   8   4   8    0.70    0.89
   9   4   8   -2.21    0.72
  10   4   8    1.97    1.23
  -8   5   8   36.27    3.23
  -7   5   8    5.21    0.96
  -6   5   8   21.69    1.68
  -5   5   8    3.21    0.74
  -4   5   8    2.78    0.71
  -3   5   8   23.63    2.33
  -2   5   8   11.85    1.63
  -1   5   8    9.48    1.33
   2   5   8   10.55    1.51
   3   5   8   24.07    2.32
   4   5   8    1.91    1.01
   5   5   8    5.84    1.34
   6   5   8   23.27    2.45
   7   5   8    3.77    1.28
   1   6   8    6.56    1.42
  -8  -5   9   17.53    2.16
  -7  -5   9    0.72    0.92
  -6  -5   9    4.67    1.28
  -5  -5   9   -0.28    0.81
  -4  -5   9    0.44    0.79
  -3  -5   9    2.54    1.04
  -2  -5   9   25.81    2.54
  -1  -5   9    4.08    1.16
   0  -5   9   11.91    1.74
   1  -5   9    3.67    1.10
   2  -5   9   31.91    2.48
   3  -5   9    3.16    1.16
   4  -5   9    1.32    0.97
   5  -5   9    0.63    0.80
   6  -5   9    3.86    1.21
   7  -5   9   -0.50    0.52
   8  -5   9   20.25    2.35
 -10  -4   9    1.72    1.01
  -9  -4   9    0.26    0.60
  -8  -4   9   39.36    1.93
  -7  -4   9    2.40    0.69
  -6  -4   9    5.47    0.79
  -5  -4   9   41.73    1.84
  -4  -4   9   -0.09    0.41
  -3  -4   9    2.00    0.82
  -2  -4   9    0.97    0.71
  -1  -4   9   -0.23    0.57
   0  -4   9   -0.04    0.58
   1  -4   9   -0.05    0.59
   2  -4   9    1.76    0.73
   3  -4   9    1.73    0.80
   4  -4   9   -0.31    0.62
   5  -4   9   42.20    1.88
   6  -4   9    5.30    0.78
   7  -4   9    3.21    0.69
   8  -4   9   40.49    1.95
   9  -4   9    0.24    0.52
  10  -4   9    0.22    0.57
  11  -4   9   -0.63    0.70
 -12  -3   9    1.67    1.08
 -11  -3   9    6.82    1.43
 -10  -3   9    2.11    0.95
  -9  -3   9    1.57    0.81
  -8  -3   9   42.72    1.88
  -7  -3   9   -0.12    0.41
  -6  -3   9    8.36    0.85
  -5  -3   9    0.64    0.39
  -4  -3   9    2.02    0.46
  -3  -3   9    4.74    0.60
  -2  -3   9   76.98    2.44
  -1  -3   9   10.81    0.80
   0  -3   9   32.92    2.07
   1  -3   9   10.88    1.29
   2  -3   9   75.67    3.62
   3  -3   9    6.40    0.69
   4  -3   9    1.44    0.45
   5  -3   9   -0.03    0.35
   6  -3   9    9.53    0.90
   7  -3   9    0.11    0.38
   8  -3   9   48.26    1.99
   9  -3   9    1.85    0.59
  10  -3   9   -0.08    0.52
  11  -3   9    5.68    1.60
 -13  -2   9    3.09    1.17
 -12  -2   9   11.60    1.78
 -11  -2   9   -0.71    0.69
 -10  -2   9    0.88    0.72
  -9  -2   9    0.77    0.68
  -8  -2   9   73.44    3.84
  -7  -2   9    9.48    0.83
  -6  -2   9    9.58    0.81
  -5  -2   9   88.49    2.79
  -4  -2   9   -0.29    0.30
  -3  -2   9    5.43    0.56
  -2  -2   9    2.59    0.41
  -1  -2   9    0.58    0.29
   0  -2   9    0.32    0.25
   1  -2   9   -0.26    0.22
   2  -2   9    2.71    0.34
   3  -2   9    4.57    0.53
   4  -2   9    0.35    0.31
   5  -2   9   87.95    2.82
   6  -2   9   10.73    0.86
   7  -2   9    9.12    0.85
   8  -2   9   80.91    2.82
   9  -2   9    1.09    0.51
  10  -2   9    2.39    1.53
  11  -2   9   -0.97    1.05
  12  -2   9   10.00    1.90
 -14  -1   9    7.59    1.63
 -13  -1   9   -0.31    0.84
 -12  -1   9    0.88    0.86
 -11  -1   9    7.44    1.36
 -10  -1   9    1.65    0.88
  -9  -1   9    2.23    0.85
  -8  -1   9   75.14    3.68
  -7  -1   9   -1.36    0.37
  -6  -1   9   16.16    0.89
  -5  -1   9    1.00    0.33
  -4  -1   9    4.63    0.46
  -3  -1   9   12.31    0.66
  -2  -1   9  139.40    3.86
  -1  -1   9   21.30    0.86
   0  -1   9   62.04    1.89
   1  -1   9   19.67    0.86
   2  -1   9  140.10    3.87
   3  -1   9   12.36    0.51
   4  -1   9    3.57    0.42
   5  -1   9    1.46    0.34
   6  -1   9   16.19    0.93
   7  -1   9   -0.19    0.30
   8  -1   9   76.28    2.61
   9  -1   9    3.85    1.40
  10  -1   9    0.15    0.93
  11  -1   9    3.34    1.25
  12  -1   9    0.53    0.94
  13  -1   9    2.38    1.16
 -14   0   9   -0.04    0.85
 -13   0   9    5.50    1.38
 -12   0   9   11.82    1.71
 -11   0   9    0.01    0.73
 -10   0   9    2.11    0.54
  -9   0   9    1.12    0.43
  -8   0   9  102.35    3.18
  -7   0   9    9.83    1.28
  -6   0   9   12.08    1.27
  -5   0   9  124.59    5.18
  -4   0   9    0.06    0.43
  -3   0   9    6.43    0.38
  -2   0   9    3.01    0.32
  -1   0   9   -0.04    0.22
   0   0   9    0.10    0.24
   1   0   9    0.09    0.24
   2   0   9    3.34    0.74
   3   0   9    7.99    1.09
   4   0   9    0.63    0.14
   5   0   9  122.55    3.52
   6   0   9   13.93    0.71
   7   0   9   13.29    1.71
   8   0   9  101.96    5.05
   9   0   9    1.90    0.98
  10   0   9    3.19    1.18
  11   0   9   -1.32    0.91
  12   0   9   13.00    1.93
  13   0   9    4.69    1.44
  14   0   9   -0.80    1.09
 -13   1   9    0.83    0.87
 -12   1   9    1.72    0.63
 -11   1   9    8.68    0.94
 -10   1   9    1.60    0.53
  -9   1   9    2.38    0.55
  -8   1   9   70.19    2.44
  -7   1   9    0.17    0.55
  -6   1   9   17.84    1.55
  -5   1   9    1.70    0.59
  -4   1   9    2.74    0.64
  -3   1   9   12.34    1.14
  -2   1   9  147.43    3.85
  -1   1   9   19.68    0.86
   0   1   9   61.60    2.70
   1   1   9   20.67    1.32
   2   1   9  140.88    5.72
   3   1   9   12.23    1.27
   4   1   9    3.96    0.87
   5   1   9    2.39    0.82
   6   1   9   13.32    1.75
   7   1   9    0.19    0.82
   8   1   9   67.12    4.04
   9   1   9    3.69    1.24
  10   1   9    1.64    1.08
  11   1   9    7.34    1.69
  12   1   9    2.09    1.30
  13   1   9    0.60    1.21
  14   1   9   10.16    1.97
 -14   2   9   -0.71    0.84
 -13   2   9    2.94    1.06
 -12   2   9    8.23    1.46
 -11   2   9    0.12    0.67
 -10   2   9    3.12    0.93
  -9   2   9   -0.10    0.38
  -8   2   9   72.58    2.56
  -7   2   9    9.72    0.84
  -6   2   9   10.20    1.18
  -5   2   9   87.91    3.90
  -4   2   9   -0.40    0.43
  -3   2   9    5.27    0.47
  -2   2   9    2.65    0.37
  -1   2   9    0.02    0.33
   0   2   9   -0.07    0.36
   1   2   9    0.56    0.40
   2   2   9    2.22    0.31
   3   2   9    4.84    0.43
   4   2   9   -0.14    0.54
   5   2   9   84.85    4.24
   6   2   9    8.36    1.35
   7   2   9    8.29    1.41
   8   2   9   76.16    4.12
   9   2   9    1.21    0.91
  10   2   9    1.66    1.14
  11   2   9   -0.46    0.98
  12   2   9   10.09    2.10
  13   2   9    1.38    1.45
  14   2   9    0.87    1.43
 -12   3   9    0.91    0.93
 -11   3   9    6.65    1.36
 -10   3   9    1.24    0.73
  -9   3   9    1.06    0.76
  -8   3   9   40.47    2.65
  -7   3   9   -0.33    0.47
  -6   3   9    8.91    1.25
  -5   3   9    1.20    0.60
  -4   3   9    2.38    0.67
  -3   3   9    7.37    0.98
  -2   3   9   70.57    3.41
   1   3   9   11.51    0.77
   2   3   9   70.73    2.33
   3   3   9    4.93    0.96
   4   3   9    1.28    0.71
   5   3   9    1.11    0.72
   6   3   9    6.95    1.28
   7   3   9   -0.46    0.63
   8   3   9   40.59    2.95
   9   3   9    0.81    0.94
  10   3   9    1.28    1.03
  11   3   9    4.09    1.51
  12   3   9    0.67    1.27
 -10   4   9    0.06    0.76
  -9   4   9    0.16    0.74
  -8   4   9   36.61    2.67
  -7   4   9    3.57    1.03
  -6   4   9    6.67    1.21
  -5   4   9   40.71    2.60
  -4   4   9   -0.06    0.55
  -3   4   9    3.85    0.87
  -2   4   9    1.80    0.69
   0   4   9    0.17    0.42
   2   4   9    1.19    0.74
   3   4   9    1.85    0.78
   4   4   9    1.12    0.74
   5   4   9   39.89    2.68
   6   4   9    3.20    1.08
   7   4   9    2.21    0.97
   8   4   9   37.74    2.93
   9   4   9    1.21    1.11
  10   4   9   -1.39    1.00
  -7   5   9   -0.33    0.57
  -6   5   9    4.11    0.85
  -5   5   9    1.94    0.65
  -4   5   9    0.88    0.58
  -3   5   9    3.23    0.99
  -2   5   9   31.96    2.35
   1   5   9    5.47    1.15
   2   5   9   30.04    2.64
   3   5   9    4.27    1.13
   4   5   9    1.51    0.93
   5   5   9    0.48    0.88
   6   5   9    2.28    1.21
   7   5   9   -0.25    1.02
  -8  -5  10   -0.11    0.98
  -7  -5  10    1.87    1.12
  -6  -5  10    0.30    0.87
  -5  -5  10    0.14    0.90
  -4  -5  10    0.43    0.81
  -3  -5  10    1.17    0.91
  -2  -5  10   11.07    1.67
  -1  -5  10    0.26    0.80
   0  -5  10    0.57    0.82
   1  -5  10    0.22    0.86
   2  -5  10    7.87    1.47
   3  -5  10   -0.18    0.77
   4  -5  10   -0.14    0.76
   5  -5  10    0.40    0.89
   6  -5  10    0.19    0.88
   7  -5  10    1.66    1.11
 -10  -4  10   16.17    2.14
  -9  -4  10    0.74    0.89
  -8  -4  10    6.47    0.93
  -7  -4  10    7.33    0.89
  -6  -4  10    0.24    0.48
  -5  -4  10    0.77    0.48
  -4  -4  10   10.55    0.97
  -3  -4  10    0.60    0.74
  -2  -4  10    3.04    0.89
  -1  -4  10   31.89    2.29
   0  -4  10   50.11    3.03
   1  -4  10   31.36    2.33
   2  -4  10    5.18    1.10
   3  -4  10    0.03    0.63
   4  -4  10    8.65    1.41
   5  -4  10    1.53    0.52
   6  -4  10    0.65    0.48
   7  -4  10    9.14    1.04
   8  -4  10    5.01    0.87
   9  -4  10    1.41    0.61
  10  -4  10   15.62    1.40
  11  -4  10    4.08    1.50
 -12  -3  10   18.51    2.36
 -11  -3  10   -0.47    0.77
 -10  -3  10   10.04    1.65
  -9  -3  10    1.08    0.80
  -8  -3  10    1.36    0.57
  -7  -3  10    5.09    0.73
  -6  -3  10    2.48    0.57
  -5  -3  10    1.15    0.46
  -4  -3  10   -0.24    0.33
  -3  -3  10    0.09    0.34
  -2  -3  10   23.02    1.11
  -1  -3  10    2.14    0.43
   0  -3  10   -0.27    0.47
   1  -3  10    1.32    0.65
   2  -3  10   19.99    1.82
   3  -3  10    0.58    0.59
   4  -3  10    0.11    0.34
   5  -3  10    0.61    0.44
   6  -3  10    1.66    0.48
   7  -3  10    4.52    0.70
   8  -3  10    0.75    0.53
   9  -3  10    0.38    0.51
  10  -3  10   14.74    2.32
  11  -3  10    0.99    1.22
  12  -3  10   27.53    2.90
 -13  -2  10    2.48    1.17
 -12  -2  10    0.75    0.89
 -11  -2  10   10.67    1.65
 -10  -2  10   23.50    2.36
  -9  -2  10    1.06    0.65
  -8  -2  10    9.65    1.44
  -7  -2  10   16.84    1.09
  -6  -2  10    0.95    0.41
  -5  -2  10    2.63    0.48
  -4  -2  10   22.70    1.08
  -3  -2  10    1.52    0.40
  -2  -2  10   12.62    0.82
  -1  -2  10   79.28    2.46
   0  -2  10  109.38    3.21
   1  -2  10   78.59    2.41
   2  -2  10   12.32    0.68
   3  -2  10    0.05    0.55
   4  -2  10   22.62    1.08
   5  -2  10    2.04    0.45
   6  -2  10    0.68    0.37
   7  -2  10   20.04    1.18
   8  -2  10   10.20    0.99
   9  -2  10    2.49    0.65
  10  -2  10   29.47    3.76
  11  -2  10    6.87    1.89
  12  -2  10   -0.47    1.11
  13  -2  10    3.28    1.32
 -14  -1  10    2.03    1.06
 -13  -1  10    2.90    1.12
 -12  -1  10   29.81    2.80
 -11  -1  10    0.41    0.81
 -10  -1  10   21.68    2.14
  -9  -1  10    1.02    0.73
  -8  -1  10    1.69    0.80
  -7  -1  10    7.58    1.20
  -6  -1  10    5.22    0.54
  -5  -1  10    2.11    0.38
  -4  -1  10    0.20    0.26
  -3  -1  10   -0.10    0.23
  -2  -1  10   38.72    1.37
  -1  -1  10    4.96    0.47
   0  -1  10    0.02    0.25
   1  -1  10    3.76    0.44
   2  -1  10   38.43    1.38
   3  -1  10    0.73    0.27
   4  -1  10    0.22    0.18
   5  -1  10    1.67    0.35
   6  -1  10    5.04    0.56
   7  -1  10    8.23    0.72
   8  -1  10    0.10    0.99
   9  -1  10   -0.19    1.01
  10  -1  10   20.26    2.39
  11  -1  10    0.65    1.09
  12  -1  10   27.70    2.83
  13  -1  10    1.84    1.16
  14  -1  10   -0.27    1.11
 -15   0  10    0.74    1.08
 -14   0  10    9.36    1.62
 -13   0  10    1.68    0.99
 -12   0  10    0.63    0.88
 -11   0  10   11.14    1.64
 -10   0  10   37.17    1.64
  -9   0  10    2.80    0.56
  -8   0  10   13.60    1.55
  -7   0  10   24.26    1.83
  -6   0  10    2.01    0.69
  -5   0  10    3.74    0.81
  -4   0  10   29.04    1.79
  -3   0  10    1.04    0.21
  -2   0  10   18.33    0.75
  -1   0  10  115.64    3.23
   0   0  10  162.13    4.39
   1   0  10  118.22    4.59
   2   0  10   16.86    1.49
   3   0  10    1.54    0.70
   4   0  10   28.63    2.11
   5   0  10    4.00    0.34
   6   0  10    2.02    0.94
   7   0  10   25.59    2.38
   8   0  10   12.03    1.73
   9   0  10    4.64    1.26
  10   0  10   36.63    2.80
  11   0  10   16.47    2.09
  12   0  10   -1.07    0.97
  13   0  10    2.58    1.37
  14   0  10    9.17    1.87
 -13   1  10    3.47    1.09
 -12   1  10   35.42    1.75
 -11   1  10    0.12    0.44
 -10   1  10   20.52    1.36
  -9   1  10    0.46    0.43
  -8   1  10    1.72    0.48
  -7   1  10    8.94    1.16
  -6   1  10    4.01    0.86
  -5   1  10    1.29    0.58
  -4   1  10    0.80    0.51
  -3   1  10    0.50    0.46
  -2   1  10   40.02    1.36
  -1   1  10    4.47    0.47
   0   1  10    0.06    0.42
   1   1  10    3.55    0.72
   2   1  10   47.35    2.32
   3   1  10    0.20    0.56
   4   1  10    1.52    0.73
   5   1  10    0.59    0.79
   6   1  10    3.17    1.01
   7   1  10    7.96    1.47
   8   1  10    1.10    0.99
   9   1  10    2.07    1.02
  10   1  10   25.06    2.61
  11   1  10    1.80    1.18
  12   1  10   30.35    3.04
  13   1  10    4.69    1.54
  14   1  10    0.48    1.30
 -14   2  10    7.59    1.49
 -13   2  10    2.61    1.11
 -12   2  10   -0.84    0.71
 -11   2  10   10.02    1.44
 -10   2  10   27.07    2.08
  -9   2  10    1.56    0.52
  -8   2  10   11.05    0.95
  -7   2  10   18.59    1.67
  -6   2  10    1.68    0.66
  -5   2  10    1.78    0.68
  -4   2  10   20.83    1.55
  -3   2  10    0.95    0.52
  -2   2  10   12.10    0.71
  -1   2  10   77.83    2.46
   0   2  10  110.55    4.59
   1   2  10   78.68    3.57
   2   2  10   10.75    0.59
   3   2  10    0.59    0.56
   4   2  10   21.23    1.88
   5   2  10    2.40    0.85
   6   2  10    0.27    0.66
   7   2  10   19.08    2.03
   8   2  10   11.94    1.71
   9   2  10    2.42    1.10
  10   2  10   33.63    3.14
  11   2  10    9.29    1.94
  12   2  10    1.77    1.40
  13   2  10    1.96    1.52
 -12   3  10   21.26    2.40
 -11   3  10    0.72    0.82
 -10   3  10   13.52    1.75
  -9   3  10   -0.93    0.52
  -8   3  10    0.36    0.57
  -7   3  10    3.26    0.93
  -6   3  10    1.45    0.47
  -5   3  10    0.72    0.61
  -4   3  10    0.39    0.53
  -3   3  10    0.71    0.56
  -2   3  10   22.21    1.62
  -1   3  10    1.35    0.53
   0   3  10    0.01    0.48
   1   3  10    1.99    0.36
   2   3  10   22.03    1.67
   3   3  10   -0.08    0.52
   4   3  10    0.77    0.63
   5   3  10    0.66    0.73
   6   3  10    2.85    0.93
   7   3  10    3.00    1.05
   8   3  10    1.48    0.92
   9   3  10    0.38    0.97
  10   3  10   12.67    2.07
  11   3  10    1.27    1.22
  12   3  10   19.99    2.92
 -10   4  10   12.55    1.87
  -9   4  10    1.53    0.87
  -8   4  10    5.87    1.28
  -7   4  10    9.09    1.49
  -6   4  10    0.37    0.64
  -5   4  10    1.22    0.71
  -4   4  10   11.54    1.47
  -2   4  10    4.26    0.95
   0   4  10   51.82    2.83
   1   4  10   37.19    2.34
   2   4  10    4.20    0.96
   3   4  10    0.49    0.66
   4   4  10   11.12    1.53
   5   4  10    0.69    0.74
   6   4  10    1.03    0.88
   7   4  10    8.32    1.55
   8   4  10    3.81    1.26
   9   4  10    0.12    1.02
  10   4  10   10.16    2.09
  -7   5  10    2.43    0.76
  -6   5  10    1.62    0.91
  -5   5  10    0.29    0.58
  -4   5  10    0.35    0.51
  -3   5  10    0.55    0.80
   1   5  10    0.57    0.88
   2   5  10    7.92    1.46
   3   5  10   -0.59    0.75
   4   5  10    0.29    0.89
   5   5  10   -1.41    0.75
   6   5  10    1.35    1.01
   7   5  10    2.14    1.24
  -7  -5  11    2.14    1.08
  -6  -5  11   28.20    2.67
  -5  -5  11    2.46    1.06
  -4  -5  11    0.96    0.88
  -3  -5  11    9.66    1.59
  -2  -5  11    6.72    1.36
  -1  -5  11    0.70    0.84
   0  -5  11   11.11    1.70
   1  -5  11    1.91    1.00
   2  -5  11    5.65    1.31
   3  -5  11    7.63    1.49
   4  -5  11    0.01    0.83
   5  -5  11    2.03    1.13
   6  -5  11   23.74    2.61
   7  -5  11    0.45    1.11
  -9  -4  11    0.48    0.93
  -8  -4  11    0.38    0.57
  -7  -4  11    1.25    0.62
  -6  -4  11    3.06    0.69
  -5  -4  11    1.19    0.51
  -4  -4  11   41.56    2.65
  -3  -4  11   14.45    1.67
  -2  -4  11   11.64    1.51
  -1  -4  11    3.64    0.92
   0  -4  11    0.81    0.70
   1  -4  11    3.98    1.01
   2  -4  11   12.03    1.59
   3  -4  11   12.83    1.61
   4  -4  11   42.46    2.79
   5  -4  11    1.06    0.82
   6  -4  11    2.24    0.63
   7  -4  11    1.43    0.60
   8  -4  11   -0.17    0.51
   9  -4  11    0.35    0.60
  10  -4  11   46.01    3.47
 -12  -3  11    0.12    0.93
 -11  -3  11    0.82    0.93
 -10  -3  11    0.84    0.86
  -9  -3  11    2.46    1.04
  -8  -3  11    2.33    0.84
  -7  -3  11    5.21    0.72
  -6  -3  11   57.48    2.20
  -5  -3  11    8.85    0.85
  -4  -3  11    3.13    0.57
  -3  -3  11   24.05    1.20
  -2  -3  11   15.82    1.03
  -1  -3  11    2.47    0.44
   0  -3  11   25.94    1.85
   1  -3  11    2.44    0.78
   2  -3  11   17.83    1.67
   3  -3  11   26.03    1.88
   4  -3  11    3.57    0.92
   5  -3  11    8.81    0.86
   6  -3  11   58.46    2.26
   7  -3  11    3.39    0.64
   8  -3  11    0.83    0.50
   9  -3  11    2.36    0.69
  10  -3  11   -1.38    1.31
  11  -3  11   -0.85    1.26
  12  -3  11    2.56    1.29
 -13  -2  11    5.55    1.48
 -12  -2  11    9.90    1.69
 -11  -2  11    6.89    1.41
 -10  -2  11   61.71    3.72
  -9  -2  11   -0.87    0.60
  -8  -2  11   -0.04    0.61
  -7  -2  11    3.83    0.97
  -6  -2  11    6.20    0.68
  -5  -2  11    0.57    0.35
  -4  -2  11   88.31    2.77
  -3  -2  11   31.42    1.29
  -2  -2  11   25.15    1.14
  -1  -2  11    8.79    0.71
   0  -2  11   -0.12    0.29
   1  -2  11    9.80    0.70
   2  -2  11   26.35    1.06
   3  -2  11   28.72    1.93
   4  -2  11   85.79    2.77
   5  -2  11    0.55    0.36
   6  -2  11    5.74    0.69
   7  -2  11    3.97    0.63
   8  -2  11    0.41    0.45
   9  -2  11   -0.94    1.74
  10  -2  11   52.82    5.40
  11  -2  11    3.19    1.70
  12  -2  11    7.60    1.83
  13  -2  11    5.81    1.67
 -14  -1  11    6.73    1.55
 -13  -1  11   10.91    1.79
 -12  -1  11    2.14    1.01
 -11  -1  11   -0.93    0.65
 -10  -1  11   -0.38    0.70
  -9  -1  11    2.90    0.92
  -8  -1  11    1.78    0.78
  -7  -1  11    4.97    1.03
  -6  -1  11  103.42    4.60
  -5  -1  11   13.35    0.78
  -4  -1  11    4.23    0.46
  -3  -1  11   46.17    1.55
  -2  -1  11   28.68    1.13
  -1  -1  11    6.55    0.56
   0  -1  11   47.13    1.60
   1  -1  11    6.79    0.58
   2  -1  11   29.18    1.15
   3  -1  11   43.91    1.57
   4  -1  11    4.58    0.37
   5  -1  11   14.91    0.82
   6  -1  11   99.86    3.08
   7  -1  11    9.58    1.66
   8  -1  11    2.21    1.11
   9  -1  11    6.71    1.54
  10  -1  11    0.55    1.00
  11  -1  11   -0.16    0.86
  12  -1  11    2.49    1.15
  13  -1  11   15.12    2.14
  14  -1  11    4.02    1.45
 -14   0  11    9.61    1.63
 -13   0  11    6.99    1.51
 -12   0  11    8.79    1.55
 -11   0  11    7.03    1.39
 -10   0  11   83.13    2.81
  -9   0  11    0.65    0.43
  -8   0  11    0.35    0.62
  -7   0  11    5.70    1.02
  -6   0  11    8.32    1.16
  -5   0  11    0.89    0.62
  -4   0  11  117.83    4.92
  -3   0  11   42.06    1.37
  -2   0  11   35.56    1.22
  -1   0  11   13.47    0.74
   0   0  11    0.18    0.26
   1   0  11   12.68    0.82
   2   0  11   33.69    2.07
   3   0  11   39.38    2.43
   4   0  11  113.53    5.21
   5   0  11   -0.32    0.69
   6   0  11    5.80    1.29
   7   0  11    5.48    1.25
   8   0  11    0.12    0.84
   9   0  11   -0.02    0.84
  10   0  11   76.81    4.39
  11   0  11   10.98    1.79
  12   0  11   12.42    1.97
  13   0  11    8.40    1.70
  14   0  11   10.18    1.89
 -13   1  11   14.86    1.84
 -12   1  11    2.16    0.64
 -11   1  11    0.89    0.52
 -10   1  11    0.44    0.48
  -9   1  11    3.44    0.62
  -8   1  11    1.34    0.72
  -7   1  11    7.81    1.13
  -6   1  11   94.16    4.39
  -5   1  11   12.60    1.38
  -4   1  11    4.63    0.79
  -3   1  11   41.01    2.32
  -2   1  11   27.83    1.11
  -1   1  11    7.40    0.62
   0   1  11   49.06    1.70
   1   1  11    5.19    0.88
   2   1  11   33.41    1.99
   3   1  11   47.73    2.69
   4   1  11    2.76    0.91
   5   1  11   13.83    1.72
   6   1  11   99.37    4.99
   7   1  11    6.77    1.43
   8   1  11    0.58    0.94
   9   1  11    4.46    1.29
  10   1  11   -1.04    0.86
  11   1  11    1.38    1.04
  12   1  11    2.47    1.31
  13   1  11   15.01    2.23
  14   1  11    7.51    1.98
 -13   2  11    5.01    1.35
 -12   2  11    6.97    1.38
 -11   2  11    4.42    1.15
 -10   2  11   64.76    3.58
  -9   2  11    0.78    0.45
  -8   2  11    0.21    0.42
  -7   2  11    3.76    0.87
  -6   2  11    7.61    1.07
  -5   2  11   -0.37    0.45
  -4   2  11   87.76    4.00
  -3   2  11   30.24    1.88
  -2   2  11   25.32    1.08
  -1   2  11    8.79    0.70
   0   2  11    0.34    0.43
   1   2  11   10.01    1.09
   2   2  11   25.64    1.73
   3   2  11   29.77    2.02
   4   2  11   88.72    4.24
   5   2  11    0.37    0.68
   6   2  11    4.28    1.12
   7   2  11    6.18    1.31
   8   2  11   -0.14    0.82
   9   2  11    2.38    1.16
  10   2  11   69.62    4.27
  11   2  11    4.32    1.58
  12   2  11    7.63    1.93
  13   2  11    7.18    1.94
 -12   3  11    0.28    0.92
 -11   3  11   -0.71    0.67
 -10   3  11    0.85    0.81
  -9   3  11    1.34    0.74
  -8   3  11    1.61    0.73
  -7   3  11    4.21    0.98
  -6   3  11   57.12    3.01
  -5   3  11    5.77    1.03
  -4   3  11    1.96    0.72
  -3   3  11   19.71    1.81
  -2   3  11   15.67    1.52
  -1   3  11    3.57    0.71
   0   3  11   24.31    1.67
   1   3  11    2.48    0.70
   2   3  11   14.43    1.49
   3   3  11   27.70    1.94
   4   3  11    1.97    0.84
   5   3  11   10.37    1.45
   6   3  11   61.19    3.53
   7   3  11    2.82    1.09
   8   3  11    0.36    0.95
   9   3  11    4.09    1.34
  10   3  11   -0.10    0.95
  11   3  11    0.88    1.23
  12   3  11   -0.39    1.33
 -10   4  11   34.73    2.79
  -9   4  11   -0.15    0.74
  -8   4  11   -0.29    0.67
  -7   4  11    0.84    0.74
  -6   4  11    3.43    0.97
  -5   4  11    0.88    0.70
  -4   4  11   40.98    2.61
  -2   4  11   11.90    1.41
  -1   4  11    3.28    0.90
   0   4  11    0.05    0.54
   1   4  11    5.36    0.99
   2   4  11    9.86    1.42
   3   4  11   15.93    1.76
   4   4  11   42.36    2.75
   5   4  11    0.45    0.75
   6   4  11    3.09    1.10
   7   4  11    1.49    0.98
   8   4  11    1.02    1.06
   9   4  11    1.48    1.12
  10   4  11   38.21    3.62
  -7   5  11    2.70    1.07
  -6   5  11   28.25    2.67
  -5   5  11    1.43    0.98
  -4   5  11    0.99    0.87
  -3   5  11    7.54    1.41
   1   5  11    1.89    0.94
   2   5  11    5.60    1.25
   3   5  11    8.58    1.52
   4   5  11    1.57    0.95
   5   5  11    2.24    1.14
  -7  -5  12   -2.14    0.82
  -6  -5  12   14.97    2.00
  -5  -5  12   10.28    1.70
  -4  -5  12    1.91    1.04
  -3  -5  12   -0.56    0.79
  -2  -5  12    9.20    1.65
  -1  -5  12    2.16    1.01
   0  -5  12   -0.09    0.81
   1  -5  12    1.45    0.94
   2  -5  12    9.78    1.69
   3  -5  12    0.32    0.83
   4  -5  12    0.83    0.92
   5  -5  12   14.42    2.01
   6  -5  12    9.55    1.80
 -10  -4  12    5.32    1.52
  -9  -4  12   -0.01    0.88
  -8  -4  12    1.65    0.97
  -7  -4  12   12.57    1.19
  -6  -4  12    3.89    0.74
  -5  -4  12   11.18    1.04
  -4  -4  12   83.13    4.30
  -3  -4  12   -0.02    0.58
  -2  -4  12    3.52    0.93
  -1  -4  12    1.80    0.83
   0  -4  12    9.12    1.41
   1  -4  12    1.29    0.80
   2  -4  12    1.08    0.78
   3  -4  12   -0.07    0.65
   4  -4  12   80.72    4.40
   5  -4  12    9.38    1.49
   6  -4  12    4.28    1.23
   7  -4  12   15.86    1.35
   8  -4  12    1.21    0.62
   9  -4  12    1.76    1.28
  10  -4  12    2.83    1.61
 -11  -3  12    5.17    1.33
 -10  -3  12    6.11    1.43
  -9  -3  12   25.08    2.51
  -8  -3  12    5.37    1.18
  -7  -3  12   -0.23    0.42
  -6  -3  12   35.18    1.61
  -5  -3  12   24.14    1.31
  -4  -3  12    4.46    0.64
  -3  -3  12    0.00    0.38
  -2  -3  12   27.55    1.28
  -1  -3  12    2.64    0.78
   0  -3  12    0.01    0.50
   1  -3  12    4.01    0.89
   2  -3  12   27.08    1.94
   3  -3  12   -0.27    0.55
   4  -3  12    3.02    0.91
   5  -3  12   24.67    1.32
   6  -3  12   28.53    1.59
   7  -3  12   -0.42    0.39
   8  -3  12    5.47    0.82
   9  -3  12   28.16    3.40
  10  -3  12    6.35    2.19
  11  -3  12    8.65    2.35
  12  -3  12   28.81    3.38
 -13  -2  12    0.03    0.94
 -12  -2  12    4.35    1.22
 -11  -2  12    0.94    0.86
 -10  -2  12    6.22    1.30
  -9  -2  12    1.09    0.81
  -8  -2  12    2.00    0.86
  -7  -2  12   21.76    2.09
  -6  -2  12    9.66    0.83
  -5  -2  12   20.86    1.15
  -4  -2  12  174.64    5.05
  -3  -2  12   -0.02    0.32
  -2  -2  12    5.94    0.62
  -1  -2  12    3.48    0.51
   0  -2  12   26.12    1.17
   1  -2  12    3.87    0.51
   2  -2  12    4.45    0.52
   3  -2  12   -0.69    0.47
   4  -2  12  168.15    7.42
   5  -2  12   21.68    1.17
   6  -2  12   10.58    0.89
   7  -2  12   23.69    1.33
   8  -2  12    0.41    1.23
   9  -2  12    4.60    2.13
  10  -2  12    8.86    2.44
  11  -2  12    0.69    1.32
  12  -2  12    3.18    1.51
  13  -2  12   -0.92    1.10
 -14  -1  12    9.25    1.74
 -13  -1  12    0.67    0.99
 -12  -1  12   47.91    3.29
 -11  -1  12   10.18    1.64
 -10  -1  12    9.33    1.48
  -9  -1  12   45.36    2.80
  -8  -1  12    7.94    1.31
  -7  -1  12   -0.06    0.58
  -6  -1  12   62.89    3.14
  -5  -1  12   41.66    2.43
  -4  -1  12    6.88    0.58
  -3  -1  12    0.24    0.29
  -2  -1  12   46.77    1.63
  -1  -1  12    6.94    0.60
   0  -1  12   -0.16    0.29
   1  -1  12    8.95    0.67
   2  -1  12   46.39    1.66
   3  -1  12    0.50    0.32
   4  -1  12    6.37    0.61
   5  -1  12   43.11    1.57
   6  -1  12   60.45    3.42
   7  -1  12   -1.65    0.69
   8  -1  12   10.69    1.74
   9  -1  12   41.79    3.13
  10  -1  12    7.64    1.62
  11  -1  12    6.43    1.58
  12  -1  12   46.60    3.42
  13  -1  12   -0.29    1.01
  14  -1  12    4.47    1.63
 -14   0  12    2.61    1.23
 -13   0  12   -0.90    0.82
 -12   0  12    4.76    1.31
 -11   0  12   -0.52    0.73
 -10   0  12    9.04    0.93
  -9   0  12    3.36    0.61
  -8   0  12    1.45    0.75
  -7   0  12   30.16    2.07
  -6   0  12   12.46    1.43
  -5   0  12   30.14    1.97
  -4   0  12  251.06    9.32
  -3   0  12    0.03    0.22
  -2   0  12    6.61    0.53
  -1   0  12    4.92    0.51
   0   0  12   38.78    1.40
   1   0  12    6.27    0.58
   2   0  12    5.58    0.61
   3   0  12    0.13    0.66
   4   0  12  235.66    9.61
   5   0  12   28.02    2.22
   6   0  12   14.28    1.76
   7   0  12   28.92    2.61
   8   0  12    1.93    1.03
   9   0  12    5.55    1.34
  10   0  12   10.59    1.73
  11   0  12    0.42    0.95
  12   0  12    3.65    1.37
  13   0  12   -1.16    0.95
  14   0  12   -1.02    1.15
 -12   1  12   51.52    2.20
 -11   1  12    6.63    0.89
 -10   1  12    7.92    0.90
  -9   1  12   41.25    1.79
  -8   1  12    7.68    1.21
  -7   1  12   -0.19    0.57
  -6   1  12   59.00    3.00
  -5   1  12   42.05    2.41
  -4   1  12    6.20    0.99
  -3   1  12    1.10    0.54
  -2   1  12   47.20    1.63
  -1   1  12    7.39    0.66
   0   1  12    0.26    0.31
   1   1  12    7.28    1.09
   2   1  12   48.65    2.72
   3   1  12    1.76    0.86
   4   1  12    6.04    1.22
   5   1  12   38.27    2.73
   6   1  12   54.10    3.42
   7   1  12   -0.17    0.81
   8   1  12   11.24    1.77
   9   1  12   36.04    2.95
  10   1  12    8.09    1.62
  11   1  12    7.69    1.66
  12   1  12   47.25    3.57
  13   1  12    2.23    1.32
  14   1  12   11.43    2.16
 -13   2  12    0.12    0.86
 -12   2  12    4.08    1.17
 -11   2  12    0.60    0.79
 -10   2  12    5.55    0.80
  -9   2  12    2.19    0.58
  -8   2  12    1.86    0.54
  -7   2  12   21.75    1.74
  -6   2  12   11.37    1.33
  -5   2  12   20.77    1.63
  -4   2  12  174.21    7.25
  -3   2  12    0.33    0.47
  -2   2  12    4.36    0.54
  -1   2  12    3.74    0.54
   0   2  12   28.42    1.76
   1   2  12    3.37    0.82
   2   2  12    4.44    0.91
   3   2  12   -0.17    0.65
   4   2  12  178.22    7.57
   5   2  12   22.25    2.09
   6   2  12    8.82    1.46
   7   2  12   24.04    2.41
   8   2  12    1.42    1.10
   9   2  12    3.91    1.31
  10   2  12    8.20    1.80
  11   2  12    1.87    1.29
  12   2  12    3.63    1.63
  13   2  12   -0.38    1.34
 -11   3  12    4.23    1.19
 -10   3  12    5.10    1.17
  -9   3  12   27.37    2.16
  -8   3  12    5.39    1.11
  -7   3  12   -0.11    0.53
  -6   3  12   33.70    2.18
  -5   3  12   26.60    1.91
  -4   3  12    4.11    0.89
  -3   3  12    0.77    0.63
  -2   3  12   28.82    1.90
  -1   3  12    4.05    0.57
   0   3  12   -0.27    0.45
   1   3  12    3.49    0.81
   2   3  12   28.66    1.98
   3   3  12    1.16    0.74
   4   3  12    3.68    1.01
   5   3  12   29.07    2.21
   6   3  12   31.95    2.55
   7   3  12   -0.60    0.81
   8   3  12    5.10    1.42
   9   3  12   28.64    2.91
  10   3  12    4.18    1.47
  11   3  12    8.21    1.99
  -9   4  12    0.93    0.88
  -8   4  12    1.26    0.89
  -7   4  12   13.85    1.79
  -6   4  12    6.50    1.25
  -5   4  12   12.67    1.59
  -3   4  12   -0.18    0.59
  -2   4  12    3.70    0.93
  -1   4  12    2.42    0.79
   0   4  12   10.67    1.36
   1   4  12    2.11    0.80
   2   4  12    2.49    0.83
   3   4  12    0.11    0.69
   4   4  12   84.30    4.48
   5   4  12   11.66    1.67
   6   4  12    4.80    1.22
   7   4  12   15.34    2.10
   8   4  12    0.45    1.08
   9   4  12    1.39    1.21
  -6   5  12   14.22    2.00
  -5   5  12   13.72    1.90
  -4   5  12    4.01    1.13
   2   5  12   10.72    1.69
   3   5  12    0.71    0.89
   4   5  12    0.34    0.90
   5   5  12   13.37    2.02
   6   5  12   11.38    1.92
  -6  -5  13   12.68    1.82
  -5  -5  13    6.87    1.40
  -4  -5  13    5.96    1.43
  -3  -5  13    2.71    1.13
  -2  -5  13   12.71    1.90
  -1  -5  13   20.15    2.25
   0  -5  13    3.15    1.18
   1  -5  13   18.83    2.23
   2  -5  13   14.44    1.94
   3  -5  13    1.87    0.98
   4  -5  13    8.06    1.58
   5  -5  13    7.90    1.58
  -9  -4  13    3.47    1.29
  -8  -4  13    0.63    0.94
  -7  -4  13    0.32    0.61
  -6  -4  13    6.05    0.85
  -5  -4  13    0.01    0.69
  -4  -4  13    4.84    1.08
  -3  -4  13   -0.12    0.71
  -2  -4  13    7.95    1.32
  -1  -4  13    1.58    0.81
   0  -4  13   -0.61    0.53
   1  -4  13    2.09    0.86
   2  -4  13    5.45    1.15
   3  -4  13    0.52    0.77
   4  -4  13    2.81    1.03
   5  -4  13    1.78    0.96
   6  -4  13    6.27    1.36
   7  -4  13    0.43    0.97
   8  -4  13   -0.28    0.54
   9  -4  13    5.78    1.91
 -11  -3  13    7.19    1.59
 -10  -3  13    0.69    0.91
  -9  -3  13   14.03    1.90
  -8  -3  13    1.84    0.94
  -7  -3  13   -0.42    0.61
  -6  -3  13   26.71    1.40
  -5  -3  13   12.79    1.05
  -4  -3  13   15.09    1.11
  -3  -3  13    5.36    0.67
  -2  -3  13   31.68    2.02
  -1  -3  13   51.82    2.87
   0  -3  13    8.68    1.23
   1  -3  13   51.25    2.89
   2  -3  13   26.09    2.00
   3  -3  13    3.09    0.94
   4  -3  13   15.51    1.73
   5  -3  13   10.91    1.57
   6  -3  13   26.16    1.46
   7  -3  13   -0.39    0.41
   8  -3  13    1.99    1.33
   9  -3  13   14.26    2.78
  10  -3  13    4.53    2.52
  11  -3  13    3.44    2.03
  12  -3  13    2.29    1.66
 -12  -2  13    8.73    1.65
 -10  -2  13    3.82    1.19
  -9  -2  13   11.08    1.64
  -8  -2  13   -0.68    0.60
  -7  -2  13    2.16    0.89
  -6  -2  13   12.41    1.53
  -5  -2  13    0.35    0.36
  -4  -2  13    8.11    0.74
  -3  -2  13    0.20    0.36
  -2  -2  13   16.01    1.01
  -1  -2  13    5.30    0.61
   0  -2  13    0.35    0.36
   1  -2  13    5.73    0.61
   2  -2  13   17.47    1.63
   3  -2  13   -0.15    0.52
   4  -2  13    7.36    1.18
   5  -2  13   -1.00    0.58
   6  -2  13   11.35    0.94
   7  -2  13    1.69    1.10
   8  -2  13    2.85    1.45
   9  -2  13    9.75    2.46
  10  -2  13    8.50    2.26
  11  -2  13   33.40    3.60
  12  -2  13   13.34    2.19
  13  -2  13    1.82    1.34
 -13  -1  13    0.22    1.05
 -12  -1  13    0.67    0.96
 -11  -1  13   13.94    1.92
 -10  -1  13    1.23    0.83
  -9  -1  13   24.03    2.29
  -8  -1  13    3.33    0.96
  -7  -1  13    0.43    0.69
  -6  -1  13   45.28    2.60
  -5  -1  13   23.98    1.76
  -4  -1  13   27.30    1.15
  -3  -1  13    6.80    0.62
  -2  -1  13   49.63    1.73
  -1  -1  13   88.73    2.71
   0  -1  13   16.59    0.91
   1  -1  13   87.09    2.72
   2  -1  13   50.26    1.78
   3  -1  13    8.93    0.72
   4  -1  13   27.50    1.22
   5  -1  13   21.36    1.11
   6  -1  13   44.72    2.82
   7  -1  13   -0.30    0.85
   8  -1  13    1.59    1.05
   9  -1  13   25.58    2.65
  10  -1  13    3.87    1.30
  11  -1  13   18.10    2.23
  12  -1  13    2.79    1.24
  13  -1  13    0.09    1.14
  14  -1  13   -0.92    1.04
 -14   0  13   14.17    2.10
 -13   0  13    0.27    1.06
 -12   0  13   13.12    1.90
 -11   0  13   40.18    2.85
 -10   0  13   10.34    0.97
  -9   0  13   14.93    1.74
  -8   0  13    0.46    0.72
  -7   0  13    3.67    0.93
  -6   0  13   14.63    1.60
  -5   0  13    0.52    0.65
  -4   0  13   10.58    1.29
  -3   0  13    0.54    0.26
  -2   0  13   22.37    0.97
  -1   0  13    5.72    0.58
   0   0  13   -0.07    0.30
   1   0  13    6.47    0.63
   2   0  13   23.53    1.14
   3   0  13    0.75    0.69
   4   0  13   11.49    1.49
   5   0  13   -0.83    0.74
   6   0  13   17.82    1.93
   7   0  13    2.43    1.08
   8   0  13   -0.63    0.82
   9   0  13   15.77    2.07
  10   0  13    8.99    1.69
  11   0  13   40.10    3.08
  12   0  13   11.94    1.91
  13   0  13    3.98    1.37
  14   0  13   13.69    2.23
 -13   1  13   -0.25    0.85
 -12   1  13    1.52    0.69
 -11   1  13   12.16    1.16
 -10   1  13    3.82    0.70
  -9   1  13   23.14    1.37
  -8   1  13    0.64    0.72
  -7   1  13    0.03    0.61
  -6   1  13   39.25    2.45
  -5   1  13   23.81    1.74
  -4   1  13   24.73    1.80
  -3   1  13    9.32    1.17
  -2   1  13   52.71    1.74
  -1   1  13   92.60    2.76
   0   1  13   18.39    1.01
   1   1  13   82.92    4.06
   2   1  13   46.37    2.76
   3   1  13    7.98    1.30
   4   1  13   26.69    2.38
   5   1  13   21.97    2.17
   6   1  13   47.37    2.98
   7   1  13    0.05    0.80
   8   1  13    2.74    1.19
   9   1  13   22.42    2.54
  10   1  13    3.06    1.27
  11   1  13   11.62    1.99
  12   1  13    0.94    1.15
  13   1  13   -0.30    1.14
 -13   2  13    2.12    1.14
 -12   2  13   10.14    1.61
 -11   2  13   32.18    2.52
 -10   2  13    6.79    0.89
  -9   2  13   12.25    1.11
  -8   2  13    0.67    0.78
  -7   2  13    3.13    0.87
  -6   2  13   11.81    1.40
  -5   2  13    0.22    0.57
  -4   2  13    8.27    1.19
  -3   2  13    0.23    0.58
  -2   2  13   16.92    1.59
  -1   2  13    5.29    0.61
   0   2  13   -0.40    0.54
   1   2  13    3.34    0.85
   2   2  13   18.72    1.71
   3   2  13    0.02    0.66
   4   2  13    5.95    1.18
   5   2  13    0.53    0.80
   6   2  13   10.91    1.64
   7   2  13    3.32    1.25
   8   2  13    1.09    0.99
   9   2  13   12.66    2.15
  10   2  13    7.59    1.85
  11   2  13   36.64    3.59
  12   2  13   12.46    2.31
 -11   3  13    6.00    1.45
 -10   3  13    2.92    1.06
  -9   3  13   15.62    1.94
  -8   3  13    1.10    0.76
  -7   3  13    0.74    0.69
  -6   3  13   25.61    1.93
  -5   3  13   13.14    1.53
  -4   3  13   18.55    1.72
  -3   3  13    5.48    1.04
  -2   3  13   30.83    2.08
  -1   3  13   49.12    2.81
   0   3  13   10.49    1.25
   3   3  13    3.62    1.01
   4   3  13   16.06    1.87
   5   3  13   15.17    1.86
   6   3  13   22.25    2.40
   7   3  13   -0.15    0.88
   8   3  13    1.65    1.07
   9   3  13   17.54    2.36
  10   3  13    1.76    1.36
  11   3  13    7.48    1.84
  -9   4  13    6.34    1.41
  -8   4  13    0.05    0.73
  -7   4  13    1.29    0.82
  -6   4  13    6.87    1.29
  -5   4  13    0.70    0.65
  -3   4  13   -0.28    0.63
  -2   4  13    9.62    1.36
  -1   4  13    3.51    0.91
   1   4  13    1.94    0.87
   2   4  13    9.10    1.38
   3   4  13   -0.47    0.63
   4   4  13    2.16    0.93
   5   4  13    0.07    0.77
   6   4  13    4.45    1.28
   7   4  13    1.92    1.10
   8   4  13   -0.44    1.12
   9   4  13    9.65    1.88
  -6   5  13   12.60    1.85
  -5   5  13    6.08    1.34
  -4   5  13    6.48    1.38
  -3   5  13    2.06    0.97
   2   5  13   11.30    1.72
   3   5  13    0.59    1.00
   4   5  13    6.86    1.55
   5   5  13    6.37    1.51
   6   5  13    9.62    1.85
  -6  -5  14   21.95    2.43
  -5  -5  14    2.21    1.12
  -4  -5  14   16.08    2.06
  -3  -5  14   -0.33    0.84
  -2  -5  14    0.75    0.93
  -1  -5  14    2.30    1.08
   0  -5  14    0.07    0.82
   1  -5  14    1.89    1.09
   2  -5  14    0.52    0.85
   3  -5  14    1.09    0.98
   4  -5  14   10.35    1.84
  -9  -4  14    0.33    0.99
  -8  -4  14    0.82    1.01
  -7  -4  14   20.61    2.25
  -6  -4  14    1.57    0.66
  -5  -4  14   -0.11    0.70
  -4  -4  14    0.00    0.66
  -3  -4  14    3.40    0.99
  -2  -4  14    6.05    1.20
  -1  -4  14    0.49    0.75
   0  -4  14    2.81    0.92
   1  -4  14    1.38    0.82
   2  -4  14    7.29    1.31
   3  -4  14    2.99    1.02
   4  -4  14    2.60    0.94
   5  -4  14    0.61    0.80
   6  -4  14    1.53    1.01
   7  -4  14   20.90    2.50
   8  -4  14    0.40    1.17
   9  -4  14    0.16    1.50
 -11  -3  14    0.56    1.09
 -10  -3  14    1.23    0.96
  -9  -3  14   18.80    2.16
  -8  -3  14    0.99    0.89
  -7  -3  14   -0.38    0.71
  -6  -3  14   55.44    2.94
  -5  -3  14    4.06    0.68
  -4  -3  14   31.86    2.19
  -3  -3  14    1.38    0.48
  -2  -3  14    1.50    0.48
  -1  -3  14    3.38    0.89
   0  -3  14   -0.63    0.53
   1  -3  14    4.51    0.96
   2  -3  14    2.52    0.85
   3  -3  14    2.10    0.82
   4  -3  14   30.56    2.36
   5  -3  14    3.68    1.06
   6  -3  14   45.66    3.21
   7  -3  14   -0.18    0.88
   8  -3  14    1.23    1.25
   9  -3  14   16.11    2.93
  10  -3  14   -1.97    2.31
  11  -3  14   -0.16    1.83
 -12  -2  14    1.63    1.09
 -11  -2  14    1.78    1.00
 -10  -2  14    6.10    1.35
  -9  -2  14   -0.15    0.68
  -8  -2  14   -0.04    0.74
  -7  -2  14   31.15    2.32
  -6  -2  14    1.50    0.80
  -5  -2  14    1.46    0.45
  -4  -2  14    0.57    0.37
  -3  -2  14    7.89    0.75
  -2  -2  14   13.88    0.94
  -1  -2  14    2.38    0.47
   0  -2  14    5.29    0.62
   1  -2  14    0.93    0.40
   2  -2  14   14.67    1.49
   3  -2  14    8.21    1.18
   4  -2  14    0.36    0.64
   5  -2  14    1.75    0.84
   6  -2  14    4.21    1.17
   7  -2  14   35.06    3.08
   8  -2  14    1.59    1.24
   9  -2  14    0.74    1.34
  10  -2  14   10.36    2.38
  11  -2  14    0.53    1.31
  12  -2  14    0.41    1.24
 -13  -1  14    2.66    1.13
 -12  -1  14    2.56    1.08
 -11  -1  14    0.28    0.85
 -10  -1  14    0.97    0.88
  -9  -1  14   25.49    2.40
  -8  -1  14   -0.58    0.59
  -7  -1  14    0.26    0.68
  -6  -1  14   90.15    4.26
  -5  -1  14    7.93    1.18
  -4  -1  14   60.19    2.00
  -3  -1  14    5.23    0.56
  -2  -1  14    3.02    0.48
  -1  -1  14    8.68    0.72
   0  -1  14   -0.18    0.33
   1  -1  14    8.56    0.74
   2  -1  14    1.83    0.46
   3  -1  14    5.06    0.61
   4  -1  14   55.40    2.05
   5  -1  14    8.57    0.75
   6  -1  14   83.27    4.41
   7  -1  14    0.70    0.88
   8  -1  14    0.05    0.84
   9  -1  14   22.56    2.52
  10  -1  14    0.87    1.11
  11  -1  14    1.62    1.09
  12  -1  14    3.87    1.36
  13  -1  14    2.07    1.31
 -13   0  14    1.56    1.09
 -12   0  14    1.48    1.05
 -11   0  14    0.71    0.94
 -10   0  14    8.83    0.94
  -9   0  14   -0.27    0.71
  -8   0  14    1.96    0.87
  -7   0  14   37.98    2.47
  -6   0  14    3.08    0.92
  -5   0  14    1.60    0.72
  -4   0  14    0.43    0.61
  -3   0  14   12.90    1.37
  -2   0  14   16.79    0.87
  -1   0  14    1.92    0.44
   0   0  14    5.37    0.59
   1   0  14    1.10    0.41
   2   0  14   13.95    0.97
   3   0  14    9.50    1.32
   4   0  14    0.70    0.84
   5   0  14    1.82    0.94
   6   0  14    4.56    1.18
   7   0  14   35.94    2.68
   8   0  14    1.24    0.95
   9   0  14    1.10    1.04
  10   0  14    8.64    1.70
  11   0  14   -0.36    1.00
  12   0  14    2.92    1.20
  13   0  14   -0.43    1.08
 -13   1  14   -0.14    0.93
 -12   1  14    3.60    0.79
 -11   1  14    0.42    0.57
 -10   1  14    0.81    0.57
  -9   1  14   28.89    2.12
  -8   1  14    0.20    0.66
  -7   1  14   -0.07    0.65
  -6   1  14   88.73    4.18
  -5   1  14    6.94    1.16
  -4   1  14   60.42    3.11
  -3   1  14    6.33    1.02
  -2   1  14    3.64    0.82
  -1   1  14    9.25    0.76
   0   1  14    0.12    0.34
   1   1  14    8.24    0.80
   2   1  14    2.41    0.97
   3   1  14    5.51    1.16
   4   1  14   63.15    3.52
   5   1  14    7.38    1.36
   6   1  14   82.14    4.54
   7   1  14    0.63    1.01
   8   1  14    2.59    1.12
   9   1  14   29.47    2.82
  10   1  14    0.21    0.97
  11   1  14   -0.88    1.06
  12   1  14    0.94    1.28
  13   1  14    0.31    1.28
 -13   2  14    1.03    0.93
 -12   2  14   -0.71    0.77
 -11   2  14   -0.49    0.68
 -10   2  14    7.98    0.96
  -9   2  14    0.07    0.46
  -8   2  14    1.19    0.77
  -7   2  14   31.12    2.22
  -6   2  14    3.38    0.89
  -5   2  14    2.23    0.79
  -4   2  14    0.78    0.60
  -3   2  14    8.15    1.17
  -2   2  14   13.52    1.48
  -1   2  14    1.43    0.45
   0   2  14    4.59    0.61
   1   2  14    2.16    0.77
   2   2  14   12.70    1.51
   3   2  14   11.41    1.47
   4   2  14    1.24    0.83
   5   2  14    1.44    0.91
   6   2  14    2.60    1.20
   7   2  14   34.11    3.10
   8   2  14    0.64    1.02
   9   2  14    0.92    1.16
  10   2  14    8.03    1.88
  11   2  14   -1.23    1.02
  12   2  14   -0.38    1.33
 -11   3  14    0.34    0.86
 -10   3  14    0.77    0.86
  -9   3  14   18.66    2.11
  -8   3  14    0.98    0.74
  -7   3  14   -0.81    0.61
  -6   3  14   52.47    2.97
  -5   3  14    4.29    1.02
  -4   3  14   32.75    2.27
  -3   3  14    1.62    0.75
  -2   3  14    1.68    0.78
  -1   3  14    4.67    0.99
   0   3  14    0.07    0.52
   1   3  14    3.82    0.95
   2   3  14    1.65    0.82
   3   3  14    1.29    0.85
   4   3  14   36.89    2.58
   5   3  14    4.70    1.18
   6   3  14   49.39    3.34
   7   3  14    1.25    0.99
   8   3  14    0.50    1.05
   9   3  14   19.10    2.60
  10   3  14    1.13    1.37
  11   3  14    0.42    1.44
  -9   4  14    0.18    0.82
  -8   4  14    0.32    0.73
  -7   4  14   17.65    2.09
  -6   4  14    1.81    0.95
  -3   4  14    2.68    0.96
  -2   4  14    5.02    1.12
  -1   4  14    0.20    0.66
   1   4  14    0.23    0.73
   2   4  14    9.00    1.43
   3   4  14    4.72    1.19
   4   4  14    0.13    0.75
   5   4  14    0.30    0.90
   6   4  14    0.78    1.09
   7   4  14   20.38    2.47
   8   4  14   -1.11    0.95
   9   4  14    0.52    1.19
  -5   5  14    3.40    1.22
  -4   5  14   18.94    2.21
  -3   5  14    1.67    0.93
   3   5  14    0.96    1.04
   4   5  14   14.08    2.03
   5   5  14    2.25    1.20
  -5  -5  15   -1.24    0.85
  -4  -5  15    2.24    1.08
  -3  -5  15    0.80    1.04
  -2  -5  15    0.30    0.97
  -1  -5  15    1.21    1.01
   0  -5  15   63.77    4.00
   1  -5  15    0.68    0.94
   2  -5  15    0.60    0.95
   3  -5  15    0.66    1.00
  -9  -4  15    7.95    1.54
  -8  -4  15   26.90    2.68
  -7  -4  15    1.16    1.01
  -5  -4  15    2.99    1.00
  -4  -4  15   22.83    2.21
  -3  -4  15    4.88    1.17
  -2  -4  15    8.17    1.38
  -1  -4  15   13.83    1.72
   0  -4  15   -0.96    0.66
   1  -4  15   14.95    1.85
   2  -4  15    9.58    1.50
   3  -4  15    4.11    1.19
   4  -4  15   22.17    2.36
   5  -4  15    0.44    0.86
   6  -4  15    0.38    0.95
   7  -4  15    0.73    1.07
   8  -4  15   20.14    2.84
 -10  -3  15    1.53    1.04
  -9  -3  15    2.63    1.08
  -8  -3  15    3.17    1.07
  -7  -3  15    0.30    0.76
  -6  -3  15    1.50    0.89
  -5  -3  15    0.96    0.52
  -4  -3  15    1.54    0.53
  -3  -3  15    4.85    0.68
  -2  -3  15    3.04    0.59
  -1  -3  15    2.92    0.85
   0  -3  15  136.99    6.23
   1  -3  15    2.43    0.84
   2  -3  15    2.29    0.81
   3  -3  15    2.98    0.97
   4  -3  15   -0.28    0.68
   5  -3  15   -0.03    0.73
   6  -3  15    1.95    0.99
   7  -3  15   -0.42    0.91
   8  -3  15    3.20    1.50
   9  -3  15    1.74    1.76
  10  -3  15    1.80    2.71
  11  -3  15    0.66    2.10
 -12  -2  15   -0.19    1.02
 -11  -2  15   -0.51    0.85
 -10  -2  15   17.01    2.12
  -9  -2  15   17.38    2.04
  -8  -2  15   44.65    2.87
  -7  -2  15    0.12    0.70
  -6  -2  15   -0.39    0.68
  -5  -2  15    2.79    0.91
  -4  -2  15   48.94    1.86
  -3  -2  15   10.66    0.86
  -2  -2  15   15.62    1.05
  -1  -2  15   32.70    1.39
   0  -2  15    0.49    0.38
   1  -2  15   29.38    1.37
   2  -2  15   15.30    1.58
   3  -2  15   13.12    1.47
   4  -2  15   46.83    2.89
   5  -2  15    2.03    0.89
   6  -2  15   -0.26    0.76
   7  -2  15   -0.93    0.81
   8  -2  15   43.11    3.77
   9  -2  15   17.98    2.64
  10  -2  15   22.63    3.04
  11  -2  15    1.03    1.43
  12  -2  15   -1.12    1.17
 -13  -1  15    6.27    1.57
 -12  -1  15    3.22    1.32
 -11  -1  15    5.08    1.36
 -10  -1  15    1.55    0.96
  -9  -1  15    3.01    1.05
  -8  -1  15    2.01    0.84
  -7  -1  15   -0.33    0.63
  -6  -1  15    3.98    0.98
  -5  -1  15    0.18    0.62
  -4  -1  15    3.15    0.87
  -3  -1  15    7.73    0.65
  -2  -1  15    4.38    0.57
  -1  -1  15    5.08    0.60
   0  -1  15  228.52    6.23
   1  -1  15    4.85    0.60
   2  -1  15    5.47    0.64
   3  -1  15    7.20    0.72
   4  -1  15    2.59    0.50
   5  -1  15    0.28    0.35
   6  -1  15    3.59    1.03
   7  -1  15    0.09    0.81
   8  -1  15    3.97    1.16
   9  -1  15    1.17    1.05
  10  -1  15    2.49    1.16
  11  -1  15    2.34    1.33
  12  -1  15    2.52    1.35
  13  -1  15    3.33    1.47
 -13   0  15    6.42    1.61
 -12   0  15    1.03    1.00
 -11   0  15    3.13    1.16
 -10   0  15   23.61    2.34
  -9   0  15   19.89    2.10
  -8   0  15   48.71    2.98
  -7   0  15    0.08    0.66
  -6   0  15   -0.42    0.57
  -5   0  15    2.89    0.87
  -4   0  15   61.66    3.21
  -3   0  15   12.19    1.46
  -2   0  15   22.34    1.03
  -1   0  15   44.18    1.64
   0   0  15    0.60    0.40
   1   0  15   43.73    1.67
   2   0  15   20.96    1.15
   3   0  15   16.05    1.08
   5   0  15    1.97    0.94
   6   0  15    0.49    0.84
   7   0  15   -0.26    0.86
   8   0  15   47.95    3.24
   9   0  15   19.46    2.32
  10   0  15   19.84    2.42
  11   0  15    0.67    1.09
  12   0  15   -0.10    0.94
  13   0  15    4.19    1.57
 -13   1  15    6.03    1.47
 -12   1  15    1.58    0.72
 -11   1  15    4.39    0.81
 -10   1  15    2.30    0.61
  -9   1  15    5.90    1.18
  -8   1  15    5.13    1.13
  -7   1  15    1.39    0.74
  -6   1  15    1.62    0.77
  -5   1  15   -0.15    0.56
  -4   1  15    2.55    0.83
  -3   1  15    6.50    1.08
  -2   1  15    2.64    0.79
  -1   1  15    4.89    0.59
   0   1  15  230.66    6.29
   1   1  15    5.32    0.69
   2   1  15    4.29    1.04
   3   1  15    7.20    1.29
   4   1  15    3.26    1.08
   5   1  15    0.74    0.88
   6   1  15    3.97    1.12
   7   1  15    0.45    1.03
   8   1  15    2.87    1.15
   9   1  15    4.49    1.35
  10   1  15    3.13    1.30
  11   1  15    1.02    1.16
  12   1  15    3.17    1.43
  13   1  15    4.60    1.61
 -12   2  15    0.86    0.87
 -11   2  15    1.90    0.91
 -10   2  15   19.41    1.46
  -9   2  15   14.66    1.25
  -8   2  15   43.93    2.73
  -7   2  15   -0.38    0.62
  -6   2  15    0.38    0.66
  -5   2  15    3.33    0.87
  -4   2  15   48.58    2.81
  -3   2  15    9.81    1.31
  -2   2  15   15.64    1.68
  -1   2  15   28.93    2.01
   0   2  15    0.03    0.40
   1   2  15   36.86    2.27
   2   2  15   18.46    1.84
   3   2  15   11.31    1.58
   4   2  15   50.05    3.17
   5   2  15    2.04    1.08
   6   2  15   -0.33    0.98
   7   2  15   -0.04    0.98
   8   2  15   38.92    3.57
   9   2  15   12.06    2.13
  10   2  15   18.86    2.56
  11   2  15    0.68    1.27
  12   2  15    1.60    1.43
 -10   3  15    1.25    0.89
  -9   3  15    3.68    1.06
  -8   3  15    2.20    0.97
  -7   3  15    0.17    0.78
  -6   3  15    2.55    0.90
  -5   3  15    0.10    0.62
  -4   3  15    1.44    0.83
  -3   3  15    2.56    0.88
  -2   3  15    3.29    0.88
  -1   3  15    3.36    0.90
   0   3  15  142.07    6.23
   1   3  15    2.51    0.90
   2   3  15    2.61    0.92
   3   3  15    2.75    1.02
   4   3  15    1.74    0.92
   5   3  15   -0.44    0.73
   6   3  15    3.27    1.15
   7   3  15    0.11    0.96
   8   3  15    3.23    1.53
   9   3  15    5.34    1.72
  10   3  15    1.62    1.41
  -8   4  15   18.68    2.24
  -7   4  15   -0.31    0.78
  -6   4  15    0.11    0.66
  -3   4  15    5.94    1.23
  -2   4  15    8.37    1.38
  -1   4  15   12.79    1.67
   0   4  15    0.42    0.69
   2   4  15    8.72    1.50
   3   4  15    6.76    1.39
   4   4  15   26.56    2.64
   5   4  15    0.81    1.04
   6   4  15   -0.82    0.99
   7   4  15    0.70    1.09
   8   4  15   22.30    2.76
  -5   5  15    1.10    0.97
  -4   5  15    2.15    1.10
  -3   5  15    3.06    1.11
   4   5  15    1.77    1.17
   5   5  15    2.42    1.35
  -4  -5  16    0.33    0.95
  -3  -5  16    1.05    1.01
  -2  -5  16    2.21    1.08
  -1  -5  16    0.56    0.96
   0  -5  16    0.72    1.00
   1  -5  16   -0.06    0.92
   2  -5  16    3.77    1.27
  -8  -4  16   13.52    2.02
  -7  -4  16    1.09    1.01
  -5  -4  16    1.95    0.95
  -4  -4  16    0.53    0.81
  -3  -4  16    1.89    0.97
  -2  -4  16   72.83    4.04
  -1  -4  16   20.15    2.13
   0  -4  16    5.86    1.22
   1  -4  16   18.43    2.08
   2  -4  16   72.93    4.15
   3  -4  16    2.50    1.04
   4  -4  16    1.55    0.98
   5  -4  16    2.20    1.09
   6  -4  16   -0.12    0.86
   7  -4  16    1.09    1.19
   8  -4  16    8.56    2.12
 -10  -3  16    6.51    1.55
  -9  -3  16    2.98    1.11
  -7  -3  16   -0.13    0.72
  -6  -3  16   23.67    2.32
  -5  -3  16    2.32    0.89
  -4  -3  16   -0.61    0.46
  -3  -3  16    0.71    0.47
  -2  -3  16    6.70    1.12
  -1  -3  16    0.92    0.71
   0  -3  16   -0.30    0.63
   1  -3  16    1.56    0.76
   2  -3  16    8.87    1.33
   3  -3  16   -0.50    0.59
   4  -3  16    0.46    0.75
   5  -3  16    1.24    0.91
   6  -3  16   20.97    2.33
   7  -3  16   -0.33    0.93
   8  -3  16   31.08    3.40
   9  -3  16    0.38    1.61
  10  -3  16    9.77    2.93
 -11  -2  16    7.21    1.53
 -10  -2  16    4.77    1.36
  -9  -2  16    4.93    1.28
  -8  -2  16   20.96    2.22
  -7  -2  16    2.85    1.06
  -6  -2  16    0.58    0.74
  -5  -2  16    0.98    0.76
  -4  -2  16    1.65    0.49
  -3  -2  16    5.40    0.66
  -2  -2  16  151.41    4.50
  -1  -2  16   40.63    1.67
   0  -2  16    7.30    0.76
   1  -2  16   39.48    1.67
   2  -2  16  145.78    6.54
   3  -2  16    3.53    0.92
   4  -2  16    1.22    0.80
   5  -2  16    1.76    0.85
   6  -2  16    0.09    0.78
   7  -2  16    1.34    1.07
   8  -2  16   22.61    2.66
   9  -2  16    8.06    1.91
  10  -2  16    4.20    1.65
  11  -2  16    6.92    1.97
  12  -2  16    6.98    1.88
 -12  -1  16    9.37    1.80
 -11  -1  16   12.10    1.86
 -10  -1  16   13.05    1.88
  -9  -1  16    1.96    0.95
  -8  -1  16   48.32    3.03
  -7  -1  16    0.26    0.68
  -6  -1  16   33.18    2.34
  -5  -1  16    2.11    0.75
  -4  -1  16   -0.18    0.60
  -3  -1  16    0.30    0.35
  -2  -1  16   12.39    0.89
  -1  -1  16    2.25    0.49
   0  -1  16   -0.19    0.36
   1  -1  16    1.53    0.44
   2  -1  16   12.51    0.95
   3  -1  16    0.32    0.39
   4  -1  16   -0.15    0.35
   5  -1  16    2.18    0.93
   6  -1  16   32.79    2.46
   7  -1  16   -0.03    0.71
   8  -1  16   47.52    3.16
   9  -1  16    2.52    1.14
  10  -1  16   13.17    1.99
  11  -1  16   10.02    1.92
  12  -1  16    8.78    1.84
 -13   0  16    1.45    1.14
 -12   0  16    6.37    1.56
 -11   0  16   11.22    1.83
 -10   0  16    0.67    0.97
  -9   0  16    4.76    1.17
  -8   0  16   24.46    2.29
  -7   0  16    4.55    1.07
  -6   0  16    1.65    0.81
  -5   0  16    4.13    1.00
  -4   0  16    2.24    0.74
  -3   0  16    6.11    1.06
  -2   0  16  199.13    7.95
  -1   0  16   51.22    1.85
   0   0  16    9.72    0.82
   1   0  16   53.11    1.92
   2   0  16  193.68    5.57
   3   0  16    7.37    0.76
   4   0  16    1.93    0.52
   5   0  16    3.82    1.05
   6   0  16    1.34    0.89
   7   0  16    5.90    1.32
   8   0  16   26.06    2.58
   9   0  16    7.36    1.53
  10   0  16    4.30    1.28
  11   0  16   11.49    1.95
  12   0  16    7.44    1.73
  13   0  16   -1.31    1.07
 -13   1  16   -1.08    0.97
 -12   1  16    8.97    1.09
 -11   1  16    8.91    1.07
 -10   1  16    8.52    1.01
  -9   1  16    2.56    0.95
  -8   1  16   49.72    2.98
  -7   1  16    0.50    0.68
  -6   1  16   30.29    2.26
  -5   1  16    2.28    0.87
  -4   1  16    0.10    0.60
  -3   1  16    0.19    0.57
  -2   1  16   11.93    1.40
  -1   1  16    1.10    0.47
   0   1  16   -0.06    0.42
   1   1  16    1.48    0.51
   2   1  16   12.71    1.03
   3   1  16    0.48    0.77
   4   1  16    0.26    0.76
   5   1  16    2.72    1.05
   6   1  16   36.18    2.64
   7   1  16    2.22    1.05
   8   1  16   43.30    3.16
   9   1  16    4.44    1.35
  10   1  16   13.18    2.04
  11   1  16   12.60    2.12
  12   1  16   10.17    2.06
 -12   2  16    4.33    1.28
 -11   2  16    8.38    1.42
 -10   2  16    2.79    0.73
  -9   2  16    5.78    1.26
  -8   2  16   18.02    1.99
  -7   2  16    3.33    1.02
  -6   2  16   -0.23    0.64
  -5   2  16    1.51    0.70
  -4   2  16    1.95    0.80
  -3   2  16    4.31    1.00
  -2   2  16  151.22    6.55
  -1   2  16   39.73    2.49
   0   2  16    7.05    0.80
   1   2  16   42.13    1.83
   2   2  16  159.21    6.79
   3   2  16    5.12    1.18
   4   2  16    0.55    0.95
   5   2  16    1.17    1.02
   6   2  16   -1.12    0.86
   7   2  16    2.35    1.28
   8   2  16   21.39    2.64
   9   2  16    2.90    1.46
  10   2  16   -0.26    1.28
  11   2  16   10.30    2.06
 -10   3  16    7.52    1.47
  -9   3  16    0.91    0.84
  -7   3  16   -0.98    0.75
  -6   3  16   21.89    2.13
  -5   3  16    1.16    0.79
  -4   3  16   -0.62    0.62
  -3   3  16   -0.20    0.62
  -2   3  16    6.13    1.18
  -1   3  16    1.60    0.77
   0   3  16    2.15    0.80
   1   3  16    2.34    0.88
   2   3  16    4.96    1.16
   3   3  16    0.80    0.86
   4   3  16   -0.23    0.80
   5   3  16    1.03    1.04
   6   3  16   26.49    2.69
   7   3  16   -0.51    1.11
   8   3  16   34.73    3.58
   9   3  16    2.62    1.55
  10   3  16    8.46    2.10
  -8   4  16   11.94    1.82
  -7   4  16    2.52    1.06
  -6   4  16   -0.08    0.76
  -4   4  16    1.14    0.88
  -3   4  16    2.57    0.96
  -2   4  16   72.23    4.03
  -1   4  16   17.69    2.00
   0   4  16    4.17    1.05
   3   4  16    2.38    1.15
   4   4  16    0.40    0.93
   5   4  16    2.26    1.24
   6   4  16   -1.06    0.88
   7   4  16    2.74    1.36
   8   4  16   13.17    2.29
  -4   5  16   -0.77    0.86
  -3   5  16   -0.35    0.94
   1   5  16    1.75    1.03
   4   5  16    1.39    1.25
  -2  -5  17    0.95    1.00
  -1  -5  17    0.32    1.00
   0  -5  17   29.21    2.88
  -8  -4  17    8.85    1.59
  -4  -4  17    0.90    0.89
  -3  -4  17    0.72    0.89
  -2  -4  17    8.14    1.41
  -1  -4  17    0.82    0.80
   0  -4  17    0.04    0.76
   1  -4  17    0.76    0.90
   2  -4  17    7.95    1.43
   3  -4  17    1.19    0.94
   4  -4  17    2.28    1.08
   5  -4  17   16.13    2.16
   6  -4  17   14.52    2.10
   7  -4  17    2.09    1.31
 -10  -3  17   -0.13    0.99
  -9  -3  17    0.26    0.94
  -8  -3  17    0.88    0.95
  -7  -3  17   17.83    2.14
  -6  -3  17    0.17    0.87
  -5  -3  17    3.60    1.10
  -4  -3  17   23.39    1.90
  -3  -3  17    6.25    0.82
  -2  -3  17    1.49    0.79
  -1  -3  17   -0.15    0.59
   0  -3  17   75.77    3.83
   1  -3  17   -0.19    0.67
   2  -3  17    0.61    0.72
   3  -3  17    5.81    1.22
   4  -3  17   27.47    2.47
   5  -3  17    2.68    1.00
   6  -3  17    0.43    0.84
   7  -3  17   19.64    2.43
   8  -3  17   -0.32    1.11
   9  -3  17   -0.08    1.33
  10  -3  17    1.14    1.79
 -11  -2  17    1.06    1.04
 -10  -2  17    3.93    1.26
  -9  -2  17    5.52    1.39
  -8  -2  17   13.48    1.86
  -7  -2  17    0.22    0.76
  -6  -2  17   35.07    2.42
  -5  -2  17   34.80    2.39
  -4  -2  17    1.26    0.74
  -3  -2  17    4.28    0.64
  -2  -2  17   17.96    1.09
  -1  -2  17   -0.20    0.37
   0  -2  17   -0.79    0.35
   1  -2  17    0.14    0.63
   2  -2  17   14.97    1.61
   3  -2  17    6.48    1.16
   4  -2  17    1.40    0.78
   5  -2  17   32.41    2.39
   6  -2  17   25.24    2.53
   7  -2  17   -0.52    0.84
   8  -2  17   18.04    2.41
   9  -2  17    3.66    1.46
  10  -2  17    2.78    1.45
  11  -2  17   -0.84    1.21
 -12  -1  17    0.70    1.04
 -11  -1  17    8.85    1.68
 -10  -1  17    1.09    1.01
  -9  -1  17    1.86    0.97
  -8  -1  17   -0.28    0.69
  -7  -1  17   24.99    2.38
  -6  -1  17   -0.03    0.64
  -5  -1  17    4.04    1.01
  -4  -1  17   49.75    2.81
  -3  -1  17    8.50    1.29
  -2  -1  17    2.41    0.48
  -1  -1  17    0.59    0.41
   0  -1  17  112.69    3.45
   1  -1  17    0.49    0.41
   2  -1  17    1.50    0.48
   3  -1  17    8.03    0.79
   4  -1  17   47.48    1.85
   5  -1  17    7.49    1.33
   6  -1  17   -0.30    0.77
   7  -1  17   26.02    2.55
   8  -1  17    0.32    0.91
   9  -1  17    1.25    1.02
  10  -1  17    1.00    1.10
  11  -1  17    7.64    1.75
  12  -1  17    2.19    1.29
 -12   0  17    0.18    0.98
 -11   0  17    0.98    1.01
 -10   0  17    5.39    1.33
  -9   0  17    4.13    1.16
  -8   0  17   16.32    1.92
  -7   0  17    0.87    0.79
  -6   0  17   39.31    2.63
  -5   0  17   37.13    2.48
  -4   0  17    1.13    0.73
  -3   0  17    5.78    1.09
  -2   0  17   20.30    1.84
  -1   0  17    0.43    0.41
   0   0  17    0.10    0.37
   1   0  17    0.42    0.38
   2   0  17   18.66    1.20
   3   0  17    6.91    0.77
   4   0  17    2.03    0.51
   5   0  17   35.46    2.59
   6   0  17   38.30    2.72
   7   0  17   -0.32    0.77
   8   0  17   18.17    2.17
   9   0  17    5.63    1.44
  10   0  17    4.57    1.38
  11   0  17    1.70    1.19
  12   0  17    1.43    1.29
 -12   1  17    0.86    1.10
 -11   1  17    4.07    0.86
 -10   1  17    1.08    0.64
  -9   1  17    0.77    0.88
  -8   1  17   -0.03    0.74
  -7   1  17   27.75    2.48
  -6   1  17    0.16    0.68
  -5   1  17    5.34    1.07
  -4   1  17   40.11    2.65
  -3   1  17    8.01    1.24
  -2   1  17    3.31    0.85
  -1   1  17   -0.22    0.51
   0   1  17  117.17    5.06
   1   1  17    1.25    0.44
   2   1  17    2.96    0.61
   3   1  17   10.39    1.40
   4   1  17   43.30    2.90
   5   1  17    6.34    1.33
   6   1  17   -0.46    0.80
   7   1  17   28.91    2.73
   8   1  17    2.14    1.10
   9   1  17   -0.48    0.89
  10   1  17    1.41    1.14
  11   1  17    8.83    1.85
  12   1  17    1.80    1.40
 -11   2  17    1.06    0.94
 -10   2  17    2.62    0.74
  -9   2  17    5.24    1.27
  -8   2  17    9.59    1.55
  -7   2  17    0.40    0.74
  -6   2  17   26.28    2.43
  -5   2  17   34.23    2.35
  -4   2  17    0.85    0.73
  -3   2  17    7.07    1.19
  -2   2  17   18.33    1.83
  -1   2  17   -0.33    0.52
   0   2  17    0.38    0.51
   1   2  17   -0.70    0.42
   2   2  17   15.56    1.92
   3   2  17    4.85    1.31
   4   2  17    0.81    1.00
   5   2  17   34.15    3.10
   6   2  17   33.45    3.12
   7   2  17   -0.06    1.05
   8   2  17   22.06    2.62
   9   2  17    4.19    1.59
  10   2  17    4.59    1.58
  11   2  17    0.12    1.25
 -10   3  17    1.40    0.95
  -9   3  17    1.85    0.97
  -7   3  17   20.67    2.17
  -6   3  17   -0.18    0.66
  -5   3  17    3.00    1.02
  -4   3  17   27.88    2.50
  -3   3  17    4.60    1.06
  -2   3  17    0.92    0.78
  -1   3  17   -0.04    0.58
   0   3  17   65.77    3.72
   1   3  17   -0.08    0.63
   2   3  17    2.35    0.95
   3   3  17    7.25    1.44
   4   3  17   29.15    2.71
   5   3  17    2.38    1.15
   6   3  17    0.08    1.12
   7   3  17   19.31    2.66
   8   3  17    0.04    1.28
   9   3  17    1.41    1.56
  10   3  17    2.16    1.54
  -7   4  17    0.28    0.78
  -4   4  17    1.46    1.02
  -3   4  17    0.60    0.78
  -2   4  17    7.11    1.41
  -1   4  17    0.71    0.80
   0   4  17    0.53    0.79
   1   4  17    0.85    0.82
   3   4  17    3.90    1.30
   4   4  17    0.94    1.02
   5   4  17   16.92    2.32
   6   4  17   18.33    2.46
   7   4  17   -0.19    1.18
  -3   5  17    3.56    1.22
   0   5  17   28.76    2.74
   1   5  17    0.40    0.89
  -4  -4  18    9.37    1.55
  -3  -4  18    3.96    1.15
  -2  -4  18    1.27    0.88
  -1  -4  18    1.12    0.91
   0  -4  18    0.17    0.75
   1  -4  18   -0.83    0.69
   2  -4  18    0.44    0.80
   3  -4  18    2.46    1.12
   4  -4  18    9.05    1.62
   5  -4  18    0.86    0.96
   6  -4  18   -0.94    0.91
  -9  -3  18    1.32    1.06
  -8  -3  18   -0.02    0.90
  -7  -3  18    2.24    1.12
  -6  -3  18    0.92    0.93
  -5  -3  18    0.54    0.83
  -4  -3  18    1.47    0.89
  -3  -3  18   41.17    2.60
  -2  -3  18    0.40    0.69
  -1  -3  18   18.76    1.86
   0  -3  18    0.19    0.68
   1  -3  18   14.56    1.77
   2  -3  18    0.27    0.70
   3  -3  18   38.91    2.79
   4  -3  18    2.41    0.98
   5  -3  18    1.26    0.87
   6  -3  18   -0.76    0.80
   7  -3  18    1.90    1.16
   8  -3  18    1.24    1.15
   9  -3  18    1.79    1.51
 -11  -2  18    0.79    1.03
 -10  -2  18    6.66    1.54
  -9  -2  18    5.92    1.39
  -8  -2  18    1.83    0.98
  -7  -2  18    9.44    1.57
  -6  -2  18    0.88    0.81
  -5  -2  18    5.87    1.20
  -4  -2  18   18.68    1.93
  -3  -2  18    7.00    0.78
  -2  -2  18    1.82    0.53
  -1  -2  18    0.27    0.43
   0  -2  18    0.30    0.46
   1  -2  18    0.93    0.70
   2  -2  18    1.64    0.75
   3  -2  18    5.95    1.12
   4  -2  18   15.43    1.78
   5  -2  18    0.59    0.79
   6  -2  18   -0.62    0.62
   7  -2  18    5.10    1.41
   8  -2  18    1.68    1.19
   9  -2  18    7.45    1.71
  10  -2  18    8.75    1.91
  11  -2  18    1.39    1.26
 -11  -1  18    9.52    1.71
 -10  -1  18    2.94    1.17
  -9  -1  18    3.26    1.18
  -8  -1  18    0.10    0.86
  -7  -1  18    4.42    1.14
  -6  -1  18   -0.12    0.67
  -5  -1  18    0.84    0.74
  -4  -1  18    6.74    1.21
  -3  -1  18   70.19    3.58
  -2  -1  18    2.65    0.54
  -1  -1  18   27.46    1.29
   0  -1  18   -0.02    0.36
   1  -1  18   28.38    1.35
   2  -1  18    2.20    0.53
   3  -1  18   65.13    2.35
   4  -1  18    4.90    0.67
   5  -1  18   -0.66    0.79
   6  -1  18    0.28    0.88
   7  -1  18    4.44    1.25
   8  -1  18    0.35    0.87
   9  -1  18    1.82    1.18
  10  -1  18    1.73    1.18
  11  -1  18    6.32    1.66
 -12   0  18    0.23    0.98
 -11   0  18   -0.47    0.89
 -10   0  18    7.13    1.49
  -9   0  18    7.64    1.40
  -8   0  18    0.80    0.72
  -7   0  18    9.14    1.47
  -6   0  18    0.89    0.76
  -5   0  18    5.39    1.17
  -4   0  18   24.43    2.20
  -3   0  18   10.43    1.39
  -2   0  18    2.54    0.84
  -1   0  18   -0.11    0.35
   0   0  18    0.47    0.41
   1   0  18    0.27    0.41
   2   0  18    4.25    0.63
   3   0  18    8.85    0.86
   4   0  18   24.31    1.35
   5   0  18    3.90    0.67
   6   0  18   -0.21    0.74
   7   0  18   11.33    1.72
   8   0  18   -1.31    0.70
   9   0  18   10.35    1.76
  10   0  18    9.31    1.76
  11   0  18    1.18    1.01
  12   0  18    0.42    1.15
 -12   1  18    7.67    1.67
 -11   1  18    9.35    1.09
 -10   1  18    0.05    0.91
  -9   1  18    0.12    0.81
  -8   1  18   -0.60    0.74
  -7   1  18    2.97    1.02
  -6   1  18    2.04    0.90
  -5   1  18    1.25    0.78
  -4   1  18    3.36    0.98
  -3   1  18   64.43    3.50
  -2   1  18    2.13    0.80
  -1   1  18   30.57    2.06
   0   1  18   -0.32    0.39
   1   1  18   26.76    1.38
   2   1  18    1.74    0.54
   3   1  18   65.58    2.46
   4   1  18    5.29    1.21
   5   1  18   -0.21    0.76
   6   1  18    0.25    0.87
   7   1  18    3.66    1.22
   8   1  18    1.14    1.02
   9   1  18    3.05    1.32
  10   1  18    2.60    1.32
  11   1  18    6.59    1.82
 -11   2  18    0.04    0.60
 -10   2  18    7.09    0.98
  -9   2  18    7.63    1.45
  -8   2  18   -0.40    0.82
  -7   2  18   12.62    1.72
  -6   2  18   -0.81    0.66
  -5   2  18    2.66    0.93
  -4   2  18   17.18    1.94
  -3   2  18    5.71    1.18
  -2   2  18    1.57    0.83
  -1   2  18   -0.27    0.57
   0   2  18    1.28    0.68
   1   2  18   -0.06    0.44
   2   2  18    1.40    0.97
   3   2  18   11.47    1.70
   4   2  18   18.32    2.20
   5   2  18    4.19    1.36
   6   2  18    0.22    0.91
   7   2  18    5.88    1.72
   8   2  18    0.46    1.28
   9   2  18    6.13    1.75
  10   2  18    8.94    2.00
  11   2  18    0.48    1.31
  -9   3  18    1.79    0.97
  -7   3  18    2.26    1.05
  -6   3  18    0.39    0.81
  -5   3  18   -0.30    0.79
  -4   3  18    3.31    1.06
  -3   3  18   45.47    2.84
  -2   3  18    0.37    0.73
  -1   3  18   20.37    2.09
   0   3  18   -0.46    0.55
   1   3  18   15.53    1.82
   2   3  18    1.01    0.96
   3   3  18   45.02    3.12
   4   3  18    1.10    1.19
   5   3  18   -0.47    1.02
   6   3  18    0.41    1.17
   7   3  18    2.78    1.42
   8   3  18   -1.49    1.15
   9   3  18    2.87    1.65
  -4   4  18    8.98    1.64
  -3   4  18    3.11    1.11
  -2   4  18   -0.39    0.77
  -1   4  18    0.91    0.82
   0   4  18   -0.20    0.71
   1   4  18   -0.07    0.67
   4   4  18    8.26    1.74
   5   4  18    2.19    1.28
   6   4  18    0.73    1.19
   7   4  18    6.15    1.95
   0   5  18    1.47    1.07
   1   5  18    8.65    1.69
  -3  -4  19    0.01    0.88
  -2  -4  19   -0.33    0.82
  -1  -4  19   -0.49    0.71
   0  -4  19    0.42    0.87
   1  -4  19    0.17    0.86
   2  -4  19    1.11    0.90
   3  -4  19    0.70    1.00
   4  -4  19    5.75    1.46
   5  -4  19    8.60    1.72
  -9  -3  19    2.60    1.20
  -8  -3  19    8.32    1.73
  -7  -3  19   22.29    2.47
  -5  -3  19    4.05    1.24
  -4  -3  19   22.68    2.30
  -3  -3  19    6.02    1.19
  -2  -3  19    2.00    0.84
  -1  -3  19    2.65    0.89
   0  -3  19    7.28    1.32
   1  -3  19    2.19    0.95
   2  -3  19    2.15    0.97
   3  -3  19    8.94    1.46
   4  -3  19   20.92    2.28
   5  -3  19    1.58    0.98
   6  -3  19   30.94    2.98
   7  -3  19   21.28    2.54
   8  -3  19    8.19    1.87
  -9  -2  19    5.42    1.45
  -8  -2  19    0.05    0.90
  -7  -2  19    2.28    1.03
  -6  -2  19   22.31    2.28
  -5  -2  19    8.19    1.43
  -4  -2  19    8.07    1.36
  -3  -2  19    2.33    0.88
  -2  -2  19    0.84    0.50
  -1  -2  19   -0.18    0.39
   0  -2  19    0.02    0.43
   1  -2  19   -0.12    0.60
   2  -2  19    0.82    0.68
   3  -2  19    1.97    0.80
   4  -2  19    8.52    1.37
   5  -2  19    9.88    1.56
   6  -2  19   21.93    2.34
   7  -2  19    1.67    1.07
   8  -2  19   -0.83    0.86
   9  -2  19    8.84    1.80
  10  -2  19   21.77    2.79
 -11  -1  19    4.13    1.36
 -10  -1  19    0.88    1.08
  -9  -1  19    4.15    1.26
  -8  -1  19   14.01    1.92
  -7  -1  19   29.08    2.71
  -6  -1  19   40.76    2.77
  -5  -1  19    2.85    0.95
  -4  -1  19   27.57    2.23
  -3  -1  19    9.55    1.41
  -2  -1  19    3.15    0.93
  -1  -1  19    5.89    0.71
   0  -1  19   14.48    1.02
   1  -1  19    5.74    0.72
   2  -1  19    3.07    0.60
   3  -1  19    9.51    0.92
   4  -1  19   33.22    2.36
   5  -1  19    3.71    1.09
   6  -1  19   42.27    2.91
   7  -1  19   33.38    2.65
   8  -1  19   14.65    2.03
   9  -1  19    4.00    1.30
  10  -1  19   -0.15    0.96
  11  -1  19    4.35    1.49
 -11   0  19    1.11    1.03
 -10   0  19   30.16    2.86
  -9   0  19    5.36    1.30
  -8   0  19    0.09    0.75
  -7   0  19    1.97    0.97
  -6   0  19   31.89    2.35
  -5   0  19   16.68    1.84
  -4   0  19    6.57    1.30
  -3   0  19    0.63    0.71
  -2   0  19    1.52    0.73
  -1   0  19   -0.42    0.51
   0   0  19   -0.28    0.41
   1   0  19   -0.37    0.38
   2   0  19    0.52    0.46
   3   0  19    2.61    0.59
   4   0  19   10.41    0.95
   5   0  19   14.27    1.17
   6   0  19   28.13    1.55
   7   0  19    4.35    1.26
   8   0  19    0.28    0.89
   9   0  19    7.96    1.61
  10   0  19   31.38    3.05
  11   0  19   -0.25    1.04
 -11   1  19    4.47    0.90
 -10   1  19   -0.29    0.91
  -9   1  19    2.32    1.12
  -8   1  19   17.06    2.05
  -7   1  19   34.13    2.57
  -6   1  19   38.85    2.75
  -5   1  19    5.10    1.17
  -4   1  19   32.53    2.32
  -3   1  19    9.20    1.40
  -2   1  19    5.40    1.10
  -1   1  19    4.02    0.98
   0   1  19   12.72    1.55
   1   1  19    3.79    0.68
   2   1  19    3.50    0.66
   3   1  19   10.98    1.05
   4   1  19   33.18    2.50
   5   1  19    3.76    1.18
   6   1  19   48.38    3.14
   8   1  19   16.22    2.24
   9   1  19    4.92    1.55
  10   1  19    1.25    1.25
  11   1  19    6.85    1.72
 -11   2  19   -1.12    1.00
 -10   2  19   23.16    1.72
  -9   2  19    4.54    1.32
  -8   2  19    0.11    0.89
  -7   2  19    2.06    0.96
  -6   2  19   20.10    2.19
  -5   2  19   10.42    1.56
  -4   2  19   10.42    1.54
  -3   2  19   -0.72    0.59
  -2   2  19   -0.52    0.57
  -1   2  19    0.80    0.67
   0   2  19   -0.01    0.59
   1   2  19   -0.04    0.53
   2   2  19    1.00    0.53
   3   2  19    1.83    1.10
   4   2  19   11.63    1.87
   5   2  19    9.54    1.83
   6   2  19   25.02    2.81
   7   2  19    2.79    1.40
   8   2  19    1.58    1.26
   9   2  19    5.63    1.68
  10   2  19   20.92    2.81
  -8   3  19   12.69    1.83
  -7   3  19   26.09    2.55
  -6   3  19   32.60    2.83
  -5   3  19    2.39    1.06
  -4   3  19   19.67    2.19
  -3   3  19    7.42    1.35
  -2   3  19    1.06    0.84
  -1   3  19    3.71    1.07
   0   3  19    7.49    1.34
   1   3  19    1.85    0.86
   2   3  19    0.42    0.74
   3   3  19    7.31    1.64
   4   3  19   21.50    2.58
   5   3  19    1.01    1.40
   6   3  19   35.40    3.56
   7   3  19   23.89    3.05
   8   3  19   10.67    2.21
   9   3  19    4.77    1.76
  -4   4  19    5.94    1.40
  -3   4  19    1.03    0.92
  -2   4  19    0.71    0.83
  -1   4  19   -1.10    0.70
   0   4  19    1.48    0.91
   1   4  19    0.74    0.81
   2   4  19    0.66    0.84
   5   4  19    5.62    1.73
   6   4  19   11.86    2.30
  -3  -4  20    3.61    1.15
  -2  -4  20   20.17    2.17
  -1  -4  20    5.04    1.30
   0  -4  20    4.45    1.21
   1  -4  20    5.56    1.34
   2  -4  20   15.89    2.07
   3  -4  20    5.15    1.35
   4  -4  20   10.61    1.79
  -8  -3  20   10.72    1.84
  -7  -3  20    0.32    0.89
  -6  -3  20    0.73    0.99
  -5  -3  20    9.21    1.60
  -2  -3  20   35.06    2.39
  -1  -3  20    1.73    0.81
   0  -3  20    0.70    0.76
   1  -3  20    0.84    0.81
   2  -3  20   33.95    2.51
   3  -3  20    0.41    0.79
   4  -3  20    1.52    0.97
   5  -3  20    8.63    1.61
   6  -3  20    0.48    0.95
   7  -3  20    1.72    1.11
   8  -3  20   10.41    1.98
 -10  -2  20    4.79    1.46
  -9  -2  20    7.03    1.54
  -8  -2  20   26.72    2.76
  -7  -2  20    0.80    0.89
  -6  -2  20    0.33    0.80
  -5  -2  20    2.29    0.97
  -4  -2  20   24.29    2.25
  -3  -2  20   11.43    1.54
  -2  -2  20   29.44    2.22
  -1  -2  20   11.38    1.00
   0  -2  20   11.99    1.47
   1  -2  20    8.99    1.37
   2  -2  20   30.81    2.23
   3  -2  20    8.20    1.34
   4  -2  20   20.10    2.07
   5  -2  20    0.76    0.85
   6  -2  20    0.01    0.86
   7  -2  20    2.00    1.03
   8  -2  20   32.34    3.06
   9  -2  20    5.90    1.56
  10  -2  20    3.39    1.44
 -10  -1  20    3.06    1.18
  -9  -1  20    0.60    0.91
  -8  -1  20   16.70    2.14
  -7  -1  20    1.44    0.94
  -6  -1  20    3.76    1.09
  -5  -1  20   15.34    1.85
  -4  -1  20    3.89    1.09
  -3  -1  20    1.32    0.79
  -2  -1  20   50.68    2.92
  -1  -1  20    0.86    0.46
   0  -1  20    0.32    0.42
   1  -1  20    1.74    0.51
   2  -1  20   48.49    1.95
   3  -1  20    0.94    0.47
   4  -1  20    2.86    0.96
   5  -1  20   13.29    1.77
   6  -1  20    3.13    1.14
   7  -1  20    3.30    1.12
   8  -1  20   17.23    2.22
   9  -1  20    1.00    1.05
  10  -1  20    0.80    1.13
 -11   0  20    6.36    1.57
 -10   0  20    3.39    1.22
  -9   0  20    5.34    1.31
  -8   0  20   35.96    2.67
  -7   0  20    1.40    0.90
  -6   0  20   -0.47    0.71
  -5   0  20    2.54    0.97
  -4   0  20   23.74    2.31
  -3   0  20   10.91    1.55
  -2   0  20   35.45    2.40
  -1   0  20   11.76    1.53
   0   0  20   12.07    1.01
   1   0  20   13.72    1.08
   2   0  20   34.16    1.61
   3   0  20   12.54    1.08
   4   0  20   24.66    1.41
   5   0  20    3.74    0.68
   6   0  20    0.13    0.47
   7   0  20    0.08    0.84
   8   0  20   37.73    2.87
   9   0  20    6.99    1.61
  10   0  20    3.20    1.33
  11   0  20    8.40    1.79
 -11   1  20   14.08    1.38
 -10   1  20    0.50    0.97
  -9   1  20    1.32    0.96
  -8   1  20   16.27    2.09
  -7   1  20    2.08    0.97
  -6   1  20    3.13    1.04
  -5   1  20   12.79    1.72
  -4   1  20    2.28    0.94
  -3   1  20    0.52    0.69
  -2   1  20   48.70    2.97
  -1   1  20    1.17    0.72
   0   1  20   -0.52    0.53
   1   1  20    0.85    0.53
   2   1  20   49.38    2.83
   3   1  20    1.73    0.56
   4   1  20    3.56    0.73
   5   1  20   10.36    1.75
   6   1  20   -0.44    0.87
   7   1  20    3.57    1.30
   8   1  20   19.44    2.47
   9   1  20    1.13    1.16
  10   1  20    3.99    1.50
 -10   2  20    4.03    0.89
  -9   2  20    6.84    1.49
  -8   2  20   29.31    2.76
  -7   2  20    2.35    1.01
  -6   2  20   -0.03    0.81
  -5   2  20    3.40    1.07
  -4   2  20   15.45    1.93
  -3   2  20   12.36    1.67
  -2   2  20   29.92    2.24
  -1   2  20    8.17    1.38
   0   2  20    9.55    1.44
   1   2  20   10.92    1.47
   2   2  20   30.66    1.63
   3   2  20    8.11    1.01
   4   2  20   18.74    2.26
   5   2  20    2.46    1.31
   6   2  20   -1.29    1.03
   7   2  20    0.44    1.07
   8   2  20   28.11    3.12
   9   2  20    3.55    1.57
  10   2  20    4.32    1.60
  -8   3  20    9.70    1.75
  -7   3  20    0.96    0.95
  -6   3  20    1.06    0.95
  -5   3  20    8.90    1.58
  -4   3  20    1.82    1.00
  -3   3  20   -0.10    0.70
  -2   3  20   30.50    2.45
  -1   3  20    1.25    0.87
   0   3  20    0.17    0.69
   1   3  20    1.10    0.70
   2   3  20   31.08    2.40
   4   3  20    3.14    1.38
   5   3  20   10.50    2.10
   6   3  20    2.59    1.42
   7   3  20   -0.96    1.24
   8   3  20   14.85    2.45
  -4   4  20   13.79    1.89
  -3   4  20    3.75    1.24
  -2   4  20   19.61    2.27
  -1   4  20    4.62    1.27
   0   4  20    3.27    1.11
   1   4  20    5.74    1.34
   2   4  20   21.81    2.31
   5   4  20   -0.49    1.37
   6   4  20   -0.21    1.28
  -2  -4  21   -0.16    0.87
  -1  -4  21   12.07    1.81
   0  -4  21    0.09    0.85
   1  -4  21   15.57    2.06
   2  -4  21    0.36    0.87
   3  -4  21    9.06    1.68
  -8  -3  21    1.35    1.18
  -7  -3  21    1.00    1.15
  -6  -3  21   26.32    2.65
  -5  -3  21    1.88    1.09
  -2  -3  21    5.23    1.15
  -1  -3  21    4.27    1.06
   0  -3  21    1.37    0.91
   1  -3  21    3.03    1.07
   2  -3  21    8.34    1.47
   3  -3  21   -0.66    0.73
   4  -3  21    0.08    0.83
   5  -3  21    0.79    0.95
   6  -3  21   18.60    2.38
   7  -3  21    1.04    1.16
  -9  -2  21   14.71    2.12
  -8  -2  21    1.64    1.12
  -7  -2  21    0.83    0.88
  -6  -2  21    0.18    0.92
  -5  -2  21    0.58    0.85
  -4  -2  21   29.35    2.32
  -3  -2  21   13.91    1.76
  -2  -2  21    1.34    0.79
  -1  -2  21   25.37    1.44
   0  -2  21    0.44    0.71
   1  -2  21   25.58    2.00
   2  -2  21    0.24    0.78
   3  -2  21   13.12    1.69
   4  -2  21   32.03    2.41
   5  -2  21    2.00    0.94
   6  -2  21    0.14    0.84
   7  -2  21    0.24    0.97
   8  -2  21   -0.87    0.82
   9  -2  21   14.36    2.20
 -10  -1  21    1.96    1.22
  -9  -1  21    2.36    1.16
  -8  -1  21    2.68    1.15
  -7  -1  21    1.77    0.99
  -6  -1  21   32.52    2.50
  -5  -1  21    2.27    0.96
  -4  -1  21    1.60    0.91
  -3  -1  21   -0.88    0.68
  -2  -1  21    7.24    1.29
  -1  -1  21    3.37    1.01
   0  -1  21    3.99    0.67
   1  -1  21    3.54    0.67
   2  -1  21    9.31    0.93
   3  -1  21    0.19    0.45
   4  -1  21    1.96    0.89
   5  -1  21    1.72    0.95
   6  -1  21   30.50    2.79
   7  -1  21    0.27    0.97
   8  -1  21    4.97    1.38
   9  -1  21    0.49    1.13
  10  -1  21   -0.50    1.02
 -10   0  21   17.84    2.29
  -9   0  21   18.36    2.24
  -8   0  21    1.50    1.00
  -7   0  21    1.94    0.99
  -6   0  21    1.95    0.99
  -5   0  21    1.26    0.87
  -4   0  21   39.64    2.73
  -3   0  21   16.30    1.91
  -2   0  21    1.21    0.75
  -1   0  21   28.19    2.18
   0   0  21    0.13    0.67
   1   0  21   27.80    1.49
   2   0  21   -0.24    0.42
   3   0  21   18.21    1.30
   4   0  21   40.59    1.81
   5   0  21    0.90    0.53
   6   0  21    0.74    0.56
   7   0  21    0.55    0.92
   8   0  21    0.29    0.93
   9   0  21   15.20    2.13
  10   0  21   15.22    2.14
 -10   1  21    0.11    0.98
  -9   1  21    1.73    1.04
  -8   1  21    4.91    1.33
  -7   1  21    1.87    1.02
  -6   1  21   29.79    2.76
  -5   1  21    1.69    0.89
  -4   1  21    0.59    0.72
  -3   1  21   -0.30    0.65
  -2   1  21    7.97    1.38
  -1   1  21    4.02    1.08
   0   1  21    2.65    0.87
   1   1  21    3.02    0.93
   2   1  21    8.87    0.97
   3   1  21    0.62    0.53
   4   1  21    0.52    0.54
   5   1  21    1.03    0.59
   7   1  21    2.42    1.20
   8   1  21    3.45    1.46
   9   1  21    1.25    1.18
  10   1  21    1.33    1.25
 -10   2  21   15.02    2.10
  -9   2  21   13.93    2.09
  -8   2  21    1.52    1.10
  -7   2  21    1.12    0.95
  -6   2  21    0.47    0.84
  -5   2  21    0.96    0.86
  -4   2  21   30.79    2.73
  -3   2  21   13.75    1.81
  -2   2  21    0.09    0.61
  -1   2  21   22.17    2.23
   0   2  21    0.44    0.70
   1   2  21   22.42    2.19
   2   2  21    0.95    0.70
   3   2  21   16.10    1.33
   4   2  21   28.38    2.80
   5   2  21    0.18    1.03
   6   2  21    2.27    1.22
   7   2  21   -1.21    1.05
   8   2  21    2.10    1.25
   9   2  21   16.13    2.56
  -8   3  21    0.35    1.10
  -7   3  21    0.37    0.97
  -6   3  21   24.81    2.58
  -5   3  21    0.47    0.91
  -4   3  21    1.11    0.95
  -3   3  21   -0.63    0.80
  -2   3  21    3.02    1.09
  -1   3  21    4.91    1.21
   0   3  21    1.05    0.89
   1   3  21    2.34    0.93
   2   3  21    4.85    1.19
   3   3  21   -0.97    0.61
   4   3  21    0.41    1.21
   5   3  21    0.02    1.22
   6   3  21   24.57    2.98
   7   3  21   -0.65    1.30
   8   3  21    3.51    1.76
  -4   4  21   18.57    2.33
  -3   4  21    6.30    1.57
  -2   4  21    0.26    0.90
  -1   4  21   14.26    2.05
   0   4  21   -0.06    0.89
   1   4  21   11.95    1.84
   2   4  21   -0.16    0.84
   3   4  21    9.39    1.63
  -1  -4  22    3.87    1.24
   0  -4  22    1.96    1.09
   1  -4  22    1.45    1.10
   2  -4  22    3.11    1.18
  -7  -3  22    0.12    0.93
  -6  -3  22    1.60    1.12
  -1  -3  22    1.95    0.92
   0  -3  22    0.94    0.87
   1  -3  22    1.85    1.02
   2  -3  22    1.25    0.91
   3  -3  22    3.57    1.18
   4  -3  22    2.12    1.05
   5  -3  22    5.73    1.45
   6  -3  22    0.80    1.05
  -8  -2  22    0.41    0.98
  -7  -2  22   16.98    2.21
  -6  -2  22    0.52    0.88
  -5  -2  22    1.57    1.08
  -4  -2  22   13.79    1.81
  -3  -2  22   31.78    2.45
  -2  -2  22    5.07    1.16
   0  -2  22   10.06    1.45
   1  -2  22    9.24    1.41
   2  -2  22    4.25    1.11
   3  -2  22   30.01    2.34
   4  -2  22   11.24    1.60
   5  -2  22    1.25    1.00
   6  -2  22   -0.55    0.85
   7  -2  22   15.41    2.09
   8  -2  22    0.81    1.11
  -9  -1  22    6.87    1.61
  -8  -1  22    0.79    1.04
  -7  -1  22   -0.63    0.84
  -6  -1  22    2.09    1.03
  -5  -1  22    7.48    1.41
  -4  -1  22    5.70    1.28
  -3  -1  22    5.71    1.25
  -2  -1  22    0.42    0.75
  -1  -1  22    1.50    0.88
   0  -1  22   -0.52    0.55
   1  -1  22    2.77    0.62
   2  -1  22    0.72    0.49
   3  -1  22    4.07    1.08
   4  -1  22    5.28    1.18
   5  -1  22    8.63    1.47
   6  -1  22    3.18    1.18
   7  -1  22    0.69    0.90
   8  -1  22   -0.63    0.97
   9  -1  22    7.87    1.68
 -10   0  22    1.28    1.20
  -9   0  22    1.08    0.96
  -8   0  22    1.87    1.03
  -7   0  22   22.94    2.44
  -6   0  22    1.29    0.96
  -5   0  22    1.36    0.92
  -4   0  22   15.28    1.89
  -3   0  22   39.03    2.77
  -2   0  22    2.92    0.99
  -1   0  22   13.74    1.70
   0   0  22   10.09    1.49
   1   0  22   14.50    1.73
   2   0  22    4.08    0.72
   3   0  22   44.48    1.90
   4   0  22   13.04    1.17
   5   0  22    1.69    0.62
   6   0  22    1.24    1.00
   7   0  22   21.88    2.36
   8   0  22   -0.24    0.83
   9   0  22   -0.59    1.00
  10   0  22    1.10    1.20
 -10   1  22    3.55    1.28
  -9   1  22    5.80    1.43
  -8   1  22   -1.28    0.83
  -7   1  22   -0.70    0.78
  -6   1  22    1.55    0.96
  -5   1  22    7.84    1.48
  -4   1  22    6.46    1.35
  -3   1  22    4.45    1.14
  -2   1  22    0.25    0.71
  -1   1  22    1.77    0.87
   0   1  22    0.10    0.61
   1   1  22    1.08    0.75
   2   1  22    0.74    0.74
   3   1  22    5.63    0.84
   4   1  22    5.30    0.86
   5   1  22    9.40    1.08
   6   1  22    4.43    0.81
   7   1  22    0.13    1.04
   8   1  22    1.89    1.25
   9   1  22    4.63    1.58
  -9   2  22    0.61    1.12
  -8   2  22    0.67    1.10
  -7   2  22   16.43    2.13
  -6   2  22    1.34    0.98
  -5   2  22    2.57    1.06
  -4   2  22    9.73    1.64
  -3   2  22   33.42    2.52
  -2   2  22    5.17    1.23
  -1   2  22    4.32    1.12
   0   2  22    8.41    1.43
   1   2  22    8.99    1.45
   2   2  22    3.00    0.95
   3   2  22   28.67    2.30
   4   2  22   12.08    1.25
   5   2  22    3.56    1.34
   6   2  22    0.68    1.21
   7   2  22   20.09    2.59
   8   2  22    0.42    1.24
   9   2  22   -1.70    1.24
  -7   3  22   -1.11    0.97
  -6   3  22    1.91    1.19
  -5   3  22    7.30    1.52
  -4   3  22    1.90    1.04
  -3   3  22    3.45    1.18
  -2   3  22    0.45    0.86
  -1   3  22    2.46    1.06
   0   3  22    0.05    0.78
   1   3  22    1.74    0.89
   2   3  22    0.88    0.86
   3   3  22    3.14    1.05
   4   3  22    1.79    0.96
   5   3  22    6.07    1.80
   6   3  22    5.26    1.77
   7   3  22    0.87    1.39
  -4   4  22    8.08    1.71
  -3   4  22   27.42    2.82
  -2   4  22    0.07    1.02
  -1   4  22    3.95    1.26
   0   4  22    4.79    1.40
   1   4  22    2.99    1.16
   2   4  22    2.63    1.06
  -1  -4  23    4.06    1.28
   0  -4  23    0.81    1.03
  -7  -3  23    2.93    1.28
   0  -3  23    6.02    1.35
   1  -3  23   46.97    3.04
   2  -3  23    9.23    1.57
   3  -3  23   -0.73    0.85
   4  -3  23    3.90    1.35
   5  -3  23    1.20    1.03
  -8  -2  23   17.00    2.33
  -7  -2  23   -0.14    0.94
  -6  -2  23    8.18    1.64
  -5  -2  23   -0.78    0.90
  -4  -2  23    4.66    1.26
  -3  -2  23    1.06    0.89
  -2  -2  23    3.62    1.08
   0  -2  23    0.52    0.75
   1  -2  23    6.29    1.28
   2  -2  23    3.66    1.08
   3  -2  23    3.89    1.15
   4  -2  23    2.70    1.07
   5  -2  23    0.13    0.89
   6  -2  23    5.39    1.40
   7  -2  23    0.40    0.93
   8  -2  23   16.06    2.27
  -9  -1  23    3.99    1.42
  -8  -1  23    1.17    1.09
  -7  -1  23    5.11    1.40
  -6  -1  23    2.03    1.04
  -5  -1  23    0.68    0.88
  -4  -1  23    8.09    1.50
  -3  -1  23    0.68    0.83
  -2  -1  23   16.81    1.93
  -1  -1  23   70.35    3.84
   0  -1  23    9.68    1.44
   1  -1  23   68.72    2.58
   2  -1  23   15.45    1.22
   3  -1  23   -0.79    0.71
   4  -1  23   10.11    1.59
   5  -1  23   -0.19    0.75
   6  -1  23    1.14    0.96
   7  -1  23    3.55    1.27
   8  -1  23   -0.47    1.05
   9  -1  23    4.56    1.49
  -9   0  23   -0.78    0.92
  -8   0  23   18.44    2.27
  -7   0  23   -0.21    0.81
  -6   0  23   10.85    1.77
  -5   0  23    0.10    0.75
  -4   0  23    4.52    1.19
  -3   0  23    2.65    1.00
  -2   0  23    3.11    1.02
  -1   0  23    8.31    1.40
   0   0  23   -0.59    0.59
   1   0  23    9.28    1.43
   2   0  23    4.20    0.76
   3   0  23    3.61    0.73
   4   0  23    5.95    0.84
   5   0  23    0.48    0.54
   6   0  23    9.59    1.61
   7   0  23   -0.33    0.84
   8   0  23   20.73    2.39
   9   0  23   -0.46    0.91
  -9   1  23    4.13    1.35
  -8   1  23   -0.77    0.94
  -7   1  23    4.70    1.29
  -6   1  23    1.08    0.95
  -5   1  23   -0.20    0.79
  -4   1  23   11.61    1.72
  -3   1  23   -0.48    0.67
  -2   1  23   15.62    1.90
  -1   1  23   71.38    3.96
   0   1  23    6.08    1.26
   1   1  23   68.04    3.80
   2   1  23   13.62    1.76
   3   1  23    0.90    0.56
   4   1  23   11.23    1.16
   5   1  23    0.10    0.56
   6   1  23    0.29    0.62
   7   1  23    3.29    0.85
   8   1  23   -1.38    0.96
   9   1  23    7.85    1.73
  -8   2  23   19.74    2.37
  -7   2  23   -0.13    0.93
  -6   2  23    7.79    1.60
  -5   2  23    2.36    1.05
  -4   2  23    3.38    1.14
  -3   2  23    3.42    1.16
  -2   2  23    1.47    0.96
  -1   2  23    5.81    1.26
   0   2  23    1.18    0.82
   1   2  23    9.33    1.53
   2   2  23    3.59    1.05
   3   2  23    2.68    0.95
   4   2  23    5.20    0.92
   5   2  23   -0.35    0.58
   6   2  23    7.95    1.83
   7   2  23    1.08    1.40
   8   2  23   17.56    2.55
  -6   3  23    1.80    1.26
  -5   3  23    1.08    1.04
  -4   3  23    8.24    1.60
  -3   3  23    1.11    1.05
  -2   3  23   13.94    1.91
  -1   3  23   39.15    2.98
   0   3  23    7.61    1.49
   1   3  23   42.75    3.03
   2   3  23    8.05    1.47
   3   3  23    0.22    0.77
   4   3  23    4.63    1.21
   6   3  23    1.88    1.46
   0  -3  24   -0.68    0.82
   1  -3  24    4.13    1.25
   2  -3  24    4.30    1.19
   3  -3  24    1.43    1.02
   4  -3  24    0.61    1.02
  -7  -2  24    3.73    1.24
  -6  -2  24   -0.53    0.96
  -5  -2  24   -0.72    0.95
  -4  -2  24   17.31    2.08
   1  -2  24    6.46    1.34
   2  -2  24   14.69    1.80
   3  -2  24    6.59    1.38
   4  -2  24   11.51    1.78
   5  -2  24    0.67    0.89
   6  -2  24   -0.53    0.86
   7  -2  24   -0.03    0.91
  -8  -1  24    9.80    1.79
  -7  -1  24    0.80    0.99
  -6  -1  24   38.18    2.85
  -5  -1  24   37.71    2.82
  -4  -1  24    0.34    0.86
  -3  -1  24    0.30    0.82
  -2  -1  24    4.47    1.21
  -1  -1  24    4.27    1.15
   0  -1  24   -0.16    0.73
   1  -1  24    5.82    1.22
   2  -1  24    6.73    1.31
   3  -1  24    0.04    0.82
   4  -1  24    2.72    1.04
   5  -1  24   35.86    2.77
   6  -1  24   31.60    2.89
   7  -1  24    1.22    1.09
   8  -1  24    8.11    1.69
  -8   0  24    4.26    1.36
  -7   0  24    4.82    1.36
  -6   0  24   -0.04    0.90
  -5   0  24   -0.60    0.79
  -4   0  24   13.81    1.92
  -3   0  24    8.77    1.52
  -2   0  24   15.81    1.94
  -1   0  24    7.83    1.42
   0   0  24   22.83    2.25
   1   0  24    8.56    1.42
   2   0  24   14.58    1.81
   3   0  24   10.52    1.06
   4   0  24   19.32    1.46
   5   0  24   -0.45    0.53
   6   0  24   -1.11    0.78
   7   0  24    4.11    1.28
   8   0  24    3.88    1.28
  -8   1  24    8.97    1.77
  -7   1  24    0.78    0.98
  -6   1  24   29.09    2.82
  -5   1  24   36.34    2.82
  -4   1  24    0.58    0.92
  -3   1  24    0.04    0.77
  -2   1  24    3.16    1.07
  -1   1  24    4.56    1.16
   0   1  24   -0.90    0.63
   1   1  24    6.17    1.24
   2   1  24    5.52    1.19
   3   1  24    0.84    0.78
   4   1  24    0.94    0.58
   5   1  24   36.64    2.58
   6   1  24   37.23    2.53
   7   1  24    1.14    0.70
   8   1  24   10.06    1.96
  -7   2  24    1.69    1.08
  -6   2  24   -1.19    0.85
  -5   2  24    0.46    0.95
  -4   2  24   15.54    2.05
  -3   2  24   11.04    1.72
  -2   2  24    9.80    1.69
  -1   2  24    8.36    1.50
   0   2  24   14.95    1.93
   1   2  24    6.77    1.40
   2   2  24   11.96    1.71
   3   2  24   11.17    1.61
   4   2  24   14.64    1.89
   5   2  24   -0.38    0.59
   6   2  24   -0.43    0.65
   7   2  24    2.83    1.52
  -5   3  24   24.48    2.70
  -4   3  24   -0.25    0.94
  -3   3  24   -0.17    0.91
  -2   3  24    3.99    1.37
  -1   3  24    3.69    1.18
   0   3  24   -0.06    0.82
   1   3  24    4.28    1.27
   2   3  24    2.73    1.07
   3   3  24    1.17    0.88
   4   3  24   -0.38    0.78
   1  -3  25    6.38    1.41
   2  -3  25    0.13    0.89
   3  -3  25    4.79    1.35
  -6  -2  25    1.24    1.17
  -5  -2  25   -0.73    0.90
  -4  -2  25   13.83    1.93
  -3  -2  25    6.98    1.48
   2  -2  25    0.53    0.82
   3  -2  25    6.94    1.43
   4  -2  25    9.92    1.61
   5  -2  25    0.23    0.93
   6  -2  25   -0.01    0.98
  -7  -1  25    5.93    1.49
  -6  -1  25    6.20    1.45
  -5  -1  25   -0.06    0.87
  -4  -1  25    0.90    1.00
  -3  -1  25    4.81    1.30
  -2  -1  25    1.63    0.97
  -1  -1  25    3.44    1.16
   0  -1  25   45.69    2.92
   1  -1  25    6.75    1.38
   2  -1  25    0.09    0.82
   3  -1  25    3.27    1.14
   4  -1  25    0.53    0.91
   5  -1  25   -0.49    0.82
   6  -1  25    6.91    1.60
   7  -1  25    4.98    1.42
  -7   0  25    7.74    1.66
  -6   0  25    1.02    1.04
  -5   0  25   -0.51    0.80
  -4   0  25    8.87    1.63
  -3   0  25    8.83    1.58
  -2   0  25   -1.13    0.76
  -1   0  25    1.48    0.88
   0   0  25    0.92    0.87
   1   0  25    4.34    1.18
   2   0  25   -0.16    0.72
   3   0  25   10.04    1.10
   4   0  25   10.86    1.18
   5   0  25    1.17    1.05
   6   0  25    0.81    1.04
   7   0  25   10.16    1.80
   8   0  25    2.38    1.23
  -7   1  25    8.60    1.70
  -6   1  25    9.57    1.69
  -5   1  25   -1.03    0.78
  -4   1  25    0.60    0.92
  -3   1  25    4.09    1.18
  -2   1  25    2.71    1.05
  -1   1  25    6.54    1.35
   0   1  25   46.55    3.10
   1   1  25    4.52    1.16
   2   1  25    1.51    0.94
   3   1  25    3.14    1.07
   4   1  25    1.26    0.86
   5   1  25   -1.26    0.51
   6   1  25    7.78    1.07
   7   1  25    8.96    1.19
   8   1  25    0.18    1.14
  -6   2  25    0.27    1.00
  -5   2  25   -1.11    0.90
  -4   2  25   10.05    1.79
  -3   2  25    5.43    1.35
  -2   2  25   -0.23    0.81
  -1   2  25    3.80    1.18
   0   2  25    0.66    0.83
   1   2  25    3.37    1.09
   2   2  25    0.95    0.84
   3   2  25    9.26    1.57
   4   2  25   10.54    1.63
   5   2  25    0.77    0.82
   6   2  25    0.24    0.72
   7   2  25    9.30    2.02
  -3   3  25    2.38    1.16
  -2   3  25    0.68    1.02
  -1   3  25    7.85    1.56
   0   3  25   23.91    2.61
   1   3  25    3.88    1.23
   2   3  25    1.94    1.03
   2  -3  26    0.45    1.02
  -6  -2  26    6.63    1.60
  -5  -2  26    4.34    1.47
  -4  -2  26    0.21    0.99
   2  -2  26    3.59    1.17
   3  -2  26   11.56    1.79
   4  -2  26    0.72    0.98
   5  -2  26    2.16    1.09
  -6  -1  26   -1.11    0.87
  -5  -1  26    4.18    1.26
  -4  -1  26    2.34    1.08
  -3  -1  26    0.29    0.90
  -2  -1  26   -0.36    0.79
  -1  -1  26   -0.08    0.83
   0  -1  26    0.43    0.85
   3  -1  26    1.96    1.07
   4  -1  26    1.95    1.00
   5  -1  26    5.05    1.33
   6  -1  26   -0.80    0.95
   7  -1  26    0.12    1.08
  -7   0  26   -0.03    0.90
  -6   0  26    9.43    1.75
  -5   0  26    1.75    1.13
  -4   0  26    0.67    0.91
  -3   0  26   15.08    2.07
  -2   0  26    4.48    1.23
  -1   0  26    4.35    1.20
   0   0  26   18.55    2.12
   1   0  26    5.13    1.23
   2   0  26    1.75    0.97
   3   0  26   17.21    2.08
   4   0  26   -0.81    0.55
   5   0  26    3.77    1.29
   6   0  26    8.86    1.69
   7   0  26    0.44    1.08
  -6   1  26    0.51    0.94
  -5   1  26    2.55    1.20
  -4   1  26    2.30    1.19
  -3   1  26    2.60    1.06
  -2   1  26   -0.91    0.71
  -1   1  26   -0.51    0.76
   0   1  26   -0.33    0.78
   1   1  26    0.35    0.82
   2   1  26    0.42    0.82
   3   1  26    1.32    0.87
   4   1  26    1.78    0.98
   5   1  26    4.15    0.87
   6   1  26    0.01    0.68
   7   1  26    1.22    0.76
  -5   2  26    2.02    1.27
  -4   2  26    0.37    0.86
  -3   2  26   13.81    1.99
  -2   2  26    2.00    1.07
  -1   2  26    3.54    1.25
   0   2  26   13.12    1.86
   1   2  26    4.12    1.24
   2   2  26    2.56    1.08
   3   2  26   13.68    1.92
   4   2  26   -0.80    0.79
   5   2  26    1.36    0.99
  -5  -2  27   24.49    2.77
  -4  -2  27    0.50    1.03
   3  -2  27    0.34    0.96
   4  -2  27   -0.41    0.92
  -5  -1  27    8.72    1.72
  -4  -1  27    4.99    1.40
  -3  -1  27    2.62    1.17
  -2  -1  27   10.85    1.79
  -1  -1  27    1.25    1.00
   0  -1  27    4.28    1.26
   4  -1  27    6.98    1.43
   5  -1  27    8.94    1.64
   6  -1  27   -0.38    0.97
  -6   0  27   -0.52    1.02
  -5   0  27   31.93    3.06
  -4   0  27    2.03    1.10
  -3   0  27    0.14    0.97
  -2   0  27    5.79    1.36
  -1   0  27    0.29    0.87
   0   0  27   -0.21    0.81
   1   0  27    0.94    0.94
   2   0  27    5.04    1.33
   3   0  27   -0.93    0.77
   5   0  27   30.60    2.88
   6   0  27   -0.11    1.04
  -5   1  27    9.09    1.79
  -4   1  27    3.18    1.31
  -3   1  27    0.58    0.94
  -2   1  27   13.08    1.87
  -1   1  27    0.54    0.90
   0   1  27    4.38    1.27
   1   1  27    0.47    0.95
   2   1  27   10.69    1.73
   3   1  27    0.47    0.91
   4   1  27    7.66    1.47
   5   1  27   12.40    1.87
   6   1  27    0.38    0.73
  -3   2  27   -0.47    0.84
  -2   2  27    3.51    1.31
  -1   2  27    2.13    1.06
   0   2  27   -0.16    0.86
   1   2  27    1.29    1.00
   2   2  27    3.94    1.31
   3   2  27   -0.07    0.85
  -4  -1  28    3.09    1.37
  -3  -1  28   11.88    1.93
  -2  -1  28   -0.34    1.01
  -1  -1  28   10.44    1.78
   5  -1  28   -1.20    0.92
  -4   0  28    5.00    1.49
  -3   0  28   11.88    1.89
  -2   0  28   25.95    2.67
  -1   0  28    2.61    1.21
   0   0  28   -0.57    0.78
   1   0  28    1.20    0.99
   2   0  28   19.88    2.27
   3   0  28   12.02    1.72
  -3   1  28    8.78    1.74
  -2   1  28   -0.36    0.89
  -1   1  28    8.88    1.64
   0   1  28   -0.12    0.90
   1   1  28    7.16    1.51
   2   1  28    0.59    0.94
   3   1  28    9.40    1.69
   4   1  28    4.29    1.26
   5   1  28   -1.09    0.73
  -3  -1  29    9.55    1.86
  -2  -1  29    0.47    1.11
  -1  -1  29    0.84    0.99
  -3   0  29    2.09    1.13
  -2   0  29   -1.60    0.89
  -1   0  29    0.13    1.07
   0   0  29    1.73    1.10
   1   0  29    0.46    0.98
   2   0  29    0.18    0.95
  -1   1  29    0.33    0.95
   0   1  29   30.72    2.98
   1   1  29    0.89    0.96
   2   1  29   -0.09    1.04
   0   0  30    6.37    1.52
   1   0  30    2.66    1.18
   0   0   0    0.00    0.00
;
_shelx_hkl_checksum              33236
loop_
_space_group_symop_operation_xyz
'x, y, z'
'-x+1/2, -y, z+1/2'
'-x, y+1/2, -z'
'x+1/2, -y+1/2, -z+1/2'
'-x, -y, -z'
'x-1/2, y, -z-1/2'
'x, -y-1/2, z'
'-x-1/2, y-1/2, z-1/2'
loop_
_atom_site_label
_atom_site_type_symbol
_atom_site_fract_x
_atom_site_fract_y
_atom_site_fract_z
_atom_site_U_iso_or_equiv
_atom_site_adp_type
_atom_site_occupancy
_atom_site_site_symmetry_order
_atom_site_calc_flag
_atom_site_refinement_flags_posn
_atom_site_refinement_flags_adp
_atom_site_refinement_flags_occupancy
_atom_site_disorder_assembly
_atom_site_disorder_group
Rb Rb 0.21148(6) 0.2500 0.45983(3) 0.01619(13) Uani 1 2 d S T P . .
Sn1 Sn 0.31911(4) 0.2500 0.15156(2) 0.00965(9) Uani 1 2 d S T P . .
Sn2 Sn 0.39856(4) 0.2500 0.75851(2) 0.01032(9) Uani 1 2 d S T P . .
Sn3 Sn 0.52323(4) 0.2500 0.62419(2) 0.01153(9) Uani 1 2 d S T P . .
As1 As 0.02685(6) 0.2500 0.62355(3) 0.00948(12) Uani 1 2 d S T P . .
As2 As 0.11928(6) 0.2500 0.07152(3) 0.01081(13) Uani 1 2 d S T P . .
As3 As 0.26369(6) 0.2500 0.28165(3) 0.01039(13) Uani 1 2 d S T P . .
loop_
_atom_site_aniso_label
_atom_site_aniso_U_11
_atom_site_aniso_U_22
_atom_site_aniso_U_33
_atom_site_aniso_U_23
_atom_site_aniso_U_13
_atom_site_aniso_U_12
Rb 0.0169(3) 0.0160(3) 0.0157(3) 0.000 -0.0018(2) 0.000
Sn1 0.00882(19) 0.00936(17) 0.01076(18) 0.000 0.00078(14) 0.000
Sn2 0.01051(19) 0.00983(17) 0.01062(18) 0.000 -0.00097(14) 0.000
Sn3 0.00930(19) 0.01088(18) 0.01439(19) 0.000 0.00119(15) 0.000
As1 0.0087(3) 0.0095(3) 0.0103(3) 0.000 -0.0004(2) 0.000
As2 0.0114(3) 0.0099(3) 0.0111(3) 0.000 -0.0002(2) 0.000
As3 0.0103(3) 0.0102(3) 0.0107(3) 0.000 -0.0004(2) 0.000
loop_
_atom_type_symbol
_atom_type_description
_atom_type_scat_dispersion_real
_atom_type_scat_dispersion_imag
_atom_type_scat_source
As As 0.0499 2.0058 'International Tables Vol C Tables 4.2.6.8 and 6.1.1.4'
Rb Rb -0.9393 2.9676 'International Tables Vol C Tables 4.2.6.8 and 6.1.1.4'
Sn Sn -0.6537 1.4246 'International Tables Vol C Tables 4.2.6.8 and 6.1.1.4'
loop_
_geom_angle_atom_site_label_1
_geom_angle_atom_site_label_2
_geom_angle_atom_site_label_3
_geom_angle
_geom_angle_site_symmetry_1
_geom_angle_site_symmetry_3
As2 Rb As2 72.348(18) 2_565 2
As2 Rb As3 123.107(19) 2_565 .
As2 Rb As3 123.107(19) 2 .
As2 Rb As1 165.44(2) 2_565 5_556
As2 Rb As1 107.184(12) 2 5_556
As3 Rb As1 69.854(17) . 5_556
As2 Rb As1 107.184(12) 2_565 5_566
As2 Rb As1 165.44(2) 2 5_566
As3 Rb As1 69.854(17) . 5_566
As1 Rb As1 69.450(17) 5_556 5_566
As2 Rb As1 73.479(18) 2_565 .
As2 Rb As1 73.479(18) 2 .
As3 Rb As1 158.04(2) . .
As1 Rb As1 92.316(19) 5_556 .
As1 Rb As1 92.316(19) 5_566 .
As2 Rb Sn3 65.871(16) 2_565 5_666
As2 Rb Sn3 103.18(2) 2 5_666
As3 Rb Sn3 57.405(14) . 5_666
As1 Rb Sn3 127.21(2) 5_556 5_666
As1 Rb Sn3 89.438(15) 5_566 5_666
As1 Rb Sn3 137.869(14) . 5_666
As2 Rb Sn3 103.18(2) 2_565 5_656
As2 Rb Sn3 65.871(16) 2 5_656
As3 Rb Sn3 57.405(14) . 5_656
As1 Rb Sn3 89.438(15) 5_556 5_656
As1 Rb Sn3 127.21(2) 5_566 5_656
As1 Rb Sn3 137.869(14) . 5_656
Sn3 Rb Sn3 65.283(14) 5_666 5_656
As2 Rb Rb 126.174(9) 2_565 1_545
As2 Rb Rb 53.827(9) 2 1_545
As3 Rb Rb 90.0 . 1_545
As1 Rb Rb 55.274(8) 5_556 1_545
As1 Rb Rb 124.725(8) 5_566 1_545
As1 Rb Rb 90.0 . 1_545
Sn3 Rb Rb 122.642(7) 5_666 1_545
Sn3 Rb Rb 57.359(7) 5_656 1_545
As2 Rb Rb 53.827(9) 2_565 1_565
As2 Rb Rb 126.174(9) 2 1_565
As3 Rb Rb 90.0 . 1_565
As1 Rb Rb 124.725(8) 5_556 1_565
As1 Rb Rb 55.274(8) 5_566 1_565
As1 Rb Rb 90.0 . 1_565
Sn3 Rb Rb 57.359(7) 5_666 1_565
Sn3 Rb Rb 122.642(7) 5_656 1_565
Rb Rb Rb 180.0 1_545 1_565
As2 Rb Sn1 37.174(13) 2_565 2_565
As2 Rb Sn1 76.513(16) 2 2_565
As3 Rb Sn1 151.230(7) . 2_565
As1 Rb Sn1 128.27(2) 5_556 2_565
As1 Rb Sn1 94.325(14) 5_566 2_565
As1 Rb Sn1 37.796(10) . 2_565
Sn3 Rb Sn1 100.093(12) 5_666 2_565
Sn3 Rb Sn1 133.651(19) 5_656 2_565
Rb Rb Sn1 118.517(6) 1_545 2_565
Rb Rb Sn1 61.483(6) 1_565 2_565
As2 Rb Sn1 76.513(16) 2_565 2
As2 Rb Sn1 37.174(13) 2 2
As3 Rb Sn1 151.230(7) . 2
As1 Rb Sn1 94.325(14) 5_556 2
As1 Rb Sn1 128.27(2) 5_566 2
As1 Rb Sn1 37.796(10) . 2
Sn3 Rb Sn1 133.651(19) 5_666 2
Sn3 Rb Sn1 100.093(12) 5_656 2
Rb Rb Sn1 61.483(6) 1_545 2
Rb Rb Sn1 118.517(6) 1_565 2
Sn1 Rb Sn1 57.034(12) 2_565 2
As2 Sn1 As3 114.55(3) . .
As2 Sn1 As1 110.666(19) . 2_564
As3 Sn1 As1 109.482(18) . 2_564
As2 Sn1 As1 110.666(19) . 2_554
As3 Sn1 As1 109.482(18) . 2_554
As1 Sn1 As1 101.16(2) 2_564 2_554
As2 Sn1 Rb 53.969(16) . 2_554
As3 Sn1 Rb 146.945(12) . 2_554
As1 Sn1 Rb 103.404(18) 2_564 2_554
As1 Sn1 Rb 59.615(16) 2_554 2_554
As2 Sn1 Rb 53.969(16) . 2_564
As3 Sn1 Rb 146.945(12) . 2_564
As1 Sn1 Rb 59.615(16) 2_564 2_564
As1 Sn1 Rb 103.404(18) 2_554 2_564
Rb Sn1 Rb 57.034(12) 2_554 2_564
As1 Sn2 As3 99.449(19) 6_657 2
As1 Sn2 As3 99.449(19) 6_657 2_565
As3 Sn2 As3 99.40(3) 2 2_565
As1 Sn2 Sn3 124.08(2) 6_657 .
As3 Sn2 Sn3 115.224(16) 2 .
As3 Sn2 Sn3 115.224(16) 2_565 .
As2 Sn3 As2 97.44(2) 2 2_565
As2 Sn3 Sn2 95.886(18) 2 .
As2 Sn3 Sn2 95.886(18) 2_565 .
As2 Sn3 Rb 129.14(2) 2 5_666
As2 Sn3 Rb 79.662(17) 2_565 5_666
Sn2 Sn3 Rb 134.971(14) . 5_666
As2 Sn3 Rb 79.662(17) 2 5_656
As2 Sn3 Rb 129.14(2) 2_565 5_656
Sn2 Sn3 Rb 134.971(14) . 5_656
Rb Sn3 Rb 65.282(14) 5_666 5_656
Sn1 As1 Sn1 101.16(2) 2_565 2
Sn1 As1 Sn2 96.845(19) 2_565 6_557
Sn1 As1 Sn2 96.84(2) 2 6_557
Sn1 As1 Rb 160.95(2) 2_565 5_556
Sn1 As1 Rb 93.736(12) 2 5_556
Sn2 As1 Rb 93.06(2) 6_557 5_556
Sn1 As1 Rb 93.736(13) 2_565 5_566
Sn1 As1 Rb 160.95(2) 2 5_566
Sn2 As1 Rb 93.06(2) 6_557 5_566
Rb As1 Rb 69.451(17) 5_556 5_566
Sn1 As1 Rb 82.590(18) 2_565 .
Sn1 As1 Rb 82.590(18) 2 .
Sn2 As1 Rb 179.10(3) 6_557 .
Rb As1 Rb 87.685(19) 5_556 .
Rb As1 Rb 87.685(19) 5_566 .
Sn1 As2 Sn3 101.61(2) . 2_554
Sn1 As2 Sn3 101.61(2) . 2_564
Sn3 As2 Sn3 97.44(2) 2_554 2_564
Sn1 As2 Rb 88.86(2) . 2_554
Sn3 As2 Rb 93.870(12) 2_554 2_554
Sn3 As2 Rb 162.67(2) 2_564 2_554
Sn1 As2 Rb 88.86(2) . 2_564
Sn3 As2 Rb 162.67(2) 2_554 2_564
Sn3 As2 Rb 93.870(12) 2_564 2_564
Rb As2 Rb 72.347(18) 2_554 2_564
Sn1 As3 Sn2 88.400(19) . 2_554
Sn1 As3 Sn2 88.400(19) . 2_564
Sn2 As3 Sn2 99.41(3) 2_554 2_564
Sn1 As3 Rb 176.12(3) . .
Sn2 As3 Rb 94.102(19) 2_554 .
Sn2 As3 Rb 94.102(18) 2_564 .
loop_
_geom_bond_atom_site_label_1
_geom_bond_atom_site_label_2
_geom_bond_distance
_geom_bond_site_symmetry_2
Rb As2 3.4661(7) 2_565
Rb As2 3.4661(7) 2
Rb As3 3.5284(10) .
Rb As1 3.5915(7) 5_556
Rb As1 3.5915(7) 5_566
Rb As1 3.7277(10) .
Rb Sn3 3.7930(7) 5_666
Rb Sn3 3.7930(7) 5_656
Rb Rb 4.0917(4) 1_545
Rb Rb 4.0917(4) 1_565
Rb Sn1 4.2852(8) 2_565
Rb Sn1 4.2852(8) 2
Sn1 As2 2.5898(8) .
Sn1 As3 2.6094(8) .
Sn1 As1 2.6483(5) 2_564
Sn1 As1 2.6483(5) 2_554
Sn1 Rb 4.2853(7) 2_554
Sn1 Rb 4.2853(8) 2_564
Sn2 As1 2.6609(7) 6_657
Sn2 As3 2.6824(5) 2
Sn2 As3 2.6824(5) 2_565
Sn2 Sn3 2.9266(6) .
Sn3 As2 2.7224(5) 2
Sn3 As2 2.7224(5) 2_565
Sn3 Rb 3.7930(7) 5_666
Sn3 Rb 3.7930(7) 5_656
As1 Sn1 2.6483(5) 2_565
As1 Sn1 2.6483(5) 2
As1 Sn2 2.6610(7) 6_557
As1 Rb 3.5914(7) 5_556
As1 Rb 3.5914(7) 5_566
As2 Sn3 2.7224(5) 2_554
As2 Sn3 2.7224(5) 2_564
As2 Rb 3.4662(7) 2_554
As2 Rb 3.4662(7) 2_564
As3 Sn2 2.6824(5) 2_554
As3 Sn2 2.6824(5) 2_564
