#------------------------------------------------------------------------------
#$Date: 2021-03-17 10:47:03 +0200 (Wed, 17 Mar 2021) $
#$Revision: 263079 $
#$URL: file:///home/coder/svn-repositories/cod/cif/1/56/10/1561056.cif $
#------------------------------------------------------------------------------
#
# This file is available in the Crystallography Open Database (COD),
# http://www.crystallography.net/
#
# All data on this site have been placed in the public domain by the
# contributors.
#
data_1561056
loop_
_publ_author_name
'Wang, Jingrui'
'Li, Peng'
'Cai, Ting'
'Yang, Dan-Dan'
'Xiong, Wei-Wei'
_publ_section_title
;
 Four two-dimensional ternary selenides based on group 13 and 14 metals:
 Syntheses, crystal structures, and electrochemical properties
;
_journal_name_full               'Journal of Solid State Chemistry'
_journal_page_first              88
_journal_page_last               93
_journal_paper_doi               10.1016/j.jssc.2018.04.018
_journal_volume                  263
_journal_year                    2018
_chemical_formula_moiety         'Ga2 Ge2 H8 N2 Se8'
_chemical_formula_sum            'Ga2 Ge2 H8 N2 Se8'
_chemical_formula_weight         952.48
_space_group_crystal_system      monoclinic
_space_group_IT_number           14
_space_group_name_Hall           '-P 2ybc'
_space_group_name_H-M_alt        'P 1 21/c 1'
_atom_sites_solution_hydrogens   none
_atom_sites_solution_primary     direct
_atom_sites_solution_secondary   difmap
_cell_angle_alpha                90
_cell_angle_beta                 92.40(3)
_cell_angle_gamma                90
_cell_formula_units_Z            4
_cell_length_a                   7.462(3)
_cell_length_b                   12.302(3)
_cell_length_c                   17.633(5)
_cell_measurement_reflns_used    470
_cell_measurement_temperature    293(2)
_cell_measurement_theta_max      27.4220
_cell_measurement_theta_min      3.6240
_cell_volume                     1617.2(9)
_computing_cell_refinement       'CrysAlisPro 1.171.38.46 (Rigaku OD, 2015)'
_computing_data_collection       'CrysAlisPro 1.171.38.46 (Rigaku OD, 2015)'
_computing_data_reduction        'CrysAlisPro 1.171.38.46 (Rigaku OD, 2015)'
_computing_molecular_graphics    'DIAMOND. Version 3.0. Crystal Impact'
_computing_publication_material  'Bruker SHELXTL'
_computing_structure_refinement  'SHELXL-2016/6 (Sheldrick, 2016)'
_computing_structure_solution    'SHELXL-2016/6 (Sheldrick, 2016)'
_diffrn_ambient_temperature      293(2)
_diffrn_measured_fraction_theta_full 0.995
_diffrn_measured_fraction_theta_max 0.995
_diffrn_measurement_device_type  'Xcalibur, Eos, Gemini'
_diffrn_measurement_method       '\w scans'
_diffrn_radiation_type           MoK\a
_diffrn_radiation_wavelength     0.71073
_diffrn_reflns_av_R_equivalents  0.1282
_diffrn_reflns_av_unetI/netI     0.2372
_diffrn_reflns_Laue_measured_fraction_full 0.995
_diffrn_reflns_Laue_measured_fraction_max 0.995
_diffrn_reflns_limit_h_max       9
_diffrn_reflns_limit_h_min       -9
_diffrn_reflns_limit_k_max       15
_diffrn_reflns_limit_k_min       -14
_diffrn_reflns_limit_l_max       21
_diffrn_reflns_limit_l_min       -21
_diffrn_reflns_number            6343
_diffrn_reflns_point_group_measured_fraction_full 0.995
_diffrn_reflns_point_group_measured_fraction_max 0.995
_diffrn_reflns_theta_full        25.242
_diffrn_reflns_theta_max         25.992
_diffrn_reflns_theta_min         2.844
_exptl_absorpt_coefficient_mu    24.951
_exptl_absorpt_correction_T_max  1.00000
_exptl_absorpt_correction_T_min  0.06645
_exptl_absorpt_correction_type   multi-scan
_exptl_crystal_colour            red
_exptl_crystal_density_diffrn    3.878
_exptl_crystal_density_method    'not measured'
_exptl_crystal_description       rod
_exptl_crystal_F_000             1648
_exptl_crystal_size_max          0.16
_exptl_crystal_size_mid          0.10
_exptl_crystal_size_min          0.08
_refine_diff_density_max         2.181
_refine_diff_density_min         -1.896
_refine_diff_density_rms         0.456
_refine_ls_extinction_coef       .
_refine_ls_extinction_method     'SHELXL-2016/6 (Sheldrick 2016)'
_refine_ls_goodness_of_fit_ref   1.014
_refine_ls_hydrogen_treatment    none
_refine_ls_matrix_type           full
_refine_ls_number_parameters     127
_refine_ls_number_reflns         3156
_refine_ls_number_restraints     12
_refine_ls_restrained_S_all      1.012
_refine_ls_R_factor_all          0.2485
_refine_ls_R_factor_gt           0.1126
_refine_ls_shift/su_max          0.004
_refine_ls_shift/su_mean         0.001
_refine_ls_structure_factor_coef Fsqd
_refine_ls_weighting_details
'w=1/[\s^2^(Fo^2^)+(0.1000P)^2^] where P=(Fo^2^+2Fc^2^)/3'
_refine_ls_weighting_scheme      calc
_refine_ls_wR_factor_gt          0.2438
_refine_ls_wR_factor_ref         0.3240
_reflns_Friedel_coverage         0.000
_reflns_Friedel_fraction_full    .
_reflns_Friedel_fraction_max     .
_reflns_number_gt                1269
_reflns_number_total             3156
_reflns_threshold_expression     'I > 2\s(I)'
_cod_data_source_file            JSSC-2018-263-88.cif
_cod_data_source_block           compound-4
_cod_depositor_comments
;
The following automatic conversions were performed:

data item '_exptl_absorpt_correction_type' value 'Multi-scan' was
changed to 'multi-scan' in accordance with the built-in table derived
from the CIF Core dictionary named 'cif_core.dic' version 2.4.5 last
updated on 2014-11-21.

Automatic conversion script
Id: cif_fix_values 8369 2020-08-20 11:38:08Z andrius 
;
_cod_original_sg_symbol_H-M      'P 21/c'
_cod_database_code               1561056
_shelx_space_group_comment
; 
The symmetry employed for this shelxl refinement is uniquely defined 
by the following loop, which should always be used as a source of 
symmetry information in preference to the above space-group names. 
They are only intended as comments. 
;
_shelx_res_file
; 
TITL x in P-1                         New: P21/c 
    x.res 
    created by SHELXL-2016/6 at 16:47:09 on 15-Jan-2018 
CELL  0.71073    7.4620   12.3020   17.6330    90.000    92.400    90.000 
ZERR        4    0.0030    0.0030    0.0050     0.000     0.030     0.000 
LATT   1 
SYMM             - X ,    0.50000 + Y ,    0.50000 - Z 
SFAC Ga Ge H N Se 
UNIT 8 8 0 8 32 
  
omit -2 52 
  
EADP Ga1 Ge1 
EXYZ Ga1 Ge1 
EADP Ga2 Ge2 
EXYZ Ga2 Ge2 
EADP Ga3 Ge3 
EXYZ Ga3 Ge3 
EADP Ga4 Ge4 
EXYZ Ga4 Ge4 
  
ISOR 0.005 N1 N2 
  
L.S. 5 
FMAP 2 
PLAN -20 
ACTA 
BOND $H 
CONF 
WGHT    0.100000 
FVAR       0.07297 
RESI 0 
GA1   1    0.007035    0.254262    0.343500    10.50000    0.03374    0.02744 = 
         0.02338   -0.00232   -0.00107    0.00245 
GE1   2    0.007035    0.254262    0.343500    10.50000    0.03374    0.02744 = 
         0.02338   -0.00232   -0.00107    0.00245 
GA2   1    0.252888    0.200977    0.175819    10.50000    0.03647    0.02033 = 
         0.02355    0.00023    0.00365   -0.00243 
GE2   2    0.252888    0.200977    0.175819    10.50000    0.03647    0.02033 = 
         0.02355    0.00023    0.00365   -0.00243 
GA3   1   -0.490620    0.253545    0.348636    10.50000    0.02496    0.01924 = 
         0.03094    0.00453    0.00323    0.00327 
GE3   2   -0.490620    0.253545    0.348636    10.50000    0.02496    0.01924 = 
         0.03094    0.00453    0.00323    0.00327 
GA4   1    0.261391    0.186535    0.515777    10.50000    0.04352    0.01532 = 
         0.02281    0.00272    0.00432    0.00640 
GE4   2    0.261391    0.186535    0.515777    10.50000    0.04352    0.01532 = 
         0.02281    0.00272    0.00432    0.00640 
SE1   5   -0.016538    0.150101    0.229853    11.00000    0.03486    0.05427 = 
         0.04610   -0.02206    0.01171   -0.01495 
SE2   5   -0.241753    0.376079    0.349124    11.00000    0.03185    0.01635 = 
         0.03853    0.00119    0.00342    0.00508 
SE3   5    0.259400    0.373485    0.343665    11.00000    0.03353    0.01758 = 
         0.03017   -0.00235    0.00354   -0.00323 
SE4   5   -0.467664    0.140816    0.459846    11.00000    0.04652    0.03765 = 
         0.04597    0.02160    0.01243    0.00486 
SE5   5    0.004716    0.127744    0.446472    11.00000    0.04467    0.03456 = 
         0.04737    0.02037   -0.00959   -0.01149 
SE6   5    0.248381    0.126128    0.050847    11.00000    0.07252    0.01894 = 
         0.02107   -0.00302    0.00595   -0.00671 
SE7   5    0.267362    0.387709    0.140056    11.00000    0.07529    0.01643 = 
         0.02719   -0.00406    0.00027    0.00163 
SE8   5    0.508901    0.132259    0.242432    11.00000    0.03594    0.03621 = 
         0.04775   -0.01981   -0.00488    0.00247 
N1    4    0.753498    0.116513    0.048303    11.00000    0.03868    0.03913 = 
         0.04246    0.00046   -0.00528   -0.00864 
N2    4    0.768819    0.431968    0.157761    11.00000    0.03484    0.02319 = 
         0.03016    0.01133    0.00030   -0.00506 
HKLF 4 1 -1.0000  0.0000  0.0000  0.0000 -1.0000  0.0000  0.0000  0.0000  1.0000 
  
  
  
  
REM  x in P-1                         New: P21/c 
REM R1 =  0.1126 for    1269 Fo > 4sig(Fo)  and  0.2485 for all    3156 data 
REM    127 parameters refined using     12 restraints 
  
END 
  
WGHT      0.0578      0.0000 
  
REM Highest difference peak  2.181,  deepest hole -1.896,  1-sigma level  0.456 
Q1    1   0.1488  0.3883  0.1485  11.00000  0.05    2.18 
Q2    1   0.2725  0.3724  0.1904  11.00000  0.05    2.03 
Q3    1   0.5225  0.1355  0.2883  11.00000  0.05    1.96 
Q4    1  -0.6247  0.1255  0.4552  11.00000  0.05    1.89 
Q5    1  -0.1385  0.1317  0.4575  11.00000  0.05    1.86 
Q6    1   0.3685  0.2607  0.3473  11.00000  0.05    1.84 
Q7    1  -0.3681  0.3778  0.3483  11.00000  0.05    1.83 
Q8    1  -0.0090  0.1266  0.4002  11.00000  0.05    1.72 
Q9    1   0.2759  0.1836  0.2286  11.00000  0.05    1.71 
Q10   1   0.3684  0.1149  0.0479  11.00000  0.05    1.69 
Q11   1   0.2542  0.1654  0.4704  11.00000  0.05    1.64 
Q12   1  -0.4688  0.2670  0.3977  11.00000  0.05    1.64 
Q13   1   0.2725  0.3657  0.4069  11.00000  0.05    1.61 
Q14   1   0.0955  0.1153  0.0549  11.00000  0.05    1.57 
Q15   1   0.2617  0.3349  0.1060  11.00000  0.05    1.55 
Q16   1   0.1192  0.3728  0.3530  11.00000  0.05    1.53 
Q17   1   0.2352  0.1815  0.1191  11.00000  0.05    1.52 
Q18   1   0.4010  0.1174  0.2513  11.00000  0.05    1.50 
Q19   1  -0.0336  0.1940  0.4810  11.00000  0.05    1.49 
Q20   1   0.4904  0.4187  0.1815  11.00000  0.05    1.48 
;
_shelx_res_checksum              62837
_shelx_hkl_file
; 
   0   0   3    0.90    1.62 
   0   0   3    1.14    0.97 
   0   0   4   15.83    3.48 
   0   0   4   15.03    3.83 
   0   0   5    1.36    2.59 
   0   0   5    1.71    1.89 
   0   0   6  695.15   34.93 
   0   0  -6  664.07   33.65 
   0   0   6  712.51   27.46 
   0   0  -7   -1.90    1.84 
   0   0   7   -0.30    1.23 
   0   0   7    0.40    1.01 
   0   0  -8    0.99    1.84 
   0   0   8    3.99    4.40 
   0   0   8    2.00    0.94 
   0   0  -9    0.17    2.77 
   0   0   9    2.66    2.70 
   0   0   9    0.55    2.44 
   0   0  10 2189.16   62.17 
   0   0  10 2218.01   83.91 
   0   0  11    0.32    2.22 
   0   0  11    3.32    3.87 
   0   0 -12   57.58   18.21 
   0   0  12   44.27   13.79 
   0   0  12   48.32   10.44 
   0   0  13    0.30    3.09 
   0   0  13    5.62    9.22 
   0   0 -13    9.64   10.11 
   0   0  14   17.04    6.69 
   0   0  14   11.70    9.91 
   0   0 -14    2.45    1.10 
   0   0  15    4.53    5.21 
   0   0  15    5.63    8.32 
   0   0 -15    0.98    3.52 
   0   0 -16  106.67   29.08 
   0   0  16   98.23   16.69 
   0   0  16  120.39   26.67 
   0   0 -17    3.82    6.05 
   0   0 -18   10.01   12.49 
   0   0 -19    3.80    4.97 
   0   0 -20   86.88   31.69 
   0   0 -21   -0.66   10.87 
   0   0 -22    4.66    9.29 
   0  -1   2  177.77   11.16 
   0  -1   3  283.70   20.31 
   0  -1   3  244.33   14.57 
   0   1   3  245.94   14.69 
   0  -1   4    2.21    2.36 
   0  -1   4    6.87    4.51 
   0  -1  -4    7.25    3.11 
   0  -1   4    6.58    3.29 
   0  -1   5   25.96    6.68 
   0   1   5   26.95    6.82 
   0  -1   5   22.92    5.71 
   0  -1   5   19.53    6.32 
   0  -1  -5   17.97    4.93 
   0  -1   6  227.61   18.37 
   0  -1  -6  247.71   21.20 
   0   1   6  201.75   19.56 
   0  -1   6  231.51   25.03 
   0   1   6  217.21   11.44 
   0  -1   6  214.97   20.13 
   0   1   7    8.20    2.38 
   0  -1   7    6.42    3.01 
   0   1   7   14.17    6.15 
   0  -1   7   11.09    5.68 
   0   1   8  400.68   19.25 
   0  -1   8  418.44   32.23 
   0   1   8  417.56   31.79 
   0  -1   8  397.20   26.27 
   0  -1  -8  388.65   30.42 
   0   1   9    9.22    3.55 
   0  -1   9    5.80    3.26 
   0   1   9   14.84    7.73 
   0  -1   9   15.32    9.09 
   0  -1  10   78.04   12.68 
   0   1  10  114.59   21.45 
   0  -1  10  102.03   18.49 
   0   1  10   88.04   11.15 
   0   1  11    0.45    0.67 
   0   1  11    6.15    5.14 
   0  -1  11   -0.67    4.02 
   0  -1  11    6.28    4.59 
   0   1 -12  136.84   26.15 
   0  -1  12  126.89   22.29 
   0  -1  12  144.18   18.61 
   0   1  12  140.65   14.93 
   0  -1 -12  143.53   27.38 
   0   1 -13   64.92   18.67 
   0  -1 -13   81.37   22.45 
   0  -1  13   76.49   18.24 
   0  -1  13   61.76   12.74 
   0   1  13   87.02   12.31 
   0  -1 -14   10.39    9.31 
   0   1  14    7.81    4.02 
   0  -1  14    9.07    7.30 
   0   1 -14   12.00    9.03 
   0  -1  14   18.28    8.09 
   0  -1  15   39.22   11.03 
   0   1  15   36.47    9.39 
   0  -1 -15   46.45   19.02 
   0  -1  15   59.87   18.97 
   0   1 -15   38.07   17.86 
   0  -1  16    8.52    9.78 
   0  -1  16   12.93    6.64 
   0  -1 -16   12.31    8.26 
   0   1 -16    9.66    8.36 
   0   1 -17   19.11   15.49 
   0  -1  17   18.74    9.58 
   0  -1  17    1.98    6.19 
   0  -1 -17   12.74    7.07 
   0   1 -18  270.99   48.64 
   0  -1  18  340.64   47.87 
   0  -1 -18  314.01   53.33 
   0   1 -19   19.60   15.81 
   0  -1  19   21.77   12.55 
   0  -1 -19   13.26    8.48 
   0  -1 -20   23.85   17.76 
   0   1 -20   18.96   14.29 
   0  -1 -21   -6.39    6.51 
   0  -1 -22   16.32   14.72 
   0  -2   1   38.81    5.88 
   0  -2   2   25.73    5.36 
   0   2   3   44.29    8.22 
   0  -2   3   38.31    7.05 
   0  -2  -4    5.33    3.75 
   0   2   4    7.43    4.21 
   0  -2   4    6.54    4.52 
   0  -2   4    9.27    4.13 
   0  -2   5 3382.80   75.46 
   0   2   5 3418.66   76.10 
   0  -2  -5 3398.17   81.76 
   0  -2   5 3388.28   95.24 
   0  -2   6  379.70   26.69 
   0  -2   6  421.32   35.73 
   0  -2  -6  383.60   29.05 
   0  -2   7    5.83    4.60 
   0  -2   7    2.49    1.51 
   0  -2   7    2.77    4.53 
   0  -2  -7    9.93    5.68 
   0  -2   8    2.02    4.34 
   0  -2  -8    4.95    5.80 
   0  -2   8    3.43    3.56 
   0  -2  -9   52.79   13.36 
   0  -2   9   41.58    9.52 
   0  -2   9   26.12   10.22 
   0   2  10   55.33    6.07 
   0  -2 -10   62.13   15.93 
   0  -2  10   61.81   12.09 
   0  -2  10   65.01   16.07 
   0   2  11    0.31    0.90 
   0  -2  11   -2.17    1.86 
   0  -2  11    4.93    6.03 
   0  -2 -11    5.72    6.89 
   0   2 -12   62.98   19.13 
   0  -2  12   72.27   14.50 
   0   2  12   54.70    7.06 
   0  -2  12   81.81   19.33 
   0  -2 -13   -4.39    3.46 
   0  -2  13    4.98    4.97 
   0   2  13    5.18    2.70 
   0  -2  13    6.32    7.23 
   0  -2  14    5.00    4.92 
   0   2 -14   10.66    6.25 
   0  -2 -14   -8.82   10.02 
   0  -2  14    3.76    4.50 
   0   2  14    3.59    2.46 
   0  -2  15  624.87   57.21 
   0  -2  15  566.05   44.14 
   0  -2 -15  610.98   65.27 
   0  -2 -16   62.76   21.64 
   0  -2  16   49.98   16.44 
   0  -2  16   62.43   15.58 
   0  -2 -17   39.82   19.53 
   0  -2  17   41.92   16.83 
   0  -2  17   48.58   14.21 
   0  -2  18   11.24    7.28 
   0  -2  18   11.61    9.83 
   0  -2 -18    0.96    8.33 
   0  -2  19   14.59    9.38 
   0  -2 -19   23.65   17.20 
   0  -2  20    3.00   12.70 
   0  -2 -20   -1.09    3.26 
   0  -2  21   42.15   19.88 
   0  -2 -21   28.19   19.60 
   0  -2 -22   14.34   21.10 
   0  -3   0    0.96    2.73 
   0  -3  -1   21.60    4.77 
   0  -3   1   20.10    5.38 
   0  -3  -2   57.28    7.47 
   0  -3   2   55.83    9.27 
   0  -3   3  993.74   40.96 
   0  -3  -3  943.37   26.64 
   0  -3  -4   37.04    5.06 
   0   3   4   32.09    9.54 
   0  -3   4   41.90    8.97 
   0   3   5   13.68    5.40 
   0  -3   5   21.69    7.70 
   0  -3   6   78.80   16.67 
   0  -3  -6  104.67   17.10 
   0  -3   6   94.28   14.72 
   0   3   6   85.75   15.22 
   0   3   7   20.88    7.56 
   0  -3  -7   25.07    9.51 
   0  -3   7   27.32    8.78 
   0  -3  -8    6.21    6.26 
   0  -3   8    1.77    3.97 
   0  -3   8    1.44    2.09 
   0  -3   9   18.44    7.39 
   0  -3  -9   33.12   11.19 
   0  -3   9   30.81    9.03 
   0  -3  10   23.91    9.82 
   0  -3 -10   33.39   11.36 
   0  -3  10   19.13    5.66 
   0  -3 -11   -0.54    2.70 
   0  -3  11    4.36    2.70 
   0  -3  11    5.70    6.02 
   0  -3  12  136.84   23.84 
   0  -3  12  135.80   20.93 
   0  -3  13  109.05   19.30 
   0  -3  13  129.11   24.26 
   0  -3  14    3.17    6.62 
   0  -3  14   13.26   10.94 
   0  -3  15   84.01   20.39 
   0  -3  15   47.18   14.04 
   0  -3 -15   43.18   16.73 
   0  -3  16   10.18    9.59 
   0  -3  16    9.54    7.30 
   0  -3 -16   -4.64   10.57 
   0  -3 -17   24.11   16.35 
   0  -3  17   22.38   11.43 
   0  -3  17   31.96   13.61 
   0  -3  18    6.78    7.77 
   0  -3 -18    5.15    9.31 
   0  -3  18   15.03    8.69 
   0  -3 -19    4.98    3.22 
   0  -3  19    9.14    9.86 
   0  -3  20   15.99   12.39 
   0  -3 -20   22.54   16.60 
   0  -3 -21   -1.27    4.98 
   0  -3  21   11.21   10.85 
   0  -3 -22   -0.34   15.23 
   0  -3  22   21.88   15.85 
   0  -4   0 2212.67   59.38 
   0  -4  -1  197.98   17.10 
   0  -4   1  279.77   23.29 
   0  -4   2   43.21    9.70 
   0  -4  -2   42.12    7.49 
   0  -4  -3   35.70    6.64 
   0  -4   3   28.52    8.30 
   0  -4   4  164.41   19.87 
   0  -4  -4  160.24   12.90 
   0   4   5   10.78    7.35 
   0  -4  -5    6.52    2.41 
   0  -4   5   19.81    6.94 
   0  -4  -6  143.75   10.33 
   0   4   6  129.86   19.51 
   0  -4  -6  134.66    9.63 
   0   4   7    7.35    6.24 
   0  -4   7    6.98    6.17 
   0   4   8    3.03    2.43 
   0  -4   8    8.59    5.25 
   0  -4   9    5.12    4.78 
   0  -4  -9    3.94    4.22 
   0  -4  10  606.33   45.91 
   0  -4 -10  613.26   50.94 
   0  -4  10  592.11   48.53 
   0  -4  11   20.11    7.93 
   0  -4 -11   26.01   12.55 
   0  -4  11   28.30   10.12 
   0  -4  12   83.26   18.76 
   0  -4  12   89.23   17.15 
   0  -4  13    5.80    4.84 
   0  -4  13   -2.58    5.47 
   0  -4  14   -5.63    5.03 
   0  -4  14    2.29    4.29 
   0  -4  15   36.44   16.07 
   0  -4  15   35.04   11.38 
   0  -4  16   19.12   11.78 
   0  -4  16    1.00    2.01 
   0  -4  17   27.11   13.30 
   0  -4 -17   39.39   21.19 
   0  -4  17   11.48    8.49 
   0  -4  18   -8.90    7.69 
   0  -4 -18    1.02    2.44 
   0  -4  18   -0.70    4.91 
   0  -4  19   16.07   10.21 
   0  -4 -19   -6.95    7.34 
   0  -4  19   21.93   15.81 
   0  -4 -20   35.44   19.71 
   0  -4  20   27.63   15.77 
   0  -4 -21   55.37   28.56 
   0  -4  21   29.12   17.84 
   0  -4  22   25.78   13.55 
   0  -5   0    6.46    5.46 
   0  -5  -1   19.47    7.46 
   0  -5   1   18.87    7.12 
   0  -5  -2   35.42    8.65 
   0  -5   2   24.28    7.03 
   0  -5  -3  154.75   15.70 
   0  -5   3  139.58   19.11 
   0  -5  -4   97.17   11.87 
   0  -5   4  113.79   18.12 
   0  -5   5    9.57    6.54 
   0  -5  -5   18.09    4.90 
   0  -5  -6    0.80    1.01 
   0   5   6    3.41    6.58 
   0  -5   6    0.62    2.05 
   0   5   7   16.16    9.25 
   0  -5  -7   16.92    3.82 
   0  -5  -7   19.52    4.66 
   0   5   8   25.79   11.92 
   0  -5   8   20.67    8.17 
   0  -5   9   20.76    9.68 
   0   5   9   17.70    9.23 
   0  -5  10   22.57   10.32 
   0  -5  11   -2.07    8.28 
   0  -5  11    5.99    5.75 
   0  -5  12   65.61   16.36 
   0  -5  12   53.81   14.42 
   0  -5  13   14.35    9.02 
   0  -5  13    8.48    6.75 
   0  -5  14   47.22   14.68 
   0  -5  14   76.45   20.50 
   0  -5  15    0.20    5.44 
   0  -5  15   18.67   12.94 
   0  -5  16    9.51   10.16 
   0  -5  16   -6.24    6.13 
   0  -5  17   10.59    6.75 
   0  -5  17   12.98   11.92 
   0  -5  18   20.30   15.38 
   0  -5  18   11.09    8.27 
   0  -5  19    4.28    2.04 
   0  -5  19    9.23    9.79 
   0  -5 -19   15.79    9.66 
   0  -5 -20  -12.43    9.80 
   0  -5  20    7.11   13.21 
   0  -5 -21    7.10    2.86 
   0  -5  21   -5.69    7.85 
   0  -6   0    4.16    3.31 
   0  -6   1   14.81    6.61 
   0  -6  -1   32.12    9.35 
   0  -6   2   40.05   10.64 
   0  -6  -2   43.18    9.57 
   0  -6  -3   17.53    8.03 
   0  -6   3    6.58    5.95 
   0  -6   4  543.68   43.03 
   0  -6  -4  596.46   33.70 
   0  -6   5 2235.98   90.05 
   0  -6  -5 2300.40   63.28 
   0   6   6  128.26   26.90 
   0  -6  -6   83.89   11.32 
   0  -6   6   94.28   19.99 
   0   6   7    0.55    4.36 
   0  -6  -7    1.59    1.82 
   0  -6   7    3.13    4.27 
   0  -6   8   -3.62    6.89 
   0   6   8   -1.08    6.81 
   0  -6  -8    1.17    1.47 
   0  -6  -8    0.72    1.45 
   0   6   9   16.31   11.40 
   0  -6   9   36.80   13.06 
   0  -6  10   97.76   21.23 
   0   6  10   85.10   22.74 
   0  -6  11   16.18    7.95 
   0  -6  12   18.69    9.54 
   0  -6  13    6.28    3.10 
   0  -6  13   13.20    8.47 
   0  -6  14   49.59   17.18 
   0  -6  14   57.31   17.66 
   0  -6  15  147.37   29.40 
   0  -6  15  155.83   32.02 
   0  -6  16   -0.35    2.95 
   0  -6  16   14.36   12.73 
   0  -6  17   -0.50    1.00 
   0  -6  17    7.22   12.86 
   0  -6  18   22.92   15.61 
   0  -6  18   10.92    9.47 
   0  -6  19    1.95    6.54 
   0  -6  19    8.44    9.29 
   0  -6 -20   27.04   18.77 
   0  -6  20   25.63   13.62 
   0  -6  20   36.70   18.24 
   0  -7   0    4.07    5.32 
   0  -7  -1   55.88   15.65 
   0  -7   1    8.98    4.90 
   0  -7  -2  322.10   29.02 
   0  -7   2  285.89   31.16 
   0  -7   3   35.81   13.33 
   0  -7  -3   28.64    8.83 
   0  -7   4  180.72   26.37 
   0  -7  -4  166.33   19.52 
   0  -7   5   12.55    8.57 
   0  -7  -5   10.70    5.22 
   0  -7   6    1.93    4.99 
   0   7   6    7.73   11.21 
   0  -7  -6    1.28    3.08 
   0  -7   7   14.63   11.19 
   0  -7  -7    1.54    2.78 
   0   7   7    7.39   11.05 
   0  -7  -8  222.26   18.47 
   0  -7   8  222.75   32.81 
   0   7   8  180.75   40.05 
   0  -7  -9   36.91    6.50 
   0  -7  -9   26.19    6.82 
   0   7   9   32.86   16.89 
   0  -7   9   60.41   16.34 
   0  -7  10   19.92   10.09 
   0   7  10   27.65   17.95 
   0  -7  11   27.08   12.87 
   0   7  11   15.43    9.58 
   0  -7  12   18.83   12.77 
   0  -7  13  128.91   28.03 
   0  -7  14  199.13   40.21 
   0  -7  14  186.98   33.10 
   0  -7  15   -2.13    5.09 
   0  -7  15    8.24    7.20 
   0  -7  16    0.92    5.66 
   0  -7  16   -0.61    0.51 
   0  -7  17    2.12    5.60 
   0  -7  17   -3.43    6.30 
   0  -7  18   12.65   11.17 
   0  -7  18    1.18    5.78 
   0  -7  19    8.50    8.10 
   0  -7  19   16.55   17.07 
   0  -7  20   45.83   18.48 
   0  -8   0 1370.50   68.53 
   0  -8   1  208.54   33.13 
   0  -8  -1   65.22   14.68 
   0  -8  -2   30.30   10.42 
   0  -8   2   42.51   13.40 
   0  -8  -3    7.91    5.32 
   0  -8   3    0.01    2.16 
   0  -8  -4  162.65   20.89 
   0  -8   4  166.98   26.47 
   0  -8  -5   16.84    6.25 
   0  -8   5   13.30    5.01 
   0  -8   6    2.93    4.15 
   0  -8  -6   -0.30    3.15 
   0   8   7   10.32   15.10 
   0  -8  -7   11.70    6.16 
   0  -8   7    1.61    1.93 
   0  -8   8    3.07    1.48 
   0  -8  -8    0.80    3.63 
   0  -8   9  108.55   24.34 
   0  -8  -9  107.94   13.17 
   0   8   9  142.96   41.53 
   0   8  10 1281.27  121.36 
   0  -8  10 1324.61   89.81 
   0   8  11   18.56   14.51 
   0  -8  11    9.37    9.77 
   0   8  12   13.65   16.60 
   0  -8  12   -0.74    6.51 
   0  -8  13    9.61    8.24 
   0  -8  14   11.79    7.97 
   0  -8  14   33.70   11.62 
   0  -8  15   -1.22   12.28 
   0  -8  15   11.91    7.18 
   0  -8  16   40.76   20.05 
   0  -8  16   30.39   19.97 
   0  -8  17    3.54    5.46 
   0  -8  17    0.72    2.85 
   0  -8  18   14.63   12.93 
   0  -8  18    7.18   10.51 
   0  -8  19    3.59   10.03 
   0  -8  20  175.68   40.29 
   0  -9   0    4.79    4.05 
   0  -9   1   39.22   12.33 
   0  -9  -1   57.24   15.21 
   0  -9  -2  390.59   36.93 
   0  -9   2  426.27   43.62 
   0  -9   3    5.18    6.97 
   0  -9  -3    0.89    4.02 
   0  -9  -4   47.51   12.40 
   0  -9   4   62.99   18.37 
   0  -9   5   25.98   10.77 
   0  -9  -5   22.28    8.29 
   0  -9   6   13.07   10.37 
   0  -9  -6    6.24    4.34 
   0  -9   7   63.28   18.86 
   0   9   7   88.39   33.34 
   0  -9  -7   59.28   13.62 
   0  -9  -8  590.79   38.99 
   0   9   8  545.12   79.03 
   0  -9   8  600.94   61.50 
   0   9   9   51.08   23.72 
   0  -9  -9   75.81   12.78 
   0  -9   9   74.26   21.59 
   0  -9  10   36.07   16.73 
   0   9  10    6.78   20.86 
   0  -9  11   33.57   17.86 
   0   9  11   37.37   31.31 
   0   9  12    3.99    8.74 
   0  -9  12    5.86    9.97 
   0  -9  13    3.40    2.04 
   0   9  13   12.34   23.22 
   0  -9  14   81.31   24.56 
   0  -9  15   29.60   17.22 
   0  -9  15   22.31    9.34 
   0  -9  16    4.32    1.77 
   0  -9  16   19.17   15.18 
   0  -9  17    2.98    5.03 
   0  -9  17    8.80   14.48 
   0  -9  18   37.15   17.59 
   0  -9  19   14.50   10.79 
   0 -10   0   27.11   10.28 
   0 -10   1   21.31    9.90 
   0 -10  -1   20.98    9.39 
   0 -10   2   12.20    7.51 
   0 -10  -2   15.10    8.06 
   0 -10  -3    6.47    7.95 
   0 -10   3    7.25    8.91 
   0 -10  -4    5.89    5.91 
   0 -10   4   21.46   13.84 
   0 -10  -5  795.99   53.17 
   0 -10   5  818.23   68.85 
   0 -10  -6   18.84    9.44 
   0 -10   6    5.91    6.19 
   0 -10  -7   12.71    8.32 
   0 -10   7   17.28   11.56 
   0  10   7   33.50   23.72 
   0 -10  -8   11.67    7.74 
   0  10   8   31.29   30.94 
   0 -10   8   15.45   13.33 
   0  10   9   -3.63    9.90 
   0 -10   9    3.04    9.49 
   0 -10  10   88.05   24.88 
   0  10  10   60.47   38.93 
   0 -10  11   18.05   13.44 
   0  10  11   44.19   43.41 
   0  10  12   25.14   31.81 
   0 -10  12   16.15   10.95 
   0 -10  13   16.40   16.92 
   0 -10  14   17.57   12.36 
   0 -10  15  187.59   41.61 
   0 -10  16   69.27   24.80 
   0 -10  16   61.20   25.65 
   0 -10  17   28.84   19.02 
   0 -11   0    3.53    4.57 
   0 -11  -1   36.86   13.26 
   0 -11   1   31.07   11.77 
   0 -11  -2   59.90   14.71 
   0 -11   2   70.18   19.10 
   0 -11  -3   34.65   11.21 
   0 -11   3   33.65   11.06 
   0 -11   4    7.70    8.39 
   0 -11  -4   -1.93    1.09 
   0 -11  -5   13.95    9.50 
   0 -11   5   19.78   15.39 
   0 -11  -6    5.15    5.00 
   0 -11   6    5.65   11.67 
   0 -11  -7   62.11   16.06 
   0  11   7  106.39   36.58 
   0 -11   7   57.93   18.94 
   0  11   8  139.45   49.38 
   0 -11   8  125.49   29.74 
   0 -11   9    6.62    8.01 
   0  11   9   22.90   30.91 
   0 -11  10    2.23    6.42 
   0  11  10   -9.25   29.65 
   0 -11  11   -2.61   11.13 
   0  11  11  -45.63   74.44 
   0 -11  12  -12.26   12.13 
   0 -11  13  102.26   33.01 
   0 -11  14    5.08    4.33 
   0 -11  15   15.96   14.56 
   0 -11  16    2.60    7.59 
   0 -12   0  236.09   34.95 
   0 -12  -1    7.39    7.26 
   0 -12   1    2.94    3.95 
   0 -12   2   39.89   19.46 
   0 -12  -2    2.83    3.46 
   0 -12   3   -1.96    6.02 
   0 -12  -3    1.86    5.93 
   0 -12  -4    5.61    5.83 
   0 -12   4   -1.33    7.38 
   0 -12   5   38.69   16.15 
   0 -12  -5   62.47   18.03 
   0 -12  -6   -3.14    4.38 
   0 -12   6  -13.85    8.81 
   0 -12   7    3.08    4.04 
   0  12   7   39.57   28.66 
   0 -12   8   20.94   15.41 
   0  12   8   43.55   32.19 
   0 -12   9   85.74   25.65 
   0  12   9   50.82   44.86 
   0 -12  10  145.95   36.61 
   0 -12  11   45.90   21.42 
   0 -12  12   13.99   15.96 
   0 -12  13    8.48   10.47 
   0 -13   0   -8.90    3.79 
   0 -13  -1    9.33    8.41 
   0 -13   1   -3.99    3.38 
   0 -13   2    8.71    7.06 
   0 -13  -2    2.55    5.84 
   0 -13   3   11.10    8.87 
   0 -13  -3   -1.43    1.13 
   0 -13  -4   21.63   12.44 
   0 -13   4   -2.60    8.18 
   0 -13  -5    6.24    8.74 
   0 -13   5    1.96    9.11 
   0 -13   6   -3.72    5.69 
   0  13   7   96.23   38.70 
   0 -13   7   29.33   17.05 
   0 -13   8   11.50   11.45 
   0  13   8   42.51   41.33 
   0 -13   9   73.08   26.85 
   0 -13  10    8.99   16.14 
   0 -13  11   21.34   16.32 
   0 -14   0   24.17   14.92 
   0 -14  -1   -1.12    3.72 
   0 -14   1    6.56   10.14 
   0 -14   2    1.08    6.88 
   0 -14  -2   12.99   10.90 
   0 -14  -3   11.83    8.65 
   0 -14   3   -2.74    7.19 
   0 -14   4   33.33   15.75 
   0 -14  -4   57.08   19.08 
   0 -14   5   94.13   27.63 
   0 -14   6   36.51   17.01 
   0  14   7   64.09   38.61 
   0 -14   7    3.30    5.93 
   0 -14   8   17.69   16.36 
   0 -15   0   10.96   11.54 
   0 -15  -1   11.70   10.50 
   0 -15   1    4.71   10.02 
   0 -15   2   22.01   14.09 
   0 -15  -2   15.13    8.75 
   0 -15  -3   30.86   15.29 
   0 -15   3   32.99   15.03 
   0 -15   4   40.82   20.26 
   0 -15   5   23.18   17.75 
   0 -16   0  206.34   40.02 
   0 -16   1   36.19   16.38 
   0 -16  -1   35.53   16.73 
   0 -16   2    4.57    8.73 
  -1   0 -22   22.77   16.09 
  -1   0 -21    0.12    0.45 
  -1   0 -20   41.54   19.75 
  -1   0 -19    5.02   11.38 
  -1   0 -18  136.80   35.85 
  -1   0 -17    8.25   10.86 
   1   0  16    8.97    6.91 
  -1   0 -16    4.25    8.45 
  -1   0 -15   -4.53    5.43 
   1   0  15   -0.86    0.86 
  -1   0 -14   20.86   13.38 
   1   0  14   20.65    8.46 
   1   0  13    3.89    4.37 
  -1   0 -13   -3.96    6.42 
   1   0  12   -0.24    2.33 
  -1   0 -12   -0.07    1.84 
  -1   0 -11    4.14    3.30 
   1   0  11    6.00    4.58 
  -1   0 -10   58.02   11.25 
   1   0  10   48.71   10.34 
  -1   0 -10   43.04   11.14 
  -1   0  -9    3.24    4.45 
   1   0   9    3.98    3.14 
  -1   0  -9    2.38    4.07 
   1   0   8  111.52   14.92 
  -1   0  -8  129.14   15.35 
  -1   0  -8  159.17   18.05 
  -1   0  -7    0.52    2.24 
   1   0   7    0.43    1.35 
  -1   0  -7    1.18    1.43 
  -1   0  -6   16.54    4.64 
   1   0   6   12.53    4.62 
  -1   0  -6   18.30    5.10 
  -1   0  -5    0.54    1.36 
  -1   0  -5   -0.09    1.48 
   1   0   5    3.98    3.58 
  -1   0  -4    0.91    1.53 
  -1   0  -4    2.70    1.77 
   1   0   4    0.78    0.86 
   1   0   3    2.10    1.02 
   1   0   2  359.85   20.95 
  -1   0  -1    2.71    2.30 
   1   0  -1    1.91    2.19 
  -1   0   1   -4.27    3.44 
  -1   0   2  389.78   20.86 
   1   0  -2  457.78   22.99 
  -1   0   2  451.94   19.31 
  -1   0   3   -0.20    1.06 
  -1   0   3    2.13    1.98 
  -1   0   3    2.05    1.89 
   1   0  -4   18.13    5.30 
  -1   0   4   11.50    5.23 
  -1   0   4   21.74    5.82 
  -1   0   5    0.62    3.51 
   1   0  -5   -1.82    1.67 
   1   0  -6   58.71   11.25 
  -1   0   6   52.31   10.88 
  -1   0   7    0.04    4.05 
   1   0  -7    0.23    1.53 
   1   0  -8  525.60   40.03 
  -1   0   8  469.47   37.59 
   1   0  -9    1.42    1.75 
  -1   0   9    3.87    3.82 
  -1   0  10    3.20    5.68 
   1   0 -10    6.86    6.13 
  -1   0  11    0.04    3.84 
  -1   0  11    1.13    2.56 
   1   0 -11    0.57    4.34 
   1   0 -12    6.06    5.25 
  -1   0  12    8.96    7.71 
  -1   0  12    1.68    2.98 
   1   0 -13    0.31    3.34 
  -1   0  13   -0.11    2.00 
  -1   0  13    3.39    6.88 
  -1   0  14   50.10   10.04 
  -1   0  14   32.07   14.17 
   1   0 -14   51.93   16.81 
  -1   0  15    2.62    6.58 
   1   0 -15    3.64    5.27 
  -1   0  15   -4.66    3.28 
  -1   0  16    8.88    8.16 
  -1   0  16   -0.80    1.97 
   1   0 -16   11.79   10.42 
  -1   0  17   20.45   13.36 
   1   0 -17    4.17    3.76 
  -1   0  18   28.21   15.67 
   1   0 -18   42.20   19.88 
   1   0 -19   20.78   17.18 
  -1   0  19   24.96   15.51 
   1   0 -20    5.99   10.19 
   1   0 -21    7.45   12.89 
  -1  -1 -22    7.46   11.81 
  -1   1 -22   11.03    8.66 
  -1  -1 -21   19.60   15.89 
  -1   1 -21    2.72    6.57 
  -1   1 -20   10.77   16.48 
  -1  -1 -20   16.92   15.62 
  -1  -1 -19   12.86   13.54 
  -1   1 -19    1.83    4.88 
  -1  -1 -18   12.72   13.23 
  -1   1 -18   19.16   14.39 
  -1  -1 -17   32.28   16.81 
  -1   1 -17   46.43   20.50 
   1  -1  17   39.16   13.55 
   1   1  16    7.53    5.75 
   1  -1  16   -2.55    3.51 
  -1   1 -16    6.76   10.92 
  -1  -1 -16    8.38   13.14 
   1  -1  15   87.12   18.27 
  -1   1 -15   77.70   23.77 
  -1  -1 -15   81.05   26.18 
   1   1  15   78.34   15.12 
  -1  -1 -14    3.92    2.96 
   1  -1  14   13.81    6.70 
   1  -1  14   10.68    8.58 
  -1   1 -14   13.90    7.93 
   1   1  14    7.39    4.62 
   1  -1  13    6.25    8.32 
  -1   1 -13    5.47    7.18 
   1  -1  13    2.73    2.43 
  -1  -1 -13   10.18    7.05 
   1   1  13    4.75    3.86 
   1  -1  12   14.90    7.20 
  -1   1 -12    5.30    6.74 
   1   1  12   14.08    5.83 
   1  -1  12    9.19    7.07 
  -1  -1 -12    6.66    8.28 
   1  -1  11   35.50   10.55 
  -1  -1 -11   23.29    6.29 
   1   1  11   19.26    5.95 
   1  -1  11   19.58    9.08 
  -1  -1 -10   92.43   12.36 
  -1   1 -10  101.37   15.66 
   1   1  10  101.07   13.24 
   1  -1  10  107.05   16.12 
   1  -1  10   53.12   12.72 
  -1   1 -10   62.11   12.70 
  -1  -1  -9    3.80    2.89 
   1  -1   9   12.22    6.14 
   1   1   9    5.29    3.55 
  -1   1  -9   15.59    6.13 
  -1  -1  -9   18.54    7.21 
  -1   1  -9   24.59    8.00 
   1  -1   9   24.42    7.61 
  -1  -1  -8    6.28    4.09 
  -1   1  -8    4.23    3.88 
  -1   1  -8    2.97    2.56 
   1  -1   8    9.10    5.14 
   1   1   8    3.54    2.54 
   1  -1   8    2.91    3.42 
  -1  -1  -8    1.66    1.83 
  -1   1  -7   25.80    7.22 
   1   1   7   17.91    5.07 
  -1  -1  -7   23.60    7.12 
   1  -1   7   23.19    6.56 
  -1   1  -7   20.36    5.55 
   1  -1   7   27.25    7.40 
  -1  -1  -7   22.57    5.50 
  -1  -1  -6  152.10   16.04 
  -1   1  -6  133.78   15.81 
  -1  -1  -6  131.11   12.40 
   1   1   6  115.62   13.27 
   1  -1   6  133.07   15.71 
   1  -1   6  157.81   13.98 
  -1   1  -6  143.05   13.52 
   1  -1   5   57.06    9.55 
  -1  -1  -5   67.93    8.64 
   1   1   5   84.54   11.47 
  -1   1  -5   51.47    6.93 
   1  -1   5   40.76    6.48 
  -1   1  -5   69.08   10.48 
  -1  -1  -4    3.49    2.03 
   1  -1   4    5.71    3.10 
   1  -1   4    4.31    2.01 
   1  -1   4    2.12    0.41 
  -1  -1  -3    3.19    3.68 
   1  -1   3    2.40    2.55 
   1  -1   3    1.85    2.78 
   1   1   2   19.85    4.69 
   1  -1   2   28.51    5.74 
   1  -1   2   22.72    4.81 
   1  -1   1    0.28    0.81 
   1  -1   1    1.23    1.36 
   1   1   1    1.99    1.37 
  -1   1   0  721.62   17.75 
   1  -1   0  692.87   27.54 
  -1   1   1    1.44    1.33 
  -1   1   1    9.52    4.19 
   1  -1  -1    5.85    3.13 
  -1   1   2   29.29    5.47 
  -1   1   2   22.18    6.59 
  -1   1   3    2.01    2.35 
  -1   1   3    2.08    2.92 
   1  -1  -3    1.74    1.96 
   1  -1  -4    3.62    2.17 
  -1  -1   4    2.40    3.47 
  -1   1   4    6.64    2.04 
  -1   1   4    0.23    1.88 
  -1  -1   5   11.27    6.20 
  -1  -1   5   11.40    4.69 
  -1   1   5   13.85    5.68 
  -1   1   5    4.00    2.51 
   1  -1  -6  227.39   26.27 
  -1   1   6  253.13   15.94 
  -1  -1   6  217.54   23.25 
  -1   1   6  228.21   22.60 
  -1  -1   6  246.43   26.73 
   1  -1  -7    4.81    3.80 
  -1  -1   7    7.47    5.92 
  -1   1   7    5.01    2.99 
   1   1  -7   17.09    8.15 
  -1  -1   7    8.72    4.28 
   1  -1  -7   20.98    8.07 
  -1   1   7    6.68    3.01 
  -1  -1   8   14.89    7.10 
   1   1  -8   11.38    4.27 
  -1   1   8   15.93    4.07 
   1  -1  -8   20.11    8.64 
  -1   1   8    8.49    5.47 
   1  -1  -8   20.65    9.18 
  -1   1   9   88.01   10.31 
  -1   1   9   53.23   14.77 
   1   1  -9   63.59   16.05 
   1  -1  -9   97.67   19.10 
  -1  -1   9   65.58   15.67 
  -1   1  10   22.18   10.72 
   1  -1 -10   21.88   10.02 
  -1   1  10   24.60    5.47 
   1   1 -10   33.04   12.86 
  -1   1  10   31.17    6.23 
  -1  -1  10   29.32   11.21 
  -1  -1  11    2.28    6.88 
  -1  -1  11    5.96    4.36 
   1  -1 -11    7.17    5.08 
  -1   1  11    8.46    6.20 
  -1   1  11    5.25    3.10 
   1   1 -11   -0.33    2.03 
  -1   1  11    0.72    2.08 
   1  -1 -12    8.64    6.94 
  -1   1  12   10.79    8.64 
   1   1 -12    5.40    7.24 
  -1  -1  12    5.67    7.18 
  -1  -1  12    8.25    5.22 
  -1   1  12    8.12    3.83 
  -1   1  12   12.63    4.45 
  -1  -1  13    0.14    4.99 
  -1  -1  13    6.82    4.77 
  -1   1  13    0.98    1.88 
  -1   1  13    9.75    9.02 
   1  -1 -13   -0.01    1.56 
  -1   1  13    4.30    4.13 
   1   1 -13   11.37    9.00 
  -1  -1  14    4.84    4.97 
  -1  -1  14    2.47    4.91 
  -1   1  14    2.05    3.36 
  -1   1  14    0.70    3.16 
   1  -1 -14    6.82    5.01 
  -1   1  14    2.52    3.08 
  -1  -1  15   15.87    7.24 
   1   1 -15   38.13   17.83 
  -1   1  15   14.30    5.57 
   1  -1 -15   16.78   11.35 
  -1  -1  15   24.32   11.20 
  -1   1  15   27.56   16.16 
  -1  -1  16    5.91    7.24 
  -1   1  16    3.06    5.36 
  -1  -1  16    6.08    4.03 
   1  -1 -16    5.15    3.95 
   1   1 -16   14.00   12.37 
  -1  -1  17    8.28    8.02 
   1   1 -17    8.67    9.82 
  -1  -1  17    3.38    3.12 
   1  -1 -17    3.95    2.71 
  -1  -1  18    8.27   10.29 
   1  -1 -18   -6.31    7.06 
  -1  -1  19   12.59   11.61 
   1  -1 -19    4.61   10.80 
   1  -1 -20   29.80   20.44 
  -1  -1  20   16.44   12.51 
   1  -1 -21    3.45   10.50 
  -1  -1  21    8.04   13.74 
   1  -1 -22   23.51   18.00 
  -1  -2 -22   15.22   16.68 
  -1  -2 -21    7.88   10.56 
  -1  -2 -20    1.14    9.74 
  -1  -2 -19   16.46   17.08 
  -1  -2 -18   51.87   22.02 
   1  -2  18   52.34   16.06 
  -1   2 -18   52.98   21.93 
   1  -2  17   57.27   17.61 
  -1  -2 -17   63.50   24.57 
   1  -2  17   59.04   16.09 
  -1   2 -17   93.09   27.68 
  -1   2 -16   12.46   13.04 
   1  -2  16    9.37    7.85 
  -1  -2 -16   14.22   13.16 
   1  -2  16    6.29    5.77 
   1  -2  15   86.14   18.19 
  -1   2 -15  103.40   27.77 
  -1  -2 -15   76.64   24.92 
   1  -2  15   57.09   15.79 
   1  -2  14   11.87    4.58 
  -1  -2 -14    8.39    6.15 
   1  -2  14   23.52   10.03 
  -1   2 -14   12.14   10.02 
   1  -2  13   41.52   11.84 
  -1  -2 -13   25.60   12.71 
   1  -2  13   13.42    8.48 
  -1   2 -13   35.59   14.31 
  -1  -2 -12   71.72   16.74 
   1  -2  12   51.84   12.18 
   1  -2  12   49.33   12.83 
  -1   2 -12   58.63   18.49 
  -1  -2 -11    8.77    4.54 
  -1  -2 -11   20.91    5.26 
   1  -2  11    4.83    5.10 
   1  -2  11   11.80    7.03 
   1  -2  10   -0.99    2.75 
  -1   2 -10    2.15    3.89 
   1  -2  10    2.00    3.50 
  -1  -2 -10    1.44    0.80 
  -1  -2 -10    1.06    0.74 
  -1  -2  -9   69.68   12.23 
  -1   2  -9   71.66   13.55 
  -1  -2  -9   73.45    9.55 
   1  -2   9   65.82   13.92 
  -1  -2  -8   33.92    9.61 
   1  -2   8   34.99   10.42 
  -1  -2  -8   29.00    7.43 
   1  -2   8   44.95   10.09 
  -1  -2  -8   33.90    6.36 
  -1   2  -8   28.71    8.82 
  -1  -2  -7  166.06   13.19 
   1  -2   7  174.05   25.29 
   1  -2   7  173.73   20.94 
   1  -2   7  181.17   17.46 
  -1   2  -7  203.70   22.07 
  -1  -2  -7  171.25   15.60 
  -1  -2  -7  158.96   19.67 
  -1  -2  -6   20.69    4.34 
  -1   2  -6   22.95    6.51 
   1  -2   6   21.74    6.81 
   1  -2   6   24.33    6.10 
  -1  -2  -6   24.01    5.34 
   1  -2   6   27.20   10.57 
   1  -2   5    5.46    1.71 
   1  -2   5    8.86    5.45 
   1  -2   5   13.45    5.57 
  -1  -2  -5   15.59    5.10 
   1   2   5    8.24    3.43 
  -1  -2  -5   16.37    4.19 
   1  -2   4    4.52    3.24 
   1   2   4   11.78    4.15 
   1  -2   4    7.20    3.81 
   1   2   3   13.11    4.31 
  -1  -2  -3   11.15    3.33 
   1  -2   3    6.49    3.76 
   1  -2   3   12.46    5.13 
  -1  -2  -2   14.80    4.89 
   1  -2   2   12.33    4.94 
   1  -2   1    3.67    2.32 
   1  -2   0    1.62    2.21 
   1  -2  -1    0.13    1.29 
  -1   2   2   95.96    9.52 
  -1   2   2  111.87   17.09 
   1  -2  -2   95.18   10.22 
  -1   2   3   18.49    3.86 
   1  -2  -3   25.10    5.80 
  -1   2   3   31.36    8.99 
  -1   2   4   10.54    2.84 
  -1   2   4   20.68    8.56 
  -1  -2   5    1.29    0.62 
   1  -2  -5    3.25    2.79 
  -1   2   5    5.61    4.08 
  -1   2   5    0.65    1.50 
  -1   2   5   -2.95    3.62 
   1  -2  -5    2.37    1.96 
  -1  -2   6   33.05    9.90 
  -1   2   6   45.56   12.09 
  -1   2   6   35.49    5.74 
   1  -2  -6   26.40    9.28 
  -1   2   6   17.07    7.40 
   1  -2  -7  106.85   20.99 
  -1  -2   7  130.37   22.49 
  -1   2   7  117.99   17.85 
  -1  -2   7  130.86   19.72 
   1  -2  -8   55.36   15.00 
  -1  -2   8   46.71   11.67 
  -1   2   8   56.40   13.19 
  -1   2   9  259.24   30.08 
  -1  -2   9  241.01   29.97 
  -1  -2  10   11.58    6.10 
  -1   2  10    3.97    2.06 
  -1   2  10    3.69    6.60 
  -1   2  11    5.09    2.56 
  -1  -2  11    6.89    5.32 
  -1   2  11   14.19   10.10 
  -1  -2  11   10.27    5.95 
   1  -2 -11   -0.89    5.92 
  -1   2  12   20.92    5.10 
  -1  -2  12   25.45    7.68 
  -1  -2  12   34.71   13.36 
   1  -2 -12   32.12   13.82 
  -1  -2  13  111.97   25.20 
  -1  -2  13  161.99   22.08 
   1  -2 -13  146.59   28.82 
  -1   2  13  131.25   12.59 
   1  -2 -14    8.10    8.06 
  -1  -2  14   19.31    8.12 
  -1  -2  14   26.34   15.42 
  -1   2  14   11.49    4.09 
  -1  -2  15   25.81    9.49 
   1  -2 -15   15.43   11.59 
  -1  -2  15   22.11   11.42 
  -1  -2  16    0.21    5.32 
  -1  -2  16    6.99    5.80 
   1  -2 -16   -0.10    3.90 
   1  -2 -17   37.28   18.19 
  -1  -2  17   18.62    8.35 
  -1  -2  17   31.80   10.40 
   1  -2 -18    6.06    8.43 
  -1  -2  18   15.41   11.24 
  -1  -2  19   63.52   23.02 
   1  -2 -19   76.63   26.93 
   1  -2 -20   -1.71    7.26 
  -1  -2  20   11.72   11.71 
  -1  -2  21   -0.57    4.65 
   1  -2 -21   14.75   14.84 
   1  -2 -22    5.90   10.01 
  -1  -2  22    5.87   12.71 
  -1  -3 -21   27.11   24.57 
  -1  -3 -20   17.84   16.54 
  -1  -3 -19    3.09    9.20 
   1  -3  19   15.22   11.78 
  -1  -3 -18   12.73   13.91 
   1  -3  18    5.52    6.43 
   1  -3  18    2.36    5.05 
   1  -3  17   35.17   13.37 
   1  -3  17   51.84   15.85 
  -1  -3 -17   39.86   21.64 
   1  -3  16    7.05    7.92 
   1  -3  16   16.73    9.63 
   1  -3  15  155.88   25.86 
   1  -3  15  173.50   26.86 
   1  -3  14    9.28    6.55 
   1  -3  14    4.25    5.56 
  -1  -3 -14    2.44    5.84 
   1   3  13    4.27    2.05 
  -1  -3 -13   13.01    7.27 
   1  -3  13    7.29    5.98 
   1  -3  13   11.41    7.91 
  -1  -3 -12   88.33   16.85 
   1  -3  12   71.36   14.89 
   1   3  12   54.28    7.19 
   1  -3  12  101.08   19.37 
   1  -3  11   67.73   14.70 
  -1  -3 -11   90.69   16.33 
   1   3  11   62.96    7.63 
   1  -3  11   87.21   17.29 
   1   3  10   58.44    7.67 
   1  -3  10   56.11   12.47 
  -1  -3 -10   56.16    7.17 
   1  -3  10   70.74   15.13 
  -1  -3 -10   73.06   13.88 
   1  -3   9   42.35   10.38 
   1   3   9   23.38    5.32 
  -1  -3  -9   31.60   10.15 
   1  -3   9   36.30   11.30 
  -1  -3  -9   25.51    4.84 
  -1  -3  -8   -1.17    1.35 
   1   3   8    3.38    1.91 
  -1   3  -8    5.16    5.45 
   1  -3   8    0.67    1.88 
  -1  -3  -8    1.30    2.48 
   1  -3   8    5.68    4.41 
   1  -3   7    9.96    4.29 
   1  -3   7    7.40    4.01 
  -1  -3  -7   12.99    4.41 
  -1   3  -7   13.77    6.00 
   1  -3   6   34.95   11.39 
   1  -3   6   35.51   10.24 
  -1   3  -6   39.38   10.45 
   1  -3   5   29.63    8.82 
   1  -3   5   15.76    7.83 
   1   3   5   41.49    7.03 
   1  -3   4   15.93    6.48 
  -1  -3  -4   13.21    4.40 
   1   3   4    5.02    3.52 
   1  -3   3    1.32    2.13 
  -1  -3  -3    5.47    2.98 
   1  -3   2   19.44    6.47 
   1  -3   1   20.28    6.49 
   1  -3   0    0.75    0.56 
  -1   3   1   10.20    3.75 
   1  -3  -1    4.39    3.10 
   1  -3  -2    2.05    2.70 
  -1   3   2    3.09    2.75 
  -1   3   3    0.35    2.06 
   1  -3  -3   -0.89    0.55 
   1  -3  -4   58.40    8.04 
  -1   3   4   54.11    7.20 
  -1   3   4   56.06   14.37 
   1  -3  -5   40.72   13.48 
  -1   3   5   26.78    8.86 
  -1   3   5   36.50    5.38 
   1  -3  -6    5.14    2.28 
  -1   3   6   13.50    6.30 
  -1   3   6    7.01    2.37 
   1  -3  -7   10.43    6.45 
  -1   3   7    4.89    5.39 
   1  -3  -8    3.01    1.87 
  -1  -3   9   97.47   19.97 
  -1  -3  10   46.16   11.38 
  -1  -3  10   50.43   15.77 
  -1  -3  11   20.18   10.21 
  -1  -3  11    5.05    5.55 
  -1  -3  12   31.66   13.75 
  -1  -3  12    8.92    5.89 
  -1  -3  13    4.02    4.47 
  -1  -3  13    8.10    5.15 
  -1  -3  14   33.14    9.50 
   1  -3 -14   63.04   20.38 
  -1  -3  14   43.00   16.70 
  -1  -3  15   82.52   22.91 
  -1  -3  15   40.55   12.41 
   1  -3 -15   45.35   17.44 
   1  -3 -16   11.57   10.51 
  -1  -3  16   17.00   13.26 
  -1  -3  16    4.26    5.29 
  -1  -3  17    6.45    3.29 
  -1  -3  17   11.30   10.29 
   1  -3 -17   11.19   11.56 
  -1  -3  18    2.47    5.38 
  -1  -3  18    5.19   10.01 
   1  -3 -18    8.79   12.39 
   1  -3 -19    2.03    4.00 
  -1  -3  19    4.37    3.41 
   1  -3 -20   20.44   11.56 
  -1  -3  20   16.57   11.34 
  -1  -3  21   10.96   10.86 
   1  -3 -21    4.67    5.31 
   1  -3 -22    9.53   13.58 
  -1  -3  22   18.31   13.19 
  -1  -4 -21   16.28   16.87 
  -1  -4 -20    4.19    7.98 
  -1  -4 -19    7.33   13.07 
   1  -4  19    4.36    5.37 
   1  -4  19    4.69    5.40 
   1  -4  18    5.55    6.39 
   1  -4  18   15.40    8.44 
  -1  -4 -18    4.89    3.06 
   1  -4  17    9.30   10.31 
   1  -4  17   17.68   11.63 
   1  -4  16    7.52    5.97 
   1  -4  16   15.68    9.03 
   1  -4  15    7.75    7.84 
   1  -4  15   14.29    9.14 
   1  -4  14   42.89   13.40 
   1  -4  14    7.39    6.38 
  -1  -4 -13    0.45    4.99 
   1  -4  13    3.13    6.53 
   1  -4  13   14.17    9.55 
   1  -4  12  109.98   20.49 
  -1  -4 -12  129.58   22.54 
   1  -4  12   90.73   18.45 
  -1  -4 -11    2.73    6.48 
   1  -4  11    1.45    3.17 
   1  -4  11   -0.46    1.27 
   1  -4  10   50.88   13.95 
  -1  -4 -10   29.09    4.32 
   1  -4  10   40.99   11.11 
   1  -4   9   76.26   17.62 
   1  -4   9   66.01   13.27 
  -1  -4  -9   37.39    5.46 
  -1  -4  -8    6.68    2.65 
   1  -4   8   17.25    8.35 
   1   4   7    4.27    3.08 
   1  -4   7    0.18    1.54 
   1   4   6   -5.08    7.16 
   1  -4   6    0.39    0.47 
   1  -4   5    6.77    3.42 
   1   4   5    8.54    6.38 
  -1  -4  -5   10.21    3.82 
  -1  -4  -4   39.86    8.81 
   1  -4   4   24.44    8.20 
   1  -4   3  139.84   19.73 
   1  -4   2  142.44   18.63 
   1  -4   1   22.67    7.22 
   1  -4   0    0.36    1.51 
  -1   4   0    3.04    3.89 
   1  -4  -1    4.96    3.49 
  -1   4   1    6.85    4.28 
  -1   4   2   58.28    9.80 
   1  -4  -2   57.43   10.48 
   1  -4  -3  267.64   19.66 
  -1   4   3  263.43   19.40 
   1  -4  -4  100.10   11.52 
  -1   4   4  131.66   22.53 
  -1   4   4   98.09   11.06 
  -1   4   5    2.96    2.73 
   1  -4  -5    6.48    3.11 
  -1   4   5    4.71    4.17 
   1  -4  -6    8.44    3.84 
  -1   4   6    3.37    2.28 
  -1   4   7   35.07   13.85 
   1  -4  -7   12.00    2.98 
  -1   4   8   87.31   19.43 
   1  -4  -8  116.59   25.14 
  -1   4   9   70.15   18.37 
  -1  -4  10   22.61    9.22 
  -1  -4  11   -2.74    0.55 
  -1  -4  11   -1.50    1.06 
  -1  -4  12   44.64   17.03 
  -1  -4  12   28.04   10.55 
  -1  -4  13   16.51    8.92 
  -1  -4  13    5.99    6.61 
  -1  -4  14  111.84   26.71 
  -1  -4  14  142.21   24.32 
  -1  -4  15   -4.59    4.97 
  -1  -4  15   10.74   12.68 
  -1  -4  16   15.91   14.37 
   1  -4 -16    0.81    5.65 
  -1  -4  16    3.47    4.81 
  -1  -4  17    8.36   11.92 
   1  -4 -17   13.97   13.32 
  -1  -4  17    8.12    7.06 
   1  -4 -18   24.91   14.72 
  -1  -4  18   39.29   17.69 
  -1  -4  18   42.28   14.75 
   1  -4 -19    5.54    5.97 
  -1  -4  19   10.19   10.76 
  -1  -4  19   -0.01    8.53 
  -1  -4  20    0.55    6.96 
   1  -4 -20    7.95   14.83 
  -1  -4  21   14.58   16.66 
   1  -4 -21   18.18   14.35 
  -1  -4  22   12.66   14.35 
  -1  -5 -21   31.15   21.80 
  -1  -5 -20   10.77   12.99 
   1  -5  19    5.98    6.68 
   1  -5  18   13.57    9.52 
   1  -5  18   10.34    8.84 
   1  -5  17    1.80    4.51 
   1  -5  17    7.14    6.69 
   1  -5  16   18.75   10.01 
   1  -5  16    2.53    5.95 
   1  -5  15   12.02   10.88 
   1  -5  15    2.48    5.93 
   1  -5  14    6.10    2.41 
   1  -5  14   10.42    9.16 
   1  -5  13    6.91    7.54 
   1  -5  13   11.61    7.79 
   1  -5  12   -6.28    4.36 
   1  -5  12   10.15    8.00 
   1  -5  11   34.95   10.97 
   1  -5  11   32.21   11.83 
   1  -5  10   69.56   16.57 
   1  -5  10   27.86    9.18 
   1  -5   9   21.51   11.16 
  -1  -5  -9   21.62    5.19 
   1  -5   8    1.96    4.38 
   1   5   8    9.33    6.54 
   1  -5   7   23.13    9.54 
   1   5   7   12.96    6.87 
  -1  -5  -6   10.35    4.40 
   1  -5   6    2.17    2.03 
  -1  -5  -5  266.69   22.54 
   1  -5   5  249.05   29.45 
   1  -5   4    1.59    4.70 
   1  -5   3    5.22    3.83 
   1  -5   2   24.22    8.37 
   1  -5   1  137.79   19.45 
  -1   5  -1  106.12   16.00 
   1  -5   0  102.01   16.60 
  -1   5   0   81.85   14.10 
   1  -5  -1   48.13   11.12 
  -1   5   1   48.56   10.27 
  -1   5   2   19.19    6.42 
   1  -5  -2   32.58    8.14 
   1  -5  -3   28.51    7.38 
  -1   5   3   26.35    7.12 
   1  -5  -4    9.29    3.93 
  -1   5   4   10.52    4.48 
  -1   5   5  268.21   35.79 
   1  -5  -5  234.53   18.99 
  -1   5   6   72.62   18.69 
   1  -5  -6   75.24   10.05 
   1  -5  -7    9.50    4.25 
  -1   5   7   11.62    4.57 
  -1   5   8   -2.10    0.66 
  -1  -5   9    3.68    1.63 
  -1   5   9   -6.97    6.57 
  -1  -5  10   -1.01    2.52 
  -1   5  10    0.93    2.22 
  -1  -5  11   34.25   12.33 
  -1  -5  12    2.15    3.12 
  -1  -5  12    2.60    1.06 
  -1  -5  13   10.98   10.03 
  -1  -5  13    3.68    7.73 
  -1  -5  14   21.33   10.85 
  -1  -5  14   15.15    6.96 
  -1  -5  15    9.05   11.18 
  -1  -5  15    6.00    9.26 
  -1  -5  16    0.19    8.56 
  -1  -5  16    8.61    7.06 
  -1  -5  17    5.85    8.81 
  -1  -5  17    4.63   10.31 
  -1  -5  18   10.94   12.47 
   1  -5 -18    7.39    8.84 
  -1  -5  18    3.64    5.43 
  -1  -5  19   22.71   15.41 
  -1  -5  19   12.97    7.70 
   1  -5 -19    1.71    5.38 
  -1  -5  20   -3.21   14.72 
   1  -5 -20   11.41   11.50 
  -1  -5  21   23.92   15.05 
   1  -5 -21   12.63   14.36 
  -1  -5  22   -5.04   11.65 
   1  -6  20    2.92    3.73 
   1  -6  19    7.76    6.62 
   1  -6  18   13.98   10.70 
   1  -6  17   27.50   13.79 
   1  -6  17   12.20    7.93 
   1  -6  16    0.59    5.89 
   1  -6  16   16.14   10.73 
   1  -6  15    2.25    8.68 
   1  -6  15   11.27    9.76 
   1  -6  14   21.50   11.19 
   1  -6  14   37.49   13.21 
   1  -6  13   15.50   10.34 
   1  -6  13    3.97    6.97 
   1  -6  12   22.23    8.11 
   1  -6  12   14.48    9.14 
   1  -6  11    9.50    6.64 
   1  -6  10    1.00    5.22 
  -1  -6 -10    2.49    1.49 
  -1  -6 -10    0.34    0.35 
   1  -6   9   34.70   12.75 
   1   6   9   33.92   11.72 
   1  -6   8   24.31   10.33 
   1   6   8   27.64    9.33 
   1  -6   7   86.29   19.99 
  -1  -6  -7   60.64   11.06 
   1   6   7   66.13   18.53 
   1   6   6   13.65   10.46 
  -1  -6  -6   24.18    8.77 
   1  -6   6   18.23    7.56 
   1  -6   5   23.50    9.03 
   1  -6   4    4.57    6.75 
   1  -6   3  268.39   31.31 
   1  -6   2   40.88   11.94 
  -1   6  -1   23.08    9.07 
   1  -6   1   24.27    6.57 
  -1   6   0    3.29    3.34 
   1  -6   0    3.55    4.27 
   1  -6  -1    5.55    4.36 
  -1   6   1   11.22    6.76 
   1  -6  -2   89.90   17.76 
   1  -6  -3  544.76   36.55 
   1  -6  -4   15.78    6.18 
  -1   6   5    9.62   10.56 
   1  -6  -5    3.23    3.04 
  -1   6   6   77.14   20.51 
   1  -6  -6   61.68   10.83 
   1  -6  -7   18.05    5.87 
  -1   6   7   26.40   15.32 
  -1  -6   8   10.08    8.58 
   1  -6  -8    0.02    0.71 
  -1   6   9   26.03   11.94 
  -1  -6   9   32.12   12.76 
  -1   6  10    0.82    5.11 
  -1  -6  10   -3.37    2.69 
  -1  -6  11    5.36    4.87 
  -1   6  11    1.51    2.83 
  -1  -6  12   71.41   19.11 
  -1  -6  13   52.76   16.91 
  -1  -6  13   27.87    9.92 
  -1  -6  14    3.19    8.00 
  -1  -6  14   15.80   10.81 
  -1  -6  15   23.53   11.06 
  -1  -6  15    3.14    2.18 
  -1  -6  16    5.54    9.35 
  -1  -6  16   -5.71    8.46 
  -1  -6  17   12.88   12.96 
  -1  -6  17    9.25    6.53 
  -1  -6  18    7.70    6.12 
  -1  -6  18    6.27   11.32 
  -1  -6  19   65.77   21.42 
  -1  -6  19   40.82   23.29 
   1  -6 -19   49.85   22.97 
   1  -6 -20   -0.52    9.31 
  -1  -6  20   35.76   21.49 
  -1  -6  21   -4.84   10.62 
   1  -6 -21   -3.68    5.79 
  -1  -6  22  -18.56   17.29 
   1  -7  20   33.98   16.20 
   1  -7  19   -0.10    1.41 
   1  -7  18    6.35    6.98 
   1  -7  17    9.11   10.58 
   1  -7  16   15.77   10.82 
   1  -7  16    6.33    6.89 
   1  -7  15   -0.17    6.14 
   1  -7  15    4.79    6.34 
   1  -7  14    8.10    4.14 
   1  -7  14   17.22    8.45 
   1  -7  13   24.48   13.64 
   1  -7  13   12.51    6.71 
   1  -7  12   57.27   17.88 
   1  -7  11    7.07    7.28 
   1  -7  10   84.79   21.51 
  -1  -7 -10   61.41    8.62 
   1   7  10   76.60   21.74 
  -1  -7  -9   27.10    6.32 
   1   7   9   28.60   14.38 
   1  -7   9   18.30    9.26 
  -1  -7  -8    6.97    5.21 
   1  -7   8    6.88    8.84 
   1   7   8    1.75   10.34 
   1  -7   7    2.90    6.07 
  -1  -7  -7    5.45    5.54 
   1  -7   6   12.29    9.72 
   1  -7   5   99.88   20.91 
   1  -7   4   48.54   14.05 
   1  -7   3   17.92    9.34 
   1  -7   2    4.50    3.62 
   1  -7   1   23.53    7.89 
   1  -7   0   15.31    7.65 
   1  -7  -1   48.82   12.50 
   1  -7  -2   26.07    9.77 
   1  -7  -3   20.61    8.32 
   1  -7  -4   58.32   12.56 
  -1   7   5   27.43   13.50 
   1  -7  -5   38.47   10.79 
  -1   7   6   73.75   23.44 
   1  -7  -6   71.65   12.73 
   1  -7  -7    4.77    4.59 
  -1   7   7   10.04   10.03 
  -1  -7   7    5.48    1.30 
   1  -7  -8    4.03    3.41 
  -1  -7   8   -1.60    3.37 
  -1   7   9  -12.86   13.08 
  -1  -7   9   18.04   10.87 
  -1  -7  10   78.96   20.79 
  -1   7  10   33.08   18.82 
  -1  -7  11   34.69   15.20 
  -1   7  11   30.20   17.09 
  -1   7  12   20.26   13.85 
  -1  -7  12   12.72    7.58 
  -1  -7  13   22.88   12.38 
  -1  -7  14   17.39   11.28 
  -1  -7  14   -1.97    5.75 
  -1  -7  15    2.20    2.58 
  -1  -7  15    9.56    5.14 
  -1  -7  16    2.01   11.80 
  -1  -7  16   10.14    9.71 
  -1  -7  17    0.46    8.31 
  -1  -7  17    6.82    5.86 
  -1  -7  18    6.45    6.86 
  -1  -7  18   -1.71    9.12 
  -1  -7  19   -9.28   11.17 
  -1  -7  19   23.43   21.42 
  -1  -7  20   24.67   21.43 
   1  -7 -20   12.12   13.55 
  -1  -7  20   16.76   13.62 
  -1  -7  21   13.93   16.24 
   1  -8  21   -1.87    1.35 
   1  -8  20   27.30   14.40 
   1  -8  19   16.63   12.32 
   1  -8  18   26.85   14.00 
   1  -8  17    7.73    9.65 
   1  -8  16    4.68    1.18 
   1  -8  15   12.24   10.65 
   1  -8  15   -1.59    9.67 
   1  -8  14   34.61   15.96 
   1  -8  14   82.61   24.79 
   1  -8  13   -4.64    4.06 
   1  -8  12  117.16   27.91 
   1  -8  11   25.70   12.97 
   1   8  11   11.15   12.35 
   1  -8  10   26.68   13.25 
  -1  -8 -10   12.62    4.48 
   1   8  10   20.82   18.25 
   1  -8   9   16.18   11.98 
  -1  -8  -9   13.90    5.62 
   1   8   9    7.14   10.59 
   1  -8   8   38.29   16.76 
  -1  -8  -8   17.46    7.65 
  -1  -8  -8   19.77    6.33 
  -1  -8  -7   38.36   11.70 
  -1  -8  -7   25.01    6.99 
   1   8   7   47.43   24.90 
   1  -8   7   23.51   11.72 
   1  -8   6   -1.20    3.25 
  -1  -8  -6   14.84    6.56 
   1  -8   5   15.41    7.85 
   1  -8   4   14.63   10.21 
   1  -8   3   14.54   10.25 
   1  -8   2   54.74   14.28 
   1  -8   1    3.45    6.37 
   1  -8   0    8.92    3.97 
   1  -8  -1   17.12    8.65 
   1  -8  -2   11.65    7.67 
   1  -8  -3   14.22    8.91 
  -1  -8   4   64.89   16.50 
   1  -8  -4   64.76   15.05 
  -1  -8   5   15.48    7.55 
   1  -8  -5   15.67    7.59 
   1  -8  -6   21.06    8.29 
  -1  -8   6   18.63   10.40 
  -1   8   6   39.25   19.46 
   1  -8  -7    2.48    3.29 
  -1  -8   7   11.81    7.93 
  -1   8   7    5.68    8.37 
  -1  -8   8   39.77   16.25 
   1  -8  -8   46.29   10.02 
  -1   8   8   45.76   20.56 
  -1  -8   9    1.44   22.72 
   1  -8  -9    1.17    2.28 
  -1   8   9  -26.19   25.35 
  -1  -8  10   -3.28    5.43 
  -1   8  10    9.88   16.14 
  -1   8  11   52.77   26.67 
  -1  -8  11   54.67   19.85 
  -1   8  12   65.70   31.37 
  -1  -8  12  128.60   31.03 
  -1  -8  13    7.58   12.33 
  -1   8  13    4.83   13.72 
  -1  -8  14  122.47   32.13 
  -1  -8  15   28.32   19.46 
  -1  -8  15   -5.40   16.10 
  -1  -8  16   -2.29    1.14 
  -1  -8  16   10.52   10.08 
  -1  -8  17    4.24   11.38 
  -1  -8  17   32.33   15.64 
  -1  -8  18   37.37   24.63 
  -1  -8  18   97.43   29.16 
  -1  -8  19   -3.13   19.07 
  -1  -8  19    5.90   14.06 
  -1  -8  20    3.01   11.82 
  -1  -8  20   22.37   20.10 
   1  -9  19    5.71   10.87 
   1  -9  18   10.26    7.72 
   1  -9  17   11.87   12.85 
   1  -9  16   24.32   16.01 
   1  -9  15   13.51   11.37 
   1  -9  14    0.59    3.34 
   1  -9  14    1.35    7.33 
   1  -9  13    0.40    5.40 
   1  -9  12   21.60   12.58 
   1  -9  11    3.61    4.68 
   1   9  11   15.43   18.33 
   1  -9  10   66.18   20.69 
   1   9  10   46.20   30.60 
   1  -9   9   23.79   15.81 
   1   9   9   19.69   30.51 
  -1  -9  -9    6.72    4.89 
   1   9   8   38.18   30.57 
  -1  -9  -8   18.61    6.99 
   1  -9   8   21.26   12.45 
  -1  -9  -7   55.18   12.02 
   1  -9   7   63.27   18.06 
  -1  -9  -6   43.68   10.45 
   1  -9   6   62.46   19.10 
   1  -9   5   46.66   15.24 
  -1  -9  -5   35.67   10.08 
  -1  -9  -4    8.14    5.10 
   1  -9   4    2.05    2.23 
  -1  -9  -3    5.70    5.33 
   1  -9   3    8.13    7.95 
   1  -9   2    0.54    2.67 
  -1  -9  -2   -1.53    2.27 
  -1  -9  -1   11.91    7.25 
   1  -9   1   16.09   10.31 
   1  -9   0   38.25   13.78 
  -1  -9   0   34.17    9.75 
  -1  -9   1   13.19    7.82 
   1  -9  -1   25.27   11.43 
   1  -9  -2    1.69    4.08 
  -1  -9   2    8.90    5.34 
   1  -9  -3   11.76    9.28 
  -1  -9   3    0.63    5.49 
   1  -9  -4    9.82    7.19 
  -1  -9   4   14.73    8.55 
  -1  -9   5   85.60   21.86 
   1  -9  -5   76.31   16.96 
  -1  -9   6   41.11   14.29 
  -1   9   6   28.91   18.25 
   1  -9  -6   26.38   10.45 
  -1  -9   7   -3.17    9.06 
   1  -9  -7    0.58    2.82 
   1  -9  -8    6.90    5.63 
  -1   9   8   13.71   13.63 
  -1  -9   8    6.89   11.09 
  -1  -9   9    3.51    6.33 
  -1   9   9  -12.43   10.34 
  -1  -9  10   12.42   13.11 
  -1   9  10  -16.98   14.31 
  -1  -9  11   -8.96   11.03 
  -1   9  11   12.51   11.64 
  -1  -9  12   10.76   10.25 
  -1   9  12  -21.06    8.44 
  -1  -9  13   13.61   16.09 
  -1   9  13   -4.79    9.22 
  -1  -9  14   11.09   13.21 
  -1  -9  15   11.40   10.44 
  -1  -9  16    5.69    6.30 
  -1  -9  16   -0.38   12.75 
  -1  -9  17   22.20   15.82 
  -1  -9  17  -17.32   19.56 
  -1  -9  18  -25.81   19.05 
  -1  -9  18    2.40   12.10 
  -1  -9  19    0.31   11.04 
  -1  -9  19   14.03   12.63 
   1 -10  17   23.04   17.21 
   1 -10  16   25.62   17.18 
   1 -10  15   14.00   11.98 
   1 -10  14   15.33    9.78 
   1 -10  13   14.82   13.78 
   1 -10  12   12.52   13.08 
   1 -10  11    5.51    8.20 
   1 -10  10   20.19   11.61 
   1  10  10  -41.47   54.19 
   1  10   9  -17.57   34.95 
   1 -10   9  -12.70    9.69 
  -1 -10  -8   33.20    9.90 
   1 -10   8   11.00   11.00 
   1 -10   7   47.39   19.88 
  -1 -10  -7   38.66   11.76 
   1 -10   6   10.63   10.51 
  -1 -10  -6    1.91    2.66 
  -1 -10  -5   11.37    5.61 
   1 -10   5   29.70   13.11 
  -1 -10  -4   22.39    8.50 
   1 -10   4   41.94   16.64 
   1 -10   3   30.14   12.30 
  -1 -10  -3   27.75   10.52 
  -1 -10  -2   94.78   17.63 
   1 -10   2  138.67   26.82 
  -1 -10  -1   52.27   13.79 
   1 -10   1   72.04   19.24 
   1 -10   0    6.28    5.92 
  -1 -10   0   17.49   10.62 
   1 -10  -1    8.81    6.57 
  -1 -10   1   15.40    8.32 
  -1 -10   2   33.14   11.96 
   1 -10  -2   40.39   14.68 
  -1 -10   3  157.72   27.70 
   1 -10  -3  139.59   24.64 
   1 -10  -4   38.86   13.40 
  -1 -10   4   32.68   13.53 
   1 -10  -5   14.45    8.97 
  -1 -10   5   11.43    8.06 
   1 -10  -6    3.18    2.79 
  -1  10   6   16.28   16.21 
  -1 -10   6    1.63    2.61 
  -1 -10   7    0.44    3.96 
   1 -10  -7    6.28    6.22 
  -1 -10   8   58.09   20.91 
  -1  10   8   34.72   17.46 
   1 -10  -8   11.29    6.21 
  -1 -10   9    0.05   10.58 
  -1  10   9   10.70   10.70 
  -1 -10  10   -7.17   10.86 
  -1  10  10  -16.12   28.95 
  -1  10  11    4.00    6.04 
  -1 -10  11   11.36   14.38 
  -1 -10  12   20.33   13.89 
  -1  10  12   23.31   25.77 
  -1 -10  13   39.84   21.00 
  -1  10  13   -1.73   11.70 
  -1 -10  14   43.69   21.53 
  -1  10  14   10.32   12.20 
  -1 -10  15    7.34    5.68 
  -1 -10  16  -10.56   11.42 
  -1 -10  16  -28.96   41.91 
  -1 -10  17    7.98   13.08 
  -1 -10  17   20.65   15.48 
  -1 -10  18  -24.85   28.87 
   1 -11  15   17.66   14.28 
   1 -11  14    7.51   12.87 
   1 -11  13   14.59   14.61 
   1 -11  12   -4.83   10.09 
   1 -11  11    8.40    3.46 
   1 -11  10    2.68    9.66 
   1  11   9   36.07   50.39 
   1 -11   9   15.98   14.93 
   1  11   8   44.36   40.62 
   1 -11   8    4.52    9.15 
   1 -11   7   12.45   14.97 
  -1 -11  -7   11.77    6.35 
   1 -11   6   57.94   20.73 
  -1 -11  -6   56.06   14.60 
   1 -11   5   41.95   17.75 
  -1 -11  -5   24.53    9.95 
  -1 -11  -4    4.41    6.45 
   1 -11   4   24.01   12.46 
   1 -11   3   14.74   10.50 
  -1 -11  -3   26.84   12.32 
  -1 -11  -2    5.67    5.65 
   1 -11   2   21.39   14.27 
   1 -11   1    7.70    9.17 
  -1 -11  -1   10.52    7.30 
  -1 -11   0  142.82   24.75 
   1 -11   0  167.03   29.42 
   1 -11  -1    8.89    7.39 
  -1 -11   1    5.13    6.42 
   1 -11  -2   12.96   10.30 
  -1 -11   2   18.57   14.49 
  -1 -11   3    7.18    2.84 
   1 -11  -3   19.16   10.94 
   1 -11  -4   16.17    9.08 
  -1 -11   4   27.63   13.51 
  -1 -11   5   14.77    9.28 
   1 -11  -5   20.63   11.15 
  -1  11   6   30.57   17.74 
   1 -11  -6   10.29    6.58 
  -1 -11   6   18.26   10.79 
   1 -11  -7   -5.25    5.74 
  -1 -11   7   14.14    8.98 
  -1  11   7   21.62   20.52 
  -1  11   8   20.71   20.57 
  -1 -11   8    1.51    8.74 
  -1 -11   9   12.70   10.75 
  -1  11   9   11.01   12.30 
  -1 -11  10   58.61   23.55 
  -1  11  10   38.79   16.78 
  -1  11  11  -59.51   43.06 
  -1 -11  11    3.65    6.13 
  -1  11  12    9.78   33.27 
  -1 -11  12   15.09   10.36 
  -1 -11  13    6.98   10.12 
  -1 -11  14   26.75   25.51 
  -1 -11  15   23.16   16.43 
  -1 -11  17   19.67   25.30 
   1 -12  13   22.94   17.69 
   1 -12  12   31.33   16.05 
   1 -12  11   23.30   19.86 
   1 -12  10    4.27   10.15 
   1 -12   9   -6.45   10.57 
   1 -12   8   24.77   17.71 
   1 -12   7   55.53   21.23 
   1 -12   6   30.70   17.05 
  -1 -12  -6    5.07    3.99 
  -1 -12  -5    8.22    6.89 
   1 -12   5    7.90   10.49 
  -1 -12  -4   19.30    9.57 
   1 -12   4   12.69   11.05 
   1 -12   3   28.59   15.56 
  -1 -12  -3    9.58    7.19 
  -1 -12  -2   84.93   19.39 
   1 -12   2  123.91   27.11 
   1 -12   1   43.35   16.73 
  -1 -12  -1   31.07   12.56 
   1 -12   0   13.76   12.20 
  -1 -12   0   14.85   10.28 
   1 -12  -1   50.35   17.18 
  -1 -12   1   30.51   11.42 
   1 -12  -2   15.41   10.38 
  -1 -12   2   22.90   11.02 
  -1 -12   3   19.60   12.70 
   1 -12  -3    9.73    7.97 
  -1 -12   4   -1.74    5.97 
   1 -12  -4   13.20    8.45 
  -1 -12   5   -8.18    5.95 
   1 -12  -5    6.19    4.52 
  -1 -12   6   -9.61    9.42 
   1 -12  -6    5.12    8.13 
  -1  12   7   22.84   14.50 
  -1 -12   7   20.24   10.21 
  -1 -12   8   39.79   17.87 
  -1  12   8   77.51   32.71 
  -1  12   9   27.78   19.82 
  -1 -12   9    1.93   11.14 
  -1  12  10   13.48   24.41 
  -1 -12  10    9.91    9.15 
  -1 -12  11   14.47    7.84 
  -1  12  11  -33.03   36.53 
  -1 -12  12    9.36   13.41 
  -1 -12  13   -3.73    8.50 
   1 -13  11   -5.30    4.89 
   1 -13  10    7.78    5.61 
   1 -13   9   -3.11    8.15 
   1 -13   8   32.77   16.28 
   1 -13   7   20.14   14.54 
   1 -13   6   -1.39   10.50 
   1 -13   5   13.35   12.52 
  -1 -13  -5    7.79    7.51 
   1 -13   4    8.71   10.90 
  -1 -13  -4    2.70    4.82 
  -1 -13  -3    1.76    1.33 
   1 -13   3    1.90    3.18 
   1 -13   2   14.38   11.54 
  -1 -13  -2    1.70    4.62 
   1 -13   1   -4.10    5.46 
  -1 -13  -1    4.89    6.62 
   1 -13   0    9.90   10.70 
  -1 -13   0    8.30    8.55 
   1 -13  -1   16.86   13.00 
  -1 -13   1   20.97   13.03 
   1 -13  -2    9.21    9.45 
  -1 -13   2    2.96    4.85 
  -1 -13   3    6.82    9.77 
   1 -13  -3    8.37   10.60 
   1 -13  -4    0.53    2.81 
  -1 -13   4   11.91   10.87 
   1 -13  -5   10.25    7.99 
  -1 -13   5    8.28   12.05 
  -1  13   6   41.61   25.20 
  -1 -13   6   -0.60    3.65 
  -1  13   7   24.70   19.76 
  -1 -13   7    6.27   10.24 
  -1  13   8   60.14   32.04 
  -1 -13   8   17.66   11.43 
  -1  13   9   41.65   29.25 
  -1 -13   9   24.28   15.40 
  -1 -13  10   27.08   14.96 
  -1  13  10  -23.49   31.63 
  -1 -13  11   27.05   18.22 
   1 -14   8    0.16    8.09 
   1 -14   7   51.82   21.58 
   1 -14   6   14.65   14.23 
   1 -14   5   11.88   10.66 
   1 -14   4   17.98   16.30 
  -1 -14  -4    4.44    4.72 
   1 -14   3   22.35   14.54 
  -1 -14  -3   18.78    8.78 
   1 -14   2   15.22   11.44 
  -1 -14  -2   10.70    7.55 
  -1 -14  -1    9.95    8.19 
   1 -14   1   19.04   12.15 
  -1 -14   0    6.91   10.73 
   1 -14   0   12.66    9.90 
   1 -14  -1   11.27    9.87 
  -1 -14   1    1.59    4.91 
  -1 -14   2    7.21    8.53 
   1 -14  -2    5.59    8.08 
  -1 -14   3    6.77    5.80 
   1 -14  -3   14.34    9.53 
   1 -14  -4    4.80    4.05 
  -1 -14   4    0.23    6.53 
  -1 -14   5    0.27    2.74 
  -1 -14   6   -4.40    8.74 
  -1  14   6   34.53   25.14 
  -1 -14   7    6.63    5.25 
  -1  14   7   14.68   19.04 
  -1  14   8   32.51   32.18 
  -1 -14   8   -1.79   10.86 
   1 -15   5   12.67   10.22 
   1 -15   4    9.06   13.91 
   1 -15   3    6.37   13.14 
  -1 -15  -3   -4.05    7.39 
   1 -15   2   24.69   17.02 
  -1 -15  -2   22.04   13.60 
   1 -15   1    3.76    3.33 
  -1 -15  -1    5.01    8.51 
   1 -15   0   20.17   11.79 
  -1 -15   0   19.78   13.30 
   1 -15  -1    6.04    5.24 
  -1 -15   1   11.86   11.25 
  -1 -15   2   12.54   11.19 
   1 -15  -2   -0.35    0.48 
  -1 -15   3   17.92   16.39 
  -1 -15   4    3.71    6.80 
  -1 -15   5    1.66    6.20 
  -1  15   6   51.31   26.40 
  -1  15   7   24.47   29.07 
   1 -16   2   36.33   20.75 
  -1 -16  -1   19.40   12.06 
   1 -16   1   18.57   11.73 
  -1 -16   0    5.94    8.59 
   1 -16   0   16.10   12.51 
   1 -16  -1    2.37    6.44 
  -1 -16   1    5.94    9.25 
  -2   0 -21   -5.28   14.16 
  -2   0 -20   11.27   12.99 
  -2   0 -19    9.90    6.58 
  -2   0 -18    3.63    8.41 
  -2   0 -17   14.02   13.73 
   2   0  17   13.29    9.01 
   2   0  16    7.57    6.69 
  -2   0 -16    6.70    4.82 
   2   0  15    6.24    6.74 
  -2   0 -15    1.23    7.19 
  -2   0 -14    3.15    2.39 
   2   0  14   25.52   10.50 
   2   0  13    7.74    7.15 
  -2   0 -13    6.30    6.18 
  -2   0 -12    0.75    3.42 
   2   0  12   -0.65    3.39 
  -2   0 -12    4.71    6.07 
   2   0  11    1.44    4.85 
  -2   0 -11    3.43    4.40 
  -2   0 -11   -1.23    3.36 
  -2   0 -11   -0.04    0.88 
   2   0  10   70.59   15.08 
  -2   0 -10   76.86   13.85 
  -2   0 -10   80.83   19.73 
  -2   0 -10   82.01   15.12 
   2   0   9   -0.84    1.63 
  -2   0  -9    6.16    6.99 
  -2   0  -9    0.17    2.08 
  -2   0  -9    6.62    4.09 
  -2   0  -8    1.69    2.67 
  -2   0  -8    2.47    0.79 
   2   0   8    2.15    3.74 
  -2   0  -7    2.45    3.18 
   2   0   7    4.16    2.91 
  -2   0  -7    5.83    4.38 
   2   0   6  880.13   46.69 
  -2   0  -6  839.49   33.21 
  -2   0  -6  937.51   47.50 
  -2   0  -5    2.74    3.76 
   2   0   5    0.86    4.48 
   2   0   4  321.47   29.41 
  -2   0  -4  332.97   29.02 
   2   0   3    4.77    6.49 
  -2   0  -2  269.03   21.29 
   2   0   1    8.17    6.17 
  -2   0  -1   -1.28    3.58 
   2   0   0   24.11    7.72 
  -2   0   0   27.78    8.08 
   2   0  -1   -4.49    5.03 
  -2   0   1    0.72    2.71 
  -2   0   2   36.15    6.88 
   2   0  -2   46.71   12.50 
  -2   0   2   45.71   10.97 
   2   0  -3   -0.80    2.48 
  -2   0   3   -1.17    1.99 
  -2   0   3    3.57    3.12 
  -2   0   3    1.62    2.83 
  -2   0   4  403.62   30.67 
  -2   0   4  404.50   26.34 
  -2   0   4  462.56   31.28 
   2   0  -4  412.01   30.91 
  -2   0   5    3.52    4.60 
  -2   0   5    0.69    2.51 
  -2   0   5    0.55    2.75 
  -2   0   6  637.84   43.52 
   2   0  -6  629.88   37.85 
  -2   0   6  601.98   35.12 
  -2   0   7    2.01    3.45 
  -2   0   7    4.67    4.38 
   2   0  -7    0.72    1.76 
  -2   0   8   29.99   11.27 
  -2   0   8   33.39    8.17 
   2   0  -8   12.55    5.61 
  -2   0   9    6.54    5.86 
  -2   0   9    8.23    8.16 
   2   0  -9   -2.22    4.04 
  -2   0  10   18.55    6.22 
   2   0 -10   15.14    7.39 
  -2   0  10   26.51   11.62 
  -2   0  11   10.29    7.55 
   2   0 -11   -0.27    3.28 
  -2   0  11    4.14    5.57 
   2   0 -12    6.18    5.99 
  -2   0  12    8.89    5.05 
  -2   0  12    3.45    3.85 
   2   0 -13    1.41    3.12 
  -2   0  13   -0.26    5.94 
  -2   0  13    7.69    5.58 
  -2   0  14    9.16    5.89 
   2   0 -14   16.84   10.72 
  -2   0  14   25.51   12.92 
  -2   0  15    3.83    3.85 
  -2   0  15   -0.76    3.50 
   2   0 -15   -1.88    4.47 
   2   0 -16   14.09    8.43 
  -2   0  16    1.83    2.60 
  -2   0  16   -1.02    6.64 
  -2   0  17    2.92    0.96 
   2   0 -17    7.15    6.51 
  -2   0  18   12.06    8.34 
  -2   0  19   14.70   12.50 
  -2   0  20   29.40   18.22 
  -2   0  21   26.16   18.05 
  -2  -1 -21   17.35   18.26 
  -2   1 -21    5.90   10.59 
  -2  -1 -20    9.63    7.93 
  -2   1 -20  -14.57   12.16 
  -2   1 -19   80.92   29.79 
  -2  -1 -19   62.39   27.83 
  -2   1 -18    2.70    5.82 
  -2  -1 -18    7.61   10.63 
   2  -1  17    1.22    5.77 
  -2  -1 -17    5.61    8.15 
  -2   1 -17    6.96    7.96 
   2  -1  16    7.94    6.82 
  -2   1 -16    9.27   13.67 
   2   1  16    7.43    6.84 
  -2  -1 -16   -1.19    3.26 
   2  -1  15    9.76    7.77 
  -2  -1 -15   10.00    9.62 
   2   1  15    7.13    6.53 
  -2   1 -15   -2.02    7.17 
   2  -1  14   32.36   11.66 
   2   1  14   31.71   12.70 
  -2   1 -14   28.22   13.33 
  -2  -1 -14   28.27   14.55 
  -2  -1 -14   27.77    9.60 
  -2  -1 -13   18.06    8.05 
  -2   1 -13   23.30   11.53 
   2  -1  13   21.40   10.31 
  -2  -1 -13   20.09   10.34 
   2   1  13   16.88    8.96 
  -2   1 -12    3.25    2.08 
   2  -1  12    5.88    3.43 
   2   1  12    8.46    7.40 
  -2  -1 -12    6.62    3.71 
  -2   1 -12    9.67    6.21 
  -2   1 -11    1.58    2.52 
  -2  -1 -11    9.74    5.92 
  -2   1 -11   10.18    6.92 
   2   1  11    2.77    3.61 
   2  -1  11    9.43    5.87 
  -2   1 -10   29.09    9.36 
  -2  -1 -10   33.60    9.38 
   2  -1  10   45.71   12.30 
   2   1  10   36.44   10.96 
  -2   1 -10   27.86    7.99 
  -2  -1 -10   26.36    9.12 
  -2   1 -10   38.66   13.34 
  -2  -1  -9  525.13   36.68 
  -2   1  -9  527.11   31.57 
   2   1   9  543.93   39.70 
   2  -1   9  546.23   40.15 
  -2  -1  -9  581.08   37.79 
  -2   1  -9  589.02   41.62 
  -2   1  -9  605.69   49.40 
  -2  -1  -8  621.81   37.03 
   2   1   8  630.05   42.11 
  -2   1  -8  610.37   30.80 
   2  -1   8  600.84   40.55 
  -2   1  -8  690.73   49.07 
  -2  -1  -8  616.48   38.30 
  -2   1  -8  625.27   41.65 
  -2   1  -7   16.07    5.48 
  -2   1  -7   16.26    6.52 
  -2  -1  -7   18.32    7.43 
   2  -1   7   14.99    7.63 
  -2   1  -7   18.78    4.98 
  -2  -1  -6   71.38   13.61 
  -2   1  -6   66.62    7.96 
   2  -1   6   71.24   13.56 
  -2   1  -6   63.10   13.04 
  -2   1  -6   80.81   14.59 
  -2  -1  -5    0.83    3.35 
  -2   1  -5    1.28    3.13 
   2  -1   5    5.38    3.41 
  -2   1  -5    0.74    2.97 
  -2   1  -5    0.35    0.93 
   2  -1   4  126.05   17.19 
  -2  -1  -4  125.35   10.29 
  -2   1  -4  135.93   15.54 
  -2  -1  -4  140.69   19.89 
   2  -1   3    2.01    3.33 
  -2   1  -3    4.71    2.29 
  -2  -1  -3    3.09    4.67 
  -2  -1  -3    2.75    2.33 
  -2   1  -2  710.44   26.75 
   2   1   2  669.26   31.34 
  -2  -1  -2  750.36   27.03 
   2  -1   2  691.52   39.98 
   2   1   2  711.47   45.07 
  -2   1  -1  156.26    9.94 
   2   1   1  154.50   20.99 
   2   1   1  144.11   15.01 
  -2   1  -1  190.96   10.36 
   2  -1   1  165.20   22.22 
  -2   1  -1  195.03   21.79 
  -2   1   0    4.83    4.98 
   2   1   0    0.69    3.14 
  -2   1   0    1.97    1.67 
   2   1   0   -2.24    2.63 
   2   1  -1  347.80   29.18 
  -2   1   1  347.15   20.37 
   2   1  -1  342.95   25.27 
  -2   1   1  378.90   32.46 
  -2   1   2  524.48   28.44 
   2  -1  -2  489.17   16.79 
   2   1  -2  528.52   36.22 
   2  -1  -2  549.30   29.66 
  -2   1   2  476.88   37.74 
  -2   1   2  510.53   36.24 
  -2   1   3   23.01    6.66 
   2  -1  -3   31.78    5.74 
   2  -1  -3   35.08    8.65 
   2  -1  -3   22.95    6.90 
  -2  -1   4   63.01   13.33 
  -2   1   4   91.46   17.52 
   2  -1  -4  105.86   11.76 
  -2   1   4   99.72   14.51 
   2  -1  -4   61.20   11.23 
  -2  -1   4  103.20   15.07 
   2  -1  -5    5.08    3.20 
  -2  -1   5    1.63    3.13 
  -2  -1   5    5.32    5.48 
  -2   1   5    7.47    6.39 
   2  -1  -5    5.30    4.77 
  -2  -1   6  120.09   16.69 
  -2   1   6   92.16   16.24 
  -2  -1   6   82.43   16.18 
   2  -1  -6  101.29   14.23 
  -2  -1   6   85.01   16.84 
  -2  -1   7    8.01    6.30 
  -2  -1   7    3.72    3.47 
  -2  -1   7    0.65    1.58 
  -2   1   7    5.08    5.30 
   2  -1  -7   -1.38    1.38 
  -2  -1   8  707.50   52.08 
  -2   1   8  756.12   50.88 
   2  -1  -8  756.64   45.83 
  -2   1   8  777.30   39.94 
  -2  -1   8  807.47   43.35 
  -2  -1   9  368.16   38.97 
  -2   1   9  368.67   37.46 
   2  -1  -9  358.78   34.11 
  -2   1   9  312.71   25.62 
  -2  -1  10   13.70    7.31 
  -2   1  10    7.34    5.77 
  -2   1  10   10.16    6.03 
   2  -1 -10   11.21    6.38 
  -2  -1  11    7.61    7.91 
  -2   1  11   14.08    5.04 
   2  -1 -11    3.93    5.70 
  -2   1  11   15.68    8.15 
  -2  -1  12    6.37    7.46 
  -2   1  12    5.39    5.18 
   2  -1 -12    5.51    6.28 
  -2   1  12   15.67   10.34 
  -2  -1  13   28.68   14.77 
  -2   1  13   31.71   13.28 
   2  -1 -13   33.11   14.50 
  -2   1  13   30.89    8.85 
  -2   1  14    5.76    4.66 
  -2   1  14   17.83   12.05 
  -2  -1  14    9.87    3.90 
   2  -1 -14   17.27   10.30 
  -2   1  15    4.13    5.77 
  -2  -1  15   -7.55    3.27 
  -2   1  15    8.26    5.22 
  -2  -1  15    9.46    7.65 
   2  -1 -15   -1.50    1.79 
  -2  -1  16    2.86    7.78 
  -2  -1  16    4.73    6.02 
   2  -1 -16    5.54    6.34 
  -2   1  16    5.96    8.27 
  -2  -1  17    3.85    6.75 
   2  -1 -17    3.97    5.90 
  -2   1  17   18.05   15.16 
  -2   1  18   23.36   16.23 
  -2  -1  18   16.95   10.18 
   2  -1 -18   10.84   11.72 
  -2   1  19   71.58   26.73 
  -2  -1  19   62.04   22.74 
   2  -1 -19   41.59   20.05 
  -2  -1  20    8.16    9.67 
   2  -1 -20   -8.18    9.00 
  -2  -1  21    7.79   12.13 
   2  -1 -21    0.03    4.46 
  -2  -2 -21   15.13    9.71 
  -2  -2 -20   29.54   18.10 
  -2   2 -19    8.69    9.16 
  -2  -2 -19   31.83   18.43 
   2  -2  18    0.57    6.68 
  -2   2 -18    3.78    7.56 
  -2  -2 -18    2.12    7.71 
  -2  -2 -17   10.59   11.86 
   2  -2  17    1.67    5.72 
  -2   2 -17   -3.12    4.11 
   2  -2  16   57.83   16.96 
  -2  -2 -16   74.93   26.90 
  -2   2 -16   66.21   24.31 
   2  -2  15   76.71   19.49 
  -2  -2 -15   78.93   24.57 
  -2   2 -15   87.02   24.89 
   2  -2  14   27.14   11.10 
  -2   2 -14   45.18   17.49 
   2  -2  13    8.60    6.90 
  -2   2 -13   -3.41    7.92 
  -2  -2 -13    0.89    2.84 
  -2  -2 -13    5.76    4.21 
  -2  -2 -12    0.18    1.72 
  -2   2 -12   -4.87    6.22 
  -2  -2 -12    1.27    3.60 
   2  -2  12   -3.92    6.90 
  -2  -2 -11  123.47   15.60 
   2  -2  11  117.61   20.97 
  -2   2 -11  110.49   23.40 
  -2  -2 -11  100.46   15.54 
   2  -2  10  200.37   26.85 
  -2   2 -10  203.76   29.64 
  -2  -2 -10  224.71   22.88 
  -2  -2 -10  233.85   19.64 
   2  -2  10  221.88   20.62 
   2  -2   9  640.92   32.17 
  -2   2  -9  600.84   49.24 
   2  -2   9  572.07   44.10 
  -2  -2  -9  559.72   36.02 
  -2  -2  -9  539.62   26.44 
  -2  -2  -9  537.43   40.56 
   2  -2   8    9.70    3.82 
  -2   2  -8    5.08    5.32 
  -2  -2  -8   11.37    5.38 
   2  -2   8    4.67    5.05 
  -2  -2  -8    2.39    2.02 
  -2   2  -8    7.08    6.72 
  -2  -2  -7   13.47    5.83 
  -2   2  -7   12.39    6.09 
  -2   2  -7   11.84    6.65 
   2  -2   7   10.11    5.91 
   2  -2   7    5.81    2.81 
  -2   2  -6    1.64    2.52 
   2  -2   6    6.11    2.20 
  -2   2  -6    1.03    3.31 
  -2  -2  -6    5.51    4.50 
   2  -2   5   -0.25    2.56 
  -2   2  -5    2.16    3.31 
  -2  -2  -5    6.43    5.58 
   2   2   5    9.25    5.66 
   2  -2   4   98.40   15.94 
   2  -2   4  104.85   15.22 
  -2   2  -4  111.37   14.77 
   2   2   4  102.23   16.38 
   2  -2   3    1.33    2.34 
   2  -2   3    3.79    2.73 
   2   2   3    5.23    4.15 
   2   2   2  113.87   16.69 
   2  -2   2   89.33   10.82 
   2  -2   2   99.34   14.62 
   2   2   2   99.56    9.69 
   2   2   1 1210.26   54.47 
   2  -2   1 1194.06   32.42 
   2  -2   1 1297.41   53.26 
   2  -2   1 1155.50   25.94 
   2   2   0  151.23   20.33 
   2  -2   0  112.83   16.41 
   2  -2   0  116.65   10.33 
  -2   2   1 1113.91   37.58 
   2  -2  -1  996.29   52.42 
  -2   2   1  901.35   53.43 
   2  -2  -1 1224.06   36.93 
  -2   2   2   44.36   12.51 
  -2   2   2   34.64    9.11 
   2  -2  -2   61.26    9.52 
  -2   2   2   51.92    9.12 
  -2   2   3   -0.28    2.33 
   2  -2  -3    1.60    1.38 
  -2   2   3   -0.62    5.60 
  -2   2   3    4.05    3.19 
  -2   2   4  140.00   23.69 
  -2   2   4  145.60   17.89 
   2  -2  -4  104.35   15.06 
  -2   2   4  126.43   16.26 
  -2   2   5    2.29    3.91 
  -2   2   5    2.32    3.22 
   2  -2  -5    5.73    3.84 
  -2   2   5    4.04    4.96 
   2  -2  -6    9.25    4.73 
  -2   2   6    5.14    4.63 
  -2  -2   6   13.24   10.74 
  -2   2   6   16.15    7.31 
  -2   2   6    3.49    1.94 
  -2   2   7    0.50    4.00 
  -2  -2   8   18.26    6.78 
  -2   2   8   25.04    8.59 
   2  -2  -8   21.49    7.83 
  -2   2   9  678.23   50.86 
  -2  -2   9  639.15   53.73 
   2  -2  -9  660.42   45.96 
  -2  -2  10  161.02   27.68 
  -2   2  10  159.45   26.07 
   2  -2 -10  182.02   26.13 
  -2   2  11   61.52   17.52 
   2  -2 -11   63.46   17.61 
  -2  -2  11   58.18   17.46 
  -2  -2  12    4.32    7.31 
  -2   2  12    4.69    8.08 
   2  -2 -12    1.00    4.12 
  -2   2  13    4.62    7.54 
  -2  -2  13    5.89    7.90 
   2  -2 -13    0.05    5.16 
  -2   2  14   67.85   21.70 
  -2  -2  14   70.27   22.62 
  -2  -2  14   66.75   15.82 
  -2   2  14   29.70    6.83 
   2  -2 -14   44.60   16.59 
  -2  -2  15  119.79   29.57 
  -2   2  15  133.98   31.54 
   2  -2 -15  132.72   29.03 
  -2  -2  15  131.23   22.81 
  -2  -2  16   51.87   19.54 
  -2   2  16   86.55   26.28 
   2  -2 -16   55.23   19.58 
  -2  -2  16   62.46   16.33 
   2  -2 -17   -0.38    5.50 
  -2  -2  17   15.45    8.87 
  -2  -2  17   -1.99    7.67 
  -2  -2  18   16.92   15.39 
   2  -2 -18    1.01    5.24 
   2  -2 -19   21.89   14.31 
  -2  -2  19   32.81   17.59 
  -2  -2  20   51.46   21.62 
   2  -2 -20   28.68   16.11 
  -2  -2  21   27.37   17.63 
   2  -2 -21   17.83   14.14 
   2  -2 -22    1.21    9.99 
  -2  -3 -21    4.86    4.48 
  -2  -3 -20   15.90   14.38 
   2  -3  19   62.13   20.85 
  -2  -3 -19   61.64   25.55 
   2  -3  18    8.30    8.24 
  -2  -3 -18   11.62   11.36 
   2  -3  17    5.07    2.95 
  -2  -3 -17   -1.55    6.18 
   2  -3  16   -8.43    3.99 
   2  -3  15    3.97    4.67 
   2  -3  15   16.13   10.92 
   2  -3  14  427.88   46.08 
   2  -3  14  460.69   37.95 
   2   3  14  368.54   30.11 
   2   3  13   73.85   13.67 
   2  -3  13   57.40   15.68 
  -2  -3 -13   81.93   13.09 
   2  -3  13   95.47   16.25 
  -2  -3 -13   73.96   13.48 
   2  -3  12   10.94    5.74 
   2   3  12    4.16    3.71 
   2  -3  12    0.63    4.20 
  -2  -3 -12    5.97    4.50 
  -2  -3 -12    3.95    3.28 
  -2  -3 -11    9.66    4.97 
   2  -3  11   12.00    5.77 
   2  -3  11   11.58    7.61 
  -2  -3 -11    4.34    3.25 
   2   3  11   10.51    5.55 
  -2  -3 -10   37.34    7.65 
   2  -3  10   41.76   12.70 
   2  -3  10   41.30    9.14 
   2   3  10   34.03    9.51 
  -2  -3 -10   45.08    9.65 
  -2  -3  -9  854.72   44.70 
   2  -3   9  932.97   58.41 
   2  -3   9  900.29   38.08 
   2   3   9  844.55   45.65 
   2  -3   8  127.21   13.12 
   2   3   8  186.16   20.90 
   2  -3   8  142.05   22.12 
  -2  -3  -8  144.59   18.57 
  -2  -3  -7   15.99    6.83 
   2  -3   7    7.64    2.99 
   2   3   7   15.09    5.92 
   2  -3   7    6.64    5.06 
   2  -3   6   96.48    9.43 
   2   3   6   81.34   14.47 
   2  -3   6   76.27   17.52 
   2  -3   6   93.22   17.88 
   2  -3   5   22.36    9.00 
   2  -3   5    6.88    2.50 
   2   3   5   21.83    7.85 
   2  -3   5   13.05    6.82 
   2   3   4 1092.26   51.84 
   2  -3   4 1010.53   52.67 
   2  -3   4 1002.67   50.00 
   2  -3   3   49.74   10.03 
   2   3   3   59.35   11.81 
   2  -3   3   47.84   10.99 
  -2  -3  -3   53.53   11.28 
  -2  -3  -2  109.92   17.30 
   2  -3   2   89.02   14.89 
   2  -3   1  195.29   22.18 
   2  -3   0    5.01    2.73 
   2  -3   0    7.45    4.32 
   2  -3  -1  280.32   18.96 
   2  -3  -1  242.81   23.98 
  -2   3   1  252.00   23.58 
  -2   3   2  223.33   21.41 
   2  -3  -2  214.94   22.95 
   2  -3  -2  180.51   17.03 
  -2   3   2  221.03   28.05 
  -2   3   3    1.06    5.71 
   2  -3  -3   13.14    4.91 
  -2   3   3    0.34    2.87 
   2  -3  -3    7.79    5.97 
  -2   3   4  523.83   31.90 
  -2   3   4  532.28   49.16 
  -2   3   5    5.04    3.29 
   2  -3  -5    6.53    4.09 
  -2   3   5   -1.80    5.33 
   2  -3  -6  170.16   19.04 
  -2   3   6  189.30   18.21 
  -2   3   6  219.56   32.31 
  -2   3   7   10.55    4.53 
  -2   3   7   16.61    6.82 
   2  -3  -7    4.36    2.64 
  -2   3   8   82.51   20.98 
  -2   3   8   71.92   10.85 
  -2   3   9  455.10   26.85 
  -2  -3  10    8.25    6.59 
  -2   3  10    9.90    4.22 
  -2  -3  11    8.56   10.91 
   2  -3 -11   17.17    9.79 
  -2   3  11    4.44    2.45 
   2  -3 -12   19.67   11.45 
  -2  -3  12    8.80    9.31 
  -2   3  12    7.54    2.85 
   2  -3 -13   79.45   21.43 
  -2  -3  13   74.91   22.15 
  -2   3  13   22.23    4.79 
  -2  -3  14  309.32   36.49 
  -2  -3  14  353.87   48.22 
   2  -3 -14  324.20   43.16 
  -2  -3  15    6.58    7.63 
   2  -3 -15   -5.01    5.45 
  -2  -3  15    5.51    7.20 
  -2  -3  16   17.43    9.60 
  -2  -3  16    3.33    8.41 
   2  -3 -16   -0.45    5.16 
  -2  -3  17    8.63   12.29 
  -2  -3  17    4.57    7.77 
   2  -3 -17    5.24    5.78 
  -2  -3  18   10.44    8.91 
   2  -3 -18   16.54   15.46 
  -2  -3  18    8.18   15.17 
  -2  -3  19   53.43   20.44 
   2  -3 -19   30.60   16.61 
  -2  -3  20    7.04    7.61 
   2  -3 -20   13.41   10.34 
  -2  -3  21    5.34   10.35 
   2  -3 -21    9.34    8.75 
   2  -3 -22   -1.29    5.77 
  -2  -4 -21   21.49   17.83 
  -2  -4 -20   38.62   19.60 
   2  -4  19    2.77    5.52 
  -2  -4 -19   19.11   17.70 
   2  -4  18   10.19    8.65 
   2  -4  17   10.03    8.85 
   2  -4  17    1.60    6.45 
   2  -4  16  118.46   20.56 
   2  -4  16  129.34   26.61 
   2  -4  15   24.72    8.72 
   2  -4  15   29.59   14.43 
   2  -4  14  205.79   24.79 
   2  -4  14  153.35   28.65 
   2  -4  13    1.07    1.06 
   2  -4  13   -2.00    4.28 
   2  -4  12   25.25    8.15 
  -2  -4 -12   19.31    6.50 
   2  -4  12    8.79    7.22 
  -2  -4 -11   50.79   10.42 
   2  -4  11   39.92   13.75 
   2  -4  11   67.35   12.81 
   2  -4  10  167.34   18.47 
   2  -4  10  147.88   24.95 
  -2  -4 -10  153.69   18.37 
   2  -4   9   48.33    9.57 
   2  -4   9   60.22   15.15 
  -2  -4  -9   41.96   10.64 
   2  -4   8    5.29    1.94 
  -2  -4  -8    4.76    0.71 
   2  -4   7    9.20    6.68 
   2  -4   6 1136.03   63.58 
   2  -4   5  226.06   27.56 
   2  -4   5  290.09   31.71 
  -2  -4  -4 1132.04   54.87 
   2  -4   4 1106.21   59.66 
  -2  -4  -3    5.73    7.76 
   2  -4   3    9.29    5.70 
  -2  -4  -2    3.00    5.12 
   2  -4   2    0.74    1.42 
   2  -4   1    9.95    7.01 
  -2  -4  -1   22.72    9.16 
  -2   4   0  209.35   22.40 
   2  -4   0  212.10   23.91 
  -2   4   1   12.30    5.74 
   2  -4  -1    9.68    5.58 
   2  -4  -2   -3.83    4.02 
  -2   4   2    7.37    7.33 
   2  -4  -2    5.42    2.97 
  -2   4   2    1.99    3.73 
   2  -4  -3    6.18    5.86 
  -2   4   3    4.68    8.13 
   2  -4  -3    2.30    4.46 
  -2   4   3    3.30    4.69 
   2  -4  -4 1319.90   55.29 
   2  -4  -4 1489.99   61.01 
  -2   4   4 1318.86   50.87 
  -2   4   4 1498.29   82.94 
  -2   4   5  216.31   19.88 
  -2   4   5  228.58   33.61 
  -2   4   6  679.39   34.17 
  -2   4   6  751.89   64.40 
  -2   4   7    3.56    3.11 
  -2   4   7   10.27    5.43 
  -2   4   8    9.84    9.60 
  -2   4   8    4.71    3.04 
   2  -4  -8   15.25    5.81 
  -2   4   9   33.85   11.82 
  -2   4   9   29.44    6.07 
  -2   4  10  201.52   15.37 
  -2  -4  11   74.73   20.52 
  -2   4  11   45.57    6.36 
  -2  -4  12   19.24   10.42 
  -2  -4  13   -2.95    7.82 
   2  -4 -14  288.25   41.79 
  -2  -4  14  310.89   39.91 
  -2  -4  14  215.24   38.09 
  -2  -4  15   21.04   13.83 
   2  -4 -15   35.48   17.05 
  -2  -4  15   23.07   11.03 
  -2  -4  16  111.11   25.62 
   2  -4 -16  107.97   28.99 
  -2  -4  16  126.88   31.73 
  -2  -4  17    0.39    6.94 
  -2  -4  17    2.23   12.75 
   2  -4 -17   15.64   12.68 
   2  -4 -18    2.11    8.91 
  -2  -4  18   18.59   11.78 
  -2  -4  18    2.97    9.83 
   2  -4 -19   -0.69    5.98 
  -2  -4  19    8.18   10.82 
   2  -4 -20   70.01   26.72 
  -2  -4  20   61.96   23.38 
  -2  -4  21   20.65   18.68 
   2  -4 -21    5.40   10.55 
   2  -4 -22    6.28   10.62 
   2  -5  20   18.50   13.92 
  -2  -5 -20   13.99   15.92 
   2  -5  19   61.93   20.92 
   2  -5  18   -0.64    6.79 
   2  -5  17   -0.45    3.96 
   2  -5  16   11.72    6.23 
   2  -5  16    8.87    7.03 
   2  -5  15    8.77    4.86 
   2  -5  15    1.21    4.86 
   2  -5  14  359.13   33.22 
   2  -5  14  370.39   44.97 
   2  -5  13   13.39    7.86 
   2  -5  13   31.07   12.74 
   2  -5  12  143.79   19.44 
   2  -5  12  117.95   25.68 
  -2  -5 -11   25.59    8.11 
   2  -5  11   23.47   12.55 
   2  -5  11   30.01    8.54 
  -2  -5 -10    8.81    6.51 
   2  -5  10    9.97    5.20 
   2  -5  10    9.88    8.24 
   2  -5   9   50.65   10.38 
  -2  -5  -9   33.95    9.16 
   2  -5   9   47.67   15.37 
   2  -5   8   13.70    9.56 
   2   5   7    3.10    2.47 
   2  -5   7    4.09    4.99 
   2   5   6  165.90   20.60 
  -2  -5  -6  156.93   20.93 
  -2  -5  -5   19.22    7.97 
   2  -5   5   23.82   11.12 
  -2  -5  -4 1149.51   57.49 
   2  -5   4 1085.69   63.85 
  -2  -5  -3  145.85   21.55 
   2  -5   3  143.26   23.21 
  -2  -5  -2  126.60   21.37 
   2  -5   2   89.36   18.23 
  -2   5  -1  167.92   22.02 
   2  -5   1  153.83   21.54 
   2  -5   0   17.31    9.12 
  -2   5   0   11.59    9.03 
   2  -5  -1  291.75   28.69 
  -2   5   1  311.60   28.52 
   2  -5  -2  216.07   23.99 
  -2   5   2  231.10   23.94 
  -2   5   3  146.44   18.78 
  -2   5   3  140.33   25.93 
   2  -5  -3  179.17   22.37 
   2  -5  -4  637.47   40.34 
  -2   5   4  716.58   39.91 
  -2   5   4  667.79   57.70 
  -2   5   5   -1.66    5.05 
  -2   5   5    3.01    3.96 
   2  -5  -5    2.54    5.30 
   2  -5  -6  292.11   29.26 
  -2   5   6  286.28   40.21 
  -2   5   6  306.94   24.56 
  -2   5   7    0.98    1.72 
  -2   5   7  -11.24   11.46 
  -2   5   8   -9.00    7.82 
  -2   5   8   -1.75    1.61 
   2  -5  -9   14.28    5.95 
  -2   5   9   30.68   15.86 
  -2   5   9   16.03    4.48 
  -2   5  10    1.44    5.14 
  -2   5  10    4.50    2.15 
  -2   5  11   67.85   21.12 
  -2  -5  12  143.76   32.48 
  -2  -5  13   -5.86    7.88 
  -2  -5  13    4.70   11.34 
  -2  -5  14  288.42   47.60 
  -2  -5  14  255.43   38.64 
  -2  -5  15    1.37    7.79 
  -2  -5  15    4.85    2.49 
   2  -5 -16   18.04   12.53 
  -2  -5  16   14.94   13.29 
  -2  -5  16   16.70   13.30 
  -2  -5  17   32.81   16.25 
   2  -5 -17    6.51    9.07 
  -2  -5  17   19.42   16.70 
  -2  -5  18   30.10   14.60 
  -2  -5  18    8.35   10.03 
   2  -5 -18   22.85   14.44 
   2  -5 -19   54.47   23.58 
  -2  -5  19   92.63   31.52 
  -2  -5  19   71.96   24.17 
   2  -5 -20   20.04   13.90 
  -2  -5  20   27.74   17.66 
   2  -5 -21    8.34   10.45 
  -2  -5  21   -2.14    8.20 
   2  -6  20   31.39   18.63 
   2  -6  19    5.99    2.55 
   2  -6  18   -5.87    2.21 
   2  -6  17   14.70   11.34 
   2  -6  16   13.45   12.63 
   2  -6  15    3.77    5.54 
   2  -6  15    9.78    9.00 
   2  -6  14   10.90    6.93 
   2  -6  14   14.07   12.05 
   2  -6  13    0.10    8.32 
   2  -6  13    2.11    3.53 
   2  -6  12   74.38   15.16 
   2  -6  12   94.44   23.69 
   2  -6  11  287.34   29.14 
   2  -6  11  306.99   41.31 
   2  -6  10    1.15    2.54 
  -2  -6 -10    4.46    5.23 
   2  -6  10   -1.32    1.12 
   2  -6   9  124.81   25.53 
   2   6   8    4.19    3.02 
   2  -6   8    2.61    4.45 
  -2  -6  -7    2.20    1.53 
   2  -6   7   14.90   10.71 
   2   6   7    8.76    7.24 
  -2  -6  -6  238.90   27.49 
   2  -6   6  318.87   38.29 
  -2  -6  -5  143.66   20.79 
   2  -6   5  120.78   23.31 
   2  -6   4   53.63   16.50 
  -2  -6  -4   71.36   14.59 
  -2  -6  -3    8.68    7.31 
   2  -6   3   -1.94    4.90 
   2  -6   2   48.63   25.66 
   2  -6   1 1071.74   61.44 
   2  -6   0  212.72   27.59 
   2  -6  -1  715.10   47.46 
  -2   6   1  674.68   44.88 
   2  -6  -2    6.29    6.65 
  -2   6   2   13.10    6.16 
   2  -6  -3   19.59    8.48 
  -2   6   3   18.27    7.10 
  -2   6   4  106.66   24.11 
  -2   6   4  111.43   17.16 
   2  -6  -4   88.42   15.94 
  -2   6   5  157.87   19.43 
   2  -6  -5  143.53   19.79 
  -2   6   5  163.87   31.70 
  -2   6   6   95.26   25.48 
   2  -6  -6  101.73   17.90 
  -2   6   6  129.52   17.36 
  -2   6   7    6.92    4.63 
   2  -6  -7   10.57    7.34 
  -2   6   8    7.88    4.47 
  -2   6   8  -15.48   15.08 
  -2   6   9  112.16   11.88 
  -2   6   9  162.57   35.52 
   2  -6 -10    7.06    3.55 
  -2   6  10    7.10    9.49 
  -2   6  11  217.73   42.77 
  -2   6  12   51.10   20.78 
  -2  -6  13    9.73   11.58 
  -2  -6  13  -16.09   14.49 
  -2  -6  14   12.93   10.35 
  -2  -6  14    7.64    1.36 
  -2  -6  15    2.93    6.32 
  -2  -6  15    4.82    7.71 
  -2  -6  16   -3.32   11.56 
  -2  -6  16   16.28   14.30 
  -2  -6  17    2.23    9.72 
   2  -6 -17   10.83   12.99 
  -2  -6  17   -1.24    2.67 
   2  -6 -18    2.52    3.15 
  -2  -6  18   -0.45   10.21 
  -2  -6  18   12.23   14.97 
   2  -6 -19   21.53   16.50 
  -2  -6  19   31.07   20.43 
  -2  -6  19   30.38   13.95 
   2  -6 -20    9.73   13.13 
  -2  -6  20   15.74   19.05 
   2  -6 -21    1.49    2.94 
   2  -7  20   -0.89    2.57 
   2  -7  19   77.53   23.91 
   2  -7  18   21.81   14.48 
   2  -7  17   26.15   14.47 
   2  -7  16    6.07    6.51 
   2  -7  15   20.66   12.77 
   2  -7  14   48.11   18.13 
   2  -7  13    6.84    5.77 
   2  -7  13   20.71   12.47 
   2  -7  12  151.81   23.43 
   2  -7  12  121.77   28.31 
   2  -7  11   36.64   11.36 
   2  -7  11   44.87   16.19 
   2  -7  10    7.20    7.51 
   2  -7   9  269.48   39.21 
   2   7   9  232.00   29.86 
   2   7   8   18.57   12.43 
   2  -7   8    6.87    5.23 
   2   7   7   42.70   20.06 
   2  -7   7   34.96   14.89 
  -2  -7  -7   17.54    8.78 
  -2  -7  -6    5.35    0.88 
   2  -7   6    7.14    3.99 
   2  -7   5    5.79    4.54 
   2  -7   4   31.91   12.37 
   2  -7   3   33.63   13.19 
   2  -7   2  121.96   25.81 
   2  -7   1  236.89   30.97 
   2  -7   0   75.39   19.26 
   2  -7  -1  327.89   34.83 
   2  -7  -2   87.87   18.36 
   2  -7  -3   84.60   17.08 
  -2   7   4    2.68    7.39 
  -2   7   4   11.79    8.00 
   2  -7  -4    6.51    6.18 
   2  -7  -5    2.46    4.00 
  -2   7   5    2.19    2.77 
  -2   7   6   10.28   14.14 
   2  -7  -6    9.20    7.39 
  -2   7   6    4.77    4.56 
  -2   7   7   62.85   11.19 
   2  -7  -7   64.63   13.65 
  -2   7   7   56.52   18.86 
  -2   7   8   -2.32    5.28 
  -2   7   9  138.63   33.82 
   2  -7 -10    3.42    3.96 
  -2   7  10   -5.74    4.65 
  -2   7  11   60.26   22.80 
  -2  -7  12  213.73   38.20 
  -2   7  12  202.71   43.99 
  -2  -7  13   20.85   14.90 
  -2  -7  14   61.88   19.83 
  -2  -7  14   49.04   21.96 
  -2  -7  15   15.84   14.95 
  -2  -7  15   12.62   19.00 
  -2  -7  16    3.76    6.47 
  -2  -7  16   16.88   16.43 
  -2  -7  17   33.98   20.61 
  -2  -7  17   50.69   22.71 
  -2  -7  18   57.76   23.84 
  -2  -7  18   65.31   28.52 
  -2  -7  19   74.35   34.73 
   2  -7 -19   58.98   25.18 
  -2  -7  19   69.28   28.14 
  -2  -7  20    3.88    5.71 
   2  -7 -20    5.10    4.10 
  -2  -7  20    6.78    3.58 
   2  -8  20    2.96    8.01 
   2  -8  19    8.10   11.14 
   2  -8  18   -8.62    3.45 
   2  -8  17   37.30   18.58 
   2  -8  16    9.72    8.14 
   2  -8  15   -5.15    8.13 
   2  -8  14   30.96   16.48 
   2  -8  13   14.62   12.37 
   2  -8  12   44.33   13.51 
   2  -8  12   61.63   18.89 
   2  -8  11   -3.48    2.61 
   2   8  10   14.42   10.75 
   2  -8  10    7.62    3.79 
   2   8   9  -16.53   12.05 
   2  -8   9    0.94    5.72 
  -2  -8  -8    2.20    2.90 
   2  -8   8    4.28    8.74 
   2   8   8    7.19   19.85 
   2  -8   7   13.22   10.45 
   2  -8   6  -10.00    9.75 
   2  -8   5   38.52   13.70 
   2  -8   4  146.65   28.09 
   2  -8   3   10.86    8.94 
   2  -8   2    9.38    9.48 
   2  -8   1   94.79   21.65 
   2  -8   0  149.81   26.12 
   2  -8  -1   39.87   14.42 
   2  -8  -2   10.04    7.59 
   2  -8  -3   24.55   10.84 
   2  -8  -4  190.62   26.54 
   2  -8  -5   28.26   11.39 
  -2   8   5   15.76   13.94 
  -2   8   6   35.93   19.09 
   2  -8  -6    2.51    4.99 
   2  -8  -7   12.45    7.30 
  -2   8   7    7.47    5.92 
   2  -8  -8    5.80    4.58 
  -2   8   8  -21.22   15.83 
  -2   8   9    0.03    5.08 
  -2   8  10    3.90    7.81 
  -2   8  11    9.57   11.38 
  -2  -8  11   -1.41    4.29 
  -2  -8  12   57.83   22.74 
  -2   8  12   61.27   28.27 
  -2   8  13   27.63   20.50 
  -2  -8  13   24.18   15.56 
  -2  -8  14   81.59   27.44 
  -2  -8  15   -8.74   12.16 
  -2  -8  15   -0.68   10.42 
  -2  -8  16   -7.59   15.12 
  -2  -8  16   31.68   19.43 
  -2  -8  17   32.83   20.40 
  -2  -8  17    6.08   11.29 
  -2  -8  18    6.08    8.25 
  -2  -8  18  -11.32   18.53 
  -2  -8  19   21.23   16.91 
  -2  -8  19   12.61   12.08 
  -2  -8  20    7.04    7.87 
   2  -8 -20   17.85   16.62 
   2  -9  19   19.10   15.23 
   2  -9  18   80.03   24.86 
   2  -9  17   19.99   15.98 
   2  -9  16    5.26    9.50 
   2  -9  15   12.50   10.61 
   2  -9  14  129.50   32.77 
   2  -9  13   22.73   14.37 
   2  -9  12   34.45   16.78 
   2  -9  11    0.89    7.82 
   2  -9  10    2.07    5.05 
   2   9   9   81.41   43.06 
   2  -9   9   44.24   20.03 
   2  -9   8   26.78   12.63 
   2   9   8   83.46   52.01 
   2  -9   7   28.42   14.97 
   2  -9   6   26.65   14.88 
   2  -9   5   39.77   16.75 
   2  -9   4  174.78   31.75 
   2  -9   3    6.20    8.44 
   2  -9   2   34.17   16.24 
   2  -9   1   27.68   12.43 
   2  -9   0   23.05   13.12 
   2  -9  -1   78.66   19.23 
   2  -9  -2    7.22    6.04 
   2  -9  -3    3.40    6.21 
   2  -9  -4   81.68   18.58 
  -2   9   5   33.74   18.07 
   2  -9  -5    8.30    6.44 
  -2   9   6   34.17   21.25 
   2  -9  -6   -1.24    1.11 
  -2   9   7   31.07   19.48 
   2  -9  -7   24.67   10.22 
   2  -9  -8   21.05    9.86 
  -2   9   8   33.80   21.32 
  -2   9   9   13.17   10.68 
  -2  -9   9   29.33   14.38 
  -2  -9  10   -2.21    3.84 
  -2   9  10  -11.82   15.10 
  -2  -9  11   26.00   19.22 
  -2   9  11    8.98   11.19 
  -2   9  12   15.14   14.92 
  -2  -9  12   25.42   17.70 
  -2  -9  13    8.29    8.88 
  -2   9  13    9.09    7.60 
  -2  -9  14   91.53   29.81 
  -2   9  14   75.61   36.31 
  -2  -9  15   25.56   21.21 
  -2  -9  16   12.50   12.22 
  -2  -9  16    0.37   16.42 
  -2  -9  17   21.69   17.02 
  -2  -9  17    8.56   19.15 
  -2  -9  18  104.46   35.24 
  -2  -9  18  100.20   44.84 
   2 -10  17   25.20   18.31 
   2 -10  16   21.32   16.29 
   2 -10  15   -0.15    4.55 
   2 -10  14    2.20    7.42 
   2 -10  13    5.74    9.67 
   2 -10  12   -0.27    1.71 
   2 -10  11   87.68   27.83 
   2 -10  10   69.33   23.67 
   2 -10   9   40.62   19.38 
   2 -10   8   14.74   10.70 
   2  10   8  219.44  108.07 
   2 -10   7   -0.63    6.31 
   2 -10   6   87.27   24.34 
   2 -10   5   46.35   18.91 
   2 -10   4    0.87    6.67 
   2 -10   3    3.44    8.51 
   2 -10   2   32.10   15.54 
   2 -10   1  156.03   29.86 
   2 -10   0  524.29   53.85 
   2 -10  -1   98.20   24.61 
   2 -10  -2   23.52   11.73 
   2 -10  -3    6.61    8.06 
   2 -10  -4    8.39    6.42 
  -2  10   5   24.87   15.10 
   2 -10  -5   27.89   12.53 
  -2  10   6   97.71   30.29 
   2 -10  -6  111.02   22.32 
  -2  10   7   23.69   17.06 
   2 -10  -7   12.93    9.11 
  -2 -10   7   20.66   13.09 
  -2 -10   8   47.32   19.92 
  -2  10   8   24.81   14.97 
  -2 -10   9   54.98   19.19 
  -2  10   9   37.88   18.48 
  -2 -10  10   81.44   24.54 
  -2  10  10   19.02   14.01 
  -2 -10  11  120.71   30.90 
  -2  10  11  111.77   41.95 
  -2 -10  12    5.60   15.53 
  -2  10  12   12.01   18.80 
  -2 -10  13   -5.27    7.11 
  -2  10  13   14.88   14.74 
  -2  10  14   -9.92   14.51 
  -2 -10  14   21.59   21.75 
  -2 -10  15   17.37   17.57 
  -2 -10  16   54.90   29.07 
  -2 -10  16   -4.96   27.44 
  -2 -10  17   10.27   14.80 
   2 -11  15    3.79    5.33 
   2 -11  14   34.78   20.30 
   2 -11  13    7.51   12.62 
   2 -11  12   -2.10    6.56 
   2 -11  11   36.00   20.54 
   2 -11  10    5.17    8.21 
   2 -11   9   71.71   24.87 
   2 -11   8   72.10   24.99 
  -2 -11  -7   12.97    9.78 
   2 -11   7    5.35   12.52 
  -2 -11  -6   39.14   11.90 
   2 -11   6   43.97   18.92 
   2 -11   5   10.06   11.15 
   2 -11   4   49.40   18.68 
   2 -11   3   25.49   14.94 
   2 -11   2    6.53    6.38 
   2 -11   1  159.71   30.90 
   2 -11   0   -2.78    7.54 
   2 -11  -1  147.67   29.25 
   2 -11  -2    0.83    3.49 
   2 -11  -3   42.25   15.08 
  -2 -11   4   30.28   10.90 
   2 -11  -4   27.16   12.64 
   2 -11  -5    1.75    0.39 
  -2 -11   5   14.32    9.67 
  -2  11   6  105.24   29.76 
   2 -11  -6  117.07   24.35 
  -2 -11   6  145.91   32.41 
  -2  11   7   28.10   18.55 
  -2 -11   7   12.26    8.21 
  -2  11   8   32.95   21.57 
  -2 -11   8   62.57   22.45 
  -2 -11   9   40.83   17.03 
  -2  11   9    6.30   11.49 
  -2 -11  10   17.68   16.43 
  -2  11  10  -24.49   23.39 
  -2 -11  11   42.67   20.15 
  -2  11  11   37.98   26.35 
  -2  11  12   46.49   38.29 
  -2 -11  12   26.69   20.71 
  -2 -11  13    3.24    9.34 
  -2  11  13  -14.65   17.44 
  -2 -11  14   61.02   28.00 
  -2  11  14   29.55   29.92 
   2 -12  13   17.64   16.30 
   2 -12  12   11.57    6.89 
   2 -12  11   -6.78    8.70 
   2 -12  10   50.34   21.98 
   2 -12   9   11.30   14.65 
   2 -12   8    6.71    3.90 
   2 -12   7    0.60    8.55 
   2 -12   6  243.70   43.91 
  -2 -12  -6  222.17   30.73 
  -2 -12  -5   49.94   14.35 
   2 -12   5   44.05   19.85 
  -2 -12  -4  113.50   23.62 
   2 -12   4  143.43   33.07 
  -2 -12  -3    4.76    6.51 
   2 -12   3   11.01    9.19 
   2 -12   2   54.65   22.45 
  -2 -12  -2   25.25   11.70 
  -2 -12  -1   14.44   10.60 
   2 -12   1    8.55   11.58 
  -2 -12   0  212.37   32.73 
   2 -12   0  243.54   39.13 
  -2 -12   1   14.35   11.63 
   2 -12  -1    0.50    4.05 
  -2 -12   2   64.39   21.93 
   2 -12  -2   17.30   13.22 
   2 -12  -3   35.03   15.41 
  -2 -12   3   38.43   18.29 
   2 -12  -4  166.99   31.47 
  -2 -12   4  202.43   36.51 
  -2  12   5   27.03   16.02 
   2 -12  -5   20.09   11.78 
  -2 -12   5   35.55   16.02 
  -2  12   6  160.79   38.30 
  -2 -12   6  257.78   45.04 
  -2  12   7    1.74    9.13 
  -2 -12   7   -0.60    9.20 
  -2  12   8   28.46   21.99 
  -2 -12   8   25.46   17.57 
  -2 -12   9   21.58   20.64 
  -2  12   9    0.89    0.86 
  -2 -12  10   91.58   30.54 
  -2  12  10   67.19   28.91 
  -2 -12  11    2.96    9.34 
  -2  12  11  -20.27   31.50 
  -2 -12  12   34.72   21.80 
  -2  12  12    7.76   27.84 
  -2  12  13    3.34   28.42 
   2 -13  10   16.44   10.40 
   2 -13   9   50.02   22.77 
   2 -13   8   26.15   20.30 
   2 -13   7    5.45   10.11 
   2 -13   6   76.09   25.12 
  -2 -13  -5    4.21    7.21 
   2 -13   5    0.95    6.75 
  -2 -13  -4  110.75   24.94 
   2 -13   4  126.00   32.42 
  -2 -13  -3   58.01   17.74 
   2 -13   3   57.05   20.73 
  -2 -13  -2   20.65   12.37 
   2 -13   2   21.74   13.73 
   2 -13   1   11.14   10.76 
  -2 -13  -1   14.81   12.11 
   2 -13   0   15.58   12.98 
  -2 -13   0    3.19    6.08 
   2 -13  -1   15.84   11.76 
  -2 -13   1   12.63    5.73 
   2 -13  -2   32.10   15.15 
  -2 -13   2   38.84   16.28 
  -2 -13   3   50.53   18.30 
   2 -13  -3   53.11   18.16 
   2 -13  -4   64.29   21.28 
  -2 -13   4   68.60   23.14 
  -2  13   5   34.09   20.56 
  -2 -13   5   10.84   15.01 
  -2  13   6  103.20   32.99 
  -2 -13   6   88.15   26.18 
  -2  13   7   24.21   19.15 
  -2 -13   7   18.58   13.11 
  -2  13   8   23.71   14.59 
  -2 -13   8   28.26   18.05 
  -2 -13   9   66.43   27.53 
  -2  13   9   12.18   11.55 
  -2 -13  10   34.91   21.27 
  -2  13  10  -11.67   24.56 
  -2  13  11  -70.58   46.32 
   2 -14   8    9.97   10.32 
   2 -14   7    6.45    9.32 
   2 -14   6    3.29    8.71 
   2 -14   5   18.06   14.68 
  -2 -14  -4   31.38   14.00 
   2 -14   4   33.24   18.98 
  -2 -14  -3   -3.26    1.71 
   2 -14   3   21.23   16.48 
   2 -14   2   19.03   14.31 
  -2 -14  -2   24.27   14.38 
   2 -14   1   29.43   15.42 
  -2 -14  -1   45.14   17.75 
  -2 -14   0   13.23   10.18 
   2 -14   0    9.00    6.44 
  -2 -14   1   38.27   17.08 
   2 -14  -1   49.97   17.80 
  -2 -14   2   11.98   13.00 
   2 -14  -2    9.71    9.28 
  -2 -14   3   22.75   18.62 
   2 -14  -3   12.34   11.44 
  -2 -14   4   38.87   18.13 
  -2  14   5   47.64   23.63 
  -2 -14   5   32.00   18.14 
  -2  14   6   34.87   26.23 
  -2 -14   6   10.97   12.72 
  -2  14   7    4.19    2.84 
  -2 -14   7    3.04   14.51 
  -2  14   8   15.97   11.70 
  -2  14   9   74.62   36.75 
  -2  14  10  -16.26   22.35 
   2 -15   4    2.23    2.45 
  -2 -15  -3   33.09   14.30 
   2 -15   3   27.94   17.37 
   2 -15   2    6.75    7.46 
  -2 -15  -2    8.45    8.34 
  -2 -15  -1   44.86   16.55 
   2 -15   1   36.29   17.32 
  -2 -15   0    5.95   10.41 
   2 -15   0    5.91    5.29 
  -2 -15   1   61.63   22.21 
   2 -15  -1   44.65   18.25 
   2 -15  -2   29.99   14.37 
  -2 -15   2   34.96   18.27 
  -2 -15   3   49.10   20.73 
  -2 -15   4   -3.38    8.75 
  -2  15   5   17.06   17.42 
  -2  15   6   24.10   21.89 
  -2  15   7   30.93   24.70 
  -2  15   8   -2.12    7.19 
  -2 -16  -2    1.39    4.92 
  -2 -16  -1   -1.08    6.99 
   2 -16   1   -1.06    8.62 
   2 -16   0    9.74    7.29 
  -2 -16   0    9.50    8.26 
   2 -16  -1    8.10    9.44 
  -3   0 -21   13.06   11.89 
  -3   0 -20    8.47   14.96 
  -3   0 -19   11.86   12.83 
  -3   0 -18   11.22   12.30 
  -3   0 -17   -3.18    3.85 
   3   0  17   11.00   11.37 
   3   0  16   -2.01    2.68 
  -3   0 -16    9.85   11.11 
  -3   0 -15   16.36   14.09 
   3   0  15   -9.45    6.99 
  -3   0 -14   35.96   15.62 
   3   0  14   36.97   15.34 
  -3   0 -13    0.15    4.20 
   3   0  13   24.05   13.10 
  -3   0 -12    2.69    3.62 
  -3   0 -12   10.89    9.36 
   3   0  12    8.68    8.32 
  -3   0 -11    1.00    2.76 
  -3   0 -11   10.50    7.86 
   3   0  11    2.36    4.77 
  -3   0 -10    6.84    4.08 
  -3   0 -10    4.17    5.40 
   3   0  10   12.50    8.78 
  -3   0  -9   -0.98    2.06 
   3   0   9    7.38    5.43 
  -3   0  -8   86.54   12.34 
   3   0   8  118.54   22.10 
  -3   0  -7    0.64    2.03 
   3   0   7    0.74    4.22 
  -3   0  -6    7.92    5.04 
   3   0   6    7.37    8.38 
  -3   0  -5    8.49    7.37 
  -3   0  -4    1.91    4.50 
  -3   0  -4    6.67    5.72 
  -3   0  -3   12.97    6.81 
  -3   0  -2  163.61   20.39 
   3   0   1   -4.22    1.38 
  -3   0  -1    4.64    5.15 
   3   0   0   33.99   10.05 
  -3   0   0   36.74    9.70 
  -3   0   1   10.32    5.94 
   3   0  -1    2.95    1.37 
   3   0  -1    6.89    5.39 
   3   0  -2  231.28   32.28 
  -3   0   2  209.84   25.75 
   3   0  -2  234.22   30.76 
  -3   0   3    0.99    2.97 
  -3   0   3    1.02    1.95 
   3   0  -3    7.57    6.51 
   3   0  -4   25.58   10.38 
  -3   0   4   22.80    7.86 
  -3   0   4   27.40    7.16 
  -3   0   5    2.28    1.52 
  -3   0   5    1.64    3.37 
   3   0  -5    5.66    6.25 
  -3   0   6   19.58    8.23 
  -3   0   6   25.18    6.94 
  -3   0   7   -3.06    3.76 
  -3   0   7    6.10    6.85 
  -3   0   8   28.31   10.70 
  -3   0   8    7.35    5.29 
  -3   0   9    3.57    5.05 
  -3   0   9    4.32    5.10 
  -3   0  10   18.45   11.09 
  -3   0  11   -2.97    3.93 
  -3   0  12   13.29    7.66 
  -3   0  13   -0.93    4.91 
  -3   0  14   14.95    9.83 
  -3   0  15   -2.79    4.95 
  -3   0  16    4.62    7.44 
  -3   0  17    1.37    6.74 
  -3   0  18   77.99   27.62 
  -3   0  19    7.00   11.06 
  -3   0  20   24.11   16.11 
  -3  -1 -21    7.89   16.99 
  -3   1 -21    4.02   11.05 
  -3  -1 -20   16.13   14.70 
  -3   1 -20   16.99   17.99 
  -3  -1 -19    7.22    8.03 
  -3   1 -19    1.79    8.16 
  -3   1 -18   17.93   14.23 
  -3  -1 -18    3.49    4.35 
  -3  -1 -17   10.82   12.88 
  -3   1 -17   29.94   17.52 
   3  -1  17    7.23    8.86 
  -3   1 -16   10.22   12.23 
  -3  -1 -16    8.37    9.26 
   3  -1  16   16.68   10.97 
  -3   1 -15    8.11    9.69 
  -3  -1 -15    1.76    7.94 
   3  -1  15    3.81    3.17 
  -3  -1 -14   -5.29    5.58 
  -3   1 -14   -1.39    5.41 
   3  -1  14    6.51    5.80 
  -3  -1 -13    7.35    7.98 
  -3   1 -13    4.25    4.78 
   3  -1  13    7.74    8.58 
  -3   1 -12    4.90    3.29 
  -3   1 -12    2.49    3.95 
   3  -1  12    1.38    3.33 
  -3   1 -11    5.60    2.61 
  -3   1 -11    4.83    4.61 
  -3  -1 -11    3.71    4.14 
   3  -1  11    9.76    9.64 
  -3  -1 -10   14.09    6.36 
  -3   1 -10   15.12    5.14 
  -3   1 -10   29.91   13.01 
   3  -1  10   12.75    8.16 
  -3  -1  -9    6.67    4.96 
  -3   1  -9   12.66    4.23 
  -3   1  -9   14.63    8.84 
   3  -1   9    6.13    8.10 
  -3   1  -8    5.38    3.04 
  -3   1  -8    8.88    7.74 
   3  -1   8   -2.75    3.39 
  -3   1  -7   13.89    3.78 
  -3  -1  -7   10.61    6.61 
  -3   1  -7   15.53    7.42 
   3  -1   7   23.05    9.45 
  -3   1  -6   70.70    7.21 
  -3   1  -6  113.05   17.25 
  -3  -1  -6  122.10   13.20 
  -3  -1  -6  106.25   20.07 
   3  -1   6   89.81   18.16 
  -3   1  -5   13.44    9.38 
  -3   1  -5    8.29    2.51 
  -3   1  -5   21.53    7.50 
   3  -1   5   19.08    8.97 
  -3  -1  -5   18.07    5.07 
  -3  -1  -5   24.73   11.08 
  -3   1  -4   10.15    4.46 
   3  -1   4    2.76    3.66 
  -3  -1  -4   14.11    8.42 
  -3  -1  -4    7.61    3.51 
  -3   1  -3   -0.56    1.58 
   3  -1   3    3.75    6.53 
  -3  -1  -3   -0.31    1.50 
   3   1   2   33.31   11.45 
  -3   1  -2   42.04   12.16 
   3   1   2   31.30    9.31 
  -3   1  -2   28.10    5.64 
  -3  -1  -2   28.78    7.71 
  -3   1  -1   41.36   13.00 
  -3   1  -1   20.30    5.11 
   3   1   1   29.46   11.77 
  -3   1  -1   15.89    3.51 
   3   1   1   40.93   10.67 
   3   1   0  724.37   54.42 
  -3   1   0  750.11   32.60 
   3   1   0  679.80   44.88 
  -3   1   0  793.23   52.41 
   3  -1  -1    8.15    7.98 
   3   1  -1    9.83    8.28 
   3   1  -1    3.52    6.08 
  -3   1   1    4.83    3.13 
  -3   1   1   -4.28    3.34 
   3   1  -2    5.13    3.48 
  -3   1   2    7.36    3.27 
  -3   1   2    5.90    6.19 
   3   1  -2   12.01    7.74 
  -3   1   2   10.34    8.79 
   3   1  -3    3.67    2.91 
  -3   1   3   -3.45    3.68 
   3  -1  -3   -2.68    7.20 
  -3   1   3    8.06    5.79 
   3   1  -3    3.69    5.60 
  -3   1   4   32.84    9.71 
   3  -1  -4   40.12   12.55 
  -3  -1   4   59.51   14.87 
  -3   1   4   59.57   15.43 
   3  -1  -5   75.25   16.17 
  -3  -1   5   81.74   16.00 
  -3  -1   5   76.85   15.43 
  -3   1   5   74.81   14.42 
  -3   1   5   97.30   20.52 
  -3   1   6   82.85   16.32 
  -3  -1   6   82.69   17.31 
   3  -1  -6   72.79   16.49 
  -3  -1   6   74.84   15.39 
  -3  -1   6   63.50   16.25 
  -3  -1   7   10.12    6.52 
   3  -1  -7    5.98    4.37 
  -3  -1   7    6.81    5.94 
  -3   1   7    9.84    6.81 
  -3   1   8    6.03    6.02 
  -3  -1   8    1.57    3.41 
   3  -1  -8    7.12    5.53 
  -3   1   9    9.22    5.29 
   3  -1  -9   -1.02    1.27 
  -3  -1   9    6.54    7.24 
  -3  -1  10   89.69   21.39 
  -3   1  10   72.74   18.69 
   3  -1 -10   88.22   18.73 
   3  -1 -11   -0.56    4.50 
  -3   1  11    4.09    7.68 
  -3  -1  11   -0.16    2.73 
  -3  -1  12    5.64    7.30 
  -3   1  12   -3.14    6.74 
  -3   1  13    4.69    4.94 
   3  -1 -13  -10.31    9.85 
  -3  -1  13    1.31    3.80 
  -3   1  14   10.15   10.96 
  -3  -1  14   14.94    7.54 
   3  -1 -14    3.98    2.75 
  -3  -1  15   52.38   20.05 
   3  -1 -15   28.91   15.08 
  -3   1  15   24.40   15.16 
  -3   1  16   11.42   13.32 
   3  -1 -16   10.37    7.87 
  -3  -1  16   21.81   14.84 
  -3  -1  17   13.51   12.60 
  -3   1  17   12.19   10.33 
  -3   1  18   10.55   14.40 
  -3  -1  18    5.46   10.25 
  -3  -1  19    1.79    6.41 
  -3   1  19   13.97   16.22 
  -3   1  20   17.35   16.47 
  -3  -1  20   18.30   16.18 
  -3  -2 -21   -2.74   12.45 
  -3  -2 -20   -4.00    6.98 
  -3   2 -20   18.04   16.49 
  -3  -2 -19   75.24   30.08 
  -3   2 -19   68.08   28.26 
  -3  -2 -18    4.25    4.50 
  -3   2 -18   19.56   14.68 
   3  -2  18    8.73    7.57 
   3  -2  17   26.95   14.81 
  -3  -2 -17   21.80   16.96 
  -3   2 -17   37.47   19.12 
   3  -2  16    3.01    5.70 
  -3   2 -16   11.46   10.82 
  -3  -2 -16   -1.72    4.91 
   3  -2  15    4.48    8.63 
  -3   2 -15   31.81   16.99 
   3  -2  14   24.15   10.78 
  -3   2 -14   22.54   13.68 
   3  -2  13   31.93   13.62 
  -3   2 -13   40.70   15.33 
   3  -2  12    3.56    1.28 
  -3   2 -12   10.09    8.70 
  -3  -2 -12    5.91    3.17 
   3  -2  11    6.04    6.44 
  -3   2 -11    7.93    6.06 
  -3  -2 -11    3.09    1.42 
   3  -2  10    6.32    6.13 
  -3  -2 -10    4.07    3.21 
  -3   2 -10    7.97    7.31 
  -3  -2 -10    6.79    2.28 
   3  -2   9  186.67   26.88 
  -3   2  -9  209.26   29.13 
  -3  -2  -9  202.52   27.65 
   3  -2   8   10.56    6.43 
  -3  -2  -8   11.71    6.49 
  -3   2  -8   30.60   10.45 
  -3  -2  -7  138.61   23.54 
  -3   2  -7  130.31   20.52 
   3  -2   7  127.06   21.51 
   3  -2   6   18.35    8.81 
   3   2   6    8.01    2.11 
  -3   2  -6   15.41    6.83 
  -3  -2  -6   23.10   10.97 
   3  -2   5    6.31    5.54 
  -3   2  -5    2.62    1.67 
   3   2   5   12.42    7.97 
  -3  -2  -5   20.01    8.27 
   3   2   4   51.66   13.27 
  -3   2  -4   39.51    9.30 
   3  -2   4   35.14   10.97 
   3   2   3   12.69    6.07 
   3   2   3    6.67    7.13 
   3  -2   3    6.61    3.78 
   3   2   2   37.84   12.06 
   3  -2   2   30.22   11.75 
   3   2   2   23.92    6.02 
  -3   2  -1   31.01   11.53 
  -3   2  -1   20.68    4.71 
   3   2   1   27.28   11.34 
   3  -2   1   19.07   10.54 
   3   2   1   31.65    8.71 
  -3   2   0   13.16    9.44 
   3   2   0    9.29    5.27 
  -3   2   0    5.33    2.95 
   3  -2   0   10.87    7.44 
   3   2   0   11.13    7.09 
  -3   2   1   14.87    7.56 
  -3   2   1   17.50    5.56 
   3   2  -1   12.68    6.13 
   3   2  -1    7.71    3.95 
  -3   2   1    9.63    7.15 
   3  -2  -2   16.72    6.60 
   3   2  -2    4.86    4.13 
  -3   2   2    7.17    3.81 
  -3   2   2    2.55    4.82 
  -3   2   2    9.08    5.05 
   3  -2  -3   19.08    7.40 
  -3   2   3   16.68    6.81 
   3  -2  -3   20.10    4.12 
  -3   2   3   32.81    9.61 
  -3   2   3   39.33   12.78 
  -3   2   4    7.28    4.64 
   3  -2  -4   10.36    5.32 
   3  -2  -4    7.11    2.72 
  -3   2   4   14.06    7.67 
  -3   2   4    0.04    5.11 
  -3   2   5   -1.05    3.85 
   3  -2  -5    5.35    1.53 
   3  -2  -5    2.00    1.93 
  -3   2   5   -0.19    1.55 
  -3   2   5    5.99    7.55 
  -3   2   6   25.77    9.07 
   3  -2  -6   37.02   11.69 
   3  -2  -6   16.79    5.87 
  -3  -2   6   18.62    9.09 
  -3   2   6   29.70   11.25 
  -3   2   6   32.53   11.00 
   3  -2  -7  156.96   22.81 
  -3   2   7  125.77   21.35 
   3  -2  -7  126.07   17.18 
  -3   2   7  182.45   25.05 
  -3   2   8    9.51    8.49 
  -3  -2   8    8.43    7.53 
   3  -2  -8    6.64    4.17 
  -3   2   9   27.78   11.44 
  -3  -2   9   19.97   10.06 
   3  -2  -9   12.10    6.05 
  -3  -2  10   -7.64    6.93 
   3  -2 -10   -2.95    3.94 
  -3  -2  11    7.27    6.38 
   3  -2 -11    9.16    6.32 
  -3   2  11    8.54    8.86 
  -3   2  12   29.78   15.97 
  -3  -2  12   31.32   15.00 
   3  -2 -12   31.09   13.49 
  -3   2  13   26.01   15.01 
  -3  -2  13    9.20   11.23 
   3  -2 -13   16.28   11.57 
  -3  -2  14   12.68    9.72 
  -3   2  14   14.74   10.92 
   3  -2 -14   -3.02    5.24 
  -3  -2  15   33.26   16.67 
  -3   2  15   15.90   14.78 
   3  -2 -15    9.22    7.25 
  -3  -2  16    5.71    8.48 
   3  -2 -16    5.75    8.94 
  -3   2  16    2.55    5.46 
  -3  -2  17  107.74   26.31 
  -3   2  17   73.91   27.47 
  -3  -2  17   72.78   25.84 
   3  -2 -17  104.04   26.79 
  -3  -2  18   17.01   17.24 
  -3   2  18   50.80   23.73 
   3  -2 -18   34.88   16.74 
  -3  -2  19   19.89   15.81 
   3  -2 -19   -5.55    8.48 
   3  -2 -20    3.35    6.99 
  -3  -2  20    5.28   10.48 
  -3  -3 -21    7.76   12.84 
  -3  -3 -20   18.70   19.05 
   3  -3  19    3.68    4.57 
  -3  -3 -19    5.78    6.99 
   3  -3  18    0.86    3.86 
  -3  -3 -18    9.59    9.21 
   3  -3  17   17.36   12.04 
   3  -3  16    7.53    6.11 
   3  -3  15   21.29   11.35 
   3   3  15   20.88   11.07 
   3  -3  14   -0.11    2.40 
   3   3  14   15.67    8.68 
   3  -3  13   15.14    8.27 
   3   3  13   15.00    8.48 
  -3   3 -13    3.68    6.09 
   3  -3  12   23.79   11.56 
   3   3  12   10.31    7.00 
  -3  -3 -12   17.36    8.28 
  -3   3 -12   26.93   13.62 
   3  -3  11    5.20    4.88 
   3   3  11    1.91    2.10 
  -3   3 -11   13.72    9.75 
  -3  -3 -11    4.72    5.50 
  -3  -3 -10   28.32   10.63 
   3   3  10   21.48    9.60 
   3  -3  10   32.03   12.14 
  -3  -3  -9   27.69   10.89 
   3  -3   9   24.66   10.56 
   3   3   9   19.60    7.11 
   3  -3   8    4.15    2.54 
   3   3   8   -0.42    4.61 
  -3  -3  -8    5.42    3.74 
   3   3   7   27.09    9.96 
   3  -3   7   39.93   12.57 
  -3  -3  -7   41.54   13.27 
   3  -3   6   31.46   10.62 
  -3  -3  -6   28.74    9.90 
   3   3   6   24.29    8.63 
   3  -3   5    0.51    4.33 
   3   3   5    3.06    4.88 
   3   3   4   24.06    6.94 
   3  -3   4    5.80    5.46 
   3   3   4   28.00   10.56 
   3  -3   4   18.32    6.25 
   3  -3   3    2.51    1.95 
   3  -3   3    1.06    1.69 
   3   3   3    3.40    3.51 
   3   3   3    0.66    5.82 
   3  -3   2   -0.41    3.53 
   3   3   2    5.46    3.78 
   3  -3   2    2.74    1.87 
  -3  -3  -2   -2.46    2.43 
   3   3   2    4.35    3.33 
   3  -3   1   45.51    6.58 
   3   3   1   62.46   15.66 
   3  -3   1   35.72    6.11 
   3  -3   1   45.31   13.91 
  -3   3   0    2.15    5.06 
   3  -3   0    7.27    5.98 
   3  -3   0   10.88    3.98 
  -3   3   1   29.87   14.96 
  -3   3   1   38.00   12.85 
   3  -3  -1   26.12    6.68 
   3  -3  -1   17.48   10.20 
  -3   3   2   20.23   10.72 
  -3   3   2    3.48    2.31 
   3  -3  -2    8.36    4.37 
   3  -3  -2    9.97    8.39 
  -3   3   3    9.69    6.17 
  -3   3   3    6.28    5.09 
   3  -3  -3    4.60    3.86 
  -3   3   4    4.56    4.67 
   3  -3  -4    0.44    2.03 
  -3   3   4    4.00    3.69 
  -3   3   4   -3.39   10.16 
  -3   3   5   76.47   15.65 
  -3   3   5   49.72   12.48 
  -3   3   5   70.82   20.90 
  -3   3   6    2.53    4.37 
  -3   3   6   18.20    8.81 
  -3   3   6    7.84    8.99 
   3  -3  -6    4.52    3.60 
  -3   3   7    8.06    2.53 
   3  -3  -7    2.82    3.75 
   3  -3  -7   -0.01    4.44 
  -3   3   7    3.63    5.36 
  -3   3   7    8.64    6.41 
   3  -3  -8    8.52    6.32 
   3  -3  -8    3.96    4.01 
  -3   3   8   -7.80   10.65 
  -3   3   8    2.98    4.77 
  -3   3   8    5.56    5.74 
  -3   3   9    3.40    4.07 
   3  -3  -9   12.04    6.62 
  -3   3   9    4.06    4.07 
   3  -3 -10   53.10   13.82 
  -3  -3  10   49.97   17.99 
  -3   3  10   72.69   14.97 
  -3   3  10   65.27   17.85 
  -3   3  11   11.27   10.29 
  -3  -3  11    7.20    8.01 
   3  -3 -11    6.64    8.43 
  -3   3  11   14.84    6.63 
  -3   3  12   42.27   17.08 
  -3  -3  12   34.03   18.25 
   3  -3 -12   22.94   10.88 
  -3  -3  13    7.20    9.34 
   3  -3 -13    5.55    6.68 
  -3   3  13   10.20   12.47 
  -3   3  14    2.36    7.50 
  -3  -3  14   -0.57    2.26 
   3  -3 -14    6.15    8.18 
  -3  -3  15   96.58   27.65 
   3  -3 -15   71.48   21.99 
   3  -3 -16    2.80    6.66 
  -3  -3  16   25.46   17.19 
  -3  -3  17   40.47   20.18 
  -3  -3  17   53.20   20.10 
   3  -3 -17   24.59   14.99 
  -3  -3  18    7.50    8.40 
   3  -3 -18    3.31    6.60 
  -3  -3  19    9.33    9.91 
   3  -3 -19    2.58    7.10 
  -3  -3  20    7.65    6.16 
   3  -3 -20   30.01   17.54 
   3  -3 -21   12.30   13.14 
   3  -3 -22   12.98   12.63 
  -3  -4 -20   -2.31    5.80 
   3  -4  19    4.69   10.70 
  -3  -4 -19   -7.52    7.58 
   3  -4  18    3.15    5.20 
   3  -4  17   -5.59    7.23 
   3  -4  16   16.00   12.45 
   3  -4  15    4.43    3.98 
   3   4  14  126.60   21.41 
   3  -4  14  118.73   26.28 
   3   4  13   16.76    8.97 
   3  -4  13   17.00   13.80 
   3   4  12   23.49   10.43 
   3  -4  12   25.64   14.05 
  -3  -4 -12   24.26   10.61 
   3   4  11    9.57    7.18 
  -3  -4 -11    1.44    3.47 
   3  -4  11    4.57    7.04 
  -3  -4 -10   14.41    6.77 
   3   4  10   25.40   12.28 
   3  -4  10    7.55   10.19 
   3   4   9   41.26   13.40 
   3  -4   9   36.80   14.19 
  -3  -4  -9   25.34   10.69 
   3   4   8    7.82    7.39 
   3  -4   8   13.44   10.56 
  -3  -4  -8   11.34    8.77 
   3   4   7   36.73   12.52 
   3  -4   7   35.57   12.44 
   3   4   6   13.20    8.41 
   3  -4   6    5.83    6.02 
   3   4   5    5.82    3.35 
   3  -4   5    1.12    3.52 
   3  -4   5   10.79    6.70 
   3  -4   4   51.89   14.84 
   3  -4   4   26.44    8.50 
   3   4   4   53.62    8.19 
   3  -4   3  197.11   11.41 
   3  -4   3  246.14   22.80 
   3  -4   3  228.54   29.34 
   3  -4   2   23.53    9.85 
   3  -4   2   28.74    5.09 
   3  -4   2   18.54    5.60 
   3  -4   1    7.19    6.50 
   3  -4   1    7.47    2.98 
   3  -4   0    5.73    6.41 
   3  -4   0    0.03    1.75 
  -3   4   1   49.17   16.64 
  -3   4   1   32.88   11.91 
   3  -4  -1   24.67    6.72 
   3  -4  -1   27.50   10.03 
  -3   4   2   81.91   22.17 
   3  -4  -2   46.76    9.77 
  -3   4   2   59.24   14.44 
   3  -4  -2   65.66   17.14 
  -3   4   3   79.83   20.48 
   3  -4  -3  137.96   17.87 
  -3   4   3  102.98   18.62 
   3  -4  -3  101.43   20.74 
  -3   4   4    5.52    4.25 
  -3   4   4   12.30    8.37 
  -3   4   5    0.77    2.36 
  -3   4   5  -18.46   12.38 
  -3   4   6    5.69    5.11 
  -3   4   6    4.71    7.29 
  -3   4   7    0.00    3.98 
   3  -4  -7    8.37    3.90 
  -3   4   7    7.97    7.80 
  -3   4   8    8.70    5.63 
   3  -4  -8    0.63    2.70 
  -3   4   8    1.24    8.43 
   3  -4  -9    7.59    7.64 
  -3   4   9    6.90    4.01 
  -3   4   9   -0.56    7.06 
  -3   4  10   15.70    6.99 
  -3   4  11    4.55    2.99 
  -3  -4  11    2.47    6.78 
   3  -4 -11    7.22    5.90 
  -3  -4  12  101.82   27.13 
   3  -4 -12   93.71   22.20 
   3  -4 -13    9.80    8.63 
  -3  -4  13    3.18    7.19 
  -3  -4  14    4.56    5.09 
   3  -4 -14    3.87    6.12 
  -3  -4  15    2.21    2.62 
   3  -4 -15    8.01    7.22 
  -3  -4  16    2.57    5.87 
   3  -4 -16   13.09   11.18 
  -3  -4  17    8.60    4.12 
  -3  -4  17   23.94   15.17 
   3  -4 -17    5.00    7.29 
  -3  -4  18    5.99    8.25 
  -3  -4  18    7.45    7.26 
   3  -4 -18    4.88    4.10 
  -3  -4  19   22.45   17.42 
   3  -4 -19    6.47    5.37 
  -3  -4  20   21.89   18.78 
   3  -4 -20    3.06    2.51 
   3  -4 -21   -5.58    4.10 
   3  -4 -22   28.38   18.34 
   3  -5  20   -1.71    5.70 
   3  -5  19   12.46   10.90 
   3  -5  18    3.35    4.38 
   3  -5  17    9.33    9.89 
   3  -5  16   -1.55    4.73 
   3  -5  15   11.89   10.39 
   3  -5  14   15.86   10.10 
   3  -5  13    4.48    7.32 
   3  -5  12    6.55    3.48 
   3  -5  12    9.10    8.86 
  -3  -5 -11   -0.76    3.65 
   3  -5  11    8.11    3.29 
   3  -5  11   14.63   12.74 
   3  -5  10    7.06    6.97 
   3  -5  10   15.47    4.35 
  -3  -5 -10   -0.36    3.65 
   3  -5   9    6.21    2.54 
   3  -5   9    2.84    7.95 
  -3  -5  -9    3.99    5.82 
   3  -5   8    1.37    1.49 
   3  -5   8   -2.86    2.30 
   3  -5   7   -1.41    3.16 
   3  -5   7    2.20    1.53 
   3  -5   6    8.72    9.28 
   3  -5   5  101.32   22.54 
   3  -5   4    4.80    6.05 
   3  -5   4   11.04    6.19 
   3  -5   3   -5.24    2.98 
   3  -5   2   13.35    4.25 
   3  -5   2   29.79   11.45 
   3  -5   1   29.44   10.40 
   3  -5   1   32.47    6.98 
   3  -5   0  174.90   17.22 
   3  -5   0  173.47   25.36 
   3  -5  -1   51.19   14.04 
   3  -5  -1   57.98   10.71 
  -3   5   2   12.80   12.18 
   3  -5  -2   11.61    4.72 
   3  -5  -2   17.46    9.37 
  -3   5   3   34.60   15.60 
   3  -5  -3   19.30    6.74 
  -3   5   3   26.41   10.28 
   3  -5  -3   18.18    9.11 
  -3   5   4   77.82   21.48 
   3  -5  -4   67.27   16.96 
  -3   5   4   57.57   14.15 
  -3   5   5  138.10   20.78 
  -3   5   5  142.58   29.39 
  -3   5   6    6.51    5.15 
  -3   5   6   -6.20    8.49 
  -3   5   7   10.45    5.81 
  -3   5   7    9.52    9.61 
   3  -5  -8    4.64    4.35 
  -3   5   8    4.10    2.86 
  -3   5   8    0.06    4.96 
   3  -5  -9   23.94   10.04 
  -3   5   9   31.50    9.82 
  -3   5   9   29.76   13.55 
   3  -5 -10   54.82   13.73 
  -3   5  10   53.61   11.15 
  -3   5  10   89.00   26.36 
  -3   5  11   40.88   17.79 
  -3  -5  12    1.15    4.98 
  -3  -5  13   -4.00    4.39 
   3  -5 -13    3.87    7.13 
  -3  -5  14   20.05   12.97 
   3  -5 -14   13.65   10.50 
  -3  -5  15   15.65   13.98 
   3  -5 -15    5.75    7.47 
   3  -5 -16    1.10    2.22 
  -3  -5  16    7.60   10.21 
  -3  -5  16    0.71    5.98 
  -3  -5  17   11.37    6.03 
  -3  -5  17    6.33    8.51 
   3  -5 -17    3.73    7.52 
  -3  -5  18    9.48   11.62 
  -3  -5  18    4.12    5.44 
   3  -5 -18    2.81    8.12 
  -3  -5  19   10.22   10.26 
   3  -5 -19    6.88   10.45 
   3  -5 -20   10.87    5.67 
   3  -5 -21   10.31    7.24 
   3  -6  20    9.04   10.16 
   3  -6  19   32.58   16.97 
   3  -6  18   12.74   11.43 
   3  -6  17    5.54   10.22 
   3  -6  16    8.97    7.93 
   3  -6  15  -10.34    7.13 
   3  -6  14    0.14    8.06 
   3  -6  13   18.59   13.68 
   3  -6  12    2.85    1.35 
   3  -6  11    5.88    3.76 
   3  -6  11   -7.42    3.51 
   3  -6  10    7.86    3.97 
   3  -6  10    0.06    2.74 
  -3  -6 -10   -2.33    3.73 
   3  -6   9    9.24    3.76 
   3  -6   9    1.71    5.99 
   3  -6   8   18.44   11.36 
   3  -6   7   17.98    9.78 
   3  -6   6   23.28   12.30 
   3  -6   5   -3.40    2.29 
   3  -6   4   10.57    9.48 
   3  -6   3  226.34   31.85 
   3  -6   2    9.77    6.81 
   3  -6   1   -2.61    4.23 
   3  -6   0    0.47    2.96 
   3  -6   0    8.90    6.12 
   3  -6  -1   10.35    5.33 
   3  -6  -1    6.57    5.66 
   3  -6  -2   32.18   12.87 
  -3   6   2   17.13   13.33 
   3  -6  -3   63.80   16.34 
  -3   6   3   55.81   18.91 
  -3   6   4    5.34    7.85 
   3  -6  -4   10.53    6.78 
  -3   6   5    4.57    4.26 
   3  -6  -5    2.39    5.48 
  -3   6   6    6.22    6.10 
  -3   6   6    7.93    0.64 
  -3   6   7   48.47   12.14 
  -3   6   7   53.36   18.87 
  -3   6   8    7.98    5.55 
  -3   6   8   13.64   10.55 
  -3   6   9   38.44   10.30 
   3  -6  -9   19.91    8.73 
  -3   6   9   48.48   22.39 
   3  -6 -10    4.14    5.69 
  -3   6  10    6.30    9.85 
  -3   6  11    9.90   10.73 
  -3   6  12   -4.76    9.31 
  -3  -6  13   23.60   14.64 
  -3  -6  14    7.77    9.67 
  -3  -6  15   20.46   17.10 
   3  -6 -15    2.76    6.39 
  -3  -6  16    3.70    7.75 
   3  -6 -16    1.51    3.37 
  -3  -6  17   11.68   14.26 
   3  -6 -17   21.41   14.94 
  -3  -6  17   21.10   14.72 
  -3  -6  18   19.46   19.48 
   3  -6 -18    5.84   11.20 
  -3  -6  18   -4.65    6.09 
  -3  -6  19   12.61   16.16 
   3  -6 -19    3.50    9.50 
  -3  -6  19    4.80   14.29 
   3  -6 -20    8.08    7.45 
   3  -6 -21    1.34    5.45 
   3  -7  20    9.62    8.20 
   3  -7  19   -0.81    5.16 
   3  -7  18   -4.67    6.77 
   3  -7  17    1.24    7.90 
   3  -7  16    4.08    6.91 
   3  -7  15   16.88   14.27 
   3  -7  14    3.43    3.31 
   3  -7  13    7.59    8.27 
   3  -7  12    3.69    4.57 
   3  -7  11   16.57   10.29 
   3  -7  10   38.00    8.51 
   3  -7  10   40.68   16.89 
   3  -7   9    3.15    4.93 
   3  -7   8    3.10    9.96 
   3   7   7   35.22   19.40 
   3  -7   7    1.13    5.36 
   3  -7   6   85.88   20.98 
   3  -7   5   97.52   23.31 
   3  -7   4   67.58   18.50 
   3  -7   3    9.25   10.01 
   3  -7   2    7.17    6.94 
   3  -7   1    7.75    7.18 
   3  -7   0    8.40    7.73 
   3  -7  -1    4.47    3.36 
   3  -7  -2    3.78    6.67 
   3  -7  -3   21.41    9.83 
  -3   7   3   16.19   12.57 
   3  -7  -4   28.88   12.11 
  -3   7   4   40.49   17.19 
  -3   7   5  140.37   30.74 
   3  -7  -5  158.30   25.84 
   3  -7  -6   10.07    8.24 
  -3   7   6   -2.26    9.26 
  -3   7   7    4.02    4.05 
  -3   7   7  -11.53   12.00 
  -3   7   8    5.82    4.65 
  -3   7   8   -7.42   14.68 
  -3   7   9   73.01   26.83 
   3  -7 -10   28.64   11.70 
  -3   7  10   64.57   25.55 
  -3   7  11  -13.38   13.20 
  -3   7  12   -1.76    6.93 
  -3  -7  14   19.16   18.11 
  -3  -7  15   13.57   15.62 
  -3  -7  15    3.37   11.99 
  -3  -7  16   -1.56    8.14 
  -3  -7  16   -2.55    2.86 
  -3  -7  17   25.93   19.78 
   3  -7 -17   10.81   11.19 
  -3  -7  17    4.56   11.35 
  -3  -7  18   14.42   22.89 
   3  -7 -18    6.58    8.24 
  -3  -7  18   28.15   18.02 
   3  -7 -19   12.31   13.92 
  -3  -7  19  -10.52    5.00 
   3  -7 -20   26.46   18.37 
   3  -8  19    9.18    3.61 
   3  -8  18   38.08   18.48 
   3  -8  17   18.07   15.42 
   3  -8  16    4.01    6.41 
   3  -8  15    2.29    4.51 
   3  -8  14   42.31   17.91 
   3  -8  13    9.79   11.61 
   3  -8  12   64.41   24.37 
   3  -8  11   23.21   13.95 
   3  -8  10    4.51    3.93 
   3  -8   9    3.01    6.09 
   3  -8   8   23.15   10.72 
   3  -8   7   11.48    9.74 
   3  -8   6   17.25   14.57 
   3  -8   5   12.26    9.41 
   3  -8   4   64.83   19.05 
   3  -8   3   12.51    8.59 
   3  -8   2    2.90    4.81 
   3  -8   1   15.28    8.04 
   3  -8   0   -0.39    3.47 
   3  -8  -1   10.82    8.56 
   3  -8  -2   20.52    9.40 
  -3   8   3   25.34   16.09 
   3  -8  -3   -2.34    3.02 
   3  -8  -4   -4.48    2.82 
  -3   8   4   12.34   11.99 
  -3   8   5    5.01    8.77 
   3  -8  -5    5.23    5.83 
  -3   8   6   19.55   15.81 
   3  -8  -6    2.94    3.02 
   3  -8  -7   12.47    9.94 
  -3   8   7    9.41    5.91 
  -3   8   8   46.25   18.72 
  -3   8   9    7.57    9.93 
  -3   8  10   17.04   13.54 
  -3   8  11   15.53   13.24 
  -3   8  12   60.89   27.31 
  -3   8  13    9.63   13.74 
  -3  -8  14   34.65   18.53 
  -3  -8  15   -5.59    9.61 
  -3  -8  15    3.25   10.07 
  -3  -8  16    1.53   10.70 
  -3  -8  16    0.23   12.03 
  -3  -8  17   -7.88   11.59 
  -3  -8  17   35.66   21.60 
   3  -8 -18    7.54    9.60 
  -3  -8  18    2.49   11.96 
  -3  -8  19    1.15    8.22 
   3  -8 -19   13.79   14.52 
   3  -9  17    4.56    9.17 
   3  -9  16    5.37    7.06 
   3  -9  15   13.58   10.16 
   3  -9  14    9.89   12.04 
   3  -9  13    6.20    2.29 
   3  -9  12   28.93   16.08 
   3  -9  11   25.53   15.90 
   3  -9  10   10.18    6.42 
   3  -9   9   -7.24   10.37 
   3  -9   8   21.65   15.89 
   3  -9   7   10.50   11.46 
   3  -9   6   55.80   18.72 
   3  -9   5   12.12    8.85 
   3  -9   4    8.37   10.22 
   3  -9   3    6.30    8.43 
   3  -9   2   -1.42    3.85 
   3  -9   1    1.81    8.82 
   3  -9   0   -0.47    6.00 
   3  -9  -1   27.71   12.99 
   3  -9  -2   10.86    9.17 
   3  -9  -3    8.12    7.45 
  -3   9   4   13.16   15.43 
   3  -9  -4    6.60    5.20 
   3  -9  -5   10.10    6.98 
  -3   9   5    3.80   12.26 
  -3   9   6   12.57   13.29 
   3  -9  -6   16.46   11.48 
  -3   9   7   20.37   15.12 
   3  -9  -7   23.59   12.27 
   3  -9  -8    3.36    6.13 
  -3   9   8  -13.96   12.78 
  -3   9   9    0.09    5.77 
  -3   9  10  107.94   36.72 
  -3   9  11   40.58   21.03 
  -3   9  12   32.96   21.35 
  -3  -9  13   -0.91    4.21 
  -3   9  13    7.21    6.40 
  -3  -9  14    6.45   15.54 
  -3   9  14   -3.10    3.29 
  -3  -9  15   21.95   21.42 
  -3  -9  16    9.92   11.50 
  -3  -9  16   14.39   16.76 
  -3  -9  17   12.25   14.91 
   3 -10  16   25.74   21.15 
   3 -10  15   12.67   13.12 
   3 -10  14    1.39    3.30 
   3 -10  13   12.98   10.33 
   3 -10  12    6.69   11.61 
   3 -10  11    8.17    4.71 
   3 -10  10   -8.52    8.52 
   3 -10   9   -5.29    8.58 
   3 -10   8   38.46   17.14 
   3 -10   7   19.97   15.31 
   3 -10   6    0.95    1.84 
   3 -10   5   16.61    5.29 
   3 -10   4   17.07   11.65 
   3 -10   3  119.45   27.25 
   3 -10   2   13.77   10.86 
   3 -10   1   -1.71    5.31 
   3 -10   0    1.23    4.91 
   3 -10  -1   56.09   18.50 
   3 -10  -2  109.58   25.42 
   3 -10  -3    3.81    8.16 
  -3  10   4   11.76   10.32 
   3 -10  -4    8.71    5.36 
  -3  10   5    6.58   12.08 
   3 -10  -5   10.50    7.79 
   3 -10  -6    2.51    5.54 
  -3  10   6   10.33   12.51 
  -3  10   7   21.96   12.06 
   3 -10  -7   22.33   10.69 
  -3  10   8   54.06   21.86 
  -3  10   9   -3.46   10.77 
  -3  10  10    2.29    6.12 
  -3  10  11   -5.65   10.43 
  -3 -10  12   16.87   17.32 
  -3  10  12   31.93   20.53 
  -3 -10  13   -4.79    8.87 
  -3  10  13  -12.32   20.71 
  -3 -10  14   11.98   16.57 
  -3  10  14  -12.90   23.30 
  -3 -10  15   22.95   23.03 
   3 -11  14   -2.40    6.37 
   3 -11  13    0.37    9.88 
   3 -11  12   37.06   19.25 
   3 -11  11   25.08   15.34 
   3 -11  10   25.51   18.10 
   3 -11   9   13.96   13.04 
   3 -11   8    8.89   12.57 
   3 -11   7   -0.82    3.70 
   3 -11   6   15.07   11.52 
   3 -11   5   29.46   16.82 
   3 -11   4   23.26   11.58 
   3 -11   3    7.45    6.25 
   3 -11   2   -3.15    3.29 
   3 -11   1   -8.17    2.70 
   3 -11   0   40.85   16.37 
   3 -11  -1    6.07    6.86 
   3 -11  -2   18.30   13.58 
   3 -11  -3    9.39   11.04 
  -3  11   4   13.25   11.86 
   3 -11  -4    4.36    2.64 
  -3  11   5   57.33   21.27 
   3 -11  -5   38.30   15.55 
   3 -11  -6   39.64   16.75 
  -3  11   6   65.77   24.22 
  -3  11   7   16.45   15.28 
  -3  11   8   13.74    9.86 
  -3  11   9   -0.68   17.31 
  -3 -11  10    6.02    6.64 
  -3  11  10  -17.87   22.12 
  -3 -11  11   11.28    4.81 
  -3  11  11   10.76   21.12 
  -3 -11  12    8.50    3.68 
  -3  11  12   25.67   24.98 
  -3  11  13  -20.87   11.96 
  -3 -11  13   10.96   15.61 
  -3  11  14   26.34   17.96 
  -3  11  15   -8.22    7.51 
   3 -12  11    4.37    9.84 
   3 -12  10   16.94   15.30 
   3 -12   9   14.19   13.22 
   3 -12   8   22.36   14.56 
   3 -12   7   17.51   13.02 
   3 -12   6    9.93    9.94 
   3 -12   5   17.23   15.70 
   3 -12   4   19.10   12.35 
   3 -12   3    6.23    8.79 
   3 -12   2    2.42    1.73 
   3 -12   1   16.12    9.97 
   3 -12   0   -8.10    9.66 
   3 -12  -1   13.43   13.72 
   3 -12  -2   65.67   21.09 
   3 -12  -3   -2.99    8.89 
  -3  12   4   16.97   13.55 
   3 -12  -4    8.52    9.70 
  -3  12   5   26.24   13.41 
   3 -12  -5    5.89    9.05 
  -3  12   6   28.37   18.53 
  -3  12   7   32.28   23.07 
  -3 -12   8   11.38   13.99 
  -3  12   8   -8.28   12.52 
  -3 -12   9   23.31   14.99 
  -3  12   9    2.23   11.67 
  -3 -12  10   27.24   17.90 
  -3  12  10  -23.46   22.26 
  -3 -12  11  -11.23    5.77 
  -3  12  11   15.94   15.91 
  -3  12  12   -3.52   13.13 
  -3  12  13   -5.04   11.28 
  -3  12  14  -11.83   12.41 
   3 -13   9    9.29    3.29 
   3 -13   8   16.08   13.37 
   3 -13   7    6.09    8.55 
   3 -13   6   14.91   11.28 
   3 -13   5   14.86   14.24 
   3 -13   4   -0.01    5.30 
   3 -13   3   -0.77    6.89 
   3 -13   2   13.06   12.80 
   3 -13   1    8.27   11.97 
   3 -13   0    6.99    8.38 
   3 -13  -1   15.25   10.97 
   3 -13  -2   10.30    8.32 
   3 -13  -3   10.11   10.58 
  -3  13   4   -0.11    5.66 
   3 -13  -4    7.97    6.11 
  -3 -13   4   12.60    9.38 
  -3  13   5   25.85   18.94 
  -3 -13   5    3.57    7.13 
  -3  13   6    5.64    6.44 
  -3 -13   6   13.72   12.21 
  -3  13   7   14.36   19.41 
  -3 -13   7    1.19    6.57 
  -3 -13   8   34.16   18.56 
  -3  13   8   47.37   24.55 
  -3  13   9   -7.22   18.60 
  -3  13  10  -19.04   16.29 
  -3  13  11  -18.66   25.06 
  -3  13  12   33.21   31.10 
  -3  13  13   14.93   19.61 
   3 -14   6   -4.91   10.59 
   3 -14   5    1.72   10.32 
  -3 -14  -4   13.32   11.48 
   3 -14   4   13.65   11.79 
   3 -14   3   -3.86    4.87 
  -3 -14  -3   12.00    7.47 
   3 -14   2   -2.72    5.15 
  -3 -14  -2   25.01   14.69 
  -3 -14  -1    4.45    8.30 
   3 -14   1   -9.91    9.15 
  -3 -14   0   -0.66    3.64 
   3 -14   0  -10.41   13.24 
  -3 -14   1   16.16   11.72 
   3 -14  -1    8.13   10.67 
   3 -14  -2   13.86   13.10 
  -3 -14   2   24.04   15.60 
   3 -14  -3   24.30   15.03 
  -3 -14   3   19.50   12.13 
  -3  14   4   33.26   20.03 
  -3 -14   4   23.05   16.33 
  -3  14   5   11.66   11.82 
  -3 -14   5    4.96    9.58 
  -3  14   6   16.70   15.48 
  -3  14   7   15.72   13.97 
  -3  14   8  -14.66   13.97 
  -3  14   9   -5.35   15.30 
  -3  14  10  -14.45    8.80 
  -3 -15  -3    2.65    4.21 
   3 -15   3    4.91    6.79 
   3 -15   2   -3.70    0.49 
  -3 -15  -2    6.07    1.26 
   3 -15   1    6.59    9.65 
  -3 -15  -1    8.67    2.84 
   3 -15   0    5.44    7.30 
  -3 -15   0    5.83    9.74 
   3 -15  -1    4.45    8.65 
  -3 -15   1   24.61   14.11 
  -3 -15   2   18.61   14.03 
  -4   0 -21    6.93   11.24 
  -4   0 -20   31.89   23.57 
  -4   0 -19    3.23   11.84 
  -4   0 -18   61.29   22.65 
  -4   0 -17   -8.05    9.24 
  -4   0 -16   20.53   14.53 
  -4   0 -15    5.70    9.58 
  -4   0 -14   11.12   10.14 
  -4   0 -13   11.32    9.30 
  -4   0 -12   93.44   23.81 
  -4   0 -11   16.28   10.25 
  -4   0 -11    9.42    4.89 
  -4   0 -10  778.27   40.25 
  -4   0 -10 1007.79   68.37 
  -4   0  -9    6.38    3.91 
  -4   0  -9    0.60    6.14 
  -4   0  -8    3.99    2.30 
  -4   0  -7   17.11    7.98 
  -4   0  -6  195.72   23.93 
  -4   0  -5    5.59    4.75 
  -4   0  -4   17.13    6.57 
  -4   0  -3   -0.27    0.70 
  -4   0  -2  162.90   23.59 
  -4   0  -1  139.46   25.91 
   4   0   0 5226.46  175.62 
  -4   0   0 4996.03  137.75 
   4   0   0 5247.00  163.15 
   4   0  -1   19.68   15.81 
  -4   0   1    8.79    7.91 
   4   0  -2    5.65    8.59 
  -4   0   2    3.53    4.12 
   4   0  -3    4.65    6.11 
  -4   0   3    2.81    3.78 
  -4   0   3   -0.05    1.58 
  -4   0   4   16.48    8.24 
   4   0  -4   10.27    7.62 
  -4   0   4    2.27    2.16 
   4   0  -5    9.90    6.47 
  -4   0   5   -0.08    3.09 
  -4   0   5    5.07    4.40 
   4   0  -6  290.15   38.25 
  -4   0   6  361.65   37.94 
  -4   0   7    6.80    6.94 
  -4   0   8    1.32    5.41 
  -4   0   9   11.19    9.22 
  -4   0  10  842.56   67.63 
  -4   0  11   -5.64    6.00 
  -4   0  12   37.36   14.24 
  -4   0  13   -1.17    3.75 
  -4   0  14    3.96    2.88 
  -4   0  15  -15.43   12.83 
  -4   0  16   42.89   18.60 
  -4   0  17    8.93   12.99 
  -4   0  18   29.85   15.83 
  -4   0  19    7.67   10.35 
  -4   1 -21    1.27    3.39 
  -4  -1 -20   36.90   23.01 
  -4   1 -20   11.49   14.24 
  -4  -1 -19   32.00   18.92 
  -4   1 -19    4.88   16.02 
  -4  -1 -18  171.77   43.91 
  -4   1 -18  158.29   41.54 
  -4  -1 -17    7.76   11.82 
  -4   1 -17   21.70   14.26 
   4  -1  17    1.49    3.98 
  -4  -1 -16    6.91    6.46 
  -4   1 -16    8.08   10.96 
   4  -1  16    5.45    8.41 
  -4  -1 -15   54.59   24.33 
  -4   1 -15   74.08   23.90 
   4  -1  15   58.15   22.65 
  -4  -1 -14   12.00   13.87 
  -4   1 -14    5.97    6.62 
   4  -1  14   10.25   10.25 
  -4  -1 -13   38.48   16.62 
  -4   1 -13   43.74   18.90 
   4  -1  13   29.08   14.79 
  -4   1 -12   74.96   22.39 
   4  -1  12   52.19   18.83 
  -4   1 -11    2.04    2.24 
  -4   1 -11    7.36    5.62 
  -4  -1 -11   -2.12    3.26 
   4  -1  11    7.85    9.02 
  -4  -1 -10   99.64   17.42 
  -4   1 -10   81.42   10.50 
  -4   1 -10  127.32   26.14 
   4  -1  10  111.69   25.00 
  -4  -1  -9   24.30    7.00 
  -4   1  -9    8.07    3.38 
  -4   1  -9   19.93    9.88 
   4  -1   9   12.34    6.70 
  -4   1  -8  138.20   11.02 
  -4   1  -8  210.45   28.03 
   4  -1   8  191.29   31.84 
  -4  -1  -8  198.55   19.10 
  -4   1  -7    4.28    1.98 
  -4   1  -7    7.68    5.48 
   4  -1   7   19.75   12.94 
  -4  -1  -7   20.52    7.05 
  -4   1  -6   38.09   10.99 
   4  -1   6   29.86   13.13 
  -4   1  -6    9.84    2.84 
  -4  -1  -6   20.18    6.81 
  -4   1  -5   90.66   17.47 
  -4   1  -5   65.03   12.23 
  -4  -1  -5   83.43   12.99 
  -4   1  -4   34.57    8.46 
  -4  -1  -4   29.33    8.12 
  -4   1  -3   91.17   19.16 
  -4   1  -3  101.80   12.81 
   4   1   3   81.33   22.91 
  -4  -1  -3  100.82   16.25 
  -4   1  -2  155.82   14.37 
  -4   1  -2  171.78   13.85 
   4   1   2  181.00   32.14 
  -4  -1  -2  166.49   20.44 
  -4   1  -2  218.61   29.30 
   4   1   2  185.00   28.40 
   4   1   1   22.38   13.81 
  -4   1  -1    7.77    3.41 
   4   1   1    7.60   12.84 
  -4   1  -1    5.89    2.18 
  -4   1  -1   15.14   10.26 
  -4   1   0   81.99   12.58 
   4   1   0  139.38   28.62 
  -4   1   0  177.24   27.72 
   4   1   0  141.74   23.02 
   4   1  -1   19.42   12.74 
  -4   1   1   12.09    6.03 
  -4   1   1   22.36   10.78 
   4   1  -1   23.44   10.55 
   4   1  -2   62.88   21.25 
   4  -1  -2   47.53   18.79 
  -4   1   2   26.40   12.98 
   4   1  -3  127.95   27.69 
  -4   1   3  159.57   21.56 
   4  -1  -3  106.61   26.87 
  -4   1   3  146.21   27.26 
   4  -1  -4   -4.48    6.44 
  -4   1   4    8.25    6.18 
  -4  -1   4    6.72    4.29 
  -4   1   4   -7.15    6.72 
   4   1  -4    9.53   11.94 
   4  -1  -5    1.52    2.49 
  -4   1   5   13.94    6.57 
  -4  -1   5    7.79    8.15 
  -4  -1   5   11.28    6.02 
  -4   1   6  189.47   26.33 
  -4  -1   6  221.94   31.21 
  -4  -1   6  217.53   27.18 
   4  -1  -6  229.57   33.14 
   4  -1  -7   20.21   11.92 
  -4   1   7    8.67    6.58 
  -4  -1   7    7.48    7.58 
  -4  -1   7    6.07    3.19 
  -4   1   8  153.90   26.74 
  -4  -1   8  191.28   31.16 
  -4   1   9    3.70    5.34 
  -4  -1   9   10.45    6.00 
  -4   1  10   12.40    9.10 
  -4  -1  10   25.70   11.25 
  -4   1  11    6.61    9.35 
  -4  -1  11    1.04    2.53 
  -4  -1  12   83.32   23.39 
  -4   1  12   71.80   21.12 
  -4   1  13   35.11   16.07 
  -4  -1  13   36.29   16.51 
  -4   1  14    0.54    2.27 
  -4  -1  14   16.51   13.36 
  -4   1  15   28.07   15.81 
  -4  -1  15   27.65   16.82 
  -4   1  16   29.45   15.29 
  -4  -1  16   13.73   10.38 
  -4   1  17   13.33   15.09 
  -4  -1  17    6.70    6.82 
  -4   1  18  115.14   32.52 
  -4  -1  18  143.62   37.54 
  -4   1  19    9.48   13.31 
  -4  -1  19   16.73   15.85 
  -4  -2 -20   14.89   14.95 
  -4   2 -20   -5.92    7.35 
  -4  -2 -19    3.82    8.11 
  -4   2 -19   -1.31    7.14 
  -4  -2 -18    7.59   10.28 
  -4   2 -18   17.10   11.67 
   4  -2  18   38.26   18.94 
  -4  -2 -17   12.33   14.22 
  -4   2 -17   28.09   16.23 
   4  -2  17   33.38   19.59 
  -4  -2 -16   21.98   16.30 
  -4   2 -16   32.95   19.55 
   4  -2  16   13.84   12.59 
  -4   2 -15  294.25   47.97 
   4  -2  15  227.33   41.06 
  -4   2 -14    5.27    8.99 
   4  -2  14   -2.46    2.50 
  -4   2 -13    7.69    7.98 
   4  -2  13   15.10   10.22 
  -4   2 -12   74.04   21.18 
   4  -2  12   66.23   20.64 
  -4   2 -11   24.38   10.45 
   4  -2  11   29.80   14.84 
  -4   2 -10   31.91   12.68 
   4  -2  10   41.45   16.63 
  -4   2  -9   14.86    8.80 
   4  -2   9   11.76    8.38 
   4   2   8   13.63    7.15 
  -4   2  -8    1.08    2.53 
   4  -2   8    6.27    4.81 
   4   2   7   11.25    7.53 
  -4   2  -7   10.84    6.88 
   4  -2   7   20.92   13.60 
   4   2   6  197.46   34.91 
  -4   2  -6  246.14   26.47 
   4  -2   6  214.26   32.37 
   4   2   5 1085.16   79.44 
  -4   2  -5 1166.59   53.35 
   4  -2   5 1018.93   71.23 
   4   2   4   -4.17    4.25 
  -4   2  -4    7.42    4.96 
   4  -2   4    7.55    8.65 
  -4   2  -3    6.41    9.15 
   4   2   3   11.32    9.95 
  -4   2  -3    1.89    1.34 
   4   2   3   -2.14    5.19 
   4  -2   3    6.06    8.60 
   4   2   2   53.33   15.37 
  -4   2  -2   54.82   15.61 
  -4   2  -2   16.98    4.30 
   4   2   2   36.66   16.08 
  -4   2  -1   54.56    8.68 
   4   2   1  103.95   25.56 
  -4   2  -1  149.50   26.83 
   4   2   1  106.05   20.21 
  -4   2   0  456.65   28.40 
   4   2   0  483.85   52.39 
   4   2   0  471.46   43.47 
  -4   2   0  552.40   51.49 
   4   2  -1   90.85   25.07 
   4   2  -1  112.58   23.50 
  -4   2   1   21.47    8.06 
   4   2  -2    7.43    7.66 
  -4   2   2    7.45    4.38 
  -4   2   2   -7.19    8.09 
  -4   2   3   68.22   13.41 
  -4   2   3  102.44   24.31 
  -4   2   4   25.91    9.98 
   4  -2  -4   66.21   21.23 
  -4   2   4   63.73   19.90 
  -4   2   5  884.51   53.35 
   4  -2  -5  693.26   62.33 
  -4   2   5  766.14   68.29 
  -4   2   6  125.38   20.80 
   4  -2  -6   90.20   22.46 
  -4  -2   6   81.13   18.41 
  -4   2   6  125.71   28.70 
  -4   2   7    6.07    6.68 
   4  -2  -7    0.91    2.21 
   4  -2  -8   11.81   11.00 
  -4   2   8   -1.49    3.47 
  -4  -2   8   -0.30    5.11 
  -4   2   9   19.96   10.94 
  -4  -2   9    8.12    1.52 
  -4   2  10   41.33   15.35 
  -4  -2  10   41.55   16.88 
   4  -2 -10   17.35    9.12 
  -4   2  11    0.26    4.53 
  -4  -2  11   10.65    8.03 
   4  -2 -11   17.93    8.85 
  -4   2  12   32.50   13.90 
  -4  -2  12   23.08    9.20 
   4  -2 -12    6.12    6.61 
  -4   2  13   -0.25    1.07 
  -4  -2  13   -0.14    3.45 
  -4  -2  14   -1.19    5.78 
  -4   2  14    2.86   12.14 
  -4   2  15  263.14   45.53 
  -4  -2  15  250.10   45.77 
  -4  -2  16   22.57   14.37 
  -4   2  16   31.88   18.18 
  -4   2  17   32.28   18.16 
  -4  -2  17   19.57   15.04 
  -4   2  18    3.45    3.01 
  -4  -2  18    4.99   10.38 
  -4  -2  19   -0.30    7.72 
  -4   2  19    9.51   16.40 
  -4  -3 -20   17.28   17.09 
  -4  -3 -19    0.12    7.19 
   4  -3  19   -5.14    2.08 
  -4  -3 -18   -7.05    7.68 
   4  -3  18    5.88    9.10 
   4  -3  17   10.49   12.32 
   4  -3  16   14.90   11.71 
   4   3  15   59.10   19.42 
   4  -3  15   79.53   25.84 
   4  -3  14   13.62   11.29 
   4   3  14    5.32    9.65 
   4  -3  13   70.46   21.88 
   4   3  13   50.50   18.17 
   4  -3  12   29.01   13.51 
   4   3  12   31.10   12.90 
   4  -3  11    5.22    7.68 
   4   3  11   14.65    8.65 
   4  -3  10   28.62   14.82 
   4   3  10   36.36   15.67 
   4  -3   9   27.08   11.49 
   4   3   9   21.14   11.53 
   4  -3   8   -2.15    1.15 
   4   3   8    5.83    2.15 
   4   3   7   -6.85    3.57 
   4  -3   7    3.76    6.86 
   4   3   6   18.67   10.80 
   4  -3   6   31.52   13.75 
   4   3   5   49.33   16.57 
   4  -3   5   46.50   15.25 
   4   3   4   10.53    9.65 
   4  -3   4   25.26   14.41 
   4   3   3  220.02   35.44 
   4  -3   3  223.35   35.63 
   4   3   3  256.42   28.45 
  -4   3  -2    0.64    4.93 
   4   3   2   -2.71    6.18 
   4  -3   2   10.94   10.32 
   4   3   2   12.80   11.55 
  -4   3  -1   25.71   11.79 
   4   3   1   28.60   15.89 
   4  -3   1   22.41   10.39 
   4   3   1   18.02    8.76 
  -4   3   0   15.82    8.81 
   4   3   0    5.19    4.19 
   4   3   0   16.85    9.42 
   4   3  -1    2.36    1.72 
  -4   3   1   -8.27    9.66 
  -4   3   2   21.47    8.50 
  -4   3   2   16.93    8.49 
  -4   3   3  393.27   32.77 
  -4   3   3  431.30   51.60 
  -4   3   4   23.24    9.63 
  -4   3   4   21.87   12.23 
  -4   3   5    9.54    7.76 
   4  -3  -5   -2.78   11.31 
   4  -3  -5    5.69    3.39 
  -4   3   5    3.05    1.96 
   4  -3  -6   15.08    6.86 
   4  -3  -6   27.87    7.29 
  -4   3   6   39.80   12.59 
  -4   3   6   47.20   18.39 
  -4   3   7    8.89    5.37 
   4  -3  -7   12.04    5.80 
   4  -3  -7    8.04    3.91 
  -4   3   7    1.80    4.84 
  -4   3   8   -0.30    2.79 
   4  -3  -8    0.76    4.46 
   4  -3  -8   -0.03    1.56 
  -4   3   8   -3.21    7.27 
   4  -3  -9   13.64    6.64 
  -4   3   9   19.22   10.22 
  -4  -3   9   15.69   10.60 
   4  -3  -9    7.59    5.15 
  -4   3  10   13.25    8.63 
  -4  -3  10   10.54    9.26 
   4  -3 -10    4.57    3.45 
  -4   3  11    4.81    4.40 
   4  -3 -11    6.06    5.49 
  -4  -3  11   11.11   10.57 
  -4   3  12   65.75   19.40 
  -4  -3  12   61.59   22.72 
   4  -3 -12   42.62   14.41 
  -4   3  13   71.90   21.30 
  -4  -3  13   61.65   20.69 
   4  -3 -13   41.78   13.89 
  -4   3  14   10.38   13.15 
  -4  -3  14   -2.63    7.78 
   4  -3 -14   11.67    9.44 
  -4   3  15   24.20   18.46 
  -4  -3  15   36.54   18.41 
   4  -3 -15   17.85   11.64 
  -4   3  16   13.26   14.55 
  -4  -3  16   -1.37    7.53 
   4  -3 -16    5.18    7.37 
  -4  -3  17   11.94   10.93 
   4  -3 -17    3.18    4.04 
  -4  -3  18    1.74    2.70 
   4  -3 -18    8.63   11.09 
  -4  -3  19   -4.50    9.31 
  -4  -4 -20    8.07   15.11 
  -4  -4 -19    3.18    8.88 
   4  -4  19   11.53   13.18 
   4  -4  18    7.37    5.68 
   4  -4  17    7.83   10.92 
   4  -4  16   13.30   10.96 
   4  -4  15   37.98   15.68 
   4  -4  14    4.75    9.30 
   4   4  14    0.86    8.67 
   4  -4  13   -5.40    7.06 
   4   4  13   -4.55    5.74 
   4  -4  12   25.52   15.60 
   4   4  12   28.11   12.42 
   4  -4  11   16.77   11.70 
   4   4  11   24.77   13.74 
   4   4  10  235.38   36.06 
   4  -4  10  232.08   38.02 
   4  -4   9    7.82    8.37 
   4   4   9   10.23    4.17 
   4  -4   8    2.51    6.29 
   4   4   8   10.26    7.85 
   4  -4   7    0.06    6.70 
   4   4   7   -8.46    9.03 
   4   4   6  217.97   34.07 
   4  -4   6  199.14   31.99 
   4  -4   5    6.48    9.10 
   4   4   5   -4.08    4.17 
   4  -4   4   30.51   12.69 
   4   4   4    5.30    3.18 
   4   4   4   24.40    9.47 
   4   4   3    7.32    7.44 
   4   4   3   -2.04    3.64 
   4  -4   3   10.17    9.77 
   4   4   2    3.91    2.93 
   4  -4   2    7.99   10.51 
   4  -4   1   69.11    8.73 
   4   4   1  127.33   20.43 
  -4   4  -1  143.32   29.72 
   4  -4   1  111.29   25.17 
   4  -4   0  640.24   34.90 
   4  -4   0  460.39   19.13 
   4  -4   0  618.85   56.42 
   4   4   0  562.98   43.89 
  -4   4   0  571.94   54.98 
  -4   4   1   37.36   15.89 
   4  -4  -1   44.54   10.39 
   4  -4  -1   16.33   11.62 
  -4   4   2    4.18    4.25 
   4  -4  -2   12.59    5.47 
  -4   4   3   84.36   23.31 
  -4   4   4  122.18   27.89 
   4  -4  -5   20.31    5.47 
  -4   4   5   24.30   13.98 
   4  -4  -6   22.00    7.25 
  -4   4   6    7.03   10.17 
   4  -4  -7    3.50    4.07 
  -4   4   7   -7.08    4.21 
   4  -4  -8    5.33    4.27 
  -4   4   8    5.87    6.99 
   4  -4  -8    7.33    7.86 
   4  -4  -9   27.68   13.28 
   4  -4  -9   13.99    7.33 
  -4   4   9   -7.91   11.67 
   4  -4 -10  122.61   25.52 
   4  -4 -10  150.57   23.81 
  -4  -4  11    8.88    7.97 
   4  -4 -11    8.95    7.63 
  -4  -4  12   32.51   15.91 
   4  -4 -12   14.89    9.42 
  -4  -4  13    2.52    6.91 
   4  -4 -13    0.66    2.70 
  -4  -4  14    2.82    5.55 
   4  -4 -14   -1.28    5.09 
  -4  -4  15    0.08    4.98 
   4  -4 -15    5.26    7.71 
  -4  -4  16    4.17    6.31 
   4  -4 -16    8.08    8.64 
  -4  -4  17    4.21    5.26 
   4  -4 -17    9.55    9.30 
  -4  -4  18    7.44    9.03 
   4  -4 -18    1.22    2.53 
   4  -5  20    3.52    4.05 
   4  -5  19   16.58   13.05 
   4  -5  18   31.04   14.74 
   4  -5  17    4.70    3.85 
   4  -5  16   13.00   12.20 
   4  -5  15    6.31    6.89 
   4  -5  14   40.02   18.30 
   4  -5  13   18.66   11.25 
   4  -5  12   10.53    9.95 
   4  -5  11   -2.24    6.43 
   4  -5  10   52.93   17.69 
   4  -5   9   16.54   12.42 
   4  -5   8    2.86    7.33 
   4  -5   7   23.35   13.21 
   4  -5   6   12.28    7.64 
   4  -5   5   44.25   15.41 
   4  -5   5   36.75   11.18 
   4   5   5   48.87   11.01 
   4  -5   4   50.66   16.23 
   4  -5   4   53.68   12.16 
   4   5   4   56.15   12.33 
   4  -5   3   12.11    9.63 
   4  -5   3   21.51    4.53 
   4  -5   3   32.25    8.97 
   4   5   3   39.46   10.88 
   4  -5   2    4.39    1.76 
   4  -5   2    7.11    3.60 
   4  -5   2    5.67    4.07 
   4  -5   1    6.12    3.43 
   4  -5   1    2.46    2.96 
   4  -5   1    3.01    6.81 
   4  -5   0    4.95    4.23 
   4  -5   0    0.35    2.85 
  -4   5   1   22.11   15.17 
   4  -5  -1   10.16    5.27 
   4  -5  -1   14.42   12.64 
   4  -5  -2   30.43    9.30 
   4  -5  -2   54.68   19.51 
  -4   5   3   30.11   13.40 
   4  -5  -3   30.14   16.20 
  -4   5   4    3.58    6.64 
  -4   5   5   13.55    6.64 
  -4   5   6   20.14   15.05 
  -4   5   7   11.04    9.65 
   4  -5  -8    0.75    4.72 
  -4   5   8   24.22   16.82 
   4  -5  -9    5.50    2.89 
  -4   5   9   15.80   13.87 
   4  -5 -10   14.76   10.72 
   4  -5 -10    8.13    6.45 
  -4   5  10   10.63    6.73 
   4  -5 -11    6.56    6.04 
  -4  -5  12   32.13   16.86 
   4  -5 -12   25.77   12.05 
  -4  -5  13   11.07    9.95 
   4  -5 -13   12.72    9.16 
  -4  -5  14   27.28   17.47 
   4  -5 -14   18.65   11.71 
  -4  -5  15    4.65    4.70 
   4  -5 -15   -0.89    5.59 
  -4  -5  16   -7.33    9.19 
   4  -5 -16    3.81    8.41 
  -4  -5  17    6.65   11.33 
   4  -5 -17   12.43   13.09 
  -4  -5  18   18.95   17.33 
  -4  -5  18  -13.04   14.07 
   4  -6  20   10.34   13.73 
   4  -6  19   11.46    9.79 
   4  -6  18   14.49   10.69 
   4  -6  17   17.57   12.14 
   4  -6  16   11.53    8.53 
   4  -6  15   44.28   20.14 
   4  -6  14    8.22    7.44 
   4  -6  13   37.42   16.65 
   4  -6  12    4.81   10.24 
   4  -6  11    6.50   12.20 
   4  -6  10   39.56   17.97 
   4  -6   9    4.84    5.89 
   4  -6   8    0.51    4.71 
   4  -6   7   21.63   12.18 
   4  -6   6   93.39   22.85 
   4  -6   5  812.35   67.74 
   4   6   5  704.07   38.65 
   4  -6   4  152.06   29.47 
   4  -6   4  163.53   12.28 
   4  -6   4  151.93   21.19 
   4  -6   3    2.84    7.73 
   4  -6   3    5.03    2.80 
   4  -6   3    2.94    2.21 
   4  -6   2   14.90   11.63 
   4  -6   2   17.44    5.25 
   4  -6   1    1.28    3.37 
   4  -6   1    5.99    4.14 
   4  -6   0    9.83    8.45 
  -4   6   0    4.14    5.54 
   4  -6   0    1.29    2.93 
  -4   6   1   30.06   13.59 
   4  -6  -1   17.81    7.72 
   4  -6  -1   29.50   13.66 
  -4   6   2   22.49   13.94 
   4  -6  -2   14.35    9.16 
  -4   6   3   15.97   11.65 
   4  -6  -3   20.96   15.59 
   4  -6  -4  240.98   40.04 
  -4   6   4  221.18   39.94 
  -4   6   5  743.62   71.66 
  -4   6   6    6.46    9.83 
  -4   6   7   15.66    7.87 
  -4   6   8   -1.89    9.61 
   4  -6  -9   19.57   13.06 
  -4   6   9    6.10   11.69 
   4  -6 -10   55.64   18.37 
  -4   6  10   81.17   28.12 
  -4   6  11   27.26   13.10 
   4  -6 -12    7.92    6.92 
  -4  -6  13    0.12    4.63 
   4  -6 -13    4.81    4.64 
  -4  -6  14   43.82   21.42 
   4  -6 -14   33.64   14.98 
  -4  -6  15   59.84   25.29 
   4  -6 -15   28.25   14.47 
  -4  -6  16    6.86    6.36 
  -4  -6  17    2.50   10.90 
  -4  -6  18   21.76   18.39 
   4  -7  19    3.07    4.79 
   4  -7  18    4.84    6.42 
   4  -7  17    9.05   11.40 
   4  -7  16    8.53   11.86 
   4  -7  15    3.96    4.84 
   4  -7  14  121.15   30.74 
   4  -7  13   52.60   23.96 
   4  -7  12   23.28   15.56 
   4  -7  11   17.91   17.11 
   4  -7  10   70.87   23.73 
   4  -7   9   34.48   16.25 
   4  -7   8  103.42   28.06 
   4  -7   7   11.51   10.77 
   4  -7   6    6.54    9.88 
   4  -7   5   36.07   16.87 
   4  -7   4  117.05   12.79 
   4  -7   4  145.53   30.24 
   4  -7   3   35.66   16.75 
   4  -7   3   14.39    5.21 
   4  -7   2   81.99   22.83 
   4  -7   2  161.93   17.86 
   4  -7   1    8.91    7.58 
   4  -7   1    1.52    3.46 
   4  -7   0   31.39   14.80 
   4  -7   0    9.35    5.61 
   4  -7  -1   29.13   13.57 
  -4   7   1   40.85   18.06 
   4  -7  -2  180.57   32.37 
  -4   7   2  220.33   37.85 
  -4   7   3   16.89   11.47 
   4  -7  -3   33.43   16.41 
  -4   7   4   37.15   18.56 
   4  -7  -4   16.22   11.78 
   4  -7  -5   13.89   12.11 
  -4   7   5    9.82    8.37 
  -4   7   6  -10.21   12.99 
  -4   7   7    5.55    9.48 
  -4   7   8   78.74   26.55 
  -4   7   9    2.98    3.83 
  -4   7  10   20.16   16.36 
  -4   7  11   35.11   14.58 
  -4   7  12   21.19   10.01 
  -4  -7  14   62.56   24.42 
   4  -7 -14   33.06   17.01 
  -4  -7  15   11.33   13.80 
  -4  -7  16    1.15   10.20 
  -4  -7  17   22.00   20.43 
  -4  -7  17   14.66   13.90 
  -4  -7  18   16.94   16.28 
  -4  -7  19   43.46   31.77 
   4  -8  18   14.54   12.38 
   4  -8  17   25.63   17.96 
   4  -8  16   16.20   14.11 
   4  -8  15    1.58    3.28 
   4  -8  14    4.83    3.78 
   4  -8  13   10.23   10.23 
   4  -8  12    5.81    8.75 
   4  -8  11   36.54   21.16 
   4  -8  10  463.81   61.84 
   4  -8   9   42.10   21.88 
   4  -8   8   24.92   14.08 
   4  -8   7   14.28   10.62 
   4  -8   6   -1.56    8.52 
   4  -8   5   44.44   19.38 
   4  -8   4   81.61   24.66 
   4  -8   3   13.76   11.46 
   4  -8   2   93.40   25.67 
   4  -8   1  131.99   31.46 
   4  -8   0  524.21   55.11 
   4  -8  -1   20.67   12.73 
  -4   8   1   32.42   18.20 
   4  -8  -2   -4.17    3.25 
  -4   8   2   68.95   24.35 
  -4   8   3   22.41   17.69 
   4  -8  -3    7.99   11.00 
  -4   8   4   64.49   21.05 
   4  -8  -4   46.98   17.73 
  -4   8   5   21.46   13.08 
   4  -8  -5    6.33    2.48 
  -4   8   6    3.88    5.77 
  -4   8   7    1.52    3.66 
  -4   8   8   26.34   10.88 
  -4   8   9   55.04   25.13 
  -4   8  10  389.86   64.65 
  -4   8  11    6.23    2.61 
  -4   8  12   12.91    4.85 
  -4   8  13   13.47   13.73 
  -4  -8  15   27.03   20.39 
  -4  -8  16   17.91    8.29 
  -4  -8  16   30.45   22.78 
  -4  -8  17  -18.51   17.59 
   4  -9  16   16.50   15.69 
   4  -9  15   50.81   23.05 
   4  -9  14   29.73   19.33 
   4  -9  13   11.76    9.75 
   4  -9  12    7.44   12.17 
   4  -9  11   15.45   12.95 
   4  -9  10   53.48   21.81 
   4  -9   9   46.74   20.59 
   4  -9   8  196.66   41.74 
   4  -9   7   38.70   19.45 
   4  -9   6    2.49   10.27 
   4  -9   5   32.81   16.38 
   4  -9   4   77.46   21.74 
   4  -9   3   37.28   20.84 
   4  -9   2  167.56   34.72 
   4  -9   1    6.84   11.90 
   4  -9   0   35.02   17.26 
   4  -9  -1   62.95   20.90 
  -4   9   2  129.09   29.99 
   4  -9  -2  189.33   35.02 
   4  -9  -3   -1.58    8.05 
  -4   9   3    3.90    8.05 
  -4   9   4   30.89   16.46 
   4  -9  -4   30.34   15.16 
  -4   9   5   10.14   10.35 
   4  -9  -5   -1.23    6.73 
   4  -9  -6   24.47   16.44 
  -4   9   6    8.93   10.07 
  -4   9   7   40.04   16.51 
  -4   9   8  196.61   42.97 
  -4   9   9   12.24    7.15 
  -4   9  10    4.28   12.07 
  -4   9  11   10.99    8.34 
  -4   9  12    3.45   11.93 
  -4   9  13   14.97   13.81 
  -4   9  14   14.20    6.32 
  -4  -9  15   25.72   20.78 
  -4  -9  16   32.21   24.25 
   4 -10  14   13.12   14.73 
   4 -10  13    4.54   14.70 
   4 -10  12    9.69   11.81 
   4 -10  11   29.06   16.54 
   4 -10  10   79.98   29.57 
   4 -10   9   26.47   17.60 
   4 -10   8   10.94   11.27 
   4 -10   7   -3.01    6.13 
   4 -10   6   13.09   13.58 
   4 -10   5  280.58   47.80 
   4 -10   4    8.55    9.61 
   4 -10   3   13.30   13.67 
   4 -10   2   49.12   20.85 
   4 -10   1   10.40   11.74 
   4 -10   0   45.45   19.01 
   4 -10  -1   -1.52    4.96 
   4 -10  -2   12.28   11.77 
  -4  10   2   33.47   18.61 
   4 -10  -3    2.93    7.34 
  -4  10   3   21.11   15.66 
  -4  10   4   20.56   15.62 
   4 -10  -4   19.48   12.95 
   4 -10  -5  292.21   44.80 
  -4  10   5  274.83   46.72 
  -4  10   6    3.39    6.09 
   4 -10  -6   13.67   10.97 
   4 -10  -7   18.59   12.67 
  -4  10   7   19.26   11.70 
  -4  10   8   17.78   13.35 
  -4  10   9  -15.53   14.95 
  -4  10  10   14.75   21.90 
  -4  10  11   17.96   13.74 
  -4  10  12   -1.66   11.91 
  -4  10  13   18.16   17.55 
  -4  10  14   -4.21   10.51 
   4 -11  12   16.50   16.97 
   4 -11  11   25.46   17.43 
   4 -11  10   -1.06   11.46 
   4 -11   9    9.20   13.31 
   4 -11   8   44.48   22.36 
   4 -11   7   41.73   21.05 
   4 -11   6   -1.17    8.36 
   4 -11   5   39.47   18.17 
   4 -11   4    1.24    9.95 
   4 -11   3   11.16   12.97 
   4 -11   2   34.43   19.78 
   4 -11   1   29.16   15.50 
   4 -11   0   16.66   14.35 
   4 -11  -1   18.25   13.97 
   4 -11  -2    5.09   10.19 
  -4  11   2   19.28   15.43 
   4 -11  -3   32.77   17.96 
  -4  11   3   21.96   14.21 
   4 -11  -4    5.29    9.07 
  -4  11   4   28.62   15.96 
  -4  11   5   -4.04    4.89 
   4 -11  -5    8.98    8.43 
  -4  11   6   -7.69    1.04 
   4 -11  -6   10.18   10.30 
  -4  11   7   23.68   16.06 
  -4  11   8   26.51   18.87 
  -4  11   9  -15.37   20.70 
  -4  11  10    4.12    4.54 
  -4  11  11   51.16   28.90 
  -4  11  12   -5.86   14.28 
  -4  11  13   17.94    6.26 
  -4  11  14   17.87   14.76 
   4 -12  10   41.31   24.58 
   4 -12   9   48.13   22.02 
   4 -12   8   11.32    9.17 
   4 -12   7    4.84   14.86 
   4 -12   6    1.75    8.92 
   4 -12   5   36.83   20.77 
   4 -12   4   25.27   17.44 
   4 -12   3   16.04   11.06 
   4 -12   2   -2.27    9.61 
   4 -12   1   13.42   14.45 
   4 -12   0  102.18   29.80 
   4 -12  -1   11.62   12.27 
   4 -12  -2   11.68    8.49 
  -4  12   2   21.45   17.13 
   4 -12  -3    5.72    9.92 
  -4  12   3   24.82   17.79 
   4 -12  -4    7.08    7.14 
  -4  12   4   16.13   13.61 
  -4  12   5   27.65   19.44 
  -4  12   6    4.74   10.71 
  -4  12   7   -8.70    5.41 
  -4  12   8    2.32   11.33 
  -4  12   9   11.49   14.67 
  -4  12  10   80.21   33.27 
  -4  12  11    9.55   15.49 
  -4  12  12    3.47   13.35 
   4 -13   7   13.57   14.89 
   4 -13   6    3.12    9.14 
   4 -13   5   11.21   18.66 
   4 -13   4    5.36    7.21 
   4 -13   3   32.48   20.91 
   4 -13   2   10.37   14.25 
   4 -13   1    1.16    3.81 
   4 -13   0    4.11    5.90 
   4 -13  -1    7.16   10.91 
   4 -13  -2   12.15   13.96 
  -4  13   2   11.75   13.02 
   4 -13  -3    0.69    1.81 
  -4  13   3   31.24   17.83 
  -4  13   4   20.28   17.41 
  -4  13   5   16.96   12.62 
  -4  13   6   -3.59    3.98 
  -4  13   7   20.65   17.83 
  -4  13   8    4.86    7.70 
  -4  13   9   -9.41   16.85 
   4 -14   4   24.63   19.30 
   4 -14   3    7.81   10.76 
   4 -14   2   14.53   11.75 
   4 -14   1   -0.03    8.45 
   4 -14   0    5.77    9.35 
   4 -14  -1    3.80    9.87 
   4 -14  -2   10.03   11.14 
  -4  14   2   20.32   16.34 
  -4 -15  -3   18.50   14.70 
  -4 -15  -2   16.13   10.66 
   4 -15   0   38.48   20.65 
   4 -15  -1   17.79   14.74 
  -5   0 -20   34.90   18.88 
  -5   0 -19   12.63   13.50 
  -5   0 -18   36.74   19.26 
  -5   0 -17    5.90   10.44 
  -5   0 -16    6.90    8.30 
  -5   0 -15   16.37   10.43 
  -5   0 -14    0.71    2.74 
  -5   0 -13    7.20    8.95 
  -5   0 -12    7.88    7.34 
  -5   0 -11    0.77    4.59 
  -5   0 -11    2.59    4.65 
  -5   0 -10   21.64    8.93 
  -5   0 -10    9.42    7.43 
  -5   0  -9   26.64   11.44 
  -5   0  -9   17.94    9.93 
  -5   0  -8   58.62   16.59 
  -5   0  -8   43.98   11.68 
  -5   0  -7    4.00    4.98 
  -5   0  -6   13.53    6.66 
  -5   0  -5   -0.19    0.89 
  -5   0  -4   25.44    9.60 
  -5   0  -3    3.19    3.62 
   5   0   2   88.31   27.58 
  -5   0  -2  119.77   23.38 
   5   0   1    3.81    6.63 
  -5   0  -1   -1.60    5.40 
   5   0   0    3.83    4.44 
  -5   0   0    5.12    1.51 
   5   0  -1    2.89    7.68 
  -5   0   1    2.06    2.89 
  -5   0   2  108.81   19.47 
   5   0  -2   84.33   26.51 
  -5   0   2   36.42    6.18 
   5   0  -3   15.36   15.98 
  -5   0   3    0.76    3.73 
  -5   0   3    3.85    2.34 
   5   0  -4   17.04   10.87 
  -5   0   4   22.97   10.45 
   5   0  -5   11.16    9.90 
  -5   0   5    1.21    4.98 
   5   0  -6   16.26   10.93 
  -5   0   6   34.75   12.93 
  -5   0   7    5.21    4.96 
  -5   0   8  254.46   36.09 
  -5   0   9    6.88    7.55 
  -5   0  10    4.85    3.77 
  -5   0  11   -2.52    5.88 
  -5   0  12   16.05   10.20 
  -5   0  13  -11.07    8.98 
  -5   0  14    7.52   10.27 
  -5   0  15   -7.97    9.84 
  -5   0  16   16.91   15.96 
  -5   0  17    4.65   12.01 
  -5   0  18   13.80   12.47 
  -5  -1 -20   -5.41    4.89 
  -5   1 -20   10.07   16.17 
  -5  -1 -19    0.09    4.08 
  -5   1 -19  -11.57   14.77 
  -5  -1 -18   15.01   12.49 
  -5   1 -18   -0.11    6.34 
  -5  -1 -17   15.13   12.05 
  -5   1 -17   22.86   16.22 
  -5  -1 -16    7.34   10.41 
  -5   1 -16    9.77    7.64 
  -5  -1 -15    5.08   12.47 
  -5   1 -15   10.24   10.42 
  -5  -1 -14    8.23    7.39 
  -5   1 -14    8.17    5.93 
  -5  -1 -13   -3.14    3.32 
  -5   1 -13    3.68    4.55 
  -5  -1 -12   12.03   11.68 
  -5   1 -12   21.28   10.70 
  -5   1 -11   11.80    8.84 
  -5   1 -10   10.42    6.58 
  -5  -1 -10    1.56    3.56 
  -5   1  -9    8.91    7.93 
  -5  -1  -9    5.43    4.39 
  -5   1  -8   11.78    9.58 
  -5   1  -8    2.51    4.94 
  -5  -1  -8    1.04    3.49 
  -5   1  -7   21.15   10.53 
  -5   1  -7   10.87    5.28 
  -5  -1  -7   19.96    6.84 
  -5   1  -6   78.39   18.53 
  -5   1  -6   86.34   15.53 
  -5  -1  -6   75.32   14.05 
  -5   1  -5    1.15    2.05 
   5   1   5   -1.39    2.90 
  -5  -1  -5    0.71    1.37 
  -5   1  -4    5.96    3.18 
   5   1   4   10.27    8.12 
  -5   1  -4    8.05    3.99 
  -5  -1  -4    1.53    4.93 
  -5   1  -4    6.16    5.69 
  -5   1  -3    0.61    0.91 
   5   1   3    5.70    8.12 
  -5   1  -3   -1.35    1.29 
  -5  -1  -3    0.49    3.12 
  -5   1  -3   -4.25    8.11 
  -5   1  -2   20.33    5.74 
   5   1   2   19.69   11.69 
  -5   1  -2   18.14    4.50 
  -5   1  -2   38.55   12.93 
  -5   1  -1   10.70    4.84 
   5   1   1   14.03   13.70 
  -5   1  -1   13.99   11.30 
  -5   1   0   37.96    9.11 
   5   1   0   38.18   17.01 
  -5   1   0   34.08   14.21 
  -5   1   1   14.96    7.21 
   5  -1  -1   -0.30    6.79 
  -5   1   1   -1.01    5.42 
   5   1  -2   16.44   11.22 
  -5   1   2    9.94    6.13 
   5  -1  -2   15.05   11.01 
  -5   1   2    7.84    5.78 
  -5   1   3    5.04    4.19 
   5  -1  -3    0.72    1.96 
   5   1  -4   18.22   11.20 
  -5   1   4   15.89    7.84 
   5  -1  -4   17.57    9.61 
  -5  -1   4   15.42    6.21 
  -5   1   4   17.19    7.24 
   5  -1  -5    6.63    7.56 
  -5   1   5   11.92    7.33 
  -5  -1   5    9.16    6.56 
  -5  -1   5    3.59    3.07 
   5  -1  -6   16.27   14.23 
  -5   1   6   77.54   18.12 
  -5  -1   6   68.57   18.73 
  -5  -1   6   38.79   11.71 
   5  -1  -7    4.30    7.29 
  -5   1   7    7.92    7.00 
  -5  -1   7    3.89    4.52 
  -5  -1   7    2.86    5.09 
  -5   1   8   17.64    8.09 
  -5  -1   8   10.89    9.28 
  -5   1   9   23.92   11.59 
  -5  -1   9   26.10   14.24 
  -5   1  10    8.52    7.86 
  -5  -1  10    0.95    4.49 
  -5   1  11   -1.67    3.72 
  -5  -1  11   -8.90    8.94 
  -5   1  12    6.76    3.66 
  -5  -1  12    4.95    4.46 
  -5   1  13    9.68   10.66 
  -5  -1  13    1.67    5.72 
  -5   1  14    3.31    8.26 
  -5  -1  14    5.59    7.90 
  -5   1  15    2.48   11.39 
  -5  -1  15    8.74   11.98 
  -5   1  16   -2.23    8.05 
  -5  -1  16   10.32   12.42 
  -5   1  17   -0.39    5.08 
  -5  -1  17    4.78    6.62 
  -5   1  18   14.82   12.90 
  -5  -1  18   -1.86    6.93 
  -5  -2 -20    8.26    6.10 
  -5  -2 -19   -4.13    6.35 
  -5   2 -19    1.46    6.63 
  -5  -2 -18   18.69   17.30 
  -5   2 -18   29.29   18.33 
  -5  -2 -17    9.39    8.01 
  -5   2 -17   13.52   10.99 
   5  -2  17   12.13   15.14 
  -5  -2 -16   11.55   10.87 
  -5   2 -16   -0.04    3.54 
  -5  -2 -15   49.26   20.11 
   5   2  15   36.61   16.95 
  -5   2 -15   36.12   17.33 
   5  -2  15   41.67   19.72 
   5   2  14    1.79   13.02 
  -5   2 -14   22.10   13.30 
   5  -2  14    4.58    6.19 
   5   2  13    5.13   11.46 
  -5   2 -13   23.78   13.05 
   5  -2  13   -2.27    6.20 
   5   2  12   -2.08    3.49 
  -5   2 -12   16.54    9.80 
   5   2  11   -0.70    6.12 
  -5   2 -11    6.09    5.82 
   5  -2  11   13.33    9.46 
   5   2  10   -8.67    2.36 
  -5   2 -10    6.06    7.38 
   5  -2  10   17.19   15.25 
   5   2   9   52.81   19.86 
  -5   2  -9   92.81   19.46 
   5  -2   9   88.58   27.08 
   5   2   8    6.28   12.58 
  -5   2  -8   17.18    8.51 
   5  -2   8   12.93    9.06 
   5   2   7    5.43    4.69 
  -5   2  -7   29.34    9.96 
   5  -2   7   50.59   20.20 
   5   2   6   13.48    9.61 
  -5   2  -6    0.11    2.48 
  -5   2  -5   10.76    9.19 
   5   2   5   19.19   14.29 
  -5   2  -5   -0.77    2.65 
  -5   2  -4    5.86    9.73 
  -5   2  -4    0.78    1.07 
  -5   2  -3    2.32    4.92 
  -5   2  -3    4.92    2.58 
   5   2   3   -2.23    4.87 
  -5   2  -2    6.36    2.97 
   5   2   2    4.84    4.79 
  -5   2  -2    1.38    4.71 
  -5   2  -1    3.83    1.55 
   5   2   1   -8.27    6.33 
  -5   2  -1   -9.70   10.19 
  -5   2   0    4.87    3.54 
   5   2   0   -3.57    4.16 
  -5   2   0   -5.29    4.23 
   5   2  -1   22.65   15.73 
  -5   2   1    8.32    4.12 
   5   2  -2   27.18   17.64 
  -5   2   2   18.33    7.28 
  -5   2   2   44.01   16.80 
   5   2  -3   53.00   21.91 
  -5   2   3   24.11    8.84 
   5  -2  -3   55.44   21.67 
  -5   2   3   49.27   16.99 
  -5   2   4    6.87    4.04 
   5  -2  -4   11.11    9.88 
  -5   2   4   -7.25    9.31 
  -5   2   5    2.61    4.23 
   5  -2  -5   11.61   11.31 
  -5   2   5   -4.36    9.34 
  -5   2   6    7.05    4.85 
   5  -2  -6    6.19    7.31 
  -5  -2   6    8.30    6.03 
  -5   2   6    8.46    4.20 
  -5   2   7   14.84    9.08 
   5  -2  -7   15.48   12.62 
  -5  -2   7   12.14    8.24 
  -5   2   8   22.23   10.97 
   5  -2  -8   49.34   19.83 
  -5  -2   8   18.10    9.90 
  -5   2   9   81.43   20.63 
  -5  -2   9   94.07   24.14 
  -5   2  10    0.28    3.56 
  -5  -2  10   -3.75    9.25 
  -5   2  11    4.89    6.15 
  -5  -2  11   22.34   12.71 
  -5   2  12   20.58   13.00 
  -5  -2  12   21.72   14.32 
  -5   2  13   44.25   18.31 
  -5  -2  13   57.22   21.91 
  -5   2  14    3.41    3.30 
  -5  -2  14   -0.44    7.78 
  -5   2  15   13.56   13.59 
  -5  -2  15   11.21   11.09 
  -5   2  16   -2.04    4.61 
  -5  -2  16    1.87    8.11 
  -5   2  17    4.06    7.72 
  -5  -2  17   10.04    4.92 
  -5   2  18    6.62    8.77 
  -5  -3 -19    9.33   10.47 
  -5  -3 -18    9.08   11.67 
   5  -3  18    5.98    9.93 
  -5  -3 -17   15.94   13.64 
   5  -3  17    7.28    1.01 
   5  -3  16   38.64   22.50 
   5   3  15   28.23   15.05 
   5  -3  15   36.04   21.27 
   5   3  14    1.25    8.77 
   5  -3  14    7.37   10.55 
   5   3  13    2.50    6.14 
   5  -3  13   -3.82    0.76 
   5   3  12   28.20   15.04 
   5  -3  12   26.47   15.65 
   5   3  11   27.57   17.37 
   5  -3  11   15.96   12.46 
   5   3  10    2.68    7.18 
   5  -3  10   10.71   12.33 
   5   3   9   16.30   14.11 
   5  -3   9   -3.62   10.27 
   5   3   8   -2.44   10.61 
   5  -3   8   -7.16    7.32 
   5   3   7   11.03   10.93 
   5  -3   7    0.15    7.12 
   5   3   6   25.33   13.55 
   5  -3   6   14.15   11.74 
  -5   3  -5    6.85    7.81 
   5   3   5   13.96   11.55 
   5  -3   5   16.37   12.03 
  -5   3  -4    6.57    9.35 
   5   3   4    4.43    9.06 
   5  -3   4   10.14    7.60 
  -5   3  -3    8.78    8.87 
   5   3   3    3.45   10.46 
   5   3   3    7.97    7.91 
   5   3   2   20.92    8.37 
  -5   3  -2   18.33   10.77 
   5   3   2   23.38   12.90 
   5   3   1    6.03    8.10 
   5   3   1    2.23    2.80 
  -5   3  -1    9.43    9.76 
  -5   3   0    1.97    3.72 
  -5   3   0  -12.81    7.92 
   5   3  -1   21.84   15.40 
  -5   3   1   13.90    6.04 
  -5   3   1    3.64    5.64 
  -5   3   2    2.28    0.49 
  -5   3   2    1.56    4.86 
  -5   3   3    4.06    3.71 
  -5   3   3   10.24   10.68 
  -5   3   4   22.52    9.45 
   5  -3  -4   15.39   10.17 
  -5   3   5   38.01   12.10 
   5  -3  -5   65.90   21.00 
  -5   3   5   64.05   21.35 
  -5   3   6    3.85    4.48 
   5  -3  -6    9.60    7.71 
  -5   3   6    0.94    4.01 
  -5   3   7   -6.63    3.26 
  -5   3   7    1.61    9.17 
  -5   3   8   10.04    7.36 
   5  -3  -8    5.51    6.43 
  -5   3   9   62.09   19.98 
  -5  -3   9   75.45   19.86 
   5  -3  -9  118.30   29.91 
  -5   3  10   -1.07    6.28 
  -5  -3  10    8.29   10.22 
  -5   3  11   10.83    7.24 
  -5  -3  11   10.50    9.07 
  -5  -3  12   -0.51    1.19 
  -5   3  12   -9.45    7.87 
  -5   3  13   -0.37    6.75 
  -5  -3  13    0.02    7.52 
  -5   3  14   40.51   19.64 
  -5  -3  14    4.73   13.47 
  -5   3  15   33.48   19.96 
  -5  -3  15   35.50   19.38 
  -5   3  16   -2.38    6.71 
  -5  -3  16    6.97   11.13 
  -5   3  17   -1.22    4.48 
  -5  -3  17    8.08    7.74 
  -5  -4 -19   13.93   13.51 
   5  -4  19   31.12   23.12 
   5  -4  18    6.04    7.79 
   5  -4  17    6.48    7.74 
   5  -4  16    9.77   11.58 
   5  -4  15    3.45    6.28 
   5   4  14    8.84    6.26 
   5  -4  14    1.41    6.63 
   5   4  13   20.09   14.22 
   5  -4  13    9.87    8.87 
   5   4  12   11.94    7.93 
   5  -4  12    6.81   15.17 
   5   4  11   15.22   10.78 
   5  -4  11    1.09    5.83 
   5   4  10    4.86    7.33 
   5  -4  10   18.70   10.22 
   5   4   9   42.68   20.47 
   5  -4   9   55.97   20.06 
   5   4   8   -4.97    8.81 
   5  -4   8    2.69    7.89 
   5   4   7   15.85   11.59 
   5  -4   7    9.24    9.92 
   5   4   6   12.49   13.96 
   5  -4   6    0.21    8.89 
   5   4   5   43.72   20.93 
   5  -4   5   12.19    7.76 
   5   4   4   71.24   22.37 
  -5   4  -4   42.10   17.14 
   5   4   4   47.29   21.95 
   5  -4   4   46.19   16.48 
  -5   4  -3   27.79   14.27 
   5   4   3   25.21   16.90 
   5  -4   3   22.78   12.98 
   5   4   3   14.80   10.55 
  -5   4  -2   68.58   20.97 
   5   4   2   55.68   19.26 
   5  -4   2   41.04   16.99 
   5   4   2   47.33   13.97 
  -5   4  -1    1.61    5.65 
  -5   4   0    6.34    6.94 
  -5   4   1    2.77    7.56 
  -5   4   2   -8.02    8.89 
  -5   4   3   36.96   16.96 
  -5   4   4   28.56   13.95 
  -5   4   5    5.89    6.36 
  -5   4   5    3.63    7.20 
  -5   4   6    4.35    5.12 
   5  -4  -6   13.62   12.13 
  -5   4   6   -0.42    6.12 
  -5   4   7    3.67    4.32 
   5  -4  -7   -1.25    2.49 
  -5   4   7   -4.40    8.43 
  -5   4   8   47.68   16.78 
   5  -4  -8   54.07   20.59 
  -5   4   8   91.99   27.61 
  -5   4   9   45.92   16.14 
   5  -4  -9   21.55   13.86 
  -5   4   9   29.52   16.01 
  -5   4  10    9.05    7.59 
   5  -4 -10    8.30    6.78 
  -5  -4  10   11.98   10.10 
   5  -4 -10    3.73    4.04 
  -5  -4  11    5.08    8.10 
  -5   4  11    8.80   10.18 
  -5  -4  12   14.71   10.37 
  -5  -4  13   14.90   11.83 
  -5  -4  14   51.49   22.80 
  -5  -4  15    7.33   12.57 
  -5  -4  16   15.73   15.10 
  -5  -4  17    4.21    9.18 
   5  -5  19    9.23   10.08 
   5  -5  18    2.16    2.20 
   5  -5  17    7.51   10.49 
   5  -5  16    1.63   10.49 
   5  -5  15   16.56   14.20 
   5  -5  14    3.53    7.23 
   5   5  13    5.55   13.33 
   5  -5  13   -1.80    5.61 
   5  -5  12   -2.59    2.78 
   5   5  12   17.60   15.57 
   5  -5  11    7.80    8.64 
   5   5  11    4.76   10.22 
   5  -5  10   -1.16    3.47 
   5   5  10    2.58   10.73 
   5   5   9   11.13   14.87 
   5  -5   9   -6.86    5.45 
   5   5   8    6.06   10.34 
   5  -5   8    9.06   10.62 
   5   5   7    2.10   11.56 
   5  -5   7    4.57    8.88 
   5  -5   6    9.87    8.77 
   5  -5   5   39.93   17.33 
   5  -5   4   17.79   12.39 
   5   5   4   17.28   10.98 
  -5   5  -3   25.67   15.95 
   5  -5   3   17.89   15.99 
  -5   5  -2   31.92   16.36 
   5  -5   2   21.97   10.40 
   5   5   2   23.64   11.39 
  -5   5  -1   33.60   17.84 
   5  -5   1   27.53   14.72 
  -5   5   0   13.91   14.18 
   5  -5   0   13.97   10.60 
  -5   5   1    3.64    5.51 
  -5   5   2    6.17    5.94 
  -5   5   3   29.31   12.95 
  -5   5   4   36.38   14.79 
   5  -5  -5   21.67    4.67 
  -5   5   5   99.88   28.56 
   5  -5  -6    7.88    3.73 
  -5   5   6   20.59   15.32 
   5  -5  -7    8.01    8.91 
  -5   5   7  -10.33   11.45 
   5  -5  -8    5.67    3.10 
  -5   5   8   17.04   11.88 
   5  -5  -9    4.57   10.51 
  -5   5   9    0.22    3.25 
   5  -5 -10    0.58    3.63 
  -5   5  10   13.33   14.45 
  -5  -5  12    2.52    4.99 
  -5  -5  13    3.82    2.84 
  -5  -5  14   -4.95    9.72 
  -5  -5  15    9.87   10.45 
  -5  -5  16   14.97   13.55 
   5  -6  19    2.69    7.21 
   5  -6  18   12.97    4.65 
   5  -6  17   10.00   11.63 
   5  -6  16   -5.09    6.98 
   5  -6  15   29.55   17.88 
   5  -6  14    9.35   14.62 
   5  -6  13    4.20    9.97 
   5  -6  12   18.36   14.48 
   5  -6  11   -0.55    8.27 
   5  -6  10    4.86    7.48 
   5  -6   9   -9.71   10.60 
   5  -6   8   16.90    7.70 
   5  -6   7   10.48   10.55 
   5  -6   6    9.06   12.70 
   5  -6   5   14.47   12.39 
   5  -6   4   15.58   13.56 
   5   6   3   52.55   15.26 
   5  -6   3   47.90   18.40 
  -5   6  -2   30.69   14.91 
   5   6   2    7.29    6.42 
   5  -6   2    6.16   10.73 
  -5   6  -1    9.27   10.28 
   5  -6   1   -0.12    5.23 
  -5   6   0   10.12    8.84 
   5  -6   0    4.34    3.46 
   5  -6   0    0.79    6.17 
  -5   6   1   17.11   13.47 
   5  -6  -1   14.47   12.10 
  -5   6   2    9.31   12.19 
  -5   6   3  160.13   34.34 
  -5   6   4    7.65    4.65 
  -5   6   5  -25.82   14.08 
  -5   6   6   32.85   19.02 
  -5   6   7   11.32    7.17 
   5  -6  -8   17.66   13.05 
  -5   6   8   10.76    8.14 
   5  -6  -9   -2.70    1.23 
  -5   6   9    5.74    8.22 
   5  -6 -10   -8.03    4.39 
  -5   6  10  -14.00   13.30 
  -5   6  11   15.72    9.86 
  -5  -6  13   13.43   12.97 
  -5  -6  14    6.29   11.15 
  -5  -6  15   12.35   10.31 
   5  -7  17    5.69   12.88 
   5  -7  16   -3.41    8.63 
   5  -7  15    1.86    6.23 
   5  -7  14    1.97    5.86 
   5  -7  13   -0.12    7.00 
   5  -7  12   27.37   17.01 
   5  -7  11    8.11   14.74 
   5  -7  10    7.71    5.58 
   5  -7   9    1.45    6.62 
   5  -7   8   18.03    8.35 
   5  -7   7   -0.08    6.11 
   5  -7   6   15.56   13.07 
   5  -7   5   23.38   15.22 
   5  -7   4    2.32    4.59 
   5  -7   3   -0.11    1.66 
   5  -7   2   12.48   12.00 
  -5   7  -1   61.98   22.39 
   5  -7   1   30.99   15.99 
  -5   7   0   13.99   12.32 
   5  -7   0   14.24   10.63 
  -5   7   1   18.48   13.69 
   5  -7  -1   15.10    9.33 
  -5   7   2   14.05   12.84 
   5  -7  -2   21.76   13.38 
  -5   7   3    9.80   11.15 
   5  -7  -3    7.28    6.55 
  -5   7   4   29.72   15.36 
  -5   7   5  -10.22   10.41 
  -5   7   6   -8.27    8.36 
  -5   7   7    2.89    4.37 
  -5   7   8    3.15    8.67 
   5  -7  -9   19.33   15.70 
  -5   7   9   14.39   15.30 
  -5   7  10    5.84    2.79 
  -5   7  11   -6.68    9.91 
  -5   7  12    8.53    9.67 
  -5  -7  14    2.89   10.55 
  -5  -7  15    4.06    9.85 
   5  -8  16   -7.94    8.87 
   5  -8  15   15.58   13.95 
   5  -8  14   31.97   18.15 
   5  -8  13    8.34   14.11 
   5  -8  12   13.44   15.60 
   5  -8  11    7.46   12.11 
   5  -8  10    8.00    8.08 
   5  -8   9   11.79    9.96 
   5  -8   8   21.42   11.65 
   5  -8   7    4.20    7.84 
   5  -8   6   -1.13    5.47 
   5  -8   5    4.46    8.59 
   5  -8   4   11.48   15.06 
   5  -8   3   48.28   20.14 
   5  -8   2   44.54   19.26 
  -5   8  -1   27.18   17.01 
   5  -8   1    0.96   11.48 
  -5   8   0    1.77    7.89 
   5  -8   0    0.79    5.58 
  -5   8   1   23.61   14.56 
   5  -8  -1   27.49   16.53 
  -5   8   2    7.07    2.20 
   5  -8  -2   15.17   13.12 
  -5   8   3   -0.95    8.95 
   5  -8  -3    6.84    9.53 
   5  -8  -4   16.42   10.95 
  -5   8   4   -3.05    6.37 
  -5   8   5   -2.06    7.94 
  -5   8   6   10.94    8.52 
  -5   8   7    3.57    7.31 
  -5   8   8   30.75   21.30 
  -5   8   9    6.92   13.04 
  -5   8  10   20.72   15.09 
  -5   8  11   16.32   18.19 
  -5   8  12   14.79   14.59 
  -5   8  13   27.55   21.05 
  -5  -8  14   18.53   15.09 
   5  -9  14    6.39   12.52 
   5  -9  13    8.22    5.74 
   5  -9  12   20.71   14.81 
   5  -9  11    4.53   14.43 
   5  -9  10   18.87   15.82 
   5  -9   9   -4.86   11.11 
   5  -9   8    4.07   10.63 
   5  -9   7   19.84   16.33 
   5  -9   6   27.60   16.35 
   5  -9   5   12.50   11.04 
   5  -9   4   15.23   12.71 
   5  -9   3   -2.76    6.80 
   5  -9   2   -4.00    4.43 
   5  -9   1   19.15   15.16 
  -5   9   0   46.93   20.91 
   5  -9   0   27.23   13.74 
  -5   9   1   37.48   16.37 
   5  -9  -1    3.29    5.16 
  -5   9   2   11.45   11.30 
   5  -9  -2    4.77    6.90 
  -5   9   3   19.70   15.28 
   5  -9  -3   13.20   10.48 
  -5   9   4   34.87   19.58 
   5  -9  -4   13.67    9.51 
  -5   9   5   -1.19    3.74 
  -5   9   6    5.37    8.32 
  -5   9   7   -8.10    8.53 
  -5   9   8    1.23    7.43 
  -5   9   9   -0.68    7.04 
  -5   9  10   14.21   14.42 
  -5   9  11  -10.19    9.34 
  -5   9  12   -7.81   10.02 
  -5   9  13  -13.52   11.53 
   5 -10  12    8.66   13.87 
   5 -10  11   -8.25    9.86 
   5 -10  10    1.49    6.30 
   5 -10   9  -13.46   11.38 
   5 -10   8   18.03   17.27 
   5 -10   7   33.14   19.32 
   5 -10   6  -10.80    5.10 
   5 -10   5   14.83   11.12 
   5 -10   4   14.38   16.59 
   5 -10   3    4.68   11.07 
   5 -10   2    3.67    3.37 
   5 -10   1   18.91   18.20 
   5 -10   0   -6.14    8.68 
  -5  10   0   36.87   19.14 
  -5  10   1    3.03    8.88 
   5 -10  -1   11.74   11.31 
  -5  10   2   17.04   14.08 
   5 -10  -2   -2.18    7.86 
  -5  10   3   41.97   21.14 
   5 -10  -3   41.12   21.32 
  -5  10   4   17.46    8.05 
   5 -10  -4    2.37    7.72 
   5 -10  -5    1.38   10.30 
  -5  10   5   -1.25    5.66 
  -5  10   6   -4.04   10.73 
  -5  10   7    0.86    8.60 
  -5  10   8  -20.74   16.54 
  -5  10   9    8.65   10.29 
  -5  10  10    8.18    3.76 
  -5  10  11    4.47    7.44 
  -5  10  12   -2.65    8.90 
   5 -11  10   -1.62    8.81 
   5 -11   9    9.38   11.71 
   5 -11   8   16.11   17.61 
   5 -11   7    4.28    6.39 
   5 -11   6    8.08    8.37 
   5 -11   5   26.50   18.98 
   5 -11   4    1.99    7.53 
   5 -11   3    9.27   12.02 
   5 -11   2    8.13   10.40 
   5 -11   1   39.24   20.33 
   5 -11   0   74.56   27.31 
  -5  11   0   68.34   24.68 
  -5  11   1   34.08   18.73 
   5 -11  -1   -1.96    6.22 
  -5  11   2   19.92   17.20 
   5 -11  -2   11.22   13.02 
  -5  11   3    0.09    2.60 
   5 -11  -3   22.99   17.13 
  -5  11   4   -5.98    2.75 
   5 -11  -4   -2.65   11.33 
  -5  11   5    0.16    5.56 
   5 -11  -5    6.41    5.24 
  -5  11   6    1.57    5.56 
  -5  11   7   -5.81   12.34 
  -5  11   8   -6.26    7.78 
  -5  11   9    9.99   11.26 
  -5  11  10    0.39    8.58 
   5 -12   7   29.19   19.57 
   5 -12   6   -3.76    8.08 
   5 -12   5    9.55   11.18 
   5 -12   4    2.74   11.55 
   5 -12   3   21.02   15.18 
   5 -12   2   22.72   17.40 
   5 -12   1   12.45   12.33 
   5 -12   0    9.25    9.51 
  -5  12   0   32.25   18.27 
   5 -12  -1    5.31    9.17 
  -5  12   1   22.29   15.15 
  -5  12   2   12.35   11.09 
   5 -12  -2   15.40   12.67 
  -5  12   3   20.79   15.07 
   5 -12  -3   -1.67    5.78 
  -5  12   4    4.53    9.64 
   5 -12  -4   -1.63    6.75 
  -5  12   5    1.43    7.97 
  -5  12   6    1.41    2.51 
  -5  12   7    9.22    9.37 
   5 -13   4    3.10    9.82 
   5 -13   3    9.62   10.07 
   5 -13   2   -1.88    5.35 
   5 -13   1    4.17    3.10 
   5 -13   0    2.91   10.74 
   5 -13  -1    5.85    9.62 
   5 -13  -2   -1.81    1.58 
   5 -13  -3   -2.23    5.37 
   5 -14   1    3.15    6.59 
   5 -14   0    2.16   10.22 
   5 -14  -1    4.85   13.20 
  -6   0 -19   11.64    8.01 
  -6   0 -18    3.28    2.96 
  -6   0 -17    9.27   10.89 
  -6   0 -16   11.28   10.89 
  -6   0 -15    6.96    8.92 
  -6   0 -14    1.81    5.66 
  -6   0 -13    2.32    7.25 
  -6   0 -12    6.30    6.76 
  -6   0 -11    2.12    3.82 
  -6   0 -10   50.09   15.13 
  -6   0  -9   -0.58    2.47 
  -6   0  -9   -2.09    4.39 
  -6   0  -8   -1.68    1.57 
  -6   0  -8    9.92    8.43 
  -6   0  -7    5.06    4.45 
  -6   0  -7    7.57    7.22 
  -6   0  -6  272.41   27.35 
  -6   0  -6  356.44   36.95 
  -6   0  -5    7.63    8.94 
   6   0   4  -12.86   12.77 
  -6   0  -4   22.86   11.59 
   6   0   3   11.46    2.24 
  -6   0  -3    8.48    8.11 
   6   0   2  127.61   35.02 
  -6   0  -2  136.25   25.07 
   6   0   1   26.44   19.09 
  -6   0  -1    5.48    3.43 
  -6   0   0   -1.80    3.17 
   6   0   0  -20.78   12.50 
   6   0  -1   11.50   14.17 
  -6   0   1    6.11    4.79 
   6   0  -2   18.78   15.26 
  -6   0   2   10.58    6.96 
   6   0  -3  -17.24   13.47 
  -6   0   3    4.59    5.82 
   6   0  -4   58.60   26.45 
  -6   0   4   71.24   17.35 
   6   0  -5    8.90   14.84 
  -6   0   5    3.18    4.31 
  -6   0   6  127.62   25.61 
   6   0  -6   32.39   14.66 
  -6   0   7    6.27    7.04 
  -6   0   8   19.06   10.00 
  -6   0   9    4.91    5.91 
  -6   0  10   24.30   13.34 
  -6   0  11   16.80   12.28 
  -6   0  12    3.04    6.15 
  -6   0  13    2.44    6.56 
  -6   0  14    7.07    9.78 
  -6   0  15    4.65    8.47 
  -6   0  16    4.16    8.27 
  -6  -1 -19   18.70   17.94 
  -6   1 -19   23.64   18.93 
  -6  -1 -18    4.32    9.24 
  -6   1 -18   12.15   16.35 
  -6  -1 -17   -1.40    6.16 
  -6   1 -17    6.00   12.13 
  -6  -1 -16   22.04   13.42 
  -6   1 -16   12.55   10.44 
  -6  -1 -15    3.12    9.15 
  -6   1 -15    7.01    5.91 
  -6  -1 -14    8.16    8.03 
  -6   1 -14   14.82    9.87 
  -6  -1 -13   -0.96    4.23 
  -6   1 -13   -7.70    6.82 
  -6  -1 -12    1.19    7.07 
  -6   1 -12    3.53    7.46 
  -6  -1 -11    9.46    6.77 
  -6   1 -11    4.60    7.54 
  -6   1 -10   46.84   15.34 
  -6   1 -10   36.54   13.19 
  -6   1  -9  169.66   26.81 
  -6   1  -9  252.13   34.02 
   6   1   8   36.26   18.03 
  -6   1  -8   58.37   15.24 
  -6  -1  -8   57.93   12.84 
  -6   1  -8   44.47   14.19 
   6   1   7   -0.56    6.75 
  -6   1  -7   15.78    6.89 
  -6   1  -7   13.61    9.64 
   6   1   6    5.14    4.22 
  -6   1  -6    2.64    3.21 
  -6   1  -6   -0.74    4.18 
  -6   1  -5    2.03    1.95 
   6   1   5   -6.78    7.65 
  -6   1  -5    2.20    2.66 
  -6   1  -5   -3.76    4.63 
  -6   1  -4   12.41    4.36 
   6   1   4   11.66   11.68 
  -6   1  -4    6.11    3.86 
  -6   1  -4    9.13    8.59 
  -6   1  -3   18.83    5.99 
   6   1   3   27.32   19.97 
  -6   1  -3   22.93    5.54 
  -6   1  -3   42.04   14.65 
  -6   1  -2   96.65   13.89 
   6   1   2  160.91   40.76 
  -6   1  -2  163.14   30.40 
  -6   1  -1   32.47    8.91 
   6   1   1   32.64   20.04 
   6  -1   1   26.22   20.43 
  -6   1  -1    8.22    8.24 
  -6   1   0    4.70    2.28 
   6  -1   0  -11.61    9.92 
  -6   1   0   -5.23    7.99 
   6   1  -1  108.10   33.01 
  -6   1   1   62.12   13.65 
   6  -1  -1   89.69   29.31 
  -6   1   1   88.77   23.20 
  -6   1   2  100.51   18.36 
   6   1  -2   95.60   30.32 
   6  -1  -2   45.50   25.20 
  -6   1   2   28.24   12.84 
   6   1  -3    6.35    6.22 
  -6   1   3   10.98    7.11 
   6  -1  -3    8.24    8.03 
  -6  -1   3   -2.18    1.81 
   6   1  -4    7.24   14.63 
  -6   1   4   13.31    7.52 
   6  -1  -4  -15.64   12.74 
  -6  -1   4    9.51    6.30 
   6   1  -5    9.49   14.72 
   6  -1  -5    1.40    7.48 
  -6   1   5    7.09    5.13 
  -6  -1   5   -3.55    6.19 
   6  -1  -6   17.71   15.42 
  -6   1   6    1.25    2.29 
  -6  -1   6   20.69    8.56 
   6  -1  -7   21.26   12.36 
  -6   1   7    4.85    5.59 
  -6  -1   7    6.99    8.07 
  -6   1   8  147.99   29.11 
  -6  -1   8  160.78   30.78 
  -6   1   9   63.23   20.12 
  -6  -1   9   74.92   19.74 
  -6   1  10    6.58    4.91 
  -6  -1  10   16.81   12.18 
  -6   1  11   13.27   10.84 
  -6  -1  11   -1.48    1.10 
  -6   1  12   14.64   12.60 
  -6  -1  12   12.17   11.13 
  -6   1  13   28.75   19.86 
  -6  -1  13    7.35    7.26 
  -6   1  14   11.33   10.55 
  -6  -1  14    8.50    9.32 
  -6   1  15   16.53   11.57 
  -6  -1  15   -7.64    6.17 
  -6   1  16   -6.73    9.41 
  -6  -1  16    7.56   12.87 
  -6  -2 -19    6.31    9.38 
  -6  -2 -18   -1.87    6.05 
  -6  -2 -17   13.98   11.12 
  -6   2 -17   -1.24    0.60 
  -6  -2 -16   16.15   16.59 
  -6   2 -16   18.98    9.91 
   6   2  15  -11.13    7.10 
  -6  -2 -15   15.67   12.91 
  -6   2 -15   10.86    9.36 
   6   2  14   13.98   12.46 
  -6  -2 -14    4.93    7.11 
  -6   2 -14    4.33   10.46 
   6   2  13   14.36   15.93 
  -6   2 -13    8.66    6.97 
   6   2  12   23.66   19.54 
  -6   2 -12   -3.74    2.64 
   6   2  11   54.68   22.50 
  -6   2 -11   77.85   19.24 
  -6   2 -10   94.33   24.65 
   6   2  10   76.89   25.81 
  -6   2 -10   47.32   13.99 
  -6   2  -9   55.41   20.11 
   6   2   9   31.58   16.34 
  -6   2  -9   54.90   15.63 
  -6   2  -8   15.24   10.97 
   6   2   8   -6.02    7.52 
  -6   2  -8    2.67    5.42 
  -6   2  -7   34.24   13.46 
   6   2   7   27.16   14.48 
   6   2   6   -6.74    6.23 
  -6   2  -6   -2.75    3.62 
   6   2   5    1.65    5.38 
  -6   2  -5    0.71    6.29 
  -6   2  -4    7.23    2.55 
   6   2   4    6.46    7.61 
  -6   2  -4    9.30    5.69 
  -6   2  -3    1.22    2.10 
   6   2   3    1.76    2.55 
  -6   2  -2   28.11    7.14 
   6   2   2   41.36   19.55 
  -6   2  -2   64.40   20.83 
  -6   2  -1  167.03   18.57 
   6   2   1  318.43   55.02 
  -6   2  -1  302.32   44.14 
  -6   2   0   33.95   10.22 
  -6   2   0   34.35   15.10 
  -6   2   1  169.59   21.49 
   6   2  -1  115.77   36.31 
   6  -2  -1   85.65   29.23 
  -6   2   1   84.45   24.55 
   6   2  -2   17.29   15.01 
  -6   2   2   14.29    6.02 
   6  -2  -2    9.18   13.55 
  -6   2   2    8.49    9.19 
   6   2  -3   24.61   15.83 
  -6   2   3    7.79    5.28 
   6  -2  -3   22.92   20.62 
  -6   2   3   -6.29    6.52 
  -6   2   4   41.37   13.98 
   6  -2  -4   37.35   20.53 
  -6   2   4   64.68   21.73 
  -6   2   5    2.58    2.86 
   6  -2  -5   -6.28   13.56 
  -6   2   5    0.28    0.50 
  -6   2   6    3.43    2.83 
   6  -2  -6   -2.94    4.73 
  -6   2   7    4.26    5.38 
   6  -2  -7   -9.06    9.36 
  -6  -2   7    0.10    2.46 
   6  -2  -8   25.20   17.73 
  -6   2   8   13.13   10.24 
  -6  -2   8    6.77   10.03 
  -6   2   9  141.75   28.88 
  -6  -2   9  135.85   30.72 
  -6   2  10   44.13   17.16 
  -6  -2  10   56.19   19.34 
  -6   2  11   13.33   12.59 
  -6  -2  11    9.56    8.53 
  -6   2  12    5.79    7.14 
  -6  -2  12    0.74    6.26 
  -6   2  13   -5.90    6.76 
  -6  -2  13   -0.01    7.38 
  -6   2  14   18.20   14.08 
  -6  -2  14   33.05   15.19 
  -6   2  15   17.54   12.42 
  -6  -2  15   19.49   14.86 
  -6   2  16   21.69   13.07 
  -6  -2  16   30.36   16.20 
  -6  -3 -18   15.61   12.42 
  -6  -3 -17   -2.78    4.29 
  -6  -3 -16   -5.98    7.00 
   6   3  15   15.31   12.74 
   6   3  14  139.19   37.41 
   6  -3  14  132.51   38.64 
   6   3  13    7.58   11.64 
   6  -3  13    8.73   13.56 
   6   3  12    6.32    5.38 
   6  -3  12   21.01   14.19 
   6   3  11   -0.31    8.11 
   6  -3  11    3.73   10.98 
   6   3  10   20.07   13.17 
   6   3   9  226.89   45.43 
  -6   3  -9  391.84   51.54 
  -6   3  -8  131.37   29.68 
   6   3   8  102.60   30.88 
  -6   3  -7   30.34   17.32 
   6   3   7   21.97   13.52 
  -6   3  -6    7.83   12.83 
   6   3   6   -1.86   10.03 
  -6   3  -5   22.66   13.35 
   6   3   5   28.80   19.35 
   6   3   4  359.05   59.09 
  -6   3  -4  411.25   51.63 
   6   3   3   82.42   29.95 
  -6   3  -3  108.10   26.94 
   6   3   2   22.81   18.45 
  -6   3  -2   27.76   11.82 
  -6   3  -1    8.38    4.23 
  -6   3  -1   -3.74   10.11 
  -6   3   0    3.28    4.15 
  -6   3   0    0.48    4.45 
   6   3  -1   38.76   18.75 
  -6   3   1   43.01   10.91 
  -6   3   1   82.31   25.59 
  -6   3   2  122.48   18.92 
  -6   3   2  209.77   39.92 
  -6   3   3   22.17   10.78 
   6  -3  -3   16.17   10.26 
  -6   3   3   -1.10    7.22 
   6  -3  -4   61.61   26.69 
  -6   3   4   20.88   16.99 
  -6   3   5    5.51    5.97 
   6  -3  -5    5.82   10.51 
  -6   3   5   -9.21   13.89 
  -6   3   6   41.64   13.42 
   6  -3  -6   46.66   19.89 
  -6   3   6   81.39   25.35 
  -6   3   7    6.55    7.39 
   6  -3  -7   18.18   17.02 
  -6   3   8   31.97   14.41 
   6  -3  -8   23.11   15.28 
  -6  -3   8   54.84   16.96 
   6  -3  -9   38.76   22.01 
  -6   3   9   96.19   23.30 
  -6  -3   9   78.31   23.07 
  -6   3  10    0.41    6.10 
  -6  -3  10    8.89   10.45 
  -6   3  11    6.51    1.01 
  -6  -3  11    5.21    9.20 
  -6   3  12    7.89   10.59 
  -6  -3  12   22.36   12.83 
  -6   3  13    8.91    2.07 
  -6  -3  13    4.70    7.22 
  -6   3  14   63.25   21.77 
  -6  -3  14   75.81   25.79 
  -6   3  15   14.09   14.13 
  -6  -3  15   -0.56    2.19 
  -6   3  16    5.65   14.81 
   6  -4  19   10.03   11.44 
  -6  -4 -18   18.80   14.08 
   6  -4  18    4.34    8.53 
   6  -4  17   20.73   20.06 
   6  -4  16   71.44   31.05 
   6  -4  15    9.73   12.68 
   6   4  14    5.24   10.09 
   6  -4  14   15.97   18.25 
   6   4  13   -9.32   10.90 
   6  -4  13    3.92   10.81 
   6   4  12    9.38    8.66 
   6  -4  12   28.96   19.79 
   6   4  11   13.65   14.19 
   6  -4  11    0.96   12.59 
   6   4  10   23.28   18.32 
   6  -4  10   21.11   17.54 
   6   4   9   13.37   15.62 
   6  -4   9    6.57   10.60 
   6   4   8   16.98   13.49 
   6  -4   8    7.54   13.39 
  -6   4  -7   28.61   18.87 
   6   4   7   33.84   15.69 
   6  -4   7    4.93    8.14 
   6   4   6  278.97   52.19 
   6  -4   6  342.26   52.78 
  -6   4  -6  430.10   55.01 
  -6   4  -5   80.23   24.79 
   6   4   5   61.53   27.09 
  -6   4  -4  117.56   30.33 
   6   4   4  113.76   33.64 
  -6   4  -3    1.28    8.54 
   6   4   3   37.45   24.40 
   6   4   2   12.50   19.62 
  -6   4  -2   -8.01    6.86 
  -6   4  -1    8.28    8.21 
  -6   4   0   60.88   18.80 
  -6   4   1    4.96    3.03 
  -6   4   2    2.90    4.59 
  -6   4   3   16.74   12.47 
  -6   4   4  298.19   35.42 
   6  -4  -4  416.77   63.85 
  -6   4   4  472.54   62.77 
  -6   4   5   42.39   13.74 
   6  -4  -5   43.86   24.49 
  -6   4   5   27.34   17.13 
  -6   4   6  202.00   30.71 
   6  -4  -6  105.04   31.67 
  -6   4   6  112.22   32.34 
  -6   4   7   -1.12    3.16 
   6  -4  -7    8.09    6.17 
  -6   4   7    0.28    5.36 
  -6   4   8    6.87    7.18 
   6  -4  -8   -2.04    4.77 
  -6   4   8    5.31    6.60 
  -6   4   9   23.13   11.50 
   6  -4  -9   35.97   19.66 
  -6  -4   9    4.07    7.20 
  -6   4  10   64.28   19.93 
   6  -4 -10   50.24   24.19 
  -6  -4  10   57.94   20.28 
  -6   4  11   33.93   15.70 
  -6  -4  11   27.03   14.29 
  -6   4  12   25.74   14.56 
  -6  -4  12    7.68    9.31 
  -6  -4  13    4.91    9.83 
  -6  -4  14   59.98   24.55 
  -6  -4  15   11.98   13.75 
   6  -5  18    3.71   11.72 
   6  -5  17   10.54   18.58 
   6  -5  16   29.07   19.10 
   6  -5  15    6.17   14.23 
   6  -5  14  149.95   40.96 
   6   5  13   36.41   21.08 
   6  -5  13   24.67   18.01 
   6   5  12   16.36    9.90 
   6  -5  12   21.05   19.11 
   6   5  11    4.46    8.46 
   6  -5  11    3.67    6.67 
   6   5  10   10.87   11.86 
   6  -5  10   -4.15    4.63 
   6   5   9   26.50   14.13 
   6  -5   9   28.62   19.14 
   6   5   8   22.30   13.75 
   6  -5   8   40.48   20.84 
   6   5   7  -48.15   20.82 
   6  -5   7   13.58    4.47 
  -6   5  -6   38.85   20.01 
   6  -5   6   21.69   18.32 
  -6   5  -5   16.95   15.78 
   6  -5   5   11.46   13.79 
   6  -5   4  265.70   48.54 
  -6   5  -4  300.69   46.97 
  -6   5  -3    5.33   11.51 
   6  -5   3   41.39   21.72 
  -6   5  -2   24.98   16.19 
  -6   5  -1   -2.63    2.18 
  -6   5   0   22.87   13.47 
  -6   5   1  161.79   33.63 
  -6   5   2  149.03   34.14 
  -6   5   3   67.59   25.35 
  -6   5   4   62.91   23.27 
  -6   5   5   17.54   12.01 
   6  -5  -6  101.09   30.99 
  -6   5   6  111.30   31.76 
   6  -5  -7   16.76   12.53 
  -6   5   7   14.15   10.60 
   6  -5  -8   13.20   10.34 
  -6   5   8   -5.15    2.33 
   6  -5  -9    2.55    9.25 
  -6   5   9  -10.66   10.27 
   6  -5 -10    3.86   11.38 
  -6  -5  11   23.20   13.45 
  -6  -5  12   54.49   21.63 
  -6  -5  13   -0.55    8.68 
  -6  -5  14   52.90   20.15 
   6  -6  16    1.96    9.54 
   6  -6  15   22.73   16.61 
   6  -6  14   21.71   15.93 
   6  -6  13    3.33   13.11 
   6  -6  12   43.73   24.65 
   6  -6  11   82.52   30.30 
   6  -6  10   19.59   15.03 
   6  -6   9   21.75   12.13 
   6  -6   8    9.16   13.41 
   6  -6   7    8.08   10.04 
   6  -6   6  117.17   33.21 
  -6   6  -5   39.06   17.23 
   6  -6   5    8.61   13.40 
  -6   6  -4   21.86   16.26 
   6  -6   4   -1.32    4.17 
  -6   6  -3   10.60   15.18 
   6  -6   3   14.84   16.13 
  -6   6  -2   39.57   22.92 
   6  -6   2   34.45   20.10 
  -6   6  -1  309.67   49.20 
  -6   6   0   72.71   23.59 
  -6   6   1   80.62   24.93 
  -6   6   2   27.83   16.91 
  -6   6   3   -1.39    3.34 
  -6   6   4   42.77   20.65 
  -6   6   5   48.54   24.01 
  -6   6   6    6.03   12.67 
   6  -6  -7   17.30   16.30 
  -6   6   7    2.53   10.64 
   6  -6  -8   29.67   17.69 
  -6   6   8    1.99    8.72 
   6  -6  -9   32.88   17.14 
  -6   6   9   60.22   24.80 
  -6   6  10   16.57   14.26 
  -6  -6  12   16.14   11.63 
  -6  -6  13    5.37    8.15 
   6  -7  15   19.45   17.47 
   6  -7  14   12.03   12.79 
   6  -7  13    0.28    6.46 
   6  -7  12   54.27   25.23 
   6  -7  11   13.84   16.02 
   6  -7  10   13.38   16.31 
   6  -7   9   83.23   31.48 
   6  -7   8   26.99   20.94 
   6  -7   7   18.80   17.99 
   6  -7   6   19.31   12.98 
   6  -7   5    6.04   10.43 
  -6   7  -4   48.62   19.56 
   6  -7   4   16.77   10.89 
  -6   7  -3   26.56   18.07 
   6  -7   3   26.78   19.17 
  -6   7  -2   36.62   20.10 
   6  -7   2   27.78   18.04 
  -6   7  -1   19.43   17.67 
   6  -7   1   26.16   19.64 
  -6   7   0   29.19   17.98 
   6  -7   0   24.06   16.27 
  -6   7   1   63.04   23.29 
  -6   7   2    7.36    7.19 
  -6   7   3    2.42   10.81 
  -6   7   4  -11.14   10.34 
  -6   7   5    5.84    9.64 
  -6   7   6   13.00   11.74 
  -6   7   7   48.22   21.94 
   6  -7  -8   24.34   18.74 
  -6   7   8  -12.64    6.17 
  -6   7   9   25.80   16.79 
  -6   7  10   -4.14    6.57 
  -6   7  11   20.28   14.19 
   6  -8  13    2.89    9.29 
   6  -8  12   28.23   20.73 
   6  -8  11   17.36   16.63 
   6  -8  10    4.23   15.97 
   6  -8   9   31.37   20.48 
   6  -8   8    4.13   12.74 
   6  -8   7   13.50   12.26 
   6  -8   6  -11.41    7.43 
   6  -8   5    1.24    8.89 
  -6   8  -4   17.23   15.47 
   6  -8   4   18.07   10.65 
  -6   8  -3   15.76   12.50 
   6  -8   3   14.93   14.48 
  -6   8  -2   17.76   12.71 
   6  -8   2   -0.98    3.68 
  -6   8  -1   27.40   18.09 
   6  -8   1   61.59   25.82 
  -6   8   0   34.43   18.72 
   6  -8   0   58.46   25.44 
  -6   8   1   10.34   11.25 
   6  -8  -1    6.83   11.79 
  -6   8   2   21.01   15.37 
  -6   8   3    7.62   12.38 
  -6   8   4   38.63   16.78 
  -6   8   5   -4.92    8.34 
  -6   8   6   15.58   11.56 
  -6   8   7    1.43    4.19 
  -6   8   8    9.20   15.14 
  -6   8   9   15.68   16.65 
  -6   8  10    4.68   12.32 
  -6   8  11    3.27    2.33 
   6  -9  11    0.66    3.66 
   6  -9  10   35.40   23.69 
   6  -9   9   20.22   19.47 
   6  -9   8   13.29   11.99 
   6  -9   7    2.52    7.72 
   6  -9   6    9.32    9.22 
   6  -9   5   26.23   21.00 
   6  -9   4   63.85   28.55 
  -6   9  -3    4.44    8.53 
   6  -9   3   20.05   21.28 
  -6   9  -2   26.61   19.03 
   6  -9   2   23.15   17.72 
  -6   9  -1   25.23   17.09 
   6  -9   1    2.30    9.58 
  -6   9   0   35.03   20.29 
   6  -9   0   13.71   13.77 
  -6   9   1   89.61   29.40 
   6  -9  -1   51.80   22.35 
  -6   9   2   15.76   14.29 
   6  -9  -2   29.56   20.11 
  -6   9   3   -0.46   10.03 
  -6   9   4   -2.93    5.93 
  -6   9   5   -9.46   13.45 
  -6   9   6    6.87    5.51 
  -6   9   7   18.76   14.57 
  -6   9   8   13.86   14.85 
  -6   9   9   12.73   17.21 
  -6   9  10   -9.64    8.32 
   6 -10   9   18.13   12.47 
   6 -10   8   -4.40    9.98 
   6 -10   7   16.09   12.79 
   6 -10   6   10.68   13.82 
   6 -10   5    3.27   10.74 
   6 -10   4    0.13    0.40 
  -6  10  -3   19.15   18.43 
   6 -10   3    5.76    6.83 
  -6  10  -2   41.61   22.25 
   6 -10   2   24.41   20.94 
  -6  10  -1   57.03   25.13 
   6 -10   1   74.51   29.98 
  -6  10   0   81.53   28.77 
   6 -10   0   95.11   35.45 
  -6  10   1   24.04   16.20 
   6 -10  -1   28.18   18.45 
  -6  10   2   23.75   13.63 
   6 -10  -2   16.78   12.75 
  -6  10   3   -6.00    5.15 
  -6  10   4    8.36   15.26 
  -6  10   5   17.21   13.40 
  -6  10   6   13.15   11.69 
  -6  10   7   26.07   19.03 
  -6  10   8   16.13   17.13 
   6 -11   6    4.52   10.95 
   6 -11   5   -1.14    6.05 
   6 -11   4   37.62   23.40 
  -6  11  -3   27.91   21.04 
   6 -11   3   35.35   21.58 
  -6  11  -2   21.57   17.43 
   6 -11   2    7.34   10.46 
  -6  11  -1   44.14   21.09 
   6 -11   1    5.50   11.63 
  -6  11   0   28.43   18.16 
   6 -11   0   16.28   15.07 
  -6  11   1   55.98   22.56 
   6 -11  -1   27.46   17.40 
  -6  11   2    0.95   12.22 
   6 -11  -2    7.58    9.94 
  -6  11   3   24.63   18.41 
   6 -11  -3   23.71   14.35 
  -6  11   4    6.19    7.88 
  -6  11   5    4.52    7.60 
   6 -12   3   -9.80   13.90 
   6 -12   2    1.75    9.57 
   6 -12   1   15.95    9.34 
   6 -12   0   42.77   23.23 
   6 -12  -1    7.36    8.95 
   6 -12  -2    5.99   13.12 
   6 -12  -3   10.20   12.96 
   6 -13  -1   18.35   14.80 
   6 -13  -2   11.86   13.22 
   7   0   7   -4.17    6.61 
   7   0   6    7.87   10.30 
  -7   0  -6    5.82    3.84 
   7   0   5   13.41   14.80 
  -7   0  -5   -1.10    2.75 
   7   0   4   23.73   16.52 
  -7   0  -4    9.23    6.52 
  -7   0  -3   -0.16    1.32 
   7   0   3   12.35   19.37 
  -7   0  -2    0.97    1.28 
   7   0   2    0.16   14.81 
  -7   0  -1   -2.27    3.59 
   7   0   1   13.15   12.79 
   7   0   0   15.15    8.90 
  -7   0   0   16.28    6.99 
   7   0  -1   20.02   15.64 
  -7   0   1    1.95    1.71 
   7   0  -2   58.02   27.23 
  -7   0   2   33.75   11.77 
   7   0  -3   12.86   21.98 
  -7   0   3    0.47    2.49 
   7   0  -4  -23.08   17.55 
  -7   0   4   12.26    7.70 
   7   0  -5   30.49   22.95 
  -7   0   5   -2.14    3.59 
   7   0  -6   14.60   16.34 
  -7   0   6   15.97   10.74 
  -7   0   7   15.00    9.54 
  -7   0   8    7.88    9.40 
  -7   0   9    1.59    2.71 
  -7   0  10   -0.31    1.23 
  -7   0  11    7.17    6.12 
  -7   0  12    7.40    9.93 
  -7   0  13    0.59    6.81 
  -7   0  14   14.49   11.57 
  -7  -1 -17   -2.69    5.05 
   7   1  16    3.19   12.53 
  -7  -1 -16   -1.16    6.60 
   7   1  15   16.30   17.23 
  -7  -1 -15    1.48    5.84 
   7   1  14    7.73    6.00 
  -7  -1 -14    5.46    8.36 
   7   1  13    5.62   10.18 
  -7  -1 -13   12.73   11.04 
   7   1  12   10.61   13.48 
  -7  -1 -12    5.61    5.19 
  -7  -1 -11    7.32    7.21 
   7   1  11    9.25    8.37 
  -7  -1 -10    8.28    6.91 
   7   1  10    5.96   10.97 
  -7  -1  -9    6.86    6.13 
   7   1   9   -2.16   10.16 
   7   1   8   -0.68    9.46 
   7   1   7   -2.25   10.17 
  -7   1  -7    4.34    7.72 
   7   1   6   19.62   10.66 
  -7   1  -6   22.48   12.85 
   7   1   5   12.96   10.85 
  -7   1  -5   30.28   15.40 
   7   1   4    5.35    4.07 
  -7   1  -4   -4.75    5.29 
   7   1   3   14.56   12.98 
   7  -1   3   -0.74    7.98 
  -7   1  -3    6.58    8.15 
   7  -1   2  -10.37    3.75 
  -7   1  -2   -4.93    2.00 
  -7   1  -1   16.05    6.58 
   7   1   1   52.85   26.85 
   7  -1   1   35.27   23.77 
  -7   1  -1   39.36   15.88 
  -7   1   0  117.27   18.43 
   7   1   0  177.95   44.43 
   7  -1   0  122.43   37.41 
  -7   1   0  150.45   32.46 
   7   1  -1   27.37   18.46 
  -7   1   1   16.92    7.86 
   7  -1  -1   17.77   17.45 
  -7  -1   1    8.17    6.36 
   7   1  -2    1.34    5.18 
  -7  -1   2   -0.58    1.32 
  -7   1   3   -3.05    2.51 
   7  -1  -3    7.41   10.36 
  -7  -1   3    1.49    4.87 
   7   1  -4   58.36   29.39 
  -7   1   4   27.16   11.28 
   7  -1  -4   36.10   20.16 
  -7  -1   4    9.80    6.87 
   7  -1  -5   16.80   16.86 
  -7   1   5   17.24    9.18 
  -7  -1   5   11.17    6.21 
   7  -1  -6   27.58   20.82 
  -7   1   6    6.81    4.91 
  -7  -1   6   12.35    8.28 
   7  -1  -7  -11.53   11.98 
  -7   1   7   -7.16    6.16 
  -7  -1   7   -1.56    5.54 
  -7   1   8   13.75   11.18 
  -7  -1   8   12.98   10.59 
  -7   1   9   -6.51    8.10 
  -7  -1   9   -1.14    1.16 
  -7   1  10   11.49   10.08 
  -7  -1  10   19.71   12.90 
  -7   1  11    4.08    7.31 
  -7  -1  11    8.74   14.68 
  -7   1  12   -0.44    5.18 
  -7  -1  12   -1.16    5.01 
  -7   1  13    8.63    8.99 
  -7  -1  13    5.77   10.83 
  -7   1  14   15.80   12.65 
  -7  -1  14    7.37    7.58 
  -7  -2 -18    4.14    6.05 
  -7  -2 -17   25.62   16.74 
  -7  -2 -16    7.94    9.46 
   7   2  15    4.16   15.27 
  -7  -2 -15   -5.51    4.82 
   7   2  14   21.23   21.42 
  -7  -2 -14    8.11    7.59 
   7   2  13   16.94   20.02 
  -7  -2 -13    9.84    9.58 
   7   2  12   10.52    8.41 
  -7  -2 -12   11.24    9.78 
   7   2  11  -32.68   20.94 
   7   2  10   22.62   19.67 
   7   2   9   16.63   13.13 
   7   2   8   17.73   16.44 
  -7   2  -8   -6.59    5.08 
   7   2   7   25.86   19.78 
  -7   2  -7   14.09    9.70 
   7   2   6   21.89   20.25 
  -7   2  -6   -9.90    4.10 
   7   2   5   21.19   19.50 
  -7   2  -5   16.75    8.23 
   7   2   4    8.14   12.07 
  -7   2  -4   26.84   13.38 
   7   2   3   -6.63    8.81 
  -7   2  -3    9.93   11.83 
   7   2   2   29.99   19.25 
  -7   2  -2    1.21    8.67 
   7   2   1   -2.29   13.02 
   7  -2   1    9.60    3.86 
  -7   2  -1    9.45    9.47 
  -7   2   0    9.93    5.62 
   7   2   0   26.01   20.01 
   7  -2   0    7.21    7.85 
  -7   2   0    1.18    6.35 
   7   2  -1   11.86   17.76 
  -7   2   1   16.48    8.19 
   7  -2  -1   -4.81   13.35 
  -7   2   1    4.17    7.79 
  -7   2   2   10.03    5.97 
   7  -2  -2   29.03   19.25 
  -7   2   2    6.44    6.54 
   7   2  -3   15.62   21.28 
  -7   2   3   28.93   11.27 
   7  -2  -3   43.67   23.02 
  -7   2   3   39.70   16.76 
  -7   2   4    8.96    7.79 
   7  -2  -4    9.63   17.72 
  -7  -2   4    0.09    4.94 
  -7   2   5   -2.66    3.39 
   7  -2  -5    4.23   12.00 
  -7  -2   5   -5.19    4.86 
  -7   2   6   20.17   10.98 
   7  -2  -6   24.63   16.70 
  -7  -2   6   19.48    8.43 
   7  -2  -7   32.58   17.49 
  -7   2   7   17.23   10.74 
  -7  -2   7   29.25   12.51 
   7  -2  -8   22.10   18.29 
  -7   2   8   11.95   10.12 
  -7  -2   8    9.16    7.54 
  -7   2   9    2.10    7.92 
  -7  -2   9   14.70   10.58 
  -7   2  10    8.77   10.42 
  -7  -2  10   11.40    9.79 
  -7   2  11   17.73   12.20 
  -7  -2  11   -6.83    5.59 
  -7   2  12   18.57   13.90 
  -7  -2  12    7.84    9.40 
  -7   2  13    1.84    2.70 
  -7  -2  13   13.59   10.98 
  -7   2  14    9.35    4.86 
  -7  -2  14   -1.68    5.64 
  -7  -3 -17    7.95   12.73 
  -7  -3 -16    8.36   10.60 
  -7  -3 -15   10.57   10.57 
   7   3  14    6.05   11.61 
   7   3  13   15.91   16.31 
   7   3  12    3.00   12.74 
   7   3  11   32.07   17.00 
   7   3  10    5.48   16.27 
  -7   3  -9   11.23   13.37 
   7   3   9   -6.84    8.55 
   7   3   8    5.91    6.31 
  -7   3  -8    1.42   12.59 
   7   3   7   13.49   14.24 
  -7   3  -7   12.46   10.41 
   7   3   6   30.75   19.86 
  -7   3  -6   33.35   13.36 
   7   3   5   -5.28    6.98 
  -7   3  -5    5.51    6.52 
   7   3   4    7.35   10.67 
  -7   3  -4   -2.71    7.93 
   7   3   3   17.91   16.59 
  -7   3  -3    0.10    4.90 
   7   3   2   17.06   24.85 
  -7   3  -2   -7.09    9.34 
   7   3   1   74.32   31.30 
  -7   3  -1   85.47   25.86 
   7   3   0   56.55   34.29 
  -7   3   0   19.83   14.65 
  -7   3   1   11.97    6.64 
   7  -3  -1   20.54    9.93 
  -7   3   1   18.59   13.20 
  -7   3   2    0.30    3.92 
   7  -3  -2   -3.85    7.30 
  -7   3   3   11.44    7.76 
   7  -3  -3   16.58   15.65 
  -7   3   3   23.46   13.82 
  -7   3   4    7.08    7.03 
   7  -3  -4   17.75   16.60 
  -7   3   4   18.66   12.32 
  -7   3   5   12.40    7.39 
  -7   3   5    2.64    4.74 
  -7   3   6    3.88    4.26 
  -7  -3   6    0.39    1.60 
  -7   3   7   10.74    6.64 
   7  -3  -7   19.64   16.55 
  -7  -3   7    8.15    6.97 
  -7   3   8    2.22    4.61 
  -7  -3   8   -3.00    4.40 
   7  -3  -9    4.80   10.87 
  -7   3   9   -4.55    6.90 
  -7  -3   9   -5.66    5.95 
  -7   3  10   -4.14    4.43 
  -7  -3  10   20.42    9.10 
  -7   3  11    7.88    7.35 
  -7  -3  11   12.28    9.13 
  -7   3  12    0.74    7.07 
  -7  -3  12   14.34   11.49 
  -7   3  13    2.68    6.89 
  -7  -3  13    8.80    9.00 
  -7   3  14    7.87   11.68 
  -7  -4 -17    5.85    7.53 
   7   4  13   -1.85    5.50 
   7   4  12   21.85   13.91 
   7   4  11   20.87   11.76 
  -7   4 -10   45.10   24.27 
   7   4  10    5.90   12.90 
  -7   4  -9    9.29   17.00 
   7   4   9    1.08   16.43 
  -7   4  -8   12.24   15.10 
   7   4   8   21.38   16.17 
  -7   4  -7   24.88   19.32 
   7   4   7   -6.37    6.45 
  -7   4  -6   -0.72    3.80 
   7   4   6   12.12   21.10 
   7   4   5    2.28   14.15 
  -7   4  -5   10.07    8.01 
   7   4   4   32.30   21.30 
  -7   4  -4    5.13    3.84 
   7   4   3   47.82   23.03 
  -7   4  -3   30.66   14.61 
   7   4   2    7.28   14.01 
  -7   4  -2   -1.59    4.45 
  -7   4  -1   -9.14   11.89 
  -7   4   0   14.88   13.00 
  -7   4   1   49.62   21.23 
  -7   4   2   28.73   17.09 
   7  -4  -3   22.71   17.49 
  -7   4   3   43.38   20.22 
   7  -4  -4   -2.20    5.22 
  -7   4   4    0.18    6.59 
  -7   4   5   -3.31    1.85 
   7  -4  -5    6.45   13.87 
  -7   4   5   -7.66   12.76 
  -7   4   6    7.69    8.54 
   7  -4  -6   18.60   16.32 
  -7   4   6    6.23   13.13 
  -7   4   7    4.22    5.15 
  -7   4   7   -3.41    4.46 
  -7   4   8    0.85    5.36 
   7  -4  -8   19.23   16.84 
  -7  -4   8    7.81    9.94 
  -7   4   9   -1.31    4.19 
   7  -4  -9    1.86   13.88 
  -7  -4   9   -0.03    2.85 
  -7   4  10   13.74   10.86 
   7  -4 -10    2.30    6.69 
  -7  -4  10    2.99    3.56 
  -7   4  11    2.59    6.82 
  -7  -4  11   -2.25    2.02 
  -7  -4  12   16.33   11.35 
  -7  -4  13   15.52   13.61 
   7  -5  14   15.16   10.12 
   7   5  13   20.50   20.43 
   7  -5  13   -0.92    9.53 
   7   5  12   25.74   19.38 
   7  -5  12    8.49   10.58 
   7   5  11   17.21   16.79 
   7  -5  11    3.78   10.49 
  -7   5 -10   27.71   20.38 
   7   5  10   12.27   15.45 
  -7   5  -9   14.77   16.23 
   7   5   9    0.44   12.95 
  -7   5  -8   29.15   19.91 
   7   5   8    1.17   13.88 
  -7   5  -7   19.75   18.02 
   7   5   7   18.94   18.82 
  -7   5  -6    8.12   10.36 
  -7   5  -5   -0.01    8.48 
  -7   5  -4   25.07   18.60 
  -7   5  -3    8.26    7.01 
  -7   5  -2   19.54   12.20 
  -7   5  -1   17.44   12.99 
  -7   5   0   50.90   18.38 
  -7   5   1   16.45   13.18 
  -7   5   2   21.75   15.32 
  -7   5   3   15.50   15.62 
   7  -5  -4   50.01   22.77 
  -7   5   4   71.98   25.97 
   7  -5  -5   15.91   17.63 
  -7   5   5   30.20   15.95 
   7  -5  -6    5.33   17.10 
  -7   5   6   -5.36   10.16 
   7  -5  -7    4.77   12.11 
  -7   5   7   -2.98    7.57 
   7  -5  -8   19.04   19.02 
  -7   5   8    0.15    5.61 
   7  -5  -9   19.20   15.54 
  -7  -5   9   12.69    9.53 
  -7  -5  10   15.13   10.07 
  -7  -5  11   14.42   11.11 
  -7  -5  12   -0.09    8.03 
   7  -6  13   10.44   14.24 
   7  -6  12   20.25   19.60 
   7  -6  11    5.82    7.45 
  -7   6 -10    1.66    8.29 
   7  -6  10    0.89   16.70 
  -7   6  -9   20.91   13.68 
   7  -6   9    8.00   14.04 
  -7   6  -8   29.81   21.78 
   7  -6   8    7.49    9.43 
  -7   6  -7   19.98   17.94 
   7  -6   7   -0.46   12.29 
  -7   6  -6   15.26   11.54 
  -7   6  -5    8.25   13.85 
  -7   6  -4   26.01   18.22 
  -7   6  -3   36.20   19.30 
  -7   6  -2    1.43    4.82 
  -7   6  -1   -1.31    3.85 
  -7   6   0    5.62    3.83 
  -7   6   1   -1.86    5.60 
  -7   6   2   -0.82    6.61 
  -7   6   3    9.90   11.34 
  -7   6   4   -6.37    7.02 
   7  -6  -5   10.10    8.71 
  -7   6   5   37.63   18.53 
   7  -6  -6   24.50   16.96 
  -7   6   6    2.82   11.31 
   7  -6  -7   42.49   24.36 
  -7   6   7   15.91   12.87 
   7  -6  -8    1.28    6.68 
  -7   6   8    3.61    5.73 
  -7   6   9   18.97   16.73 
  -7  -6  11    5.43    6.53 
   7  -7  11   13.03   18.25 
   7  -7  10    6.81   12.33 
  -7   7  -9   15.62   16.13 
   7  -7   9   30.91   21.51 
  -7   7  -8   23.30   21.09 
   7  -7   8   17.65   19.37 
  -7   7  -7    6.12    8.84 
   7  -7   7   20.11   14.10 
  -7   7  -6   23.33   14.52 
   7  -7   6   43.15   24.94 
  -7   7  -5   56.13   25.74 
   7  -7   5   25.99   18.75 
  -7   7  -4   28.11   18.55 
   7  -7   4   33.90   23.91 
  -7   7  -3   14.50   15.45 
  -7   7  -2   12.82    9.29 
  -7   7  -1   -1.45    4.08 
  -7   7   0    2.17    9.44 
  -7   7   1   -2.26    3.90 
  -7   7   2    8.02    7.06 
  -7   7   3   -9.17   10.43 
  -7   7   4    8.51   10.80 
  -7   7   5   35.05   22.57 
   7  -7  -6   12.98   21.07 
  -7   7   6    6.15   11.60 
   7  -7  -7   14.32   18.11 
  -7   7   7    1.91    8.11 
  -7   7   8    6.98   15.57 
  -7   7   9   25.74   17.49 
   7  -8   9   36.06   25.54 
  -7   8  -8   14.50   14.44 
   7  -8   8    9.63   12.24 
  -7   8  -7   10.25   17.21 
   7  -8   7   12.35   13.35 
  -7   8  -6   30.93   21.59 
   7  -8   6   18.68   17.02 
  -7   8  -5   13.20   15.33 
   7  -8   5   17.76   16.55 
  -7   8  -4   25.48   16.99 
   7  -8   4   -2.75    8.20 
  -7   8  -3   10.38   10.64 
   7  -8   3   18.72   18.45 
  -7   8  -2   -3.86    6.00 
  -7   8  -1  -12.75    9.46 
  -7   8   0   -2.84    5.91 
  -7   8   1   14.23   12.86 
  -7   8   2    1.69    7.39 
  -7   8   3    3.71   10.82 
  -7   8   4  -23.53   15.41 
  -7   8   5   37.03   23.39 
  -7   8   6    7.21   11.99 
   7  -8  -7   33.57   21.08 
  -7   8   7    9.96   12.11 
  -7   9  -7   11.23   16.47 
   7  -9   7   16.27   21.60 
  -7   9  -6   42.29   23.72 
   7  -9   6   20.79   23.42 
  -7   9  -5   22.51   21.05 
   7  -9   5    4.76    8.60 
  -7   9  -4   21.74   14.81 
   7  -9   4    2.50    4.65 
  -7   9  -3   12.80   13.49 
   7  -9   3   18.72   18.50 
  -7   9  -2   16.29   14.28 
   7  -9   2    7.03    9.51 
  -7   9  -1    7.31   12.38 
  -7   9   0    8.12   11.77 
  -7   9   1   10.60   13.61 
  -7   9   2    7.99    6.62 
  -7   9   3   20.84   19.75 
  -7   9   4  -16.78   16.87 
  -7   9   5    8.45   11.71 
  -7  10  -7   28.00   21.66 
  -7  10  -6    9.01   14.62 
  -7  10  -5   19.06   16.97 
  -7  10  -4   17.87   15.94 
   7 -10   4    8.25   17.25 
  -7  10  -3   31.53   21.00 
   7 -10   3   14.56   14.54 
  -7  10  -2   16.03   17.19 
   7 -10   2    6.88   14.08 
  -7  10  -1   22.43   17.08 
   7 -10   1   -3.07   14.13 
  -7  10   0   17.65   12.58 
  -7  10   1   18.96   13.85 
   7 -11   0   27.65   21.07 
   8   0  15    4.79    9.69 
   8   0  14   -6.83   17.83 
   8   0  13   18.92   16.98 
   8   0  12   50.66   26.10 
   8   0  11   14.21   14.52 
   8   0  10   53.47   25.49 
   8   0   9    3.38    6.56 
   8   0   8    0.33    7.48 
   8   0   7    4.03   10.44 
   8   0   6   25.92   22.89 
   8   0   5   -9.08   12.19 
   8   0   4    1.37   11.97 
   8   0   3   -9.67   10.24 
   8   0   2   77.38   32.78 
   8   0   1  145.82   45.07 
   8   0   0  500.25   83.39 
   8   0  -1  123.46   39.85 
   8   0  -2   19.79   21.28 
  -8   0   2    3.00    4.79 
   8   0  -3  -14.45   11.31 
  -8   0   3    3.96    4.03 
   8   0  -4    8.52   11.53 
  -8   0   4    8.00    7.52 
   8   0  -5   17.93   22.72 
  -8   0   5    3.37    5.04 
  -8   0   6   42.58   15.80 
  -8   0   7   -0.71    3.82 
  -8   0   8    6.01    7.59 
  -8   0   9   20.26   11.90 
  -8   0  10  105.69   27.91 
  -8   0  11    5.60    9.17 
  -8   0  12    2.62    3.19 
   8   1  15   20.10   14.87 
   8   1  14    9.65   13.11 
   8   1  13   27.88   13.53 
   8   1  12    7.35   16.75 
   8   1  11   -0.86   11.36 
   8   1  10   38.38   23.67 
   8   1   9   25.87   26.76 
   8   1   8   34.56   21.64 
   8  -1   8   46.45   20.49 
   8   1   7   -0.09    9.61 
   8  -1   7   20.61   14.49 
   8   1   6   13.99   19.22 
   8  -1   6   15.25   14.60 
   8   1   5   17.40   16.93 
   8  -1   5   23.15   18.16 
  -8   1  -5   30.05   13.94 
   8   1   4   25.92   14.56 
   8  -1   4   27.26   13.59 
  -8   1  -4   28.14   13.72 
   8   1   3   15.42   18.75 
   8  -1   3   42.28   22.90 
  -8   1  -3   18.20   16.03 
   8   1   2   34.62   21.85 
   8  -1   2   -0.70    6.50 
   8   1   1   -4.37    3.50 
   8  -1   1    4.35   13.19 
   8   1   0   21.64   19.99 
   8  -1   0   67.02   33.34 
   8   1  -1   41.74   23.16 
   8  -1  -1   20.14   24.63 
  -8  -1   1   11.77    8.78 
   8   1  -2   26.36   21.45 
   8  -1  -2   32.82   18.66 
  -8  -1   2   26.98   10.61 
   8   1  -3  -10.20   14.32 
  -8   1   3   16.47    9.21 
   8  -1  -3   52.39   33.78 
  -8  -1   3   26.97   11.41 
   8   1  -4    6.31    1.76 
   8  -1  -4    9.71   17.53 
  -8   1   4   -0.85    0.99 
  -8  -1   4    4.18    4.74 
   8  -1  -5   15.20   23.01 
  -8   1   5    4.78    7.07 
  -8  -1   5    7.90    6.83 
  -8   1   6   53.19   17.04 
  -8  -1   6   43.88   15.75 
   8  -1  -7   18.89   16.52 
  -8   1   7   20.68   13.29 
  -8  -1   7   22.48   12.08 
  -8   1   8   32.63   14.51 
  -8  -1   8   24.18   11.88 
  -8   1   9   -2.82    4.21 
  -8  -1   9   10.94    9.51 
  -8   1  10   12.12   10.85 
  -8  -1  10   -1.07    1.04 
  -8   1  11    1.26    4.23 
  -8  -1  11    5.87    9.67 
  -8   1  12   42.95   20.27 
  -8  -1  12   18.88   15.70 
   8   2  15   62.65   34.20 
   8   2  14   36.36   26.51 
   8   2  13   11.80   11.18 
   8   2  12   17.34   14.05 
   8   2  11    7.95    7.32 
   8   2  10   14.58   10.00 
   8   2   9   18.63   21.74 
   8   2   8    8.13   14.40 
   8   2   7   46.34   26.68 
   8   2   6   22.90   13.82 
  -8   2  -6   75.19   24.57 
   8   2   5  106.18   36.46 
  -8   2  -5  118.68   30.35 
   8   2   4   -1.34   11.08 
   8  -2   4   -5.21    9.62 
  -8   2  -4    3.73    5.83 
   8   2   3   16.16   24.70 
   8  -2   3   -8.55   14.63 
  -8   2  -3   17.46   14.01 
   8   2   2   34.57   22.06 
   8  -2   2    6.51    6.27 
  -8   2  -2   27.14   15.32 
   8   2   1   30.04   16.86 
   8  -2   1   33.91   24.86 
  -8   2  -1   33.74   18.07 
   8   2   0   68.33   34.97 
   8  -2   0   54.43   27.92 
  -8   2   0   91.62   28.09 
   8   2  -1   10.01   11.38 
   8  -2  -1   -2.99   17.60 
  -8  -2   1   -0.63    5.64 
  -8   2   1    4.39    6.51 
   8   2  -2   21.96   16.15 
   8  -2  -2  -17.39    7.28 
  -8  -2   2    4.72    6.15 
   8  -2  -3   34.13   20.79 
  -8  -2   3   20.67   10.25 
  -8   2   4   23.33   11.18 
  -8  -2   4   10.61    6.99 
  -8   2   5   99.38   22.39 
   8  -2  -5   78.44   33.65 
  -8  -2   5   59.00   17.85 
  -8   2   6   29.74   12.88 
   8  -2  -6    6.81   16.03 
  -8  -2   6   14.80    9.34 
   8  -2  -7   -2.51    7.93 
  -8   2   7   -0.54    1.00 
  -8  -2   7    2.30    6.15 
   8  -2  -8   -9.02    8.63 
  -8   2   8   -4.80    2.80 
  -8  -2   8    9.37    8.10 
  -8   2   9    8.65   10.91 
  -8  -2   9   13.13    8.09 
  -8   2  10   13.01   14.51 
  -8  -2  10    7.14   10.57 
  -8   2  11    6.07    9.69 
  -8  -2  11   -3.54    5.99 
  -8   2  12    3.93    5.43 
   8   3  14   -7.03    5.02 
   8   3  13   20.35   19.43 
   8   3  12  -20.75   17.50 
   8   3  11   -5.19   12.25 
   8   3  10   26.71   18.56 
   8   3   9   13.85   13.03 
   8   3   8    2.14    7.01 
   8   3   7    6.84    6.18 
   8   3   6    4.07    8.90 
  -8   3  -6   10.22   10.68 
   8   3   5   16.36   20.42 
  -8   3  -5   25.69   17.73 
   8   3   4    7.20   19.48 
  -8   3  -4   23.44   16.32 
   8   3   3   31.82   17.98 
  -8   3  -3   35.34   19.08 
   8   3   2   -3.05   18.61 
  -8   3  -2    7.57   10.21 
   8   3   1    2.55   10.22 
   8  -3   1    5.87    4.97 
  -8   3  -1   12.18   11.46 
   8   3   0   -5.07    9.83 
   8  -3   0   -5.18    5.78 
  -8   3   0    1.97    1.96 
   8  -3  -1   46.08   26.53 
  -8   3   1   20.51   10.70 
   8  -3  -2   29.53   22.51 
  -8   3   2   25.43   18.52 
   8  -3  -3   59.47   29.26 
  -8   3   3   17.15   16.36 
   8  -3  -4    0.40   18.23 
  -8  -3   4    2.20    2.26 
   8  -3  -5   -0.35   10.19 
  -8  -3   5    2.30    5.08 
  -8   3   6    5.65    5.31 
  -8  -3   6    6.81    6.12 
  -8   3   7    4.34    5.55 
   8  -3  -7    2.43    6.19 
  -8  -3   7    3.19    3.39 
  -8   3   8    5.58    3.06 
   8  -3  -8   -1.48   14.51 
  -8  -3   8   -1.70    3.50 
   8  -3  -9    5.06   10.79 
  -8   3   9   13.15    7.71 
  -8  -3   9    4.83    8.38 
  -8   3  10    3.20    5.33 
  -8  -3  10    2.72    0.96 
  -8   3  11    1.50   12.42 
  -8  -3  11    0.73    1.80 
  -8   3  12    8.20   10.35 
   8   4  13    6.60   16.36 
   8   4  12   10.35   15.17 
   8   4  11   23.47   21.14 
   8   4  10   30.87   21.89 
   8   4   9    4.73   16.07 
   8   4   8    4.05    5.13 
   8   4   7   -1.68   12.19 
  -8   4  -7    2.07    7.43 
   8   4   6   91.75   35.54 
  -8   4  -6  102.33   32.14 
   8   4   5    3.55    1.62 
  -8   4  -5   10.41   13.67 
   8   4   4  -25.91   23.50 
  -8   4  -4   10.46   10.03 
   8   4   3   22.52   16.22 
  -8   4  -3   -0.69    8.77 
  -8   4  -2   18.97   12.62 
  -8   4  -1   52.56   23.65 
   8  -4   0   40.05   21.66 
  -8   4   0   31.79   18.86 
   8  -4  -1   -4.38    8.09 
  -8   4   1   11.52   11.61 
   8  -4  -2   -1.19    8.54 
  -8   4   2   -2.32    4.59 
   8  -4  -3   17.02   16.32 
  -8   4   3   19.12   12.83 
   8  -4  -4   28.22   22.65 
  -8   4   4   24.09   14.48 
   8  -4  -5   12.52   11.32 
  -8   4   5    8.43   11.03 
   8  -4  -6    1.09    5.38 
  -8  -4   6    1.59    2.20 
   8  -4  -7    7.13   16.79 
  -8  -4   7   -0.69    0.74 
   8  -4  -8   19.64   17.21 
  -8  -4   8    4.90    7.23 
   8  -4  -9   27.80   18.67 
  -8  -4   9    6.98    8.45 
  -8  -4  10    7.84    6.22 
   8   5  12   -5.67   12.03 
   8   5  11   21.72   24.11 
   8   5  10   39.45   28.13 
  -8   5  -8   15.68   16.30 
  -8   5  -7   -2.89   11.06 
  -8   5  -6   22.66   17.99 
  -8   5  -5   20.88    9.61 
  -8   5  -4    2.09    9.94 
  -8   5  -3    4.65    8.69 
  -8   5  -2   -3.22    1.11 
  -8   5  -1    1.78   12.22 
  -8   5   0    9.32   12.21 
  -8   5   1   16.24   14.14 
   8  -5  -2   24.30   22.40 
  -8   5   2   23.00   18.89 
   8  -5  -3    4.04    3.93 
  -8   5   3    2.60    7.42 
   8  -5  -4   23.27   23.08 
  -8   5   4   -1.84    2.07 
   8  -5  -5   22.64   20.17 
  -8   5   5   17.18   12.11 
   8  -5  -6   -7.55    5.02 
  -8   5   6   -8.96   10.07 
   8  -5  -7  -10.67    2.03 
   8  -5  -8    9.53   15.33 
  -8  -5   8    4.09    5.22 
  -8  -5   9    3.59    6.80 
  -8   6  -8   26.60   16.55 
  -8   6  -7   49.21   25.77 
  -8   6  -6   68.55   29.30 
  -8   6  -5   74.52   27.87 
  -8   6  -4    8.45   12.60 
  -8   6  -3   -5.69    7.66 
  -8   6  -2   13.44   11.71 
  -8   6  -1  -16.69   16.16 
  -8   6   0    1.60    9.33 
  -8   6   1   35.90   21.49 
  -8   6   2    5.75   12.64 
   8  -6  -3   21.41   17.90 
  -8   6   3   12.79   13.72 
   8  -6  -4   54.97   30.41 
  -8   6   4   47.88   24.99 
   8  -6  -5   91.30   35.94 
  -8   6   5   66.55   30.23 
   8  -6  -6  -15.60    3.15 
  -8   6   6   -2.44    8.36 
   8  -6  -7   -6.89   12.13 
  -8   7  -9   25.31   23.35 
  -8   7  -8   75.79   30.49 
  -8   7  -7   25.05   21.12 
  -8   7  -6   18.35   18.08 
  -8   7  -5   13.76   15.48 
  -8   7  -4   57.75   25.18 
  -8   7  -3   -1.78    5.30 
  -8   7  -2   17.82   15.99 
  -8   7  -1    0.03    5.67 
  -8   7   0    1.07    9.26 
  -8   7   1   33.63   20.94 
  -8   7   2  106.37   35.84 
  -8   7   3   10.20   15.31 
   8  -7  -4   21.74   17.74 
  -8   7   4    1.91   10.73 
   8  -7  -5   -2.46   13.63 
   8  -7  -6    5.52   10.41 
   8  -7  -7   16.66   19.23 
  -8   8  -9    4.63   14.14 
  -8   8  -8   38.95   25.83 
  -8   8  -7   49.10   25.96 
  -8   8  -6    6.59   16.35 
  -8   8  -5   29.10   19.40 
  -8   8  -4   17.77   16.01 
  -8   8  -3   -1.86   11.37 
  -8   8  -2   50.54   23.88 
  -8   8  -1   37.96   21.70 
  -8   8   0   66.66   26.54 
  -8   8   1   10.37    7.83 
   8  -8  -5   23.28   23.02 
   8  -8  -6   23.26   18.52 
   9   0   7   29.98   24.47 
   9   0   6   34.97   23.22 
   9   0   5    8.97   15.86 
   9   0   4    8.59   18.53 
   9   0   3   18.84   19.01 
   9   0   2   16.79   25.62 
   9   0   1    2.37   14.29 
   9   0   0   28.64   17.45 
   9   0  -1   40.99   27.74 
   9   0  -2   13.38   18.99 
   9   0  -3  -27.66   21.88 
   9   0  -4   11.89   19.63 
  -9   0   8   30.23   15.46 
  -9   0   9   12.39   11.36 
  -9   0  10   -6.45    6.57 
   9   1   7   23.95   18.68 
   9  -1   7   40.05   24.74 
   9   1   6    1.53    5.92 
   9  -1   6   12.29    1.70 
   9   1   5   18.12   19.97 
   9  -1   5    9.54   18.52 
   9   1   4   -1.03   10.23 
   9  -1   4   15.76   20.84 
   9   1   3   12.16    6.14 
   9  -1   3   -1.78    7.11 
   9   1   2   -0.48    3.78 
   9  -1   2   15.98   19.61 
   9   1   1   12.37   16.25 
   9  -1   1   36.63   26.34 
   9   1   0   26.52   25.14 
   9  -1   0    1.29   11.28 
   9   1  -1    7.31   19.90 
   9  -1  -1   11.11   24.43 
   9   1  -2   13.48   23.95 
   9  -1  -2   23.77   29.20 
   9   1  -3   70.40   38.74 
   9  -1  -3   19.61   20.22 
   9  -1  -4    6.32    6.35 
   9  -1  -5    7.15   19.92 
   9  -1  -6    4.13    1.53 
  -9  -1   7    0.76    4.08 
  -9  -1   8    7.88    7.78 
  -9  -1   9   10.60    6.75 
  -9   1  10    2.11    2.57 
   9   2   7   16.07   12.99 
   9   2   6    0.48   13.83 
   9  -2   6   10.64   16.48 
   9   2   5   46.18   29.34 
   9  -2   5   12.41   17.64 
   9   2   4  -18.54   11.29 
   9  -2   4   16.69   13.99 
   9   2   3    1.00   18.32 
   9  -2   3    7.49   12.54 
   9   2   2    0.85    7.36 
   9  -2   2   20.33   21.90 
   9   2   1   -9.38    5.32 
   9  -2   1    3.24   12.48 
   9   2   0   39.22   24.58 
   9  -2   0    9.87   12.18 
   9   2  -1    9.70   14.33 
   9  -2  -1   21.63   17.06 
   9  -2  -2    3.62    2.78 
   9  -2  -3   23.59   18.90 
   9  -2  -4    3.69   14.44 
   9  -2  -5  -11.78   21.19 
  -9  -2   5    5.18    5.34 
   9  -2  -6   14.28   16.20 
  -9  -2   6    9.89    8.13 
   9  -2  -7    0.61    8.07 
  -9  -2   7    5.81    7.66 
  -9  -2   8    9.43   11.20 
  -9  -2   9   14.57    9.78 
   9   3   6   11.28   13.89 
   9   3   5   11.93   17.39 
   9   3   4   27.29   22.78 
   9  -3   4   10.41   12.75 
   9   3   3   10.88   21.25 
   9  -3   3    4.80   11.53 
  -9   3  -3   19.11   14.77 
   9   3   2   18.11   18.95 
   9  -3   2   26.95   22.04 
  -9   3  -2   11.74   12.87 
   9  -3   1   20.48   21.70 
  -9   3  -1    0.43    3.26 
   9  -3   0   21.25   20.04 
  -9   3   0   -8.02   12.18 
   9  -3  -1   40.63   28.99 
   9  -3  -2  -14.59    4.81 
   9  -3  -3    5.13   16.82 
   9  -3  -4   39.20   26.01 
  -9  -3   4    5.57    5.45 
   9  -3  -5   63.18   35.75 
  -9  -3   5    5.22    6.39 
   9  -3  -6    1.36   13.67 
  -9  -3   6   11.33    6.90 
   9  -3  -7   -2.58   13.12 
  -9  -3   7    0.20    1.23 
   9  -3  -8    1.61   15.50 
  -9  -3   8    6.56    6.97 
  -9   4  -4   34.74   19.77 
  -9   4  -3   10.10   14.45 
   9  -4   2   11.95   16.38 
  -9   4  -2   21.79   18.41 
   9  -4   1   32.76   21.03 
  -9   4  -1    0.36    3.99 
   9  -4   0   24.65   27.89 
  -9   4   0   -4.03    4.88 
   9  -4  -1    2.15    6.52 
  -9   4   1    0.02    8.84 
   9  -4  -2   22.29   18.03 
  -9   4   2   12.94   12.22 
  -9  -4   3    1.83    1.12 
  -9   4   3  -10.15    4.08 
   9  -4  -4   22.46   22.40 
  -9  -4   4    4.77    5.44 
   9  -4  -5    3.58   16.87 
  -9  -4   5   -2.45    4.07 
   9  -4  -6   -5.40   13.88 
  -9  -4   6   -9.62    7.02 
   9  -4  -7   -2.45   16.29 
  -9  -4   7  -15.54    8.21 
   9  -4  -8   19.20   17.00 
  -9   5  -5   -0.17    7.73 
  -9   5  -4    0.98    5.57 
  -9   5  -3    7.54    8.79 
  -9   5  -2    8.44    6.92 
  -9   5  -1   15.98   12.75 
  -9   5   0   11.12   12.90 
   9  -5  -1   28.70   22.64 
  -9   5   1   -1.66    8.51 
   9  -5  -2   24.61   22.23 
  -9   5   2    7.79   10.39 
   9  -5  -3   29.10   23.92 
   9  -5  -4   20.84   20.50 
   9  -5  -5   43.99   28.42 
  -9  -5   5    0.35    2.11 
   9  -5  -6   -2.31    9.38 
  -9  -5   6   10.78    9.49 
   9  -5  -7    6.33   15.37 
  -9   6  -5   24.79   14.52 
  -9   6  -4  -10.19   12.77 
  -9   6  -3   -2.96    8.17 
  -9   6  -2    9.19    8.69 
  -9   6  -1   -9.89   12.31 
   0   0   0    0.00    0.00 
;
_shelx_hkl_checksum              15968
loop_
_space_group_symop_operation_xyz
'x, y, z'
'-x, y+1/2, -z+1/2'
'-x, -y, -z'
'x, -y-1/2, z-1/2'
loop_
_atom_site_label
_atom_site_type_symbol
_atom_site_fract_x
_atom_site_fract_y
_atom_site_fract_z
_atom_site_U_iso_or_equiv
_atom_site_adp_type
_atom_site_occupancy
_atom_site_site_symmetry_order
_atom_site_calc_flag
_atom_site_refinement_flags_posn
_atom_site_refinement_flags_adp
_atom_site_refinement_flags_occupancy
_atom_site_disorder_assembly
_atom_site_disorder_group
Ga1 Ga 0.0070(5) 0.2543(3) 0.34350(18) 0.0282(10) Uani 0.5 1 d . . P . .
Ge1 Ge 0.0070(5) 0.2543(3) 0.34350(18) 0.0282(10) Uani 0.5 1 d . . P . .
Ga2 Ga 0.2529(5) 0.2010(3) 0.17582(18) 0.0267(10) Uani 0.5 1 d . . P . .
Ge2 Ge 0.2529(5) 0.2010(3) 0.17582(18) 0.0267(10) Uani 0.5 1 d . . P . .
Ga3 Ga -0.4906(5) 0.2535(3) 0.34864(18) 0.0250(10) Uani 0.5 1 d . . P . .
Ge3 Ge -0.4906(5) 0.2535(3) 0.34864(18) 0.0250(10) Uani 0.5 1 d . . P . .
Ga4 Ga 0.2614(6) 0.1865(3) 0.51578(18) 0.0271(10) Uani 0.5 1 d . . P . .
Ge4 Ge 0.2614(6) 0.1865(3) 0.51578(18) 0.0271(10) Uani 0.5 1 d . . P . .
Se1 Se -0.0165(6) 0.1501(4) 0.2299(2) 0.0448(12) Uani 1 1 d . . . . .
Se2 Se -0.2418(5) 0.3761(3) 0.34912(18) 0.0289(9) Uani 1 1 d . . . . .
Se3 Se 0.2594(5) 0.3735(3) 0.34367(17) 0.0270(9) Uani 1 1 d . . . . .
Se4 Se -0.4677(6) 0.1408(4) 0.4598(2) 0.0431(12) Uani 1 1 d . . . . .
Se5 Se 0.0047(6) 0.1277(4) 0.4465(2) 0.0425(11) Uani 1 1 d . . . . .
Se6 Se 0.2484(6) 0.1261(3) 0.05085(18) 0.0374(11) Uani 1 1 d . . . . .
Se7 Se 0.2674(6) 0.3877(3) 0.14006(19) 0.0397(11) Uani 1 1 d . . . . .
Se8 Se 0.5089(5) 0.1323(4) 0.2424(2) 0.0402(11) Uani 1 1 d . . . . .
N1 N 0.753(4) 0.117(3) 0.0483(15) 0.040(8) Uani 1 1 d . U . . .
N2 N 0.769(4) 0.432(2) 0.1578(13) 0.029(7) Uani 1 1 d . U . . .
loop_
_atom_site_aniso_label
_atom_site_aniso_U_11
_atom_site_aniso_U_22
_atom_site_aniso_U_33
_atom_site_aniso_U_23
_atom_site_aniso_U_13
_atom_site_aniso_U_12
Ga1 0.034(2) 0.027(3) 0.0234(18) -0.0023(18) -0.0011(16) 0.002(2)
Ge1 0.034(2) 0.027(3) 0.0234(18) -0.0023(18) -0.0011(16) 0.002(2)
Ga2 0.036(3) 0.020(2) 0.0236(18) 0.0002(16) 0.0037(17) -0.002(2)
Ge2 0.036(3) 0.020(2) 0.0236(18) 0.0002(16) 0.0037(17) -0.002(2)
Ga3 0.025(2) 0.019(2) 0.0309(18) 0.0045(18) 0.0032(16) 0.0033(19)
Ge3 0.025(2) 0.019(2) 0.0309(18) 0.0045(18) 0.0032(16) 0.0033(19)
Ga4 0.044(3) 0.015(2) 0.0228(18) 0.0027(16) 0.0043(18) 0.006(2)
Ge4 0.044(3) 0.015(2) 0.0228(18) 0.0027(16) 0.0043(18) 0.006(2)
Se1 0.035(2) 0.054(3) 0.046(2) -0.022(2) 0.0117(19) -0.015(2)
Se2 0.032(2) 0.0164(19) 0.039(2) 0.0012(16) 0.0034(16) 0.0051(19)
Se3 0.034(2) 0.0176(19) 0.0302(18) -0.0024(15) 0.0035(16) -0.0032(19)
Se4 0.047(3) 0.038(3) 0.046(2) 0.022(2) 0.012(2) 0.005(2)
Se5 0.045(3) 0.035(3) 0.047(2) 0.020(2) -0.0096(19) -0.011(2)
Se6 0.073(3) 0.019(2) 0.0211(17) -0.0030(16) 0.0060(18) -0.007(2)
Se7 0.075(3) 0.016(2) 0.0272(19) -0.0041(16) 0.0003(19) 0.002(2)
Se8 0.036(2) 0.036(3) 0.048(2) -0.020(2) -0.0049(19) 0.002(2)
N1 0.039(11) 0.039(12) 0.042(10) 0.000(9) -0.005(8) -0.009(9)
N2 0.035(11) 0.023(10) 0.030(10) 0.011(8) 0.000(8) -0.005(9)
loop_
_atom_type_symbol
_atom_type_description
_atom_type_scat_dispersion_real
_atom_type_scat_dispersion_imag
_atom_type_scat_source
Ga Ga 0.2307 1.6083 'International Tables Vol C Tables 4.2.6.8 and 6.1.1.4'
Ge Ge 0.1547 1.8001 'International Tables Vol C Tables 4.2.6.8 and 6.1.1.4'
H H 0.0000 0.0000 'International Tables Vol C Tables 4.2.6.8 and 6.1.1.4'
N N 0.0061 0.0033 'International Tables Vol C Tables 4.2.6.8 and 6.1.1.4'
Se Se -0.0929 2.2259 'International Tables Vol C Tables 4.2.6.8 and 6.1.1.4'
loop_
_geom_angle_atom_site_label_1
_geom_angle_atom_site_label_2
_geom_angle_atom_site_label_3
_geom_angle
_geom_angle_site_symmetry_1
_geom_angle_site_symmetry_3
Se1 Ga1 Se3 111.26(19) . .
Se1 Ga1 Se2 110.0(2) . .
Se3 Ga1 Se2 103.2(2) . .
Se1 Ga1 Se5 106.6(2) . .
Se3 Ga1 Se5 115.45(19) . .
Se2 Ga1 Se5 110.24(19) . .
Se1 Ga2 Se8 113.1(2) . .
Se1 Ga2 Se7 114.4(2) . .
Se8 Ga2 Se7 115.6(2) . .
Se1 Ga2 Se6 107.0(2) . .
Se8 Ga2 Se6 107.5(2) . .
Se7 Ga2 Se6 97.26(17) . .
Se3 Ga3 Se2 102.53(19) 1_455 .
Se3 Ga3 Se8 112.49(19) 1_455 1_455
Se2 Ga3 Se8 111.80(19) . 1_455
Se3 Ga3 Se4 114.68(19) 1_455 .
Se2 Ga3 Se4 109.40(19) . .
Se8 Ga3 Se4 106.0(2) 1_455 .
Se5 Ga4 Se4 113.9(2) . 1_655
Se5 Ga4 Se7 110.3(2) . 4_566
Se4 Ga4 Se7 108.2(2) 1_655 4_566
Se5 Ga4 Se6 113.1(2) . 4_566
Se4 Ga4 Se6 112.6(2) 1_655 4_566
Se7 Ga4 Se6 97.56(17) 4_566 4_566
Ga2 Se1 Ga1 99.4(2) . .
Ga1 Se2 Ga3 102.06(19) . .
Ga3 Se3 Ga1 103.68(19) 1_655 .
Ga4 Se4 Ga3 99.84(19) 1_455 .
Ga4 Se5 Ga1 99.40(19) . .
Ga2 Se6 Ga4 82.40(17) . 4_565
Ga4 Se7 Ga2 82.77(17) 4_565 .
Ga2 Se8 Ga3 98.10(19) . 1_655
loop_
_geom_bond_atom_site_label_1
_geom_bond_atom_site_label_2
_geom_bond_distance
_geom_bond_site_symmetry_2
Ga1 Se1 2.379(5) .
Ga1 Se3 2.387(5) .
Ga1 Se2 2.391(5) .
Ga1 Se5 2.392(5) .
Ga2 Se1 2.346(6) .
Ga2 Se8 2.357(6) .
Ga2 Se7 2.386(5) .
Ga2 Se6 2.387(5) .
Ga3 Se3 2.377(5) 1_455
Ga3 Se2 2.392(5) .
Ga3 Se8 2.394(5) 1_455
Ga3 Se4 2.402(5) .
Ga4 Se5 2.343(6) .
Ga4 Se4 2.354(6) 1_655
Ga4 Se7 2.373(5) 4_566
Ga4 Se6 2.389(5) 4_566
