#------------------------------------------------------------------------------
#$Date: 2021-03-30 11:48:32 +0300 (Tue, 30 Mar 2021) $
#$Revision: 263437 $
#$URL: file:///home/coder/svn-repositories/cod/cif/1/56/13/1561358.cif $
#------------------------------------------------------------------------------
#
# This file is available in the Crystallography Open Database (COD),
# http://www.crystallography.net/
#
# All data on this site have been placed in the public domain by the
# contributors.
#
data_1561358
loop_
_publ_author_name
'Markovski, Mishel R.'
'Siidra, Oleg I.'
'Kayukov, Roman A.'
'Nazarchuk, Evgeni W.'
_publ_section_title
;
 Porous layered and open-framework mixed-valence copper tellurites
;
_journal_name_full               'Journal of Solid State Chemistry'
_journal_page_first              215
_journal_page_last               220
_journal_paper_doi               10.1016/j.jssc.2016.08.028
_journal_volume                  243
_journal_year                    2016
_chemical_formula_sum            'Cl1.23 Cu1.9 O2.33 Te0.67'
_chemical_formula_weight         286.85
_space_group_crystal_system      orthorhombic
_space_group_IT_number           55
_space_group_name_Hall           '-P 2 2ab'
_space_group_name_H-M_alt        'P b a m'
_atom_sites_solution_hydrogens   .
_audit_creation_method           SHELXL-2014/7
_cell_angle_alpha                90
_cell_angle_beta                 90
_cell_angle_gamma                90
_cell_formula_units_Z            12
_cell_length_a                   9.2877(7)
_cell_length_b                   21.0328(16)
_cell_length_c                   6.4213(5)
_cell_measurement_reflns_used    1050
_cell_measurement_temperature    296(2)
_cell_measurement_theta_max      27.546
_cell_measurement_theta_min      1.936
_cell_volume                     1254.38(17)
_computing_structure_refinement  'SHELXL-2014/7 (Sheldrick, 2014)'
_diffrn_ambient_temperature      296(2)
_diffrn_measured_fraction_theta_full 0.990
_diffrn_measured_fraction_theta_max 0.868
_diffrn_measurement_device_type  'Bruker Apex 2 Duo'
_diffrn_radiation_type           MoK\a
_diffrn_radiation_wavelength     0.71073
_diffrn_reflns_av_R_equivalents  0.0644
_diffrn_reflns_av_unetI/netI     0.0904
_diffrn_reflns_Laue_measured_fraction_full 0.990
_diffrn_reflns_Laue_measured_fraction_max 0.868
_diffrn_reflns_limit_h_max       12
_diffrn_reflns_limit_h_min       -8
_diffrn_reflns_limit_k_max       25
_diffrn_reflns_limit_k_min       -24
_diffrn_reflns_limit_l_max       4
_diffrn_reflns_limit_l_min       -8
_diffrn_reflns_number            3924
_diffrn_reflns_point_group_measured_fraction_full 0.990
_diffrn_reflns_point_group_measured_fraction_max 0.868
_diffrn_reflns_theta_full        25.242
_diffrn_reflns_theta_max         27.546
_diffrn_reflns_theta_min         1.936
_exptl_absorpt_coefficient_mu    14.854
_exptl_crystal_density_diffrn    4.557
_exptl_crystal_description       prism
_exptl_crystal_F_000             1553
_refine_diff_density_max         2.702
_refine_diff_density_min         -3.293
_refine_diff_density_rms         0.387
_refine_ls_extinction_coef       .
_refine_ls_extinction_method     none
_refine_ls_goodness_of_fit_ref   1.029
_refine_ls_hydrogen_treatment    undef
_refine_ls_matrix_type           full
_refine_ls_number_parameters     111
_refine_ls_number_reflns         1372
_refine_ls_number_restraints     0
_refine_ls_restrained_S_all      1.029
_refine_ls_R_factor_all          0.0985
_refine_ls_R_factor_gt           0.0549
_refine_ls_shift/su_max          0.000
_refine_ls_shift/su_mean         0.000
_refine_ls_structure_factor_coef Fsqd
_refine_ls_weighting_details
'w=1/[\s^2^(Fo^2^)+(0.0788P)^2^] where P=(Fo^2^+2Fc^2^)/3'
_refine_ls_weighting_scheme      calc
_refine_ls_wR_factor_gt          0.1326
_refine_ls_wR_factor_ref         0.1545
_reflns_Friedel_coverage         0.000
_reflns_Friedel_fraction_full    .
_reflns_Friedel_fraction_max     .
_reflns_number_gt                860
_reflns_number_total             1372
_reflns_threshold_expression     'I > 2\s(I)'
_cod_data_source_file            JSSC-2016-243-215.cif
_cod_data_source_block           Cu2+4O(TeO3)2
_cod_original_formula_sum        'Cl1.23 Cu1.90 O2.33 Te0.67'
_cod_database_code               1561358
_shelx_shelxl_version_number     2014/7
_shelx_space_group_comment
;
The symmetry employed for this shelxl refinement is uniquely defined
by the following loop, which should always be used as a source of
symmetry information in preference to the above space-group names.
They are only intended as comments.
;
_shelx_res_file
;

    shelx.res created by SHELXL-2014/7


TITL A1_TeCl_0ma in Pbam
CELL 0.71073   9.2877  21.0328   6.4213  90.000  90.000  90.000
ZERR   12.00   0.0007   0.0016   0.0005   0.000   0.000   0.000
LATT  1
SYMM -X, -Y, Z
SYMM 0.5-X, 0.5+Y, -Z
SYMM 0.5+X, 0.5-Y, -Z
SFAC O TE Cl Cu
UNIT 28 8 14.80 22.80
acta
omit -4 56
TEMP 23.000
conn 12 2 $O $Cl
L.S. 100
BOND
FMAP 2
PLAN 20
WGHT    0.078800
FVAR       0.05414   0.20670   0.46677   0.15366   0.15223   0.38931   1.00000
FVAR       1.00000   1.00000
MOLE   1
rem ordered framework
TE1   2    0.735424    0.106060    0.000000    10.50000    0.01553    0.01081 =
         0.02262    0.00000    0.00000    0.00008
TE2   2    0.736599    0.228397   -0.500000    10.50000    0.01557    0.01393 =
         0.01501    0.00000    0.00000   -0.00104
CU1   4    0.385098    0.050631    0.000000    10.50000    0.01999    0.00770 =
         0.04321    0.00000    0.00000    0.00021
CU2   4    0.460059    0.178495    0.251045    11.00000    0.01625    0.01944 =
         0.01755   -0.00329    0.00032    0.00205
CU3   4    0.205752    0.186176    0.000000    10.50000    0.01840    0.02853 =
         0.01764    0.00000    0.00000    0.00795
CL1   3   -0.025876    0.210253    0.000000    10.50000    0.02278    0.01226 =
         0.03413    0.00000    0.00000    0.00144
CL2   3    0.142457    0.050253    0.000000    10.50000    0.01862    0.02615 =
         0.11554    0.00000    0.00000   -0.00107
CL3   3    0.930000    0.086344   -0.500000    10.42500    0.04116    0.03566 =
         0.04774    0.00000    0.00000    0.01988
CL4   3    0.385606    0.067809    0.500000    10.42500    0.03335    0.03354 =
         0.04755    0.00000    0.00000    0.01276
rem OCu4
O1    1    0.386024    0.141278    0.000000    10.50000    0.01470    0.02036 =
         0.01771    0.00000    0.00000   -0.00108
rem TeO3
O2    1    0.754368    0.295639   -0.703849    11.00000    0.01822    0.02129 =
         0.01232   -0.00384    0.00725   -0.00106
O3    1    0.658338    0.154218    0.218918    11.00000    0.02508    0.03535 =
         0.03167   -0.00865   -0.00189    0.00338
O4    1    0.592397    0.041725    0.000000    10.50000    0.02189    0.01492 =
         0.06383    0.00000    0.00000   -0.00672
O5    1    0.531968    0.225703   -0.500000    10.50000    0.02259    0.01076 =
         0.01608    0.00000    0.00000   -0.00507
rem disordered Cu+
CU4A  4    0.000000    0.000000   -0.500000    10.05000   10.05000
CU4B  4    0.000000    0.000000    0.270674    10.15000   10.05000
CU4D  4    0.628198    0.048443    0.500000    10.05000   10.05000
CU4E  4    1.164853    0.111644   -0.536526    10.50000   10.05000
CU4G  4    0.097021    0.015622    0.336751    10.10000   10.05000
HKLF 4

REM  A1_TeCl_0ma in Pbam
REM R1 =  0.0549 for     860 Fo > 4sig(Fo)  and  0.0985 for all    1372 data
REM    111 parameters refined using      0 restraints

END

WGHT      0.0798      0.0000

REM Highest difference peak  2.702,  deepest hole -3.293,  1-sigma level  0.387
Q1    1   1.1624  0.0744 -0.5000  10.50000  0.05    2.70
Q2    1   0.1617  0.0191  0.4083  11.00000  0.05    2.16
Q3    1   0.3207  0.1892  0.0000  10.50000  0.05    2.15
Q4    1   0.0635  0.0145  0.2719  11.00000  0.05    1.69
Q5    1   0.3044  0.0567  0.5000  10.50000  0.05    1.68
Q6    1   1.1510  0.1352 -0.5000  10.50000  0.05    1.67
Q7    1   0.8376  0.1050  0.0000  10.50000  0.05    1.65
Q8    1   0.6319  0.1049  0.0000  10.50000  0.05    1.64
Q9    1   0.8313  0.2300 -0.5000  10.50000  0.05    1.63
Q10   1   1.0511  0.0870 -0.5000  10.50000  0.05    1.58
Q11   1   0.8498  0.0766 -0.5000  10.50000  0.05    1.43
Q12   1   0.1602  0.2595  0.0000  10.50000  0.05    1.34
Q13   1   0.6666  0.1262  0.5000  10.50000  0.05    1.29
Q14   1   0.4635  0.2062  0.0000  10.50000  0.05    1.25
Q15   1   0.6352  0.2265 -0.5000  10.50000  0.05    1.22
Q16   1   1.1385  0.1232 -0.6482  11.00000  0.05    1.20
Q17   1   1.2759  0.0982 -0.5949  11.00000  0.05    1.15
Q18   1   0.0605  0.0284 -0.5000  10.50000  0.05    1.12
Q19   1   0.1966 -0.0260  0.5000  10.50000  0.05    1.10
Q20   1   0.9608  0.0576 -0.5710  11.00000  0.05    1.09
;
_shelx_res_checksum              96702
_shelx_hkl_file
;
   0   0  -1   22.22    1.21
   0   0  -2 1000.00   33.63
   0   0  -3   54.67    2.59
  -1   0   0   -0.04    0.44
   1   0   0    0.17    0.45
   1   0  -1   -0.98    0.75
  -1   0   1   -0.71    0.36
   1   0  -2    0.36    1.03
  -1   0   2   -1.15    0.87
   1   0  -3    1.36    1.12
  -1   0   3    1.44    0.97
   1   0  -4   -0.69    1.30
   1   0  -5    0.02    1.49
   1   0  -6   -0.16    1.49
  -2   0   0  148.74    5.55
   2   0   0  146.21    5.55
  -2   0  -1    4.41    0.93
  -2   0   1    4.48    1.06
   2   0   1    4.57    0.86
   2   0  -1    5.64    1.21
  -2   0   2  594.55   20.73
   2   0  -2  600.76   20.75
   2   0  -3    5.21    1.45
  -2   0   3    3.59    1.25
   2   0  -4   46.26    3.30
  -2   0   4   51.60    3.42
   2   0  -5    0.47    1.71
   2   0  -6  162.08    7.15
   2   0  -7   -1.45    1.80
  -3   0   0    0.17    1.11
   3   0   0    0.03    1.18
  -3   0   1   -0.52    0.93
   3   0   1   -0.09    0.96
  -3   0  -1    0.01    1.07
   3   0  -1    0.28    1.19
   3   0   2   -0.11    0.77
   3   0  -2   -1.55    1.20
  -3   0   2    0.00    0.71
  -3   0  -2   -0.29    0.91
   3   0  -3   -0.38    1.36
  -3   0   3   -1.03    1.19
   3   0  -4   -1.85    1.51
   3   0  -5   -0.69    1.78
   3   0  -6    0.68    2.00
   3   0  -7   -0.51    2.03
  -4   0   0  188.02    7.21
   4   0   0  172.61    7.17
   4   0  -1    2.59    1.43
  -4   0   1    3.14    1.30
   4   0   1    0.18    1.13
  -4   0  -1    1.03    1.26
   4   0  -2    3.34    1.53
  -4   0  -2    3.96    1.22
  -4   0   2    3.31    1.41
   4   0   2    3.80    1.07
   4   0  -3    1.98    1.61
   4   0  -4  125.09    6.28
   4   0  -5    3.33    2.18
   4   0  -6   17.75    2.96
   4   0  -7   -2.68    2.22
  -5   0   0   -0.47    1.28
   5   0   0   -0.80    1.37
   5   0   1    1.03    1.28
  -5   0   1    0.59    1.40
   5   0  -1   -0.01    1.42
  -5   0  -1   -0.67    1.15
   5   0  -2   -1.44    1.56
   5   0   2   -0.60    1.15
  -5   0   2   -1.07    1.42
  -5   0  -2   -1.99    1.29
   5   0  -3    0.37    1.68
  -5   0  -3    0.20    1.23
   5   0   3   -0.56    0.94
   5   0  -4   -2.24    1.85
   5   0  -5   -1.03    2.09
   5   0  -6   -2.29    2.24
   5   0  -7   -1.95    2.39
  -6   0   0   72.41    4.35
   6   0   0   77.73    4.40
   6   0   1    2.00    1.53
   6   0  -1    0.51    1.73
  -6   0   1    0.57    1.68
  -6   0  -1   -0.86    1.20
  -6   0  -2   87.32    4.49
   6   0  -2   86.43    5.08
   6   0   2   86.56    4.48
  -6   0  -3    5.29    1.63
   6   0  -3    3.40    2.13
   6   0   3    2.61    1.26
   6   0  -4   46.12    4.27
   6   0  -5    1.50    2.45
   6   0  -6   38.85    4.38
   7   0   0    0.05    1.84
  -7   0   0   -1.44    1.79
  -7   0  -1    0.98    1.73
   7   0   1   -1.49    1.59
   7   0  -1   -0.36    1.81
  -7   0  -2   -1.13    1.60
   7   0  -2    0.64    2.01
   7   0   2    1.40    1.63
   7   0  -3    0.82    2.15
  -7   0  -3    0.89    1.81
   7   0   3   -0.86    1.34
   7   0  -4   -1.60    2.32
   7   0  -5    0.96    2.43
   8   0   0   63.69    4.79
  -8   0  -1    6.46    2.48
   8   0   1    2.92    2.12
   8   0  -1    8.01    2.49
   8   0   2   98.50    5.46
   8   0  -2   98.66    5.98
   8   0  -3    2.93    2.42
   8   0  -4   28.23    3.89
   8   0  -5    0.21    2.87
   9   0   0    1.93    2.33
   9   0   1   -0.45    2.15
   9   0  -1   -0.60    2.23
   9   0  -2   -1.88    2.29
   9   0  -3   -0.35    2.39
   9   0  -4    2.62    2.74
  10   0   0   65.53    5.57
  10   0   1    9.93    2.81
  10   0  -1   12.39    3.16
  10   0  -2   -1.01    2.52
  10   0  -3    4.24    2.93
  11   0   0   -2.05    2.78
  11   0  -1   -0.85    2.73
  11   0  -2    0.81    2.83
  12   0  -1    9.58    3.60
   0   1   0   -0.18    0.19
   0  -1   0   -0.18    0.04
   0  -1   1    0.54    0.37
   0  -1  -1   -0.15    0.75
   0  -1  -2    0.44    0.96
   0  -1  -3    1.67    1.05
   0  -1  -3    1.05    1.13
   0  -1  -4   -1.07    1.14
   0  -1  -5   -0.41    1.27
   0  -1  -5   -1.16    1.06
   1  -1   0   20.77    1.25
  -1  -1   0   20.78    1.20
  -1   1   0   21.96    1.25
   1   1   0   20.47    1.24
   1   1  -1   48.80    2.22
  -1  -1  -1   41.67    1.92
   1  -1  -1   44.98    2.33
   1   1   1   46.46    1.96
  -1  -1   1   40.76    1.98
   1   1  -2    5.92    1.16
  -1   1   2    3.64    1.10
  -1  -1   2    4.03    1.00
   1  -1  -2    3.68    1.18
   1   1  -3    8.36    1.35
   1  -1  -3    7.18    1.35
  -1  -1   3    5.27    1.13
   1   1  -4   18.67    1.93
   1  -1  -4   21.33    2.07
   1   1  -5    4.85    1.58
   1  -1  -5    7.68    1.70
   1  -1  -6    2.76    1.67
  -2   1   0    3.94    1.03
   2   1   0    2.20    0.98
   2  -1   0    4.10    1.00
  -2  -1   0    2.89    0.99
   2   1  -1    1.52    1.10
   2  -1   1    1.52    0.80
  -2   1   1    1.91    1.05
  -2  -1  -1    1.42    0.87
  -2   1  -1    2.77    0.86
   2  -1  -1    1.21    1.08
   2   1   1    1.55    0.87
  -2  -1   1    1.33    0.91
  -2  -1  -2   37.23    1.90
   2   1  -2   42.83    2.68
  -2   1   2   41.29    2.64
   2  -1  -2   38.64    2.66
   2   1   2   35.52    2.00
  -2  -1   2   42.17    2.54
   2   1  -3    1.30    1.33
  -2   1   3    4.39    1.32
  -2  -1   3    3.82    1.25
   2  -1  -3    3.34    1.38
   2   1  -4    0.95    1.49
   2  -1  -4   -2.57    1.36
  -2  -1   4   -0.31    1.23
   2   1  -5    0.41    1.61
   2  -1  -5   -0.59    1.67
   2   1  -6    6.38    2.05
   2  -1  -6   10.62    2.33
   2   1  -7   -1.00    1.89
   2  -1  -7   -1.89    1.86
   3  -1   0   -1.47    1.09
  -3   1   0   -0.66    1.11
   3   1   0   -0.66    1.13
  -3  -1   0    0.92    1.15
  -3  -1  -1   16.63    1.56
   3  -1   1   13.44    1.43
  -3   1   1   10.13    1.48
   3   1  -1   18.70    1.87
   3  -1  -1   13.98    1.73
  -3   1  -1   18.25    1.59
   3   1   1   15.00    1.46
  -3   1   2    5.45    1.26
   3  -1   2    4.96    0.86
   3   1  -2    3.08    1.43
  -3  -1  -2    4.59    1.06
  -3   1  -2    4.28    0.96
   3   1   2    3.96    0.97
   3  -1  -2    3.78    1.40
   3   1  -3    5.67    1.67
  -3   1   3    1.97    1.31
   3  -1  -3    3.64    1.57
  -3  -1   3    4.37    1.43
   3   1  -4    2.70    1.68
   3  -1  -4    2.40    1.68
   3   1  -5    1.97    1.94
   3  -1  -5    3.58    2.02
   3   1  -6    4.63    2.12
   3  -1  -6    7.35    2.31
   3   1  -7    1.43    2.19
   3  -1  -7    0.84    2.12
  -4   1   0  500.38   17.13
   4   1   0  473.21   17.06
   4  -1   0  467.08   17.05
  -4  -1   0  485.13   17.10
   4   1  -1    6.55    1.62
  -4   1   1    8.76    1.62
   4  -1   1    8.94    1.43
  -4  -1  -1    7.94    1.40
  -4   1  -1    8.31    1.43
   4  -1  -1    5.79    1.59
   4   1   1    6.83    1.43
  -4  -1   1    7.92    1.57
  -4   1   2   15.84    2.06
   4   1  -2   16.17    2.11
   4  -1   2   15.48    1.49
  -4  -1  -2   18.19    1.69
   4  -1  -2   15.89    2.09
   4   1   2   14.75    1.56
  -4   1  -2   16.55    1.64
  -4  -1   2   16.05    1.95
   4   1  -3    2.11    1.67
  -4  -1  -3    3.78    1.17
   4   1   3    2.80    0.96
   4  -1  -3    3.56    1.69
   4   1  -4  147.74    6.83
   4  -1  -4  137.25    6.81
   4   1  -5    5.17    2.27
   4  -1  -5    2.80    2.13
   4   1  -6   -0.66    2.08
   4  -1  -6   -0.43    2.23
   4   1  -7    3.18    2.45
   4  -1  -7   -0.01    2.39
   5   1   0   22.97    2.33
  -5   1   0   22.86    2.41
   5  -1   0   21.28    2.30
  -5  -1   0   19.85    2.21
  -5   1   1    4.76    1.58
   5  -1   1    5.17    1.45
   5   1  -1    3.36    1.66
  -5  -1  -1    3.46    1.41
  -5   1  -1    6.55    1.43
  -5  -1   1    2.77    1.44
   5  -1  -1    5.49    1.70
   5   1   1    2.71    1.43
  -5   1   2   26.58    2.85
  -5  -1  -2   27.10    2.37
   5   1  -2   33.23    3.04
   5  -1   2   25.48    2.38
  -5  -1   2   26.94    2.67
  -5   1  -2   30.37    2.44
   5  -1  -2   25.88    2.78
   5   1   2   26.24    2.26
   5   1  -3    2.06    1.81
   5  -1   3    2.66    1.00
  -5  -1  -3    2.68    1.35
   5   1   3    3.26    1.11
   5  -1  -3    4.18    1.87
  -5   1  -3    1.77    1.31
   5   1  -4    2.77    2.05
   5  -1  -4    5.81    2.17
   5   1  -5    1.17    2.14
   5  -1  -5    0.19    2.17
   5   1  -6    1.68    2.47
   5  -1  -6   -1.26    2.35
   5   1  -7    0.05    2.52
   5  -1  -7    1.34    2.56
   6  -1   0    4.18    1.78
  -6   1   0    3.26    1.74
  -6  -1   0    3.00    1.68
   6   1   0    1.68    1.66
   6  -1   1    4.09    1.64
  -6   1   1    3.33    1.82
  -6  -1  -1    2.77    1.59
   6   1  -1    1.77    1.77
   6  -1  -1    2.12    1.82
   6   1   1    1.62    1.61
  -6  -1   1    2.17    1.75
  -6   1  -1    1.77    1.29
   6  -1   2  197.40    7.84
   6   1  -2  189.43    8.46
  -6  -1  -2  194.99    7.90
  -6   1  -2  185.28    7.95
   6   1   2  199.91    7.84
   6  -1  -2  192.93    8.54
   6   1  -3    2.51    2.04
   6  -1   3    1.69    1.24
  -6  -1  -3    0.01    1.53
   6  -1  -3   -0.65    1.99
  -6   1  -3   -0.47    1.44
   6   1   3   -3.73    1.07
   6   1  -4    3.47    2.25
  -6  -1  -4    2.59    1.42
   6  -1  -4    4.39    2.26
   6   1  -5   -3.23    2.23
   6  -1  -5    2.93    2.44
   6   1  -6   62.98    5.24
   6  -1  -6   60.91    5.47
   7  -1   0   10.25    2.33
   7   1   0   11.40    2.34
  -7   1   0   10.11    2.30
  -7  -1   0   13.54    2.39
   7  -1   1    2.08    1.75
  -7  -1  -1    3.06    1.91
   7   1  -1    1.55    1.95
   7   1   1    2.00    1.84
  -7   1  -1    7.80    1.98
   7  -1  -1    0.92    1.87
   7   1  -2    4.10    2.13
   7  -1   2    5.53    1.78
  -7  -1  -2    0.84    1.41
  -7   1  -2    3.27    1.84
   7   1   2    1.07    1.63
   7  -1  -2    3.37    2.20
   7  -1   3    1.97    1.42
  -7  -1  -3    3.05    1.85
   7   1  -3    3.59    2.16
  -7   1  -3    2.78    1.81
   7  -1  -3    3.17    2.24
   7   1   3    3.51    1.44
   7   1  -4    3.34    2.42
   7  -1  -4   -0.20    2.39
   7   1  -5   -0.70    2.49
   7  -1  -5    1.66    2.52
   8  -1   0   94.64    5.73
   8   1   0   90.85    5.55
   8  -1   1    7.72    2.29
  -8  -1  -1    7.11    2.36
   8   1  -1    6.38    2.38
  -8   1  -1   12.21    2.57
   8   1   1    5.14    2.22
   8  -1  -1    7.07    2.46
   8   1  -2    3.52    2.27
   8  -1   2    6.28    2.05
   8  -1  -2    6.78    2.40
   8   1   2    2.33    1.95
   8   1  -3    9.22    2.79
   8  -1  -3    6.02    2.67
   8   1  -4   57.36    5.29
   8  -1  -4   59.40    5.41
   8   1  -5    2.23    2.77
   8  -1  -5   -2.14    2.57
   9   1   0   41.74    4.24
   9  -1   0   43.45    4.33
   9  -1   1    5.61    2.41
   9   1  -1    3.75    2.42
   9  -1  -1    2.26    2.40
   9   1   1    3.31    2.27
   9   1  -2   58.97    5.19
   9  -1  -2   64.32    5.40
   9   1  -3    2.04    2.57
   9  -1  -3    3.51    2.57
   9   1  -4   13.66    3.29
   9  -1  -4   11.24    3.19
  10   1   0    0.73    2.58
  10  -1   0   -1.42    2.42
  10   1  -1   -1.86    2.33
  10  -1   1   -0.90    2.50
  10  -1  -1   -1.94    2.40
  10   1   1   -0.81    2.44
  10   1  -2   37.31    4.46
  10  -1  -2   26.82    4.00
  10   1  -3    2.20    2.75
  10  -1  -3    2.46    2.87
  11   1   0    6.70    3.01
  11  -1   0    8.10    3.18
  11   1  -1   -0.85    2.76
  11  -1  -1   -1.51    2.82
  11   1  -2    5.10    3.08
  11  -1  -2    3.63    3.14
   0   2   0  100.28    3.69
   0  -2   0  102.91    3.67
   0  -2   1   76.50    2.75
   0  -2  -1   70.29    3.11
   0   2  -1   75.18    2.78
   0   2   1   70.68    3.21
   0  -2  -2   22.83    2.12
   0  -2   2   24.80    1.43
   0  -2  -3   55.00    2.90
   0  -2  -3   50.27    2.87
   0  -2  -4   80.45    3.88
   0  -2  -4   83.66    3.92
   0  -2  -5   26.87    2.47
   0  -2  -5   27.15    2.29
  -1  -2   0    5.86    0.77
   1   2   0    6.33    0.81
   1  -2   0    5.19    0.81
   1   2  -1   23.13    1.74
  -1  -2  -1   20.86    1.54
   1   2   1   22.94    1.67
  -1  -2   1   24.97    1.49
   1  -2  -1   23.54    1.95
   1   2  -2    3.63    1.12
  -1  -2  -2    3.60    0.91
   1   2   2    3.09    1.06
   1  -2  -2    4.81    1.31
  -1  -2   2    4.76    0.98
   1   2  -3    0.67    1.07
  -1  -2  -3   -0.61    0.80
   1  -2  -3   -1.08    1.19
  -1  -2   3   -0.71    0.89
   1   2  -4    1.42    1.24
   1  -2  -4   -1.23    1.35
  -1  -2   4    1.81    1.10
   1   2  -5    4.06    1.48
   1  -2  -5    3.79    1.72
   1  -2  -5    1.22    1.58
   1  -2  -6    7.75    1.97
   1  -2  -7    0.90    1.74
   2  -2   0   39.93    2.37
   2   2   0   41.30    2.36
  -2  -2   0   41.19    2.31
  -2   2   0   41.62    2.37
  -2   2   1  106.94    4.52
  -2  -2  -1  109.13    4.25
   2   2  -1  111.93    4.50
   2  -2   1  110.63    4.11
  -2  -2   1   94.94    4.29
   2  -2  -1  109.96    4.61
   2   2   1  105.66    4.29
  -2   2  -1  110.84    4.17
   2   2  -2   83.41    3.83
  -2  -2  -2   78.57    3.32
  -2  -2   2   84.91    3.74
   2  -2  -2   83.02    3.99
   2   2   2   78.57    3.45
   2   2  -3   31.73    2.55
  -2  -2   3   37.57    2.60
   2   2   3   32.62    1.99
   2  -2  -3   30.73    2.64
   2   2  -4    9.50    1.75
  -2  -2   4    8.65    1.64
   2  -2  -4   10.73    1.94
   2   2  -5   36.32    3.05
   2  -2  -5   38.02    3.19
   2   2  -6   38.27    3.21
   2  -2  -6   46.75    3.67
   2   2  -7    9.01    2.13
   2  -2  -7    7.52    2.23
   3  -2   0  225.26    8.53
   3   2   0  228.58    8.58
  -3  -2   0  232.43    8.58
  -3   2   0  231.60    8.62
  -3  -2  -1   55.73    2.85
   3  -2   1   53.35    2.78
   3   2  -1   53.53    3.19
   3  -2  -1   53.15    3.18
  -3   2  -1   52.42    2.86
   3   2   1   55.69    2.91
   3   2  -2   33.42    2.68
  -3  -2  -2   33.21    2.05
  -3   2   2   35.33    2.67
  -3   2  -2   32.29    1.97
   3   2   2   31.94    2.15
   3  -2  -2   33.29    2.73
  -3   2   3   23.87    2.36
  -3  -2  -3   19.65    1.57
   3   2  -3   26.07    2.46
   3  -2  -3   25.32    2.47
   3   2   3   22.34    1.64
  -3  -2   3   21.61    2.14
   3   2  -4   88.38    4.74
   3  -2  -4   92.04    4.92
   3   2  -5   12.35    2.32
   3  -2  -5   13.83    2.51
   3   2  -6    7.89    2.22
   3  -2  -6    4.05    2.23
   3   2  -7    1.70    2.24
   3  -2  -7    2.87    2.29
   4  -2   0  450.90   16.50
  -4   2   0  488.92   16.66
  -4  -2   0  451.08   16.52
   4   2   0  469.19   16.56
  -4  -2  -1   16.34    1.81
  -4   2   1   15.09    1.95
   4  -2   1   15.69    1.71
   4   2  -1   16.48    2.04
  -4   2  -1   16.49    1.82
   4   2   1   18.26    1.81
  -4  -2   1   15.10    1.86
   4  -2  -1   14.79    1.93
   4  -2   2  125.45    5.03
   4   2  -2  126.33    5.74
  -4  -2  -2  132.08    5.24
  -4   2   2  126.91    5.90
   4  -2  -2  121.78    5.81
   4   2   2  132.57    5.24
  -4   2  -2  124.91    5.15
  -4  -2   2  125.80    5.65
  -4  -2  -3    3.03    1.22
   4   2  -3    3.52    1.70
   4  -2  -3    2.47    1.62
   4   2   3    4.53    1.07
   4   2  -4  123.67    5.93
   4  -2  -4  108.26    6.01
   4   2  -5    9.18    2.44
   4  -2  -5   14.79    2.65
   4   2  -6   29.47    3.44
   4  -2  -6   29.80    3.57
   4   2  -7    4.63    2.50
   4  -2  -7    0.21    2.52
   5  -2   0   61.18    3.56
   5   2   0   57.75    3.55
  -5  -2   0   52.73    3.45
  -5   2   0   43.96    3.38
  -5   2   1   11.90    1.94
   5  -2   1    6.95    1.57
  -5  -2  -1    8.68    1.59
   5   2  -1    7.23    1.80
   5  -2  -1    3.37    1.68
   5   2   1    8.44    1.65
  -5   2  -1    9.20    1.66
  -5  -2   1    8.10    1.71
   5  -2   2  415.14   14.98
   5   2  -2  414.52   15.69
  -5  -2  -2  455.66   15.26
  -5   2   2  428.35   15.90
   5   2   2  442.25   15.13
  -5   2  -2  401.10   15.15
  -5  -2   2  395.69   15.59
   5  -2  -2  422.51   15.74
  -5  -2  -3    5.03    1.49
   5  -2   3    4.80    1.09
   5   2  -3    5.47    2.00
   5  -2  -3    8.82    2.18
  -5   2  -3    6.13    1.46
   5   2   3    6.32    1.31
   5   2  -4   19.27    2.86
  -5  -2  -4   13.35    1.59
   5  -2  -4   12.87    2.58
   5   2  -5    3.79    2.39
   5  -2  -5    7.70    2.42
   5   2  -6   79.98    5.54
   5  -2  -6   73.04    5.49
   5   2  -7   -0.34    2.58
   5  -2  -7    2.47    2.63
   6   2   0   10.28    2.05
   6  -2   0    7.67    1.97
  -6  -2   0   10.13    1.92
  -6   2   0   12.54    2.17
  -6   2   1   79.53    4.80
   6   2  -1   81.67    4.71
  -6  -2  -1   74.37    4.30
   6  -2   1   76.92    4.32
   6   2   1   77.12    4.39
  -6  -2   1   70.28    4.55
   6  -2  -1   74.07    4.56
   6  -2   2   -1.93    1.42
  -6  -2  -2    1.99    1.51
   6   2  -2    3.58    1.92
  -6   2  -2    2.13    1.84
   6  -2  -2    0.05    1.92
   6   2   2    2.25    1.54
   6  -2   3   33.64    2.54
  -6  -2  -3   35.71    2.78
   6   2  -3   33.86    3.56
   6  -2  -3   37.08    3.66
   6   2   3   35.38    2.75
  -6   2  -3   33.96    2.80
   6   2  -4    2.07    2.08
   6  -2  -4   -0.59    2.18
   6   2  -5   20.82    3.30
   6  -2  -5   37.45    4.04
   6   2  -6    2.35    2.60
   6  -2  -6    1.55    2.87
  -7   2   0   81.75    5.04
  -7  -2   0   70.72    4.69
   7   2   0   80.83    4.96
   7  -2   0   73.23    4.79
   7  -2   1   -0.24    1.69
  -7  -2  -1    1.98    1.84
   7   2  -1   -2.52    1.77
   7   2   1   -0.29    1.71
  -7   2  -1    0.97    1.86
   7  -2  -1   -1.97    1.78
   7   2  -2    0.47    1.91
   7  -2   2    0.70    1.63
  -7  -2  -2    0.72    1.47
   7   2   2    0.44    1.65
   7  -2  -2    1.28    2.05
  -7   2  -2   -1.13    1.69
   7   2  -3   -0.63    1.99
   7  -2   3    0.01    1.40
   7  -2  -3   -0.40    2.03
   7   2   3   -0.01    1.38
   7   2  -4   39.46    4.20
   7  -2  -4   52.23    4.81
   7   2  -5    1.06    2.42
   7  -2  -5    0.92    2.51
   8  -2   0   -2.34    2.02
   8   2   0    1.11    2.14
  -8  -2  -1   59.38    4.58
   8   2  -1   54.77    4.70
   8  -2   1   60.45    4.51
   8   2   1   61.25    4.63
  -8   2  -1   66.35    4.83
   8  -2  -1   61.39    4.87
   8   2  -2    2.95    2.21
   8  -2   2   -3.89    1.73
   8   2   2    0.56    1.82
   8  -2  -2    0.59    2.25
   8   2  -3   35.30    4.06
   8  -2  -3   37.18    4.23
   8   2  -4    5.05    2.58
   8  -2  -4   -4.68    2.48
   8   2  -5   26.18    3.83
   8  -2  -5   27.81    4.12
   9   2   0   -0.24    2.20
   9  -2   0   -0.84    2.27
   9  -2   1   10.88    2.56
   9   2  -1    6.73    2.70
   9   2   1    9.33    2.61
   9  -2  -1   11.80    2.85
   9   2  -2   47.56    4.66
   9  -2  -2   39.66    4.57
   9   2  -3    6.94    2.81
   9  -2  -3    6.91    2.83
   9   2  -4    1.52    2.64
   9  -2  -4    0.77    2.66
  10  -2   0   13.41    3.18
  10   2   0   18.35    3.32
  10   2  -1   13.44    3.20
  10  -2  -1   13.72    3.20
  10   2   1    9.92    2.94
  10   2  -2   -0.51    2.55
  10  -2  -2   -3.15    2.59
  10   2  -3    9.83    3.29
  10  -2  -3    8.36    3.17
  11   2   0   11.45    3.33
  11  -2   0   27.79    4.17
  11   2  -1   10.91    3.31
  11  -2  -1    8.40    3.16
  11   2  -2    0.50    2.88
  11  -2  -2    8.56    3.14
   0  -3   0   -0.46    0.57
   0   3   0    0.36    0.67
   0  -3  -1    0.28    0.97
   0  -3   1   -1.30    0.59
   0   3   1   -0.73    1.06
   0   3  -1   -0.97    0.67
   0   3  -2   -0.49    0.73
   0  -3  -2   -0.73    1.17
   0  -3   2    1.13    0.67
   0  -3  -3   -0.78    1.10
   0  -3  -3   -1.86    1.17
   0  -3  -4    1.26    1.14
   0  -3  -4    1.14    1.37
   0  -3  -5   -0.28    1.15
   0  -3  -5   -1.90    1.44
   0  -3  -6   -2.49    1.43
   1   3   0  105.63    4.17
  -1  -3   0  106.63    4.13
   1  -3   1   15.31    1.23
   1   3  -1   18.31    1.43
  -1  -3  -1   15.46    1.30
   1   3   1   12.77    1.27
  -1  -3   1   15.97    1.43
  -1  -3  -2  273.21   10.38
   1   3  -2  307.55   10.43
   1  -3  -2  293.73   10.76
  -1  -3   2  300.22   10.40
   1   3  -3    6.36    1.26
  -1  -3  -3    3.56    1.03
   1  -3  -3    6.04    1.51
  -1  -3   3    5.86    1.07
   1   3  -4   29.24    2.20
  -1  -3  -4   24.80    1.97
  -1  -3  -4   25.31    2.33
  -1  -3   4   27.14    2.36
   1  -3  -4   20.72    2.35
   1  -3  -4   26.74    2.50
   1   3  -5    4.46    1.46
   1  -3  -5    4.41    1.66
   1  -3  -5    4.37    1.72
   1  -3  -6   36.15    3.12
   1  -3  -7    3.90    1.94
  -2   3   0    0.40    1.06
   2  -3   0    0.01    1.01
  -2  -3   0    0.05    0.94
   2   3   0   -0.26    1.01
  -2  -3  -1    3.02    1.05
   2   3  -1    1.82    1.15
   2  -3   1    3.83    0.93
  -2   3   1    2.24    1.11
   2  -3  -1    3.77    1.33
   2   3   1    3.04    1.08
  -2  -3   1   -0.01    0.58
   2   3  -2   23.66    2.17
  -2  -3  -2   21.49    1.70
   2   3   2   21.28    1.75
   2  -3  -2   20.12    2.07
  -2  -3   2   22.14    2.05
   2   3  -3    1.38    1.28
  -2  -3  -3    1.97    0.94
   2  -3  -3    1.44    1.38
   2   3   3    1.33    1.04
  -2  -3   3    0.16    1.01
   2   3  -4    5.00    1.56
  -2  -3   4    2.30    1.32
   2  -3  -4    1.76    1.63
   2   3  -5    1.09    1.57
   2  -3  -5   -0.58    1.74
   2   3  -6    6.44    1.92
   2  -3  -6    5.79    2.24
   2  -3  -7   -1.10    2.01
   3   3   0   80.19    3.93
   3  -3   0   77.69    3.85
  -3  -3   0   82.65    3.85
  -3   3   0   86.43    3.98
  -3  -3  -1    4.56    1.23
   3  -3   1    5.32    1.14
   3   3  -1    4.26    1.39
  -3   3   1   -0.25    1.00
   3  -3  -1    4.46    1.41
   3   3   1    3.97    1.24
  -3   3  -1    4.27    1.22
  -3  -3   1    0.33    0.93
   3   3  -2    6.94    1.58
  -3  -3  -2    6.99    1.17
   3  -3   2    7.11    0.98
  -3   3   2    8.85    1.59
   3  -3  -2    5.11    1.52
   3   3   2    5.24    1.20
  -3   3   3    0.00    1.26
   3   3  -3    0.50    1.43
  -3  -3  -3    0.76    0.99
   3  -3  -3    1.26    1.47
  -3  -3   3    1.54    1.19
   3   3   3    1.18    0.98
   3   3  -4   38.51    3.28
   3  -3  -4   41.69    3.43
   3   3  -5   -0.17    1.72
   3  -3  -5   -1.48    1.90
   3   3  -6    7.69    2.19
   3  -3  -6    7.98    2.45
   3   3  -7    1.00    2.16
   3  -3  -7    0.78    2.28
   4   3   0   10.64    1.77
  -4   3   0   13.16    1.79
   4  -3   0   11.50    1.71
  -4   3   1    2.88    1.43
   4  -3   1    3.62    1.25
   4   3  -1    3.23    1.53
  -4  -3  -1    3.84    1.30
   4   3   1    3.16    1.35
  -4  -3   1    4.57    1.40
  -4   3  -1    3.95    1.45
   4  -3  -1    2.65    1.42
   4  -3   2   23.88    2.03
   4   3  -2   23.08    2.40
  -4  -3  -2   26.99    2.12
  -4   3   2   27.21    2.61
   4  -3  -2   23.34    2.46
   4   3   2   23.41    1.96
  -4   3  -2   26.84    2.10
  -4  -3   2   26.56    2.34
  -4  -3  -3    1.52    1.13
   4   3  -3   -0.25    1.55
   4  -3  -3    1.30    1.52
   4   3   3   -1.06    1.00
   4   3  -4    1.98    1.75
   4  -3  -4   -2.38    1.76
   4   3  -5    2.14    1.96
   4  -3  -5   -0.36    2.10
   4   3  -6   -1.10    2.14
   4  -3  -6   -2.19    2.19
   4   3  -7   -0.88    2.29
   4  -3  -7    3.21    2.69
  -5  -3   0   16.01    2.04
  -5   3   0   13.56    2.06
   5   3   0   10.98    1.99
   5  -3   0   15.54    2.05
   5  -3   1   10.66    1.74
   5   3  -1   11.20    2.05
  -5   3   1    8.54    1.85
  -5  -3   1   10.87    1.89
   5   3   1   10.46    1.82
  -5   3  -1   10.90    1.74
   5  -3  -1    7.92    1.86
  -5   3   2   10.13    2.09
   5  -3   2    8.58    1.57
  -5  -3  -2   10.65    1.69
   5   3  -2   11.13    2.13
   5   3   2    9.71    1.65
   5  -3  -2   11.33    2.13
  -5   3  -2   10.73    1.72
  -5  -3  -3    7.23    1.60
   5   3  -3    7.47    2.06
   5   3   3    4.77    1.33
  -5   3  -3    8.02    1.41
   5  -3  -3    9.68    2.14
   5   3  -4    5.53    2.10
  -5  -3  -4    3.44    1.38
   5   3   4    3.41    1.23
   5  -3  -4    2.98    2.23
   5   3  -5    5.12    2.43
   5  -3  -5    6.43    2.50
   5   3  -6    2.73    2.44
   5  -3  -6    7.54    2.84
   5   3  -7    1.97    2.64
   5  -3  -7    3.79    2.93
   6  -3   0    9.00    1.96
  -6  -3   0    6.07    1.85
  -6   3   0    7.93    1.96
   6   3   0    8.84    2.03
   6   3  -1   68.42    4.41
  -6   3   1   61.99    4.49
  -6  -3  -1   65.03    3.98
   6  -3   1   67.94    4.10
  -6  -3   1   57.31    4.23
   6   3   1   72.52    4.15
   6  -3  -1   66.74    4.30
  -6  -3  -2    0.03    1.42
   6   3  -2    1.72    1.82
   6  -3   2   -0.62    1.42
   6   3   2    2.38    1.46
   6  -3  -2   -2.00    1.81
  -6   3  -2   -2.30    1.65
  -6  -3  -3   39.70    2.97
   6   3  -3   46.16    3.94
   6  -3   3   35.56    2.68
  -6   3  -3   37.43    2.93
   6  -3  -3   45.96    4.02
   6   3   3   37.08    2.93
   6   3  -4    3.84    2.23
   6  -3  -4    5.88    2.40
   6   3  -5   17.34    3.18
   6  -3  -5   16.30    3.28
   6   3  -6    1.43    2.61
   6  -3  -6   -3.80    2.59
  -7  -3   0   -4.02    1.65
   7   3   0   -2.97    1.73
   7  -3   0    1.27    1.85
  -7   3   0    2.24    2.19
  -7  -3  -1    9.91    2.22
   7   3  -1   15.46    2.61
   7  -3   1   15.51    2.38
   7   3   1   13.79    2.41
  -7   3  -1   14.73    2.55
   7  -3  -1   10.08    2.38
  -7  -3  -2   -0.34    1.70
   7  -3   2    0.72    1.59
   7   3  -2   -1.52    1.89
  -7   3  -2   -0.41    1.67
   7   3   2   -1.24    1.52
   7  -3  -2   -1.55    1.84
   7   3  -3    4.99    2.32
   7  -3   3    2.19    1.44
   7  -3  -3    1.00    2.21
   7   3   3    2.19    1.48
   7   3  -4   -0.21    2.15
   7  -3  -4    0.73    2.35
   7   3  -5    5.47    2.80
   7  -3  -5    1.94    2.55
   8  -3   0   47.84    4.23
   8   3   0   40.20    3.88
   8  -3   1   24.03    2.98
   8   3  -1   20.07    3.16
  -8  -3  -1   20.13    2.93
   8   3   1   18.43    2.88
   8  -3  -1   22.31    3.28
  -8   3  -1   21.63    3.19
   8   3  -2    9.19    2.62
   8  -3   2    7.01    2.10
   8  -3  -2   11.69    2.79
   8   3   2   11.34    2.36
   8   3  -3   15.95    3.05
   8  -3  -3   11.60    2.99
   8   3  -4   12.97    3.04
   8  -3  -4   12.94    3.30
   8   3  -5   10.82    3.06
   8  -3  -5    8.08    3.20
   9   3   0    7.36    2.54
   9  -3   0    1.83    2.38
   9   3  -1    7.37    2.70
   9  -3   1    9.11    2.55
   9   3   1    5.35    2.35
   9  -3  -1    9.92    2.72
   9   3  -2   14.54    3.16
   9   3   2   10.08    2.51
   9  -3  -2    8.41    3.04
   9   3  -3    5.12    2.80
   9  -3  -3    0.08    2.53
   9   3  -4    3.22    2.83
   9  -3  -4    0.55    2.75
  10   3   0    0.33    2.47
  10  -3   0   -1.94    2.30
  10   3  -1   36.09    4.35
  10   3   1   24.23    3.45
  10  -3  -1   34.84    4.39
  10   3  -2    3.41    2.78
  10  -3  -2    3.82    2.89
  10   3  -3   25.38    4.17
  10  -3  -3   30.70    4.41
  11   3   0   24.03    3.83
  11   3  -1   -0.54    2.94
  11  -3  -1   -2.01    2.54
  11   3  -2    0.81    2.93
  11  -3  -2    1.78    3.01
   0   4   0    6.02    1.06
   0  -4   0    7.16    1.00
   0  -4  -1  119.25    4.88
   0   4   1  123.35    5.06
   0   4  -1  120.96    4.64
   0  -4   1  122.54    4.61
   0  -4   2   -0.12    0.70
   0   4  -2    0.73    0.79
   0  -4  -2    1.75    1.22
   0  -4  -3   44.67    2.84
   0  -4  -4    2.66    1.27
   0  -4  -4    1.71    1.52
   0  -4  -5   65.62    3.91
   0  -4  -5   69.49    3.64
   0  -4  -6    4.67    1.75
   1   4   0    0.81    0.98
  -1  -4   0    2.61    0.93
   1  -4   0    0.44    0.92
   1  -4   1  116.83    4.37
  -1  -4  -1  112.90    4.61
   1   4  -1  119.06    4.61
  -1  -4   1  106.98    4.45
   1  -4  -1  121.60    5.16
   1   4   1  114.94    4.67
  -1   4  -1  111.66    4.57
   1   4  -2   20.87    1.94
  -1  -4  -2   25.12    1.97
  -1  -4   2   21.37    1.84
   1   4   2   18.58    1.78
   1   4  -3  137.07    5.27
  -1  -4  -3  131.42    5.31
   1  -4  -3  125.02    5.97
   1  -4  -3  131.28    5.79
  -1  -4   3  132.93    5.21
   1   4  -4    3.31    1.24
  -1  -4  -4    3.90    1.16
  -1  -4   4    2.94    1.11
   1  -4  -4    0.23    1.47
   1  -4  -4    0.88    1.56
   1   4  -5   31.03    2.40
  -1  -4  -5   31.63    2.58
  -1  -4  -5   32.46    2.36
   1  -4  -5   31.97    2.94
   1  -4  -6   -1.31    1.77
   1  -4  -7   41.54    3.46
   2   4   0   16.79    1.65
  -2  -4   0   14.41    1.52
   2  -4   0   16.03    1.64
   2  -4   1  237.81    8.59
   2   4  -1  244.62    8.86
  -2  -4  -1  234.63    8.71
   2  -4  -1  232.03    9.01
   2   4   1  243.41    8.83
  -2  -4  -2   17.82    1.56
   2   4  -2   16.95    1.79
   2   4   2   17.22    1.63
  -2  -4   2   20.33    1.72
   2  -4  -2   16.06    1.96
  -2  -4  -3  132.19    5.19
   2   4  -3  133.70    5.58
  -2  -4   3  135.09    5.49
   2   4   3  123.51    5.38
   2  -4  -3  136.04    5.98
   2   4  -4    2.66    1.48
  -2  -4  -4    1.35    1.05
  -2  -4   4    0.02    1.15
   2  -4  -4    1.09    1.68
   2   4  -5   84.31    4.35
   2  -4  -5   81.34    4.79
   2   4  -6    1.74    1.75
   2  -4  -6    0.43    1.91
   2  -4  -7   36.59    3.57
   2  -4  -8    1.67    2.31
   3  -4   0   14.45    1.72
   3   4   0   14.39    1.77
  -3  -4   0   14.59    1.60
  -3   4   0   14.04    1.77
   3   4  -1  219.54    8.52
   3  -4   1  224.78    8.20
  -3  -4  -1  224.68    8.32
   3  -4  -1  224.81    8.64
   3   4   1  216.28    8.36
  -3  -4   1  219.81    8.43
   3  -4   2  107.68    4.30
  -3  -4  -2  113.85    4.62
   3   4  -2  111.39    5.09
  -3   4   2  111.30    5.23
   3   4   2  108.61    4.75
   3  -4  -2  109.52    5.22
   3   4  -3  160.24    6.79
  -3  -4  -3  154.76    6.16
  -3  -4   3  167.17    6.64
   3   4   3  159.12    6.27
   3  -4  -3  158.73    7.01
  -3  -4  -4   -0.26    1.06
   3   4  -4    0.92    1.60
   3   4   4    1.24    1.18
   3  -4  -4   -0.92    1.60
   3   4  -5   48.04    3.76
   3  -4  -5   48.84    4.07
   3   4  -6   32.24    3.12
   3  -4  -6   33.18    3.53
   3   4  -7   28.71    3.12
   3  -4  -7   31.19    3.53
  -4   4   0   18.63    2.06
   4  -4   0   17.15    1.89
  -4  -4   0   10.14    1.68
   4   4   0   16.38    1.98
  -4   4   1  266.75   10.09
   4   4  -1  261.03    9.93
  -4  -4  -1  250.99    9.58
   4  -4   1  254.63    9.52
  -4   4  -1  244.04    9.67
  -4  -4   1  265.29    9.90
   4  -4  -1  256.72    9.89
   4   4   1  253.45    9.68
   4  -4   2    1.41    1.05
  -4   4   2    0.00    1.40
   4   4  -2   -0.30    1.45
  -4  -4  -2   -0.84    1.17
  -4  -4   2    2.15    1.15
   4   4   2    2.73    1.22
   4  -4  -2    1.41    1.49
   4   4  -3  145.86    6.62
   4   4   3  147.60    5.93
   4  -4  -3  137.96    6.64
   4   4  -4    3.89    1.90
  -4  -4  -4    2.46    1.27
   4   4   4    2.48    1.17
   4  -4  -4    1.92    1.93
   4   4  -5   62.70    4.53
   4  -4  -5   64.91    4.71
   4   4  -6    1.28    2.19
   4  -4  -6    0.96    2.28
   4   4  -7   22.16    3.14
   4  -4  -7   34.42    3.90
  -5   4   0  225.74    8.98
  -5  -4   0  216.44    8.84
   5   4   0  223.37    8.95
   5  -4   0  220.27    8.82
  -5   4   1   52.74    3.77
   5  -4   1   49.08    3.27
   5   4  -1   48.90    3.74
  -5   4  -1   45.90    3.30
   5   4   1   48.36    3.37
   5  -4  -1   51.48    3.57
  -5  -4   1   48.08    3.48
   5   4  -2   20.41    2.64
  -5  -4  -2   28.08    2.36
   5  -4   2   27.00    2.24
   5   4   2   24.89    2.27
   5  -4  -2   20.86    2.67
  -5   4  -2   25.90    2.41
   5  -4   3   37.50    2.28
  -5  -4  -3   29.73    2.52
   5   4  -3   37.91    3.43
   5  -4  -3   37.92    3.50
   5   4   3   38.92    2.79
   5   4  -4   47.71    4.18
   5  -4  -4   45.76    4.18
   5   4   4   52.56    2.94
   5   4  -5   20.38    3.05
   5  -4  -5    8.61    2.67
   5   4  -6    7.99    2.74
   5  -4  -6   11.56    2.78
   5   4  -7   13.04    2.97
  -6   4   0    6.26    1.87
  -6  -4   0    5.30    1.79
   6  -4   0    4.16    1.77
   6   4   0    5.39    1.91
  -6  -4  -1  128.54    5.92
   6  -4   1  130.43    5.87
   6   4  -1  125.40    6.26
  -6   4   1  121.77    6.32
   6   4   1  127.79    6.02
   6  -4  -1  109.04    5.99
   6   4  -2    2.57    1.90
  -6  -4  -2    0.25    1.23
   6  -4   2    2.78    1.50
   6   4   2   -0.69    1.44
  -6   4  -2   -0.87    1.70
   6  -4  -2    1.10    1.82
   6  -4   3   76.29    3.74
   6   4  -3   68.46    4.87
  -6  -4  -3   70.57    3.98
   6   4   3   78.42    4.08
   6  -4  -3   66.60    4.95
   6   4  -4    0.64    2.02
   6  -4  -4    2.76    2.21
   6   4  -5   40.22    4.24
   6  -4  -5   42.09    4.47
   6   4  -6    1.62    2.56
   6  -4  -6    1.89    2.63
   7   4   0   46.57    4.07
  -7   4   0   47.98    4.14
   7  -4   0   47.92    3.95
  -7  -4  -1    7.43    2.09
   7   4  -1    3.00    2.12
   7  -4   1    5.84    1.88
  -7   4  -1    6.80    1.96
   7   4   1    6.66    2.01
   7  -4  -1    4.17    2.06
   7  -4   2    3.79    1.78
  -7  -4  -2    2.68    1.89
   7   4  -2    2.90    2.19
   7   4   2    1.12    1.70
   7  -4  -2    2.87    2.13
  -7   4  -2    5.33    2.00
   7   4  -3    2.96    2.27
   7   4   3    3.26    1.60
   7  -4  -3    6.94    2.41
   7   4  -4   34.64    3.93
   7  -4  -4   32.04    4.03
   7   4  -5    1.17    2.64
   7  -4  -5    1.33    2.60
   8   4   0   12.68    2.65
   8  -4   0   10.26    2.56
   8   4  -1   49.78    4.52
   8  -4   1   45.36    4.19
  -8  -4  -1   48.33    4.30
   8  -4  -1   47.95    4.39
   8   4   1   52.48    4.39
  -8   4  -1   51.86    4.57
   8   4  -2    0.95    2.22
   8  -4   2    1.85    1.87
   8  -4  -2    6.47    2.36
   8   4   2   -2.11    1.70
   8   4  -3   36.42    4.18
   8  -4  -3   39.21    4.38
   8   4  -4    4.61    2.73
   8  -4  -4   11.73    2.98
   8   4  -5   10.62    3.18
   8  -4  -5   26.32    4.08
   9  -4   0    2.09    2.30
   9   4   0    2.66    2.49
   9   4  -1   -0.92    2.24
   9  -4   1    0.36    2.07
   9   4   1   -1.45    2.15
   9  -4  -1   -1.10    2.19
   9   4  -2   67.14    5.49
   9  -4  -2   73.80    5.70
   9   4  -3   -0.32    2.55
   9  -4  -3    1.27    2.64
   9   4  -4    0.37    2.56
   9  -4  -4    1.59    2.76
  10   4   0   -0.18    2.50
  10  -4   0    0.60    2.32
  10   4  -1    8.86    3.00
  10   4   1    9.25    2.96
  10  -4  -1   12.58    3.15
  10   4  -2   -4.41    2.34
  10  -4  -2   -0.77    2.51
  10   4  -3    8.04    3.08
  10  -4  -3    9.39    3.40
  11   4   0    0.42    2.82
  11   4  -1    2.11    2.97
  11   4  -2   -1.28    2.94
  11  -4  -2    2.50    3.01
   0   5   0    0.58    1.05
   0  -5   0    1.11    0.96
   0   5   1    0.46    1.36
   0   5  -1    0.14    0.93
   0  -5   1   -1.66    0.79
   0  -5  -1    1.41    1.14
   0  -5   2    0.23    0.74
   0   5   2   -2.35    1.40
   0   5  -2   -0.57    0.84
   0  -5  -2    2.41    1.26
   0  -5   3   -1.00    0.66
   0  -5  -3    0.55    1.16
   0  -5  -4   -0.74    1.15
   0  -5  -4   -0.40    1.50
   0  -5  -5   -0.09    1.63
   0  -5  -5   -0.29    1.22
   0  -5  -6   -1.82    1.65
   0  -5  -7   -0.45    1.74
  -1  -5   0   36.45    2.34
  -1   5   0   34.11    2.86
   1   5   0   35.99    2.47
   1  -5   0   35.15    2.20
   1   5  -1   77.51    3.55
   1  -5   1   79.62    3.32
  -1  -5  -1   73.56    3.57
  -1   5  -1   76.55    3.55
   1  -5  -1   76.77    3.99
   1   5   1   73.17    3.66
   1   5  -2   48.19    2.62
  -1  -5  -2   43.87    2.75
   1  -5   2   42.89    2.13
   1  -5  -2   48.05    3.36
  -1  -5   2   44.53    2.52
   1   5   2   48.42    2.89
  -1  -5  -3   47.03    2.83
   1   5  -3   46.93    2.66
   1  -5  -3   53.48    3.47
   1  -5  -3   47.13    3.38
  -1  -5   3   45.61    2.62
   1   5   3   49.16    3.25
   1   5  -4   15.41    1.61
  -1  -5  -4   13.96    1.67
  -1  -5   4   13.41    1.48
   1  -5  -4    7.78    1.82
   1  -5  -4   14.22    2.16
  -1  -5  -5   11.87    2.00
  -1  -5  -5    6.67    1.45
   1  -5  -5   12.60    2.29
   1  -5  -5    4.65    1.79
   1  -5  -6   15.71    2.41
   1  -5  -7    4.50    2.18
  -2  -5   0    8.70    1.37
   2   5   0    7.34    1.46
   2  -5   1   -0.87    1.11
   2   5  -1   -1.01    1.16
  -2  -5  -1   -0.47    1.04
   2  -5  -1    0.61    1.35
   2   5   1    0.40    1.17
  -2  -5   1   -0.12    0.57
  -2  -5  -2   22.21    1.98
   2   5  -2   25.07    2.31
   2  -5  -2   25.38    2.42
   2   5   2   23.51    2.17
  -2  -5   2   22.33    1.85
  -2  -5  -3   -0.46    1.04
   2   5  -3   -1.04    1.23
   2  -5  -3   -0.37    1.45
  -2  -5   3    1.42    1.03
   2   5   3    1.28    1.22
   2   5  -4    1.67    1.50
  -2  -5  -4    2.12    1.17
   2  -5  -4    1.24    1.71
   2   5  -5    5.99    1.78
  -2  -5  -5    5.71    1.32
   2  -5  -5    3.66    2.10
   2  -5  -5    1.82    1.94
   2   5  -6    7.31    1.92
   2  -5  -6    5.31    2.20
   2  -5  -7   -2.73    2.17
   2  -5  -8    0.61    2.35
   3  -5   0   15.60    1.84
   3   5   0   17.49    1.88
   3  -5   1   47.51    2.78
   3   5  -1   44.68    3.13
  -3  -5  -1   47.75    2.84
   3  -5  -1   40.53    3.21
   3   5   1   47.91    3.06
  -3  -5   1   49.42    2.99
   3  -5   2   12.43    1.28
  -3  -5  -2   12.00    1.49
   3  -5   2   13.32    1.45
   3   5  -2   10.99    1.78
   3  -5  -2   12.62    2.03
   3   5   2   11.85    1.61
  -3  -5  -3   23.52    2.07
   3   5  -3   28.18    2.58
  -3  -5   3   29.29    2.65
   3  -5  -3   25.62    2.79
   3   5   3   24.49    2.18
   3   5  -4   15.37    2.25
  -3  -5  -4   11.85    1.58
   3  -5  -4   14.01    2.45
   3   5   4   16.35    1.89
   3   5  -5   12.38    2.30
   3  -5  -5   12.10    2.45
   3   5  -6    2.31    1.87
   3  -5  -6    2.75    2.21
   3   5  -7    1.70    2.08
   3  -5  -7    4.91    2.58
   4  -5   0   35.25    2.79
  -4   5   0   31.52    2.79
   4   5   0   34.57    2.97
  -4  -5   0   33.34    2.71
   4   5  -1    5.47    1.68
  -4   5   1    7.48    1.71
   4  -5   1    6.51    1.40
  -4  -5  -1    4.33    1.41
   4  -5  -1    5.13    1.65
  -4  -5   1    5.05    1.45
   4   5   1    6.60    1.59
   4   5  -2   35.20    3.02
  -4   5   2   36.71    3.36
  -4  -5  -2   38.07    2.57
   4  -5   2   34.57    2.38
  -4  -5   2   33.26    2.72
   4   5   2   33.26    2.78
   4  -5  -2   35.05    3.13
   4   5  -3    3.60    1.78
  -4  -5  -3    3.40    1.37
   4   5   3    4.78    1.41
   4  -5  -3    3.36    1.86
   4   5  -4    8.67    2.20
  -4  -5  -4    8.29    1.41
   4   5   4    8.89    1.53
   4  -5  -4    9.47    2.30
   4   5  -5    2.18    2.05
   4  -5  -5    2.43    2.21
   4   5  -6    5.30    2.39
   4  -5  -6    6.62    2.59
   4   5  -7    2.19    2.42
   4  -5  -7   -0.66    2.60
   5  -5   0    5.73    1.70
  -5  -5   0   11.13    1.83
   5   5   0    7.24    1.88
  -5   5   0   10.09    1.93
   5   5  -1  118.79    5.72
   5  -5   1  108.55    5.20
  -5  -5  -1  118.93    5.30
  -5   5   1  116.00    5.82
  -5  -5   1  111.69    5.56
   5  -5  -1  112.19    5.58
   5   5   1  116.23    5.43
  -5   5  -1  113.44    5.40
   5   5  -2   28.78    2.93
  -5  -5  -2   31.30    2.59
   5  -5   2   31.29    2.60
   5   5   2   29.82    2.78
   5  -5  -2   31.54    3.08
   5   5  -3   66.02    4.59
  -5  -5  -3   67.52    3.59
   5  -5  -3   58.65    4.54
   5   5   3   66.93    3.76
   5   5  -4    6.18    2.20
  -5  -5  -4    3.42    1.52
   5  -5  -4    2.07    2.14
   5   5   4    2.68    1.27
   5   5  -5   44.71    4.11
   5  -5  -5   39.82    4.09
   5   5  -6    6.95    2.69
   5  -5  -6    7.24    2.91
   5   5  -7   10.17    2.88
  -6  -5   0   50.26    3.77
   6  -5   0   51.24    3.64
   6   5   0   51.90    3.96
  -6   5   0   49.82    4.08
  -6   5   1   25.78    3.12
   6  -5   1   25.73    2.65
   6   5  -1   22.00    2.79
  -6  -5  -1   25.63    2.69
   6   5   1   23.72    2.61
   6  -5  -1   21.62    2.79
   6   5  -2    4.72    2.09
  -6  -5  -2    4.34    1.65
   6  -5   2    5.47    1.66
  -6   5  -2    5.25    1.93
   6  -5  -2    5.67    2.14
   6   5   2    4.10    1.67
   6   5  -3   13.47    2.72
   6  -5   3   15.64    1.84
  -6  -5  -3   14.73    2.10
   6  -5  -3   15.26    2.77
   6   5   3   17.20    2.20
   6   5  -4   20.55    3.15
   6  -5  -4   24.35    3.28
   6   5  -5    5.61    2.58
   6  -5  -5    7.03    2.84
   6   5  -6    0.17    2.61
   6  -5  -6    0.96    2.59
   7  -5   0    3.50    2.01
   7   5   0    4.96    2.18
  -7   5   0    5.90    2.31
  -7  -5  -1   44.05    3.90
   7  -5   1   42.43    3.83
   7   5  -1   51.85    4.34
   7  -5  -1   50.14    4.21
   7   5   1   46.40    4.10
  -7   5  -1   56.25    4.28
   7  -5   2   17.48    2.38
   7   5  -2   16.85    2.90
  -7  -5  -2   12.73    2.37
   7  -5  -2   11.25    2.65
   7   5   2    8.05    2.03
  -7   5  -2   22.89    2.80
   7   5  -3   32.27    3.76
   7  -5  -3   42.12    4.19
   7   5  -4    1.85    2.27
   7  -5  -4    2.32    2.42
   7   5  -5   20.66    3.47
   7  -5  -5   25.30    3.80
   8  -5   0    8.80    2.37
   8   5   0    5.21    2.28
   8  -5   1   20.76    2.93
   8   5  -1   21.32    3.25
   8  -5  -1   22.35    3.23
   8   5   1   13.97    2.69
  -8   5  -1   21.65    3.23
   8  -5   2    2.31    1.93
   8   5  -2    5.42    2.53
   8  -5  -2    2.22    2.22
   8   5   2   -0.40    1.84
   8   5  -3   23.33    3.52
   8  -5  -3   19.62    3.43
   8   5  -4    2.94    2.55
   8  -5  -4    4.47    2.63
   8   5  -5    3.76    2.94
   8  -5  -5    6.56    3.13
   9   5   0   51.83    4.77
   9  -5   0   55.83    4.76
   9  -5   1   25.44    3.31
   9   5  -1   14.82    3.04
   9  -5  -1   16.16    3.16
   9   5   1   15.85    2.90
   9   5  -2    6.00    2.74
   9  -5  -2    4.00    2.58
   9   5   2    3.65    2.21
   9   5  -3   11.94    3.28
   9  -5  -3   20.38    3.66
   9   5  -4   26.14    4.01
   9  -5  -4   31.40    4.38
  10   5   0    3.80    2.78
  10  -5   0    6.65    2.77
  10   5  -1   18.77    3.42
  10   5   1    9.45    2.83
  10  -5  -1   23.80    3.76
  10   5  -2    3.23    2.81
  10  -5  -2    2.19    2.81
  10   5  -3   24.62    3.97
  10  -5  -3   12.97    3.55
  11   5   0    1.83    2.92
  11   5  -1   14.12    3.62
  11  -5  -1   25.96    4.17
  11   5  -2   11.19    3.50
  11  -5  -2   14.61    3.64
   0  -6   0   12.94    1.44
   0   6   0   13.25    1.60
   0   6  -1   77.92    3.60
   0  -6  -1   78.39    3.80
   0  -6   1   77.10    3.60
   0   6   1   76.96    4.09
   0  -6  -2  705.28   24.89
   0  -6   2  719.16   24.43
   0   6  -2  726.09   24.50
   0  -6   3   42.88    2.27
   0   6  -3   45.47    2.33
   0  -6  -3   44.19    2.93
   0  -6  -4    4.45    1.47
   0  -6  -5   14.26    1.97
   0  -6  -5   16.55    2.38
   0  -6  -6  103.00    5.42
   0  -6  -7    6.42    2.14
  -1   6   0   93.52    4.63
  -1  -6   0   96.11    4.20
   1   6   0   95.49    4.40
   1   6  -1  517.35   17.16
   1  -6   1  503.04   17.01
  -1  -6  -1  483.45   17.18
   1  -6  -1  465.85   17.40
   1   6   1  468.71   17.25
  -1   6  -1  495.74   17.17
   1   6  -2    0.49    1.05
   1  -6   2    0.90    0.75
  -1  -6  -2   -1.52    1.12
  -1   6  -2   -0.05    0.98
   1  -6  -2   -1.12    1.18
  -1  -6   2    0.09    0.86
   1   6   2   -0.75    1.29
  -1  -6  -3  316.55   11.72
   1   6  -3  328.92   11.51
   1  -6  -3  328.02   12.18
   1   6   3  314.77   12.07
  -1  -6   3  309.10   11.39
  -1  -6  -4   17.27    1.90
   1   6  -4   18.48    1.81
   1  -6  -4   15.99    2.21
  -1  -6   4   18.48    1.66
   1  -6  -4   16.86    2.47
  -1  -6  -5  101.66    4.66
  -1  -6  -5   89.30    5.04
   1  -6  -5   96.32    5.40
   1  -6  -5  112.69    5.38
  -1  -6  -6    1.18    1.78
   1  -6  -6    2.19    2.04
   1  -6  -7   51.96    4.22
  -2  -6   0  267.59    9.73
   2   6   0  256.78    9.78
   2   6  -1    9.07    1.54
  -2  -6  -1    9.05    1.41
   2  -6   1   11.60    1.55
   2   6   1    9.10    1.55
  -2  -6  -2    0.37    1.08
   2   6  -2   -1.05    1.17
   2  -6   2    0.79    0.76
   2   6   2    0.15    1.23
   2  -6  -2   -1.12    1.36
  -2  -6   2    0.41    1.01
  -2  -6  -3    1.66    1.23
   2   6  -3    2.85    1.42
   2  -6  -3    0.04    1.59
  -2  -6   3    2.71    1.15
   2   6   3    2.41    1.37
  -2  -6  -4  107.77    4.73
   2   6  -4  113.18    5.09
   2  -6  -4  102.14    5.70
   2   6  -5    4.81    1.72
  -2  -6  -5    6.91    1.48
   2  -6  -5    0.24    1.53
   2  -6  -5    6.99    2.15
   2   6  -6   -2.66    1.51
  -2  -6  -6    1.24    1.64
   2  -6  -6    0.54    1.97
   2  -6  -7    3.24    2.21
   3  -6   0    0.93    1.26
  -3  -6   0   -1.11    0.95
   3   6   0   -0.42    1.30
  -3  -6  -1  143.48    5.86
   3   6  -1  142.57    6.07
   3  -6   1  139.42    5.74
  -3  -6   1  141.20    5.98
   3   6   1  144.26    6.05
   3  -6  -1  137.01    6.18
   3  -6   2    3.44    1.13
   3  -6   2    3.47    1.05
   3   6  -2    3.13    1.47
  -3  -6  -2    3.42    1.32
   3   6   2    3.51    1.38
   3  -6  -2    2.82    1.62
  -3  -6   2    0.35    0.63
   3   6  -3  127.00    5.75
  -3  -6  -3  121.91    5.20
   3   6   3  122.21    5.36
   3  -6  -3  123.19    6.10
  -3  -6  -4    1.45    1.28
   3   6  -4    2.09    1.73
   3   6   4    1.53    1.42
   3  -6  -4   -0.07    1.91
   3   6  -5   45.85    3.77
   3  -6  -5   45.88    4.10
   3   6  -6    4.01    2.01
   3  -6  -6    2.79    2.30
   3   6  -7   37.62    3.50
   3  -6  -7   40.67    4.07
   4  -6   0    1.20    1.36
   4   6   0    0.67    1.43
  -4  -6   0    1.14    1.22
   4  -6   1    0.42    1.17
  -4  -6  -1    1.05    0.99
   4   6  -1    0.14    1.48
  -4  -6   1    0.46    1.23
   4   6   1   -1.70    1.30
   4  -6  -1   -0.31    1.41
   4  -6   2   67.35    3.31
  -4  -6  -2   64.31    3.41
   4   6  -2   59.86    3.94
   4   6   2   66.34    3.68
   4  -6  -2   64.40    4.26
  -4  -6   2   62.72    3.70
   4   6  -3    2.72    1.76
  -4  -6  -3    1.88    1.35
   4   6   3    2.99    1.41
   4  -6  -3    0.96    1.78
  -4  -6  -4    0.83    1.38
   4   6  -4    0.49    1.82
   4  -6  -4   -0.16    1.88
   4   6   4    0.39    1.23
   4   6  -5   -0.33    1.93
   4  -6  -5   -1.30    2.07
   4   6  -6   30.69    3.45
   4  -6  -6   32.93    3.85
   4   6  -7   -0.09    2.27
   4  -6  -7    0.18    2.56
  -5  -6   0    4.06    1.59
  -5   6   0    4.90    1.81
   5  -6   0    3.58    1.62
   5   6   0    4.93    1.83
  -5   6   1   13.45    2.26
   5  -6   1   12.57    1.88
   5   6  -1   12.41    2.14
  -5  -6  -1    9.15    1.80
  -5  -6   1   10.55    1.95
   5   6   1    9.70    1.96
   5  -6  -1    7.99    2.03
   5  -6   2   27.24    2.54
   5   6  -2   28.59    3.03
   5  -6  -2   28.29    3.05
   5   6   2   32.06    2.89
   5   6  -3   22.57    2.93
  -5  -6  -3   27.72    2.48
   5  -6   3   26.75    2.24
   5  -6  -3   28.60    3.24
   5   6   3   27.79    2.48
   5   6  -4    1.11    2.01
  -5  -6  -4   -0.95    1.44
   5   6   4    0.28    1.28
   5  -6  -4    0.65    2.11
   5   6  -5   11.89    2.65
   5  -6  -5   11.75    2.69
   5   6  -6    2.66    2.47
   5  -6  -6    8.14    2.83
   5   6  -7    9.38    3.00
   6  -6   0   86.70    4.76
  -6   6   0   89.84    5.22
  -6  -6   0   76.65    4.86
   6   6   0   87.86    5.13
  -6  -6  -1    1.73    1.66
   6   6  -1   -0.88    1.77
   6  -6   1   -1.32    1.49
  -6   6   1    0.87    1.81
  -6   6  -1    1.06    1.57
   6  -6  -1   -0.35    1.70
   6   6   1    2.34    1.78
   6  -6   2   33.01    3.06
  -6  -6  -2   36.42    3.04
   6   6  -2   32.99    3.46
   6   6   2   31.63    2.98
   6  -6  -2   37.22    3.59
  -6  -6  -3    1.54    1.57
   6   6  -3   -0.92    1.95
   6  -6   3    3.07    1.40
   6   6   3    1.13    1.48
   6  -6  -3    0.60    2.02
   6   6  -4   42.87    4.12
   6  -6  -4   44.99    4.39
   6   6  -5   -2.25    2.27
   6  -6  -5    0.97    2.39
   6   6  -6   12.83    3.17
   6  -6  -6   21.08    3.59
  -7   6   0    5.49    2.34
   7  -6   0    6.23    2.09
   7   6   0    7.69    2.37
  -7  -6  -1   44.91    3.98
   7   6  -1   49.87    4.37
   7  -6   1   44.78    3.91
   7  -6  -1   47.29    4.13
   7   6   1   51.17    4.20
  -7   6  -1   46.61    4.18
  -7  -6  -2   34.74    3.28
   7  -6   2   38.65    3.25
   7   6  -2   30.80    3.65
   7  -6  -2   35.79    3.71
   7   6   2   22.58    2.68
   7   6  -3   44.11    4.39
   7  -6  -3   53.65    4.75
   7   6   3   52.80    3.93
   7   6  -4    0.09    2.16
   7  -6  -4    0.30    2.47
   7   6  -5   18.32    3.46
   7  -6  -5   21.83    3.74
   8   6   0   67.11    5.14
   8  -6   0   67.42    4.90
   8  -6   1    4.76    2.22
   8   6  -1    6.43    2.59
  -8   6  -1    6.80    2.59
   8  -6  -1    7.95    2.50
   8   6   1    5.16    2.25
   8   6  -2   17.84    3.28
   8  -6   2   19.68    2.73
   8  -6  -2   19.00    3.19
   8   6   2    8.26    2.20
   8   6  -3    3.47    2.51
   8  -6  -3    2.91    2.62
   8   6  -4   31.49    4.20
   8  -6  -4   41.41    4.68
   9   6   0   -2.12    2.30
   9  -6   0    2.63    2.33
   9  -6   1   19.94    3.11
   9   6  -1   19.37    3.43
   9   6   1   12.04    2.77
   9  -6  -1   24.01    3.57
   9   6  -2   10.34    3.08
   9  -6  -2    7.86    2.82
   9   6   2    2.75    2.16
   9   6  -3   12.17    3.27
   9  -6  -3   11.66    3.25
   9   6  -4    1.18    2.56
   9  -6  -4   -2.04    2.65
  10  -6   0    2.23    2.62
  10   6   0    0.11    2.67
  10   6  -1    0.65    2.59
  10   6   1   -2.77    2.43
  10  -6  -1   -1.57    2.52
  10   6  -2   60.78    5.84
  10  -6  -2   76.01    6.40
  10   6  -3    0.05    2.80
  10  -6  -3    3.28    3.09
  11   6   0    2.86    2.92
  11   6  -1    2.16    3.18
  11  -6  -1    7.87    3.12
  11   6  -2    0.62    3.12
  11  -6  -2   -0.24    3.12
   0  -7   0   -0.89    0.79
   0   7   0   -0.39    1.22
   0   7   1   -0.06    1.44
   0   7  -1    0.41    1.15
   0  -7   1    0.26    0.97
   0  -7  -1   -0.18    1.11
   0  -7   2    0.37    0.87
   0   7   2   -1.17    1.59
   0  -7  -2   -0.56    1.07
   0   7  -2    0.30    1.05
   0  -7   3   -0.01    0.78
   0  -7  -3    0.94    1.24
   0   7  -3   -0.81    0.95
   0  -7  -4   -1.31    1.21
   0  -7  -5    1.89    1.83
   0  -7  -5    1.23    1.46
   0  -7  -6    0.76    1.88
   0  -7  -7   -1.67    1.92
   1   7   0    2.84    1.35
   1  -7   0   -0.09    0.71
  -1  -7   0    0.10    0.94
  -1   7   0    3.01    1.64
   1  -7   1   34.36    2.27
  -1  -7  -1   33.61    2.49
  -1   7   1   28.36    2.88
   1   7  -1   33.19    2.51
   1  -7  -1   26.40    2.47
  -1   7  -1   33.20    2.64
   1   7   1   33.74    2.63
   1  -7   2    0.27    0.80
   1   7  -2   -0.86    1.07
  -1  -7  -2   -1.54    1.09
  -1  -7   2   -0.60    0.86
   1   7   2   -1.03    1.36
   1  -7  -2   -0.60    1.34
  -1   7  -2    0.93    1.11
  -1  -7  -3    4.45    1.43
   1   7  -3    5.36    1.31
   1   7   3    3.47    1.72
   1  -7  -3    3.75    1.56
  -1  -7   3    3.90    1.09
   1   7  -4    1.12    1.21
  -1  -7  -4    1.07    1.32
   1  -7  -4   -1.66    1.62
  -1  -7   4   -0.31    0.99
   1  -7  -4   -0.83    1.48
   1   7  -5    5.55    1.46
  -1  -7  -5    1.16    1.48
   1  -7  -5    5.56    1.80
   1  -7  -5    5.49    2.09
  -1  -7  -6   -1.04    1.69
   1  -7  -6   -4.17    1.81
   1  -7  -7    0.90    2.14
   2   7  -1    9.94    1.62
  -2  -7  -1   10.39    1.47
   2  -7   1   12.09    1.59
   2   7   1    8.26    1.66
   2  -7  -1   11.02    1.97
  -2  -7   1    9.73    1.35
   2   7  -2    0.05    1.23
   2  -7   2   -0.12    0.78
  -2  -7  -2   -1.23    1.03
   2   7   2   -1.30    1.29
  -2  -7   2    0.71    1.00
   2  -7  -2    0.06    1.61
  -2  -7  -3    3.10    1.34
   2   7  -3    1.62    1.37
  -2  -7   3    0.54    1.04
   2  -7  -3    1.08    1.75
   2   7   3   -0.35    1.38
   2  -7  -3    2.60    1.70
   2   7  -4   31.71    2.77
  -2  -7  -4   25.10    2.32
   2  -7  -4   23.83    2.86
   2   7   4   21.47    2.51
   2  -7  -4   22.84    2.88
   2   7  -5    1.73    1.59
  -2  -7  -5    1.55    1.42
   2  -7  -5    1.18    1.98
   2  -7  -5    0.71    1.91
  -2  -7  -6   -0.13    1.71
   2   7  -6    1.12    1.61
   2  -7  -6    1.68    2.25
   2  -7  -7    1.54    2.31
  -3  -7   0    1.84    1.21
   3  -7   0    2.66    1.37
   3   7   0    1.87    1.41
  -3  -7  -1   -0.47    0.89
   3  -7   1    4.40    1.33
   3   7  -1    3.41    1.50
   3  -7   1    5.09    1.55
   3   7   1    6.55    1.58
  -3  -7   1    3.65    1.29
   3  -7  -1    5.00    1.63
   3  -7   2   28.01    2.15
   3   7  -2   27.84    2.54
   3  -7   2   29.01    2.21
  -3  -7  -2   29.05    2.40
   3  -7  -2   29.04    2.85
   3   7   2   30.08    2.53
   3   7  -3    0.81    1.57
  -3  -7  -3    0.74    1.28
   3  -7  -3    1.64    1.72
   3   7   3   -1.14    1.27
   3   7  -4    0.11    1.68
  -3  -7  -4    2.22    1.44
   3   7   4    1.44    1.48
   3  -7  -4    1.59    1.96
   3   7  -5   -0.54    1.68
   3  -7  -5   -0.15    2.13
   3  -7  -5   -1.07    2.24
   3   7  -6    2.30    2.07
   3  -7  -6    1.58    2.34
   3   7  -7    0.46    2.11
   3  -7  -7   -3.64    2.35
   4  -7   0   18.18    2.18
   4   7   0   17.79    2.22
  -4  -7   0   18.88    2.12
   4  -7   1   45.13    3.04
   4   7  -1   41.58    3.44
  -4  -7  -1   43.21    3.07
   4   7   1   46.77    3.32
   4  -7  -1   44.55    3.58
  -4  -7   1   47.45    3.33
   4  -7   2   87.65    4.20
   4   7  -2   79.66    4.70
   4  -7   2   76.43    3.86
  -4  -7  -2   79.97    4.08
   4   7   2   77.70    4.35
   4  -7  -2   85.00    4.90
   4   7  -3   17.67    2.46
  -4  -7  -3   18.39    2.02
   4  -7  -3   17.98    2.74
   4   7   3   19.29    2.16
   4   7  -4   13.33    2.46
  -4  -7  -4    7.95    1.71
   4  -7  -4   13.48    2.65
   4   7   4    7.85    1.66
   4   7  -5    6.84    2.30
   4  -7  -5    6.18    2.49
   4   7  -6   17.61    2.82
   4  -7  -6   14.80    3.11
   4   7  -7   -0.88    2.29
   4  -7  -7    0.64    2.69
  -5  -7   0    1.69    1.41
   5  -7   0    1.67    1.59
   5   7   0    1.71    1.76
   5   7  -1   27.80    2.95
  -5  -7  -1   32.38    2.83
   5  -7   1   32.79    2.89
   5  -7  -1   34.61    3.18
  -5  -7   1   26.37    2.68
   5   7   1   37.50    3.34
   5  -7   2    1.82    1.34
  -5  -7  -2    1.26    1.51
   5   7  -2    3.87    1.93
   5   7   2    1.79    1.63
   5  -7  -2    1.82    1.86
   5  -7   3   17.41    1.85
  -5  -7  -3   19.83    2.18
   5   7  -3   20.77    2.80
   5  -7   3   18.85    1.90
   5  -7  -3   15.91    2.81
   5   7   3   16.73    2.22
   5   7  -4    2.47    2.03
   5  -7  -4   -0.54    1.99
   5   7   4    0.10    1.28
   5   7  -5   11.64    2.79
   5  -7  -5   11.46    2.90
   5   7  -6    1.47    2.49
   5  -7  -6   -1.46    2.38
  -6  -7   0   46.72    3.82
   6   7   0   59.85    4.22
   6  -7   0   49.58    3.82
   6   7  -1    4.62    2.09
  -6  -7  -1    4.69    1.89
   6  -7  -1    4.88    1.98
   6   7   1    6.13    2.04
   6  -7   2   32.98    2.81
  -6  -7  -2   30.58    2.93
   6   7  -2   28.53    3.34
   6  -7  -2   31.98    3.41
   6   7   2   28.64    2.85
  -6  -7  -3   -0.54    1.30
   6  -7   3    3.64    1.51
   6   7  -3    1.77    2.11
   6  -7  -3    5.83    2.46
   6   7   3    1.07    1.54
   6   7  -4   25.08    3.34
   6  -7  -4   28.26    3.62
   6   7  -5    2.47    2.49
   6  -7  -5    4.11    2.66
   6   7  -6    6.14    2.81
   6  -7  -6    5.52    3.08
   7   7   0    1.04    2.05
   7  -7   0    4.12    2.10
   7  -7   1   -0.41    1.76
  -7  -7  -1    1.02    1.90
   7   7  -1   -2.38    2.09
   7   7   1   -0.76    1.88
   7  -7  -1    1.36    2.00
   7   7  -2    2.31    2.23
   7  -7   2    0.66    1.68
  -7  -7  -2   -0.69    1.75
   7  -7  -2    2.50    2.16
   7   7   2    1.23    1.79
   7   7  -3    3.67    2.38
   7   7   3   -0.61    1.59
   7  -7  -3    5.66    2.40
   7   7  -4    0.63    2.25
   7  -7  -4    4.11    2.48
   7   7  -5   -2.92    2.46
   7  -7  -5    3.66    2.92
   8  -7   0    1.51    2.10
   8   7   0    4.50    2.42
   8   7  -1    6.32    2.60
   8  -7   1    7.43    2.28
   8  -7  -1    5.01    2.35
   8   7   1    4.00    2.28
   8   7  -2   37.90    4.16
   8  -7  -2   41.38    4.34
   8   7  -3    4.35    2.52
   8  -7  -3    2.31    2.45
   8   7  -4    3.65    2.63
   8  -7  -4    0.69    2.68
   9  -7   0   23.32    3.44
   9   7   0   18.32    3.38
   9   7  -1   11.40    3.12
   9  -7   1    6.35    2.49
   9   7   1    4.36    2.42
   9  -7  -1    6.05    2.68
   9   7  -2    7.41    2.90
   9  -7  -2    4.33    2.79
   9   7  -3    3.60    2.82
   9  -7  -3    8.58    3.10
   9  -7  -4    7.45    3.15
  10  -7   0   54.81    5.17
  10   7  -1    6.19    3.13
  10  -7  -1    3.12    2.78
  10   7   1    2.95    2.61
  10   7  -2    0.96    3.01
  10  -7  -2   10.58    3.16
  10  -7  -3    5.01    3.01
  11   7   0    3.14    2.98
  11   7  -1   11.64    3.64
  11  -7  -1    5.39    3.17
  11  -7  -2    4.55    3.35
   0  -8   1  127.55    5.37
   0   8  -1  129.24    5.48
   0   8   1  133.26    5.95
   0  -8  -2   31.89    2.73
   0  -8   2   41.07    2.52
   0   8  -2   40.59    2.54
   0   8   2   45.69    3.50
   0   8  -3   62.16    3.00
   0  -8   3   52.00    2.85
   0  -8  -3   57.85    3.49
   0  -8  -4   37.10    3.01
   0   8  -4   34.94    2.28
   0  -8  -5   15.86    2.15
   0  -8  -5   10.07    2.37
   0  -8  -6   16.80    2.70
   0  -8  -7    7.93    2.55
  -1   8   0  205.68    8.04
   1   8   0  221.69    7.84
  -1  -8   0  159.78    7.46
   1  -8   1   20.26    1.80
  -1   8   1   15.81    2.43
   1   8  -1   20.61    2.00
  -1   8  -1   20.70    2.14
   1  -8  -1   18.96    2.10
   1   8   1   16.90    2.03
  -1  -8  -2  277.91   10.52
   1   8  -2  276.57   10.29
   1  -8   2  282.99   10.03
  -1   8  -2  277.91   10.24
  -1  -8   2  274.99   10.21
   1   8   2  275.51   10.74
  -1  -8  -3    5.65    1.46
   1  -8   3    8.57    1.01
   1   8  -3    7.04    1.43
  -1   8  -3    6.65    1.26
   1   8   3    9.55    1.99
  -1  -8   3    7.49    1.23
   1  -8  -3    1.56    1.38
   1   8  -4  121.15    5.18
  -1  -8  -4  122.14    5.50
  -1  -8   4  112.58    5.00
   1  -8  -4  124.14    6.20
   1   8  -5    0.29    1.34
  -1  -8  -5    0.07    1.49
   1  -8  -5    0.35    1.47
   1  -8  -5    0.00    1.84
  -1  -8  -6   55.19    4.19
   1  -8  -6   54.70    4.47
  -1  -8  -7    3.67    2.16
   1  -8  -7    0.69    2.11
   2   8   0  147.00    6.35
  -2  -8   0  148.61    6.23
   2   8  -1    4.90    1.45
   2  -8   1    7.09    1.39
  -2  -8  -1    1.29    1.00
   2  -8  -1    6.02    1.75
  -2  -8   1    5.32    1.29
   2   8   1    2.92    1.57
  -2  -8  -2    1.26    1.16
   2   8  -2    4.65    1.48
   2  -8   2    2.77    0.94
   2   8   2    2.28    1.48
  -2  -8   2    1.73    1.12
   2  -8  -2    3.04    1.77
  -2  -8  -3    8.98    1.56
   2   8  -3   10.16    1.74
   2  -8  -3   10.01    2.13
  -2  -8   3    7.52    1.38
   2  -8  -3    8.64    2.08
   2   8   3   11.07    1.96
  -2  -8  -4   74.72    3.98
   2   8  -4   74.79    4.15
   2   8   4   81.58    4.65
   2  -8  -4   68.56    4.82
   2  -8  -4   77.82    4.92
   2   8  -5   -0.25    1.57
   2  -8  -5   -0.56    1.97
   2  -8  -5    3.95    2.17
   2   8  -6    0.38    1.66
  -2  -8  -6    2.24    1.89
   2  -8  -6   -0.10    2.18
   2  -8  -7    1.69    2.35
   3   8   0   13.41    2.01
   3  -8   0   15.97    2.02
  -3  -8   0   16.34    1.93
   3  -8   1    2.32    1.39
  -3  -8  -1   -1.50    1.15
   3  -8   1    1.66    1.22
   3   8  -1    1.45    1.47
   3  -8  -1    1.02    1.51
  -3  -8   1    2.75    1.27
   3   8   1    2.32    1.50
   3  -8   2  120.15    4.97
   3   8  -2  116.16    5.49
   3  -8   2  115.91    4.95
   3  -8  -2  118.95    5.99
   3   8   2  115.51    5.44
   3   8  -3    7.95    1.93
  -3  -8  -3   10.47    1.63
   3  -8  -3    7.67    2.12
   3  -8  -3    3.73    2.14
   3   8   3    7.37    1.80
   3   8  -4   18.74    2.45
  -3  -8  -4   17.42    2.04
   3  -8  -4   17.06    2.81
   3   8   4   18.31    2.41
   3   8  -5   -0.05    1.73
   3  -8  -5    2.90    2.34
   3  -8  -5   -1.79    1.99
   3   8  -6   36.20    3.36
   3  -8  -6   35.44    3.93
   3   8  -7    2.36    2.13
   3  -8  -7    0.58    2.57
   4   8   0   40.10    3.33
  -4  -8   0   29.16    2.67
   4  -8   0   34.56    3.10
  -4  -8  -1    3.20    1.48
   4  -8   1    3.00    1.40
   4   8  -1    3.37    1.71
   4   8   1    3.09    1.66
  -4  -8   1    4.39    1.50
   4  -8  -1    4.62    1.74
   4  -8   2  161.91    6.61
   4   8  -2  160.48    7.24
   4  -8   2  166.92    6.79
   4   8   2  162.45    7.09
   4  -8  -2  163.88    7.58
   4  -8   3    0.76    0.92
  -4  -8  -3   -0.54    1.39
   4   8  -3    2.00    1.77
   4   8   3    0.58    1.40
   4  -8  -3    0.78    1.81
   4   8  -4   14.66    2.56
  -4  -8  -4   11.00    1.93
   4   8   4   15.55    2.16
   4  -8  -4   14.73    2.77
   4   8  -5   -0.84    1.87
   4  -8  -5   -1.18    2.15
   4   8  -6   28.92    3.45
   4  -8  -6   36.76    4.11
   4   8  -7   -0.28    2.42
  -5  -8   0  232.85    9.59
   5  -8   0  232.90    9.57
   5   8   0  244.97    9.81
  -5  -8  -1   15.79    2.21
   5  -8   1   16.62    2.17
   5   8  -1   12.59    2.38
   5  -8  -1   16.62    2.51
   5   8   1   17.10    2.38
  -5  -8  -2   64.02    3.82
   5   8  -2   60.95    4.45
   5  -8   2   57.37    3.52
   5  -8  -2   60.69    4.48
   5   8   2   59.67    4.08
   5  -8   3   20.88    1.98
   5   8  -3   17.25    2.77
   5   8   3   19.74    2.42
   5  -8  -3   14.91    2.80
   5   8  -4   94.68    6.04
   5   8   4  115.46    5.25
   5  -8  -4   99.08    6.21
   5   8  -5    1.27    2.10
   5  -8  -5    3.53    2.45
   5   8  -6   18.31    3.19
   5  -8  -6   22.88    3.53
   6  -8   0    6.76    2.02
   6   8   0    5.15    2.15
   6  -8   1   12.83    2.20
  -6  -8  -1   17.67    2.49
   6   8  -1   18.06    2.76
   6  -8  -1   14.32    2.53
   6   8   1   13.78    2.46
  -6  -8  -2   10.85    2.09
   6  -8   2   11.22    2.02
   6   8  -2   12.93    2.68
   6  -8  -2   12.66    2.60
   6   8   2   13.07    2.31
  -6  -8  -3    1.55    1.76
   6   8  -3    2.58    2.17
   6  -8   3    2.43    1.54
   6   8   3   -0.30    1.54
   6  -8  -3    3.44    2.26
   6   8  -4    6.68    2.50
   6  -8  -4   10.06    2.88
   6   8  -5    3.79    2.53
   6  -8  -5    1.87    2.51
   6   8  -6    5.81    2.94
   7   8   0   20.01    2.99
   7  -8   1   -2.23    1.60
   7   8  -1   -0.35    2.11
   7  -8  -1    1.20    1.96
   7   8   1   -0.58    2.10
   7  -8   2   80.09    4.81
  -7  -8  -2   85.35    4.99
   7   8  -2   75.16    5.55
   7   8   2   87.12    5.18
   7  -8  -2   86.36    5.53
   7   8  -3    1.37    2.32
   7  -8  -3    0.41    2.20
   7   8   3   -0.22    1.67
   7   8  -4   11.94    2.88
   7  -8  -4   15.41    3.09
   7   8  -5    0.71    2.71
   7  -8  -5   -0.03    2.72
   8  -8   0   12.97    2.76
   8   8   0   13.45    2.84
   8   8  -1    1.09    2.32
   8  -8   1   -0.20    1.98
   8  -8  -1   -0.23    1.95
   8   8   1    0.18    2.16
   8   8  -2    1.07    2.44
   8  -8  -2    1.95    2.34
   8   8   2   -1.44    1.90
   8   8  -3   -3.04    2.24
   8  -8  -3   -4.82    2.01
   8   8  -4    9.12    3.19
   8  -8  -4   15.97    3.40
   9   8   0   63.87    5.45
   9  -8   0   58.50    4.88
   9  -8   1    2.21    2.32
   9   8  -1    3.43    2.57
   9  -8  -1   -0.01    2.24
   9   8   1    2.44    2.38
   9   8  -2   32.37    4.28
   9  -8  -2   43.77    4.74
   9   8  -3    2.11    2.74
   9  -8  -3    1.83    2.63
  10  -8   0    0.94    2.55
  10   8   0    3.05    2.98
  10   8  -1    2.01    2.80
  10   8   1    0.60    2.68
  10  -8  -1    3.26    2.74
  10   8  -2   44.30    5.19
  10  -8  -2   58.58    5.69
  10  -8  -3    1.50    2.91
  11   8   0   -2.03    2.82
  11   8  -1    2.07    3.19
  11  -8  -1    4.97    3.19
  11  -8  -2    4.84    3.47
   0   9   0    0.35    1.38
   0  -9   0   -0.56    1.09
   0   9   1   -0.95    1.58
   0  -9   1   -0.13    0.97
   0   9  -1    0.88    1.20
   0  -9  -1   -1.46    1.21
   0   9   2    0.08    1.75
   0  -9  -2   -0.42    1.17
   0   9  -2    0.37    1.13
   0  -9   2   -0.05    0.92
   0   9  -3   -0.45    1.09
   0  -9  -3   -0.42    1.16
   0  -9   3   -0.10    0.88
   0   9  -4   -0.54    1.03
   0  -9  -4   -0.67    1.17
   0  -9   4   -0.97    0.86
   0  -9  -5    0.11    1.34
   0  -9  -5    0.26    1.79
   0  -9  -6    0.11    1.94
   0  -9  -7   -0.90    2.14
  -1  -9   0  237.37    9.13
   1  -9   0  242.41    9.15
  -1   9   0  230.82    9.45
   1   9   0  232.98    9.22
  -1   9   1    0.75    1.85
  -1  -9  -1    0.73    1.18
   1  -9   1    1.62    1.09
   1   9  -1    1.12    1.32
   1   9   1    2.28    1.53
   1  -9  -1    2.12    1.45
  -1  -9   1   -0.12    0.39
  -1   9  -1    3.07    1.47
   1   9  -2   11.64    1.68
   1  -9   2   15.68    1.53
   1  -9  -2   17.02    2.18
  -1   9  -2   11.50    1.71
  -1  -9   2   12.05    1.55
   1   9   2   11.25    2.08
   1   9  -3    5.31    1.44
   1  -9   3    2.00    0.93
  -1  -9  -3   -0.39    1.12
  -1   9  -3    3.22    1.22
  -1  -9   3    4.04    1.12
   1   9   3    4.95    1.99
   1  -9  -3    4.79    1.74
   1   9  -4   57.77    3.47
  -1  -9  -4   66.21    3.86
   1  -9  -4   66.25    4.21
   1   9  -5    1.42    1.38
   1  -9  -5    2.42    2.01
   1  -9  -5    1.19    1.78
  -1  -9  -6    7.87    2.28
   1  -9  -6    4.31    2.47
  -1  -9  -7    1.70    2.17
   1  -9  -7    0.37    2.39
   2   9   0   26.82    2.54
   2  -9   0   31.10    2.57
  -2  -9   0   34.69    2.85
   2   9  -1   44.58    3.20
  -2  -9  -1   38.53    3.05
   2  -9   1   47.17    2.85
  -2  -9   1   47.37    2.95
   2  -9  -1   40.97    3.39
   2   9   1   40.56    3.13
   2  -9   2   12.51    1.45
   2   9  -2   13.20    1.87
   2   9   2   10.78    1.89
   2  -9  -2    8.95    2.06
  -2  -9   2   13.30    1.69
  -2  -9  -3   22.17    2.22
   2   9  -3   20.78    2.19
   2  -9   3   21.12    1.85
   2  -9  -3   20.79    2.72
   2   9   3   20.27    2.48
   2  -9  -3   26.83    2.94
   2   9  -4    2.40    1.55
  -2  -9  -4    3.30    1.52
   2  -9  -4    2.41    1.92
   2   9   4    2.92    1.84
   2  -9  -4    1.32    1.92
   2   9  -5    5.29    1.83
   2  -9  -5    6.09    2.42
   2   9  -6    2.08    1.75
   2  -9  -6    2.86    2.38
  -2  -9  -7    5.03    2.23
   2  -9  -7    0.66    2.49
   3   9   0   41.37    3.37
  -3  -9   0   37.42    3.11
  -3  -9  -1   37.80    2.96
   3   9  -1   34.01    3.16
   3  -9   1   35.37    2.90
   3  -9  -1   30.97    2.98
  -3  -9   1   33.87    2.98
   3  -9  -1   32.09    3.15
   3   9   1   39.14    3.31
   3  -9   2    7.10    1.37
   3   9  -2    5.77    1.76
  -3  -9  -2    6.58    1.53
   3  -9  -2    7.76    2.03
   3  -9  -2    5.67    2.15
   3   9   2    6.10    1.77
   3  -9   3   23.10    1.72
   3  -9   3   26.38    2.13
   3   9  -3   22.11    2.51
   3   9   3   22.88    2.48
   3  -9  -3   18.13    2.83
   3  -9  -3   19.45    2.85
   3   9  -4   22.77    2.74
  -3  -9  -4   27.86    2.55
   3  -9  -4   26.41    3.25
   3   9   4   26.61    2.87
   3   9  -5   -1.60    1.76
   3  -9  -5    1.76    2.23
   3   9  -6    1.34    1.95
   3  -9  -6    0.56    2.32
   3   9  -7    4.40    2.24
   3  -9  -7    4.35    2.71
  -4  -9   0   84.48    4.56
   4  -9   0   73.09    4.47
   4   9   0   82.40    4.58
  -4  -9  -1    7.87    1.74
   4  -9   1    8.55    1.73
   4  -9   1    6.56    1.89
   4   9  -1    5.71    1.92
   4  -9  -1    8.80    2.04
   4   9   1    6.15    1.88
  -4  -9   1    6.88    1.70
  -4  -9  -2    0.00    1.49
   4   9  -2    1.16    1.70
   4  -9   2    0.17    1.22
   4  -9   2    0.86    1.39
   4   9   2   -0.23    1.54
   4  -9  -2    1.28    1.79
   4   9  -3    5.91    2.13
   4  -9   3    8.46    1.45
   4  -9   3    8.56    1.31
   4  -9  -3    7.59    2.31
   4   9   3   10.95    2.02
  -4  -9  -4   33.62    2.74
   4   9  -4   25.40    3.11
   4   9   4   30.73    2.89
   4  -9  -4   30.88    3.65
   4   9  -5    4.97    2.27
   4  -9  -5    1.77    2.40
   4   9  -6   -0.78    2.12
   4  -9  -6    1.69    2.52
   4   9  -7    2.85    2.45
   5  -9   0   47.58    3.69
   5   9   0   52.38    4.04
  -5  -9   0   41.83    3.69
   5  -9   1   15.06    2.18
  -5  -9  -1   15.63    2.16
   5   9  -1   12.15    2.42
   5   9   1   17.47    2.52
   5  -9  -1   16.72    2.52
  -5  -9  -2  106.37    5.21
   5  -9   2   97.38    4.85
   5   9  -2   93.78    5.61
   5   9   2  103.89    5.41
   5  -9  -2  100.06    5.85
   5   9  -3    8.01    2.32
  -5  -9  -3    9.68    2.01
   5  -9   3   11.78    1.75
   5  -9  -3   10.30    2.61
   5   9   3    8.82    1.90
   5   9  -4   16.64    2.91
   5   9   4   22.83    2.53
   5  -9  -4   26.35    3.51
   5   9  -5    1.90    2.28
   5  -9  -5    5.83    2.58
   5   9  -6   27.44    3.66
   5  -9  -6   26.50    3.81
   6  -9   0    7.72    2.16
   6   9   0    6.41    2.31
   6   9  -1    5.78    2.31
  -6  -9  -1    6.57    2.03
   6  -9   1    8.23    1.94
   6   9   1    7.63    2.22
   6  -9  -1    5.87    2.29
  -6  -9  -2   16.11    2.54
   6  -9   2   22.15    2.51
   6   9  -2   19.68    2.98
   6   9   2   22.46    2.81
   6  -9  -2   20.74    3.10
   6   9  -3    4.93    2.39
  -6  -9  -3    5.55    2.09
   6   9   3    3.90    1.81
   6  -9  -3    2.88    2.16
   6   9  -4    2.05    2.32
   6  -9  -4    6.74    2.62
   6   9  -5    5.35    2.54
   6  -9  -5    1.25    2.56
   6   9  -6    6.40    2.87
   7  -9   0   57.86    4.41
   7   9   0   72.11    5.15
   7  -9   1   -0.57    1.70
   7   9  -1    0.94    2.32
   7   9   1   -1.63    1.95
   7  -9  -1   -1.09    1.90
   7  -9   2   49.20    3.91
  -7  -9  -2   54.21    4.28
   7   9  -2   53.58    4.78
   7  -9  -2   51.33    4.60
   7   9   2   55.93    4.54
   7   9  -3   -1.46    2.19
   7   9   3   -0.72    1.74
   7  -9  -3   -0.44    2.25
   7   9  -4   25.61    3.67
   7  -9  -4   30.73    4.15
   7   9  -5    2.93    2.67
   7  -9  -5    2.94    2.87
   8   9   0   26.99    3.61
   8  -9   0   35.24    3.74
   8   9  -1   22.18    3.49
   8  -9   1   26.49    3.26
   8  -9  -1   30.42    3.73
   8   9   1   21.45    3.35
   8   9  -2    0.12    2.30
   8  -9  -2    0.23    2.22
   8   9   2    0.18    1.96
   8   9  -3   12.57    3.13
   8  -9  -3   21.58    3.60
   8   9  -4   17.04    3.51
   8  -9  -4   14.89    3.55
   9   9   0   38.72    4.50
   9  -9   0   57.02    4.79
   9   9  -1    0.08    2.60
   9  -9  -1   11.06    2.80
   9   9   1    4.82    2.71
   9   9  -2    4.12    2.80
   9  -9  -2    1.45    2.55
   9   9  -3    4.83    2.98
   9  -9  -3    1.26    2.79
  10   9   0    0.48    2.84
  10   9  -1    5.86    3.02
  10   9   1    3.73    2.77
  10  -9  -1    7.25    3.00
  10   9  -2    6.66    3.12
  10  -9  -2    0.96    2.82
  10  -9  -3    4.08    3.31
  11   9   0   13.98    3.65
  11   9  -1    0.52    3.21
   0  10   0   67.51    3.98
   0 -10   0   70.32    3.92
   0  10   1    3.08    1.80
   0 -10   1    2.80    1.15
   0 -10  -1    3.99    1.47
   0  10  -1    2.50    1.37
   0  10  -2    2.73    1.30
   0 -10  -2    3.32    1.54
   0 -10   2    4.41    1.19
   0  10   2    5.75    2.10
   0 -10  -3   37.30    3.16
   0  10  -3   33.46    2.56
   0 -10   3   33.33    2.43
   0  10  -4   33.37    2.50
   0 -10  -4   29.28    2.93
   0 -10  -6    6.67    2.49
   0 -10  -7   24.46    3.35
   1 -10   0  191.28    7.80
  -1 -10   0  203.56    7.89
  -1  10   0  186.09    8.15
   1  10   0  189.75    7.95
  -1  10   1    2.20    1.96
  -1 -10  -1    0.38    1.26
   1  10  -1   -0.23    1.25
   1 -10   1   -0.32    1.03
  -1 -10   1   -0.07    0.44
   1  10   1    1.03    1.48
  -1  10  -1    1.02    1.44
   1 -10  -1    0.17    1.39
   1  10  -2  120.22    5.46
  -1 -10  -2  114.53    5.61
   1 -10   2  119.27    5.13
  -1 -10   2  118.13    5.28
   1  10   2  120.43    5.97
   1 -10  -2  121.02    5.74
  -1  10  -2  123.32    5.43
  -1 -10  -3    3.56    1.63
   1 -10   3    1.83    0.96
   1  10  -3    2.44    1.37
   1  10   3    1.15    1.92
   1 -10  -3    2.19    1.65
  -1  10  -3    1.72    1.31
   1  10  -4  121.14    5.41
   1 -10  -4  119.44    6.05
   1  10  -5    2.83    1.50
   1 -10  -5    4.10    2.09
  -1 -10  -6   38.78    3.72
   1 -10  -6   32.17    3.73
  -1 -10  -7   -0.18    2.22
   1 -10  -7    3.29    2.54
  -2 -10   0   32.07    2.93
   2  10   0   29.44    2.78
   2 -10   0   27.92    2.48
   2 -10   1   82.35    4.14
  -2 -10  -1   87.42    4.43
   2  10  -1   80.94    4.52
   2  10   1   86.24    4.59
  -2 -10   1   82.46    4.20
   2 -10  -1   79.74    4.67
   2 -10   2   62.93    3.29
   2  10  -2   59.30    3.86
  -2 -10  -2   67.38    3.95
  -2 -10   2   63.52    3.72
   2 -10  -2   68.60    4.44
   2  10   2   64.84    4.04
  -2 -10  -3   89.06    4.61
   2 -10   3   82.04    3.83
   2  10  -3   91.02    4.66
   2  10   3   87.10    4.96
   2 -10  -3   93.36    5.30
  -2 -10  -4    1.31    1.29
   2  10  -4    8.51    1.88
   2  10   4    6.21    2.08
   2 -10  -4    9.07    2.36
   2 -10  -4    7.96    2.26
   2  10  -5   22.35    2.54
   2 -10  -5   25.24    3.28
   2  10  -6   14.12    2.29
   2 -10  -6   16.11    2.99
  -2 -10  -7   24.88    3.18
   2 -10  -7   22.93    3.54
  -3 -10   0   25.24    2.45
   3  10   0   27.94    2.74
  -3 -10  -1    8.13    1.66
   3  10  -1    8.30    1.90
   3 -10   1    7.89    1.78
   3 -10  -1    7.74    2.02
   3  10   1    6.99    1.93
  -3 -10   1    6.14    1.58
   3 -10   2  205.59    7.96
  -3 -10  -2  212.16    8.38
   3  10  -2  202.67    8.48
   3  10   2  192.45    8.50
   3 -10  -2  201.78    9.14
   3 -10  -2  208.58    8.96
   3 -10   3    5.80    1.29
   3 -10   3    6.15    1.18
   3  10  -3    4.36    1.85
  -3 -10  -3    4.31    1.70
   3 -10  -3    3.68    2.06
   3 -10  -3    3.75    2.26
   3  10   3    2.79    1.64
   3  10  -4   16.61    2.41
   3 -10  -4   11.49    2.54
   3 -10  -4    9.13    2.64
   3  10   4   16.64    2.52
   3  10  -5    4.02    2.02
   3 -10  -5    1.11    2.30
   3  10  -6   67.70    4.71
   3 -10  -6   67.72    5.42
  -3 -10  -7    2.95    2.25
   3  10  -7    2.38    2.28
   4  10   0  314.79   12.03
   4 -10   0  293.94   11.84
  -4 -10   0  305.71   11.85
  -4 -10  -1  229.51    9.10
   4 -10   1  207.79    8.77
   4  10  -1  214.16    9.22
   4  10   1  221.64    9.23
   4 -10  -1  225.17    9.37
   4 -10   2   83.33    4.23
   4  10  -2   81.32    4.88
  -4 -10  -2   83.00    4.56
   4  10   2   81.51    5.01
   4 -10  -2   75.34    5.08
   4  10  -3  141.82    6.81
   4 -10   3  131.98    5.73
  -4 -10  -3  143.64    6.32
   4  10   3  139.29    6.51
   4 -10  -3  127.69    7.06
   4  10  -4   88.55    5.50
   4 -10  -4   86.88    5.89
   4  10   4   97.97    5.09
   4  10  -5   52.60    4.46
   4 -10  -5   57.45    5.02
   4  10  -6   16.45    2.84
   4 -10  -6   18.41    3.33
   4  10  -7   25.01    3.44
   5  10   0  264.67   10.61
   5 -10   0  244.94   10.33
   5 -10   1    7.40    1.89
  -5 -10  -1    9.96    2.06
   5  10  -1    9.78    2.37
   5  10   1   10.95    2.32
   5 -10  -1   10.05    2.34
   5 -10   2   13.14    1.97
   5  10  -2    8.63    2.37
  -5 -10  -2    8.19    2.02
   5  10   2    8.03    2.11
   5 -10  -2   11.97    2.58
   5 -10   3    9.83    1.68
   5  10  -3    6.16    2.33
  -5 -10  -3    7.69    2.05
   5  10   3    6.25    1.88
   5 -10  -3    6.43    2.58
   5  10  -4   97.69    6.27
   5  10   4  112.66    5.53
   5 -10  -4  109.63    6.63
   5  10  -5    3.11    2.42
   5 -10  -5   -0.67    2.33
   5  10  -6   -0.41    2.42
   5 -10  -6    6.70    2.97
   6 -10   0    3.91    1.97
   6  10   0    4.18    2.25
   6 -10   1   25.12    2.81
   6  10  -1   19.76    3.03
   6  10   1   22.52    3.00
   6 -10  -1   26.17    3.11
  -6 -10  -2   -0.63    1.87
   6 -10   2   -0.54    1.51
   6  10  -2   -0.54    2.03
   6  10   2    0.52    1.91
   6 -10  -2   -1.11    2.01
   6  10  -3   16.09    2.97
   6  10   3   10.82    2.20
   6 -10  -3   16.26    3.04
   6  10  -4    3.12    2.41
   6 -10  -4    3.16    2.50
   6  10  -5   -1.04    2.41
   6 -10  -5    5.70    2.91
   7  10   0   -1.09    2.16
   7 -10   0   -2.02    1.83
   7 -10   1   26.29    3.05
   7  10  -1   22.26    3.33
   7  10   1   20.01    3.06
   7 -10  -1   28.35    3.41
   7 -10   2   75.96    4.73
   7  10  -2   77.49    5.63
   7  10   2   85.46    5.41
   7 -10  -2   76.17    5.44
   7  10  -3   19.18    3.28
   7 -10  -3   27.18    3.69
   7  10   3   13.08    2.39
   7  10  -4    2.54    2.48
   7 -10  -4    0.77    2.59
   7  10  -5    7.45    3.01
   7 -10  -5    9.31    3.27
   8  10   0    2.92    2.56
   8 -10   0    3.15    2.24
   8 -10   1    2.07    2.06
   8  10  -1    2.73    2.52
   8 -10  -1    5.14    2.39
   8  10   1    2.11    2.34
   8  10  -2    5.52    2.77
   8  10   2    3.23    2.14
   8 -10  -2    3.08    2.60
   8  10  -3    4.10    2.64
   8 -10  -3    4.58    2.84
   8  10  -4   -0.71    2.52
   8 -10  -4    5.11    3.00
   9 -10   0   45.99    4.54
   9  10   0   32.73    4.26
   9  10  -1    8.82    3.15
   9  10   1    7.47    2.92
   9 -10  -1    9.54    2.89
   9  10  -2    0.12    2.62
   9 -10  -2    1.57    2.53
   9  10  -3    6.44    3.14
   9 -10  -3    6.64    3.08
  10  10   0    6.07    3.29
  10  10  -1   -2.08    2.85
  10  10   1   -2.19    2.77
  10 -10  -1    4.57    2.84
  10  10  -2   -0.15    2.86
  10 -10  -2    4.13    3.14
  11  10   0    2.51    3.27
  11  10  -1    1.14    3.27
   0 -11   0   -0.88    1.09
   0  11   0    0.92    1.56
   0  11   1   -0.51    1.75
   0 -11  -1   -0.24    1.29
   0  11  -1   -0.89    1.27
   0 -11   1   -1.25    0.89
   0 -11   2    0.56    1.08
   0 -11  -2    0.17    1.49
   0  11   2   -2.39    1.87
   0  11  -2    0.45    1.27
   0  11  -3   -1.46    1.22
   0 -11  -3   -0.74    1.54
   0 -11  -4    0.70    1.69
   0  11  -4    0.00    1.19
   0 -11  -6   -2.93    2.05
   0 -11  -7    0.50    2.39
  -1  11   0    2.00    1.72
   1  11   0    1.47    1.50
  -1 -11   0   -0.71    1.19
   1 -11   0    1.13    1.27
   1  11  -1   -0.11    1.35
   1 -11   1    1.15    1.16
  -1 -11  -1    0.01    1.27
  -1  11   1    1.48    1.99
   1 -11  -1   -0.81    1.42
  -1  11  -1    0.07    1.50
  -1 -11   1   -0.19    0.49
   1  11   1    1.70    1.64
  -1 -11  -2  143.07    6.60
   1 -11   2  146.86    6.12
   1  11  -2  148.74    6.49
  -1  11  -2  142.84    6.37
  -1 -11   2  145.49    6.26
   1 -11  -2  152.18    6.77
   1  11   2  146.28    7.01
  -1 -11  -3    1.03    1.64
   1 -11   3    1.31    1.02
   1  11  -3    1.46    1.44
   1  11   3    0.55    1.95
  -1  11  -3   -0.16    1.28
   1 -11  -3    1.00    1.64
   1  11  -4   -1.75    1.39
  -1 -11  -4    1.07    1.70
   1 -11  -4    1.38    1.81
  -1  11  -4    2.47    1.30
   1  11  -5   -1.67    1.47
   1 -11  -5    0.52    2.00
   1 -11  -6   37.56    4.01
  -1 -11  -7    0.67    2.36
   1 -11  -7    2.68    2.54
   2 -11   0   51.04    3.28
  -2 -11   0   54.25    3.63
   2  11   0   52.31    3.94
   2  11  -1    6.02    1.75
   2 -11   1    5.45    1.49
  -2 -11  -1    7.20    1.68
   2 -11  -1    8.10    1.91
   2  11   1    5.68    1.93
  -2 -11   1    6.27    1.46
  -2  11  -1    5.85    1.94
   2 -11   2   31.00    2.73
  -2 -11  -2   32.23    2.83
   2  11  -2   31.80    2.78
   2 -11  -2   34.62    3.24
   2  11   2   31.69    3.01
  -2  11  -2   28.88    2.80
  -2 -11  -3   -3.30    1.39
   2  11  -3   -0.77    1.49
   2 -11   3   -0.44    0.93
   2  11   3    1.06    1.92
   2 -11  -3   -0.57    1.74
  -2 -11  -4   12.59    2.09
   2  11  -4   10.64    2.07
   2 -11  -4   10.24    2.54
   2 -11  -4   16.38    2.81
   2  11   4   15.52    2.73
   2  11  -5   -1.66    1.65
   2 -11  -5    1.27    2.29
   2  11  -6    2.13    1.90
   2 -11  -6    3.13    2.53
  -2 -11  -7   -2.25    2.24
   2 -11  -7    1.67    2.57
   3  11   0  104.34    5.52
  -3 -11   0  105.93    5.35
   3  11  -1    5.46    1.84
  -3 -11  -1    4.25    1.65
   3  11   1    7.71    2.12
   3 -11  -1    3.11    1.90
  -3 -11  -2    0.87    1.47
   3  11  -2   -1.69    1.49
   3 -11  -2   -0.04    1.74
   3  11   2    1.16    1.73
   3  11  -3    2.76    1.76
  -3 -11  -3    2.22    1.69
   3 -11  -3    1.86    1.93
   3  11   3    1.02    1.67
  -3 -11  -4   42.88    3.48
   3  11  -4   48.41    3.99
   3  11   4   51.36    4.08
   3 -11  -4   41.06    4.13
   3  11  -5    2.42    1.97
   3 -11  -5    2.60    2.45
   3  11  -6    1.16    2.09
   3 -11  -6   -1.39    2.45
  -3 -11  -7    2.20    2.37
   3  11  -7    3.82    2.36
   4 -11   0    1.00    1.57
   4  11   0    1.21    1.86
   4  11  -1    2.83    1.90
   4 -11   1    3.46    1.65
  -4 -11  -1    5.72    1.79
   4  11   1    4.17    1.94
   4 -11  -1    4.39    1.93
  -4 -11  -2   29.87    2.88
   4 -11   2   34.94    2.97
   4  11  -2   29.43    3.09
   4 -11  -2   30.31    3.51
   4  11   2   30.50    3.04
   4  11  -3    2.28    1.95
   4 -11   3    5.54    1.43
  -4 -11  -3    4.62    1.83
   4 -11  -3    3.43    2.15
   4  11   3    2.62    1.79
   4  11  -4    0.13    1.91
   4 -11  -4    0.29    2.25
   4  11   4    2.24    1.87
   4  11  -5    4.17    2.24
   4 -11  -5    1.85    2.58
   4  11  -6    3.34    2.33
   4 -11  -6    6.23    2.87
   4  11  -7    2.55    2.58
   5  11   0    1.66    1.99
   5 -11   0   -0.76    1.73
  -5 -11  -1   25.91    2.90
   5 -11   1   27.51    2.82
   5  11  -1   25.17    3.11
   5 -11  -1   27.72    3.17
   5  11   1   21.70    2.93
   5 -11   2    5.70    1.61
   5  11  -2    5.74    2.21
  -5 -11  -2    2.85    1.91
   5 -11  -2    1.31    2.18
   5  11   2    3.19    2.02
   5  11  -3   12.35    2.63
   5 -11   3   16.92    2.04
  -5 -11  -3   13.02    2.30
   5  11   3   13.44    2.34
   5 -11  -3   16.54    2.99
   5  11  -4    1.75    2.11
   5 -11  -4   -1.15    2.28
   5  11  -5    7.94    2.61
   5 -11  -5    8.01    2.63
   5  11  -6    0.37    2.42
   6  11   0    1.20    2.13
   6 -11   0    4.79    2.12
   6 -11   1    4.63    1.96
   6  11  -1    7.68    2.47
   6 -11  -1    4.99    2.31
   6  11   1    8.65    2.43
   6 -11   2    2.40    1.72
   6  11  -2   -0.77    2.03
  -6 -11  -2    1.67    2.02
   6  11   2    3.64    2.09
   6 -11  -2    1.43    2.16
   6  11  -3    1.75    2.21
   6  11   3   -2.09    1.85
   6 -11  -3    6.13    2.61
   6  11  -4    4.83    2.55
   6 -11  -4    1.83    2.45
   6  11  -5   -1.49    2.36
   6 -11  -5    0.42    2.61
   7  11   0    8.60    2.60
   7 -11   0    7.15    2.39
   7  11  -1    5.41    2.53
   7 -11   1    3.61    1.99
   7  11   1   -2.60    2.14
   7 -11  -1    4.17    2.28
   7  11  -2   25.41    3.65
   7 -11  -2   29.85    3.79
   7  11   2   18.23    3.00
   7  11  -3    2.25    2.50
   7  11   3    2.71    2.12
   7 -11  -3    2.82    2.47
   7  11  -4    0.24    2.44
   7 -11  -4    2.54    2.61
   8 -11   0   15.03    2.80
   8  11   0   12.35    3.04
   8 -11   1   39.34    3.78
   8  11  -1   30.00    4.03
   8 -11  -1   38.18    4.18
   8  11   1   29.98    3.71
   8  11  -2   16.45    3.37
   8 -11  -2   17.26    3.32
   8  11   2   13.84    2.90
   8  11  -3   12.32    3.33
   8 -11  -3   17.04    3.55
   8  11  -4    2.41    2.80
   8 -11  -4   11.40    3.26
   9  11   0   34.20    4.39
   9 -11   0   36.60    4.16
   9  11  -1   -0.37    2.76
   9  11   1   -1.43    2.48
   9 -11  -1    0.61    2.44
   9  11  -2    3.89    2.87
   9 -11  -2   -0.89    2.56
   9  11  -3   -0.53    2.91
   9 -11  -3    2.03    2.57
  10  11   0    4.34    3.17
  10  11  -1    4.65    3.24
  10 -11  -1   12.08    3.20
  10  11   1    6.57    3.16
  10  11  -2    2.19    3.22
  10 -11  -2    1.65    3.00
  11  11   0    1.60    3.28
   0  12   0   11.01    2.10
   0 -12   0   10.97    1.86
   0  12   1   63.50    4.47
   0  12  -1   64.28    3.90
   0 -12  -1   63.44    4.04
   0 -12   1   67.57    3.64
   0 -12  -2  165.74    7.16
   0  12   2  149.57    7.55
   0  12  -2  144.63    6.54
   0  12   3   40.99    4.07
   0  12  -3   43.51    3.06
   0 -12  -3   43.91    3.67
   0  12  -4    0.39    1.28
   0 -12  -4    2.55    1.85
   0  12  -5    9.48    1.56
   0 -12  -6   24.36    3.42
   0 -12  -7    4.88    2.71
   1 -12   0   25.66    2.53
  -1  12   0   26.99    2.98
  -1 -12   0   27.19    2.57
   1  12   0   19.59    2.50
   1  12  -1  232.00    9.23
  -1  12   1  226.57   10.01
  -1 -12  -1  232.34    9.29
   1 -12   1  223.20    9.01
   1 -12  -1  222.93    9.34
   1  12   1  224.85    9.47
  -1  12  -1  220.18    9.35
   1  12  -2    5.36    1.58
  -1 -12  -2    0.75    1.46
  -1  12  -2    2.71    1.57
   1 -12  -2    0.63    1.66
   1  12   2    2.80    2.06
  -1 -12  -3  133.10    6.45
   1  12  -3  124.50    5.87
  -1  12  -3  132.93    5.93
   1 -12  -3  134.57    6.53
   1  12   3  130.53    6.87
  -1 -12  -4   12.41    2.28
   1  12  -4    8.08    1.73
  -1  12  -4    7.96    1.66
   1 -12  -4    3.38    2.04
   1 -12  -5   56.37    4.81
   1 -12  -6    2.31    2.34
  -1 -12  -7   30.03    3.85
   1 -12  -7   35.17    4.12
  -2 -12   0   47.07    3.62
   2 -12   0   46.37    3.21
   2  12   0   43.60    3.54
   2  12  -1   18.09    2.39
  -2 -12  -1   20.97    2.40
  -2  12  -1   17.98    2.71
   2  12   1   19.89    2.61
   2 -12  -1   15.94    2.39
  -2 -12  -2   26.84    2.72
   2  12  -2   23.45    2.56
   2  12   2   22.31    2.82
   2 -12  -2   24.63    2.87
  -2  12  -2   20.65    2.55
   2  12  -3   -0.76    1.51
  -2 -12  -3    2.06    1.69
   2  12   3    2.05    2.01
   2 -12  -3    0.47    1.89
  -2 -12  -4   16.01    2.34
   2  12  -4   12.00    2.12
   2 -12  -4   10.85    2.61
   2  12   4   12.57    2.75
   2  12  -5    7.96    2.01
   2 -12  -5    9.32    2.70
   2  12  -6    1.77    1.93
   2 -12  -6    1.33    2.43
  -2 -12  -7   -0.01    2.40
   3  12   0    4.70    1.94
   3  12  -1   71.70    4.68
  -3 -12  -1   77.20    4.60
   3  12   1   75.46    4.63
  -3 -12  -2   79.86    4.73
   3  12  -2   82.61    4.94
   3  12   2   79.05    4.93
  -3 -12  -3   59.80    4.00
   3  12  -3   52.54    4.18
   3 -12  -3   52.51    4.65
   3  12   3   58.41    4.19
   3  12  -4    2.45    1.90
  -3 -12  -4    0.69    1.76
   3  12   4    1.66    2.01
   3 -12  -4   -0.21    2.01
   3  12  -5   31.50    3.19
   3 -12  -5   33.45    3.83
   3  12  -6   12.83    2.63
   3 -12  -6   19.43    3.37
   3  12  -7   10.12    2.57
   4  12   0    9.33    2.29
   4 -12   0   11.03    2.21
   4 -12   1    5.12    1.73
  -4 -12  -1    4.82    1.83
   4  12  -1    6.43    2.15
   4  12   1    2.43    2.05
   4 -12  -1    3.33    1.91
   4  12  -2   -1.03    1.66
  -4 -12  -2   -1.14    1.72
   4 -12   2   -0.68    1.38
   4 -12  -2   -1.69    1.82
   4  12   2   -1.43    1.82
   4  12  -3    2.45    1.94
  -4 -12  -3    2.98    1.90
   4 -12   3    0.51    1.32
   4  12   3   -1.66    1.70
   4 -12  -3    0.58    2.07
   4  12  -4    2.20    2.09
   4  12   4    2.21    1.95
   4 -12  -4    4.27    2.39
   4  12  -5    2.46    2.11
   4 -12  -5    1.29    2.47
   4  12  -6    1.21    2.29
   4 -12  -6    5.72    2.86
   5 -12   0   43.68    3.79
   5  12   0   35.99    3.62
   5  12  -1   55.56    4.51
   5 -12   1   48.85    3.80
   5  12   1   57.18    4.61
   5 -12  -1   50.52    4.35
  -5 -12  -2    4.03    2.03
   5 -12   2    3.88    1.77
   5  12  -2    4.34    2.15
   5  12   2    1.54    2.08
   5 -12  -2    6.87    2.49
  -5 -12  -3   37.05    3.37
   5  12  -3   27.21    3.35
   5 -12  -3   37.96    4.13
   5  12   3   29.85    3.25
   5  12  -4   15.90    2.87
   5 -12  -4   20.02    3.41
   5  12  -5   33.59    3.83
   5 -12  -5   39.98    4.52
   5  12  -6    0.63    2.44
   6 -12   0    4.20    2.10
   6  12   0    1.24    2.22
   6  12  -1    1.55    2.17
   6 -12   1    7.35    2.05
   6 -12  -1    5.47    2.26
   6  12   1    2.95    2.29
   6  12  -2    3.12    2.19
   6 -12   2    2.09    1.79
   6  12   2    1.88    2.19
   6 -12  -2    6.37    2.52
   6  12  -3    2.00    2.27
   6  12   3    2.46    1.97
   6 -12  -3    6.04    2.59
   6  12  -4   -3.01    2.17
   6 -12  -4   -0.76    2.39
   6  12  -5    0.61    2.52
   6 -12  -5    0.21    2.67
   7 -12   0   66.19    5.01
   7  12   0   81.03    5.61
   7 -12   1   70.91    4.84
   7  12  -1   67.15    5.60
   7  12   1   78.64    5.68
   7 -12  -1   77.05    5.32
   7  12  -2    0.07    2.38
   7  12   2    0.21    2.15
   7 -12  -2    1.20    2.27
   7  12  -3   42.40    4.48
   7 -12  -3   54.61    5.17
   7  12  -4   28.19    3.92
   7 -12  -4   43.81    4.86
   8  12   0   28.41    3.86
   8 -12   0   37.82    3.96
   8  12  -1    1.55    2.72
   8  12   1    2.02    2.49
   8 -12  -1   10.06    2.74
   8  12  -2    1.78    2.66
   8  12   2    1.27    2.47
   8 -12  -2   -1.57    2.42
   8  12  -3    4.93    2.96
   8 -12  -3    4.60    2.97
   9  12   0    1.36    2.75
   9 -12   0    0.78    2.41
   9  12  -1   43.45    5.00
   9 -12  -1   63.12    5.54
   9  12   1   65.61    5.60
   9  12  -2   13.21    3.55
   9 -12  -2   18.65    3.66
   9 -12  -3   48.45    5.51
  10  12   0    1.93    3.19
  10  12  -1   -2.25    2.96
  10 -12  -1   -1.64    2.72
  10  12   1    0.68    2.89
  10 -12  -2    1.71    2.95
   0 -13   0   -0.55    1.19
   0  13   0   -1.16    1.63
   0  13   1    1.61    2.00
   0 -13  -1    1.22    1.49
   0  13  -1    0.80    1.52
   0 -13  -2   -0.20    1.63
   0  13   2   -0.98    2.12
   0  13  -2    1.04    1.40
   0  13   3   -4.15    2.21
   0 -13  -3   -0.43    1.68
   0  13  -3    1.06    1.38
   0  13  -4   -0.71    1.31
   0 -13  -4   -0.96    1.81
   0  13  -5   -2.06    1.33
   0 -13  -6    0.36    2.37
  -1  13   0    2.61    2.05
   1  13   0    5.27    1.88
  -1 -13   0    8.47    1.82
  -1  13   1    3.02    2.37
   1  13  -1    5.05    1.78
  -1 -13  -1    4.94    1.73
   1 -13  -1    6.17    1.86
  -1  13  -1    5.91    1.97
   1  13   1    5.10    2.03
  -1 -13  -2   15.13    2.33
   1  13  -2   13.13    2.06
   1  13   2   15.36    2.79
   1 -13  -2   16.93    2.51
  -1  13  -2   15.35    2.31
  -1 -13  -3    7.52    2.09
   1  13  -3    5.00    1.64
  -1  13  -3    5.63    1.74
   1  13   3    5.84    2.46
   1 -13  -3    5.14    1.93
  -1 -13  -4    4.27    2.07
   1  13  -4    1.20    1.58
   1  13   4    3.54    2.45
  -1  13  -4    3.11    1.53
   1  13  -5   -0.36    1.47
   1 -13  -5   -0.20    2.04
   1  13  -6    1.27    1.69
   1 -13  -6    0.69    2.59
  -1 -13  -7    0.54    2.64
   2  13   0    5.88    2.02
   2  13  -1   17.70    2.56
  -2 -13  -1   18.08    2.35
   2  13   1   20.11    2.70
  -2  13  -1   17.57    2.77
  -2 -13  -2   49.02    3.96
   2  13  -2   54.43    4.03
   2  13   2   53.86    4.06
  -2  13  -2   49.53    3.93
  -2 -13  -3   18.91    2.55
   2  13  -3   14.62    2.26
   2  13   3   15.52    2.85
  -2 -13  -4    0.84    1.84
   2  13  -4   -1.59    1.61
   2  13   4    2.72    2.29
   2 -13  -4    0.99    2.05
   2  13  -5    5.68    2.07
   2 -13  -5    7.30    2.50
   2  13  -6   12.00    2.48
   2 -13  -6   15.52    3.09
  -2 -13  -7    2.10    2.62
   3  13   0   69.72    4.88
   3  13  -1    7.72    2.11
   3  13   1    7.80    2.26
   3  13  -2   -0.22    1.65
  -3 -13  -2   -1.77    1.55
   3  13   2    0.01    1.95
   3  13  -3    6.39    2.05
  -3 -13  -3    9.18    2.18
   3 -13  -3    8.69    2.48
   3  13   3    6.55    2.32
   3  13  -4   18.91    2.62
   3 -13  -4   15.99    3.08
   3  13   4   10.42    2.54
   3  13  -5    1.24    1.97
   3 -13  -5   -1.59    2.16
   3  13  -6    3.04    2.23
   3 -13  -6    2.59    2.59
   4  13   0   38.40    3.55
   4 -13   0   39.71    3.57
   4 -13   1   -0.71    1.60
   4  13  -1   -0.02    1.83
   4 -13  -1   -0.79    1.74
   4  13   1    0.35    2.01
   4 -13   2    6.94    1.74
   4  13  -2    4.38    2.09
  -4 -13  -2    6.54    2.11
   4 -13  -2    7.12    2.44
   4  13   2    8.22    2.31
  -4 -13  -3    0.35    1.86
   4  13  -3    0.82    1.93
   4 -13   3    1.33    1.41
   4 -13  -3   -2.46    1.98
   4  13   3   -0.67    1.82
   4  13  -4   16.51    2.83
   4 -13  -4   22.08    3.41
   4  13   4   19.17    2.97
   4  13  -5   -0.59    2.17
   4 -13  -5   -2.77    2.17
   4  13  -6    1.87    2.47
   5  13   0   15.10    2.77
   5 -13   0   14.32    2.48
   5  13  -1    0.98    2.14
   5 -13   1    1.35    1.69
   5 -13  -1    0.71    1.94
   5  13   1    2.24    2.20
   5 -13   2   32.13    2.94
   5  13  -2   20.79    3.15
   5 -13  -2   30.34    3.63
   5  13   2   31.27    3.56
   5  13  -3   -0.70    1.96
   5  13   3    1.55    1.96
   5 -13  -3    2.24    2.39
   5  13  -4    3.71    2.33
   5 -13  -4    5.21    2.71
   5  13  -5   -0.03    2.28
   5 -13  -5    4.03    2.74
   6  13   0    4.91    2.60
   6 -13   0   12.78    2.56
   6 -13   1   13.04    2.38
   6  13  -1   12.07    2.76
   6  13   1   12.83    2.83
   6 -13  -1   16.31    2.85
   6 -13   2   29.29    3.03
   6  13  -2   30.43    3.61
   6 -13  -2   28.15    3.72
   6  13   2   21.07    3.14
   6  13  -3    6.41    2.52
   6 -13  -3   11.10    3.05
   6  13   3    3.62    2.16
   6  13  -4    2.69    2.62
   6 -13  -4    8.45    2.88
   6  13  -5    1.43    2.62
   7 -13   0    0.56    2.10
   7  13   0    0.02    2.31
   7  13  -1    3.00    2.46
   7 -13   1    4.84    2.17
   7  13   1    9.37    2.78
   7 -13  -1    5.03    2.49
   7  13  -2    0.76    2.37
   7  13   2    5.18    2.55
   7 -13  -2    0.96    2.38
   7  13  -3    1.72    2.48
   7 -13  -3    2.29    2.63
   7  13  -4    1.10    2.58
   7 -13  -4   -2.04    2.57
   8  13   0   24.56    3.74
   8 -13   0   32.49    3.71
   8  13  -1   11.18    3.17
   8 -13  -1   10.03    2.83
   8  13   1    6.37    2.94
   8  13  -2   -0.05    2.64
   8  13   2   -1.29    2.41
   8 -13  -2    0.14    2.39
   8  13  -3    5.34    2.89
   8 -13  -3    8.71    3.14
   9  13   0   -3.21    2.54
   9  13  -1   13.87    3.50
   9  13   1   16.81    3.57
   9 -13  -1   19.47    3.47
   9  13  -2   -0.41    2.69
   9 -13  -2   -1.79    2.61
   9 -13  -3   14.59    3.80
  10  13   0    1.20    3.14
  10  13  -1   10.95    3.73
  10 -13  -1   15.21    3.56
  10 -13  -2   24.92    4.22
   0  14   0  126.49    6.50
   0  14   1  143.47    7.32
   0  14  -1  140.29    6.71
   0  14  -2   -0.10    1.47
   0  14   2    1.36    2.32
   0  14   3   84.22    5.98
   0  14  -3   82.06    4.53
   0  14  -4   69.25    4.08
   0  14  -5   58.75    3.77
   0 -14  -6   -0.50    2.30
  -1  14   0  230.75   10.06
   1  14   0  227.98    9.73
  -1  14   1    3.11    2.42
   1  14  -1    3.71    1.75
  -1  14  -1    3.88    1.88
   1  14   1    0.93    1.92
   1  14  -2  111.50    5.79
  -1  14  -2  117.57    5.92
   1  14   2  126.78    6.77
  -1 -14  -3    1.72    2.03
   1  14  -3    4.42    1.73
  -1  14  -3    2.82    1.73
   1  14   3    3.36    2.41
  -1 -14  -4   96.75    5.60
   1  14  -4   92.31    4.91
   1  14   4   82.73    6.13
  -1  14  -4   88.00    4.79
   1  14  -5    4.61    1.78
   1 -14  -6   40.63    4.40
   2  14   0   12.04    2.35
   2  14  -1   94.44    5.31
  -2  14  -1  100.15    5.86
   2  14   1  103.33    5.73
   2  14  -2  215.66    8.93
   2  14   2  205.00    9.22
  -2  14  -2  186.63    8.87
   2  14  -3   76.95    4.91
  -2 -14  -3   79.33    4.94
   2  14   3   72.68    5.23
  -2  14  -3   75.21    4.68
   2  14  -4    2.37    1.89
   2  14   4    4.47    2.34
   2  14  -5   55.52    4.43
   2 -14  -5   49.61    4.81
   2 -14  -6   55.06    5.12
   3  14   0   21.71    2.99
   3  14  -1   27.51    3.12
   3  14   1   29.19    3.30
   3  14  -2    4.29    1.98
   3  14   2    4.35    2.21
   3  14  -3    7.61    2.16
  -3 -14  -3   10.57    2.26
   3 -14  -3    2.88    2.24
   3  14   3   13.66    2.69
   3  14  -4    8.94    2.30
   3 -14  -4   12.75    2.87
   3  14   4   14.82    2.99
   3  14  -5   11.33    2.51
   3 -14  -5   23.98    3.51
   3  14  -6    8.56    2.59
   4  14   0   21.12    3.00
   4  14  -1   28.96    3.31
   4  14   1   39.35    3.85
   4 -14  -1   32.70    3.49
   4 -14   2    1.79    1.55
   4  14  -2    1.60    1.97
   4  14   2   -1.21    1.99
   4 -14  -2    1.34    2.15
   4  14  -3   15.86    2.77
   4 -14  -3   23.27    3.35
   4  14   3   17.50    2.88
   4  14  -4   13.99    2.78
   4  14   4   21.15    3.12
   4 -14  -4   13.56    2.97
   4  14  -5   13.91    2.90
   4 -14  -5   18.77    3.52
   4  14  -6   -1.17    2.42
   5  14   0    4.38    2.37
   5 -14   0   10.80    2.38
   5  14  -1   44.05    4.22
   5 -14   1   45.96    3.91
   5 -14  -1   51.80    4.53
   5  14   1   52.36    4.77
   5  14  -2    5.13    2.37
   5 -14   2   10.88    2.08
   5 -14  -2   11.39    2.76
   5  14   2    7.79    2.47
   5  14  -3   20.91    3.10
   5 -14  -3   23.33    3.49
   5  14   3   25.55    3.14
   5  14  -4    8.70    2.63
   5 -14  -4   10.08    2.92
   5  14  -5   12.43    2.95
   5 -14  -5   18.22    3.57
   6  14   0   -1.06    2.23
   6 -14   0    2.58    2.21
   6 -14   1   56.40    4.40
   6  14  -1   64.36    5.24
   6  14   1   57.48    5.18
   6 -14  -1   61.27    4.90
   6  14  -2    3.97    2.47
   6  14   2    6.72    2.79
   6 -14  -2    2.25    2.49
   6  14  -3   25.15    3.60
   6 -14  -3   40.70    4.50
   6  14   3   34.24    3.72
   6  14  -4    0.51    2.45
   6 -14  -4   -1.81    2.57
   7  14   0   33.42    4.04
   7 -14   0   35.10    3.84
   7 -14   1   -1.02    1.88
   7  14  -1    1.68    2.51
   7  14   1   -0.40    2.36
   7 -14  -1    0.36    2.24
   7  14  -2   22.44    3.55
   7  14   2   20.69    3.33
   7 -14  -2   22.78    3.64
   7  14  -3   -1.04    2.43
   7 -14  -3   -1.12    2.54
   7  14  -4    7.27    3.07
   7 -14  -4   19.73    3.93
   8 -14   0    3.70    2.32
   8  14   0    3.03    2.78
   8  14  -1    8.35    3.09
   8 -14  -1   19.55    3.36
   8  14   1   13.17    3.33
   8  14  -2    1.76    2.77
   8 -14  -2    4.65    2.74
   8  14   2    5.12    2.76
   8  14  -3   11.36    3.33
   8 -14  -3    9.77    3.24
   9  14   0    5.13    3.15
   9  14  -1    0.49    2.98
   9 -14  -1    2.42    2.56
   9  14   1    1.93    2.92
   9  14  -2    3.50    3.18
   9 -14  -2    5.84    3.09
  10  14   0    5.01    3.40
   0  15   0   -1.30    1.83
   0  15   1    1.13    2.06
   0  15  -1   -0.20    1.59
   0  15  -2   -1.24    1.42
   0  15   2    0.50    2.36
   0  15  -3    0.17    1.46
   0  15   3    2.17    2.57
   0  15  -4    0.06    1.55
   0  15  -5   -2.31    1.51
   0 -15  -6    3.25    2.54
   1  15   0   21.45    2.87
  -1  15   0   22.67    3.17
   1  15  -1    0.19    1.60
  -1  15   1    1.60    2.40
   1  15   1    6.72    2.30
  -1  15  -1   -0.58    1.80
   1  15  -2    5.56    1.85
   1  15   2    7.42    2.63
  -1  15  -2    5.69    1.99
   1  15  -3    2.64    1.72
   1  15   3    3.21    2.52
  -1  15  -3    0.32    1.68
   1  15  -4    9.09    2.04
   1  15   4    7.66    3.00
  -1  15  -4   10.13    2.08
   1  15  -5    0.48    1.74
   1  15  -6   -0.29    1.79
   1 -15  -6    0.68    2.52
   2  15   0    4.53    1.96
   2  15  -1    0.76    1.79
  -2  15  -1    0.01    1.95
   2  15   1   -0.95    1.94
   2  15  -2   29.47    2.97
   2  15   2   28.94    3.48
  -2  15  -2   35.26    3.53
   2  15  -3   -2.19    1.50
   2  15   3   -3.45    2.17
  -2  15  -3   -1.01    1.79
   2  15  -4    1.87    1.69
   2  15   4   -0.38    2.40
   2  15  -5    1.82    1.80
   2 -15  -5   -0.47    2.31
   2  15  -6    3.70    2.15
   3  15   0    0.03    1.91
   3  15  -1    5.82    2.21
   3  15   1    2.54    2.14
   3  15  -2    6.26    2.16
   3  15   2    6.57    2.39
   3  15  -3    1.58    1.91
   3  15   3   -0.11    2.15
   3  15  -4   -0.13    1.97
   3  15   4    3.21    2.42
   3 -15  -4    0.83    2.41
   3  15  -5   -1.64    1.95
   3 -15  -5    0.05    2.37
   3  15  -6    2.82    2.51
   4  15   0   64.77    5.21
   4  15  -1   12.09    2.65
   4 -15  -1   10.94    2.51
   4  15   1   11.01    2.56
   4  15  -2   -2.35    1.90
   4 -15  -2   -2.58    2.00
   4  15   2    0.50    2.23
   4  15  -3    9.63    2.55
   4  15   3   15.15    2.82
   4 -15  -3   12.84    2.85
   4  15  -4   23.93    3.21
   4 -15  -4   24.17    3.69
   4  15   4   20.05    3.37
   4  15  -5    1.14    2.34
   4 -15  -5    2.59    2.83
   5  15   0   53.28    4.77
   5 -15   0   41.45    3.91
   5 -15   1   -1.91    1.75
   5  15  -1   -1.37    2.02
   5  15   1    0.60    2.35
   5 -15  -1    0.94    2.12
   5  15  -2   15.70    3.03
   5 -15   2   21.35    2.65
   5 -15  -2   20.82    3.24
   5  15   2   21.28    3.28
   5  15  -3   -0.69    2.19
   5 -15  -3    0.01    2.32
   5  15   3    1.46    2.29
   5  15  -4   16.04    3.19
   5 -15  -4   20.95    3.67
   5  15  -5    0.33    2.54
   6  15   0    1.68    2.37
   6 -15   0    1.51    2.08
   6  15  -1   29.30    3.82
   6 -15   1   41.48    3.85
   6  15   1   36.77    4.06
   6 -15  -1   45.21    4.29
   6  15  -2   55.32    5.14
   6  15   2   62.65    4.90
   6 -15  -2   47.15    4.93
   6  15  -3   29.82    3.91
   6  15   3   25.56    3.62
   6 -15  -3   29.89    4.12
   6  15  -4    1.00    2.59
   6 -15  -4    0.34    2.75
   7  15   0   19.39    3.41
   7 -15   0   19.67    3.17
   7  15  -1    0.05    2.48
   7 -15  -1    2.49    2.37
   7  15   1    1.97    2.65
   7  15  -2   14.49    3.24
   7 -15  -2   19.26    3.42
   7  15   2   18.46    3.36
   7  15  -3    0.48    2.49
   7 -15  -3    2.41    2.73
   8  15   0    3.00    2.92
   8 -15   0   10.53    2.90
   8  15  -1    6.27    3.09
   8  15   1   -1.96    2.68
   8 -15  -1    1.96    2.59
   8  15  -2   10.80    3.35
   8 -15  -2   13.87    3.37
   8  15   2    8.00    3.04
   8 -15  -3    3.16    2.95
   9  15   0   11.79    3.64
   9  15  -1   -0.45    2.98
   9 -15  -1   -0.30    2.51
   9  15   1   -1.11    3.04
   9 -15  -2   34.80    4.64
  10  15   0   -1.26    3.29
   0  16   0    3.34    2.14
   0  16  -1   12.59    2.44
   0  16   1   11.23    2.79
   0  16  -2   26.72    2.96
   0  16   2   20.79    3.56
   0  16  -3   12.32    2.24
   0  16   3    5.77    3.08
   0  16  -4    1.50    1.71
   0  16  -5    3.72    1.92
   1  16   0   40.86    3.86
  -1  16   0   48.83    4.44
  -1  16   1    1.67    2.56
   1  16  -1    2.13    1.74
  -1  16  -1    1.74    1.91
   1  16   1    3.41    2.24
   1  16  -2   42.40    3.66
  -1  16  -2   50.55    3.99
   1  16   2   47.48    4.57
   1  16  -3   -0.81    1.55
   1  16   3   -1.61    2.47
  -1  16  -3    0.01    1.64
   1  16  -4   21.41    2.68
   1  16   4   21.08    3.74
  -1  16  -4   25.17    2.82
   1  16  -5    1.19    1.81
  -1  16  -5    1.22    1.87
   1  16  -6   24.09    2.79
   2  16   0   26.01    3.21
   2  16  -1   15.12    2.54
   2  16   1   14.63    2.77
  -2  16  -1   12.90    2.77
   2  16  -2    7.24    2.02
   2  16   2    7.96    2.63
  -2  16  -2    8.12    2.43
   2  16  -3   10.36    2.20
   2  16   3   12.02    3.10
  -2  16  -3   13.24    2.57
   2  16  -4    9.17    2.12
   2  16   4    8.82    2.94
   2  16  -5    7.04    2.22
   2 -16  -5    5.85    2.85
   2  16  -6   -2.75    1.98
   3  16   0  233.56   10.38
   3  16  -1    7.61    2.23
   3  16   1   10.53    2.62
   3  16  -2   61.54    4.75
   3  16   2   49.89    4.49
   3  16  -3   12.36    2.51
   3  16   3    9.94    2.90
   3  16  -4  130.23    6.94
   3  16   4  120.40    7.26
   3 -16  -4  112.45    7.28
   3  16  -5   -1.14    2.14
   3 -16  -5    0.01    2.52
   4  16   0   14.34    2.94
   4  16  -1    4.79    2.34
   4  16   1    1.29    2.18
   4  16  -2   63.51    5.17
   4  16   2   71.11    5.06
   4 -16  -2   59.55    5.21
   4  16  -3    0.73    2.02
   4 -16  -3    1.44    2.36
   4  16   3    0.33    2.25
   4  16  -4    4.63    2.37
   4 -16  -4    5.62    2.80
   4  16  -5    2.24    2.44
   4 -16  -5    1.65    2.73
   5  16   0   65.28    5.37
   5 -16   0   56.55    4.68
   5  16  -1    2.78    2.22
   5 -16   1    1.21    1.97
   5 -16  -1    0.56    2.17
   5  16   1   -1.44    2.06
   5  16  -2  124.05    7.28
   5  16   2  124.02    7.14
   5 -16  -2  132.95    7.43
   5  16  -3    2.41    2.27
   5 -16  -3    0.88    2.60
   5  16   3    2.48    2.29
   5  16  -4   16.74    3.18
   5 -16  -4   23.60    3.84
   6 -16   0   18.27    2.90
   6  16   0    8.09    2.77
   6  16  -1    5.46    2.63
   6 -16   1    2.63    2.15
   6  16   1    4.17    2.68
   6 -16  -1    5.86    2.56
   6  16  -2   12.49    3.06
   6  16   2   11.68    3.08
   6 -16  -2   17.57    3.21
   6  16  -3    3.17    2.64
   6 -16  -3    0.07    2.77
   6  16   3    6.06    2.62
   6  16  -4    2.90    2.79
   6 -16  -4    9.03    3.38
   7 -16   0  103.38    6.42
   7  16  -1   -0.01    2.68
   7 -16  -1   -2.82    2.25
   7  16   1    0.24    2.75
   7  16  -2    2.51    2.83
   7 -16  -2    4.40    2.89
   7  16   2    1.74    2.86
   7  16  -3    0.08    2.58
   7 -16  -3    0.12    2.64
   8  16   0    4.25    3.12
   8  16  -1   -0.55    2.83
   8  16   1   -2.39    2.70
   8 -16  -1    3.44    2.63
   8  16  -2   -2.07    2.78
   8  16   2   -2.78    2.77
   8 -16  -2    5.30    2.93
   8 -16  -3    1.13    3.05
   9  16   0    1.50    3.22
   9  16  -1    2.06    3.23
   9 -16  -1    1.15    2.81
   9  16   1   -2.49    2.90
   9 -16  -2   24.73    4.24
   0  17   0   -0.02    2.06
   0  17  -1    2.98    1.93
   0  17   1   -0.35    2.22
   0  17  -2    0.26    1.72
   0  17   2    1.30    2.65
   0  17  -3   -1.00    1.65
   0  17   3    4.27    2.88
   0  17  -4   -0.62    1.71
   0  17  -5    2.84    1.98
  -1  17   0   53.45    4.73
   1  17   0   55.21    4.46
   1  17  -1   -0.76    1.64
  -1  17   1    0.39    2.46
   1  17   1   -1.63    2.19
  -1  17  -1    0.65    1.84
   1  17  -2    4.67    1.87
  -1  17  -2    2.23    1.95
   1  17   2    2.29    2.58
   1  17  -3    0.00    1.61
  -1  17  -3   -0.13    1.76
   1  17   3    0.44    2.61
   1  17  -4   27.75    3.00
  -1  17  -4   32.78    3.31
   1  17   4   27.57    4.22
   1  17  -5    2.31    1.99
  -1  17  -5   -1.74    1.88
   1  17  -6    1.79    2.10
   2  17   0    3.75    2.15
   2  17  -1   10.24    2.38
   2  17   1    9.53    2.61
  -2  17  -1    6.45    2.46
   2  17  -2   -2.08    1.61
   2  17   2    0.83    2.34
  -2  17  -2   -0.91    1.91
   2  17  -3   11.96    2.36
   2  17   3   11.13    3.20
   2  17  -4   -0.15    1.79
   2  17   4    4.11    2.92
   2  17  -5   -0.12    2.05
   2 -17  -5   -0.51    2.50
   2  17  -6   -2.85    2.13
   3  17   0   20.56    3.13
   3  17  -1    1.99    2.04
   3  17   1    2.10    2.24
   3  17  -2    3.90    2.03
   3  17   2    6.49    2.59
   3  17  -3    2.93    2.17
   3  17   3   -0.12    2.59
   3  17  -4    9.78    2.53
   3  17   4    4.95    2.88
   3 -17  -4   12.99    3.10
   3  17  -5   -0.04    1.96
   3 -17  -5    5.31    2.91
   4  17   0    1.51    2.20
   4  17  -1    3.03    2.28
   4  17   1   -4.64    2.02
   4  17  -2    3.04    2.32
   4 -17  -2    6.45    2.61
   4  17   2   -0.51    2.30
   4  17  -3   -1.44    2.05
   4 -17  -3    2.61    2.59
   4  17   3    0.71    2.32
   4  17  -4    3.01    2.33
   4 -17  -4    2.70    2.72
   4  17  -5    0.56    2.54
   5  17   0   -0.85    2.34
   5 -17   0   -1.52    2.02
   5  17  -1    3.55    2.52
   5 -17   1    1.46    2.01
   5  17   1    1.28    2.35
   5 -17  -1    1.45    2.26
   5  17  -2    0.88    2.29
   5  17   2    0.64    2.49
   5 -17  -2    2.03    2.41
   5  17  -3    2.87    2.37
   5 -17  -3    2.89    2.65
   5  17   3    0.11    2.43
   5  17  -4    1.36    2.50
   5 -17  -4    3.15    2.82
   6 -17   0    8.52    2.56
   6  17   0   10.23    3.08
   6 -17   1   -2.85    1.83
   6  17  -1   -0.03    2.45
   6  17   1   -1.11    2.67
   6 -17  -1    3.13    2.37
   6  17  -2    2.85    2.52
   6 -17  -2    1.67    2.45
   6  17   2    1.09    2.53
   6  17  -3   -0.98    2.44
   6 -17  -3    1.34    2.66
   6  17   3   -0.53    2.48
   7  17   0   10.97    3.22
   7 -17   0   10.03    2.83
   7  17  -1    3.61    2.81
   7  17   1    4.39    2.99
   7 -17  -1    5.01    2.79
   7  17  -2    2.64    2.84
   7  17   2   -1.89    2.40
   7 -17  -2    1.80    2.66
   7 -17  -3    4.90    2.97
   8  17   0   -3.93    2.77
   8  17  -1    0.73    3.04
   8 -17  -1    3.89    2.64
   8  17   1    7.11    3.25
   8 -17  -2   10.67    3.44
   9  17   0    1.10    3.37
   9  17   1    0.39    3.18
   0  18   0  197.21    9.55
   0  18  -1    0.89    1.89
   0  18   1   -2.99    2.24
   0  18  -2   91.69    5.71
   0  18   2  103.81    6.95
   0  18  -3    0.11    1.79
   0  18   3    1.73    3.03
   0  18  -4   90.64    5.58
   0  18  -5    0.18    2.11
  -1  18   0    5.56    2.57
   1  18   0    3.80    2.29
   1  18  -1   44.88    3.99
  -1  18   1   38.63    4.67
   1  18   1   40.80    4.44
  -1  18  -1   42.94    4.22
   1  18  -2   -0.31    1.72
  -1  18  -2   -2.50    1.62
   1  18   2    0.37    2.58
   1  18  -3   20.57    2.80
   1  18   3   20.24    3.82
  -1  18  -3   25.17    3.16
   1  18  -4    0.49    1.89
  -1  18  -4    1.58    2.01
   1  18  -5   19.80    2.82
  -1  18  -5   26.49    3.21
   1  18  -6    2.31    2.32
   2  18   0   28.52    3.49
   2  18  -1    2.14    1.95
   2  18   1    3.96    2.41
  -2  18  -1    4.49    2.30
   2  18  -2   62.71    4.70
  -2  18  -2   75.04    5.38
   2  18   2   71.42    5.62
   2  18  -3    0.76    1.88
   2  18   3    3.96    2.90
   2  18  -4   14.57    2.59
   2  18   4   23.33    3.97
   2  18  -5   -1.11    1.99
   3  18   0   15.23    2.87
   3  18  -1   74.43    5.18
   3  18   1   75.54    5.48
   3  18  -2   12.04    2.47
   3  18   2   16.54    3.18
   3  18  -3   30.28    3.46
   3  18   3   46.05    4.76
   3  18  -4    3.87    2.14
   3  18   4    0.82    2.83
   3 -18  -4    7.87    2.85
   4  18   0   17.20    3.19
   4  18  -1    6.11    2.33
   4  18   1    8.66    2.75
   4  18  -2    8.05    2.70
   4  18   2   16.07    3.17
   4 -18  -2   12.00    2.96
   4  18  -3    6.52    2.51
   4  18   3    4.12    2.74
   4 -18  -3    3.45    2.64
   4  18  -4   11.90    2.87
   4 -18  -4   20.43    3.71
   5  18   0   17.34    3.21
   5 -18   0   18.42    2.99
   5 -18   1   50.61    4.40
   5  18  -1   34.00    4.16
   5  18   1   43.96    4.56
   5 -18  -1   56.75    4.97
   5  18  -2    1.35    2.39
   5 -18  -2    4.86    2.63
   5  18   2    4.89    2.76
   5  18  -3   19.25    3.36
   5 -18  -3   38.47    4.56
   5  18   3   28.86    3.95
   5  18  -4   12.54    3.12
   5 -18  -4   11.68    3.32
   6 -18   0    9.49    2.59
   6  18   0    9.17    3.21
   6  18  -1    2.37    2.64
   6 -18  -1    4.59    2.63
   6  18   1    4.66    2.70
   6  18  -2   13.81    3.28
   6 -18  -2   20.03    3.63
   6  18   2   17.35    3.42
   6  18  -3    2.00    2.62
   6 -18  -3    2.08    2.96
   7  18   0   33.10    4.41
   7 -18   0   37.82    4.23
   7  18  -1   -1.61    2.62
   7 -18  -1   -1.14    2.43
   7  18   1    2.19    3.07
   7  18  -2   -1.58    2.68
   7 -18  -2    7.32    3.18
   7  18   2    5.94    2.95
   7 -18  -3    4.37    3.11
   8  18   0   25.19    4.19
   8  18  -1    2.39    3.18
   8 -18  -1    1.99    2.76
   8  18   1    2.01    3.11
   8 -18  -2   42.32    5.15
   0  19   0    0.29    2.16
   0  19  -1   -0.42    2.02
   0  19   1   -1.01    2.31
   0  19  -2    0.66    1.96
   0  19   2    0.49    2.78
   0  19   3    1.08    3.14
   0  19  -3   -0.10    1.97
   0  19  -4   -0.07    1.94
   0  19  -5   -1.37    2.15
   1  19   0    9.99    2.73
  -1  19   0    9.23    2.86
   1  19  -1    2.33    2.05
  -1  19   1    1.23    2.59
  -1  19  -1    3.52    2.31
   1  19   1    2.36    2.50
   1  19  -2   16.54    2.71
  -1  19  -2   15.72    2.91
   1  19   2   16.64    3.56
   1  19  -3    4.59    2.03
  -1  19  -3    2.02    2.14
   1  19   3    2.39    3.07
   1  19  -4    3.60    2.18
  -1  19  -4    9.49    2.59
   1  19  -5   -0.34    2.12
  -1  19  -5    0.93    2.28
   2  19   0    2.30    2.22
   2  19  -1   -1.73    1.75
   2  19   1   -0.38    2.23
  -2  19  -1    0.79    2.27
   2  19  -2    7.33    2.22
  -2  19  -2    7.57    2.67
   2  19   2    8.12    3.06
   2  19  -3   -0.35    1.86
   2  19   3    0.23    2.84
   2  19  -4   -2.06    1.97
   2  19   4    0.40    3.09
   2  19  -5   -1.52    2.10
   3  19   0   49.61    4.58
   3  19  -1   19.22    3.07
   3  19   1   24.50    3.58
   3  19  -2   -0.59    1.88
   3  19   2   -0.05    2.44
   3  19  -3   15.42    2.78
   3  19   3   20.88    3.95
   3  19  -4   18.06    2.98
   3 -19  -4   23.26    3.94
   4  19   0    9.06    2.74
   4  19  -1    2.15    2.34
   4  19   1    2.63    2.55
   4  19  -2   -1.48    1.92
   4 -19  -2    1.01    2.37
   4  19   2   -2.93    2.34
   4  19  -3   -1.87    2.17
   4 -19  -3    2.05    2.69
   4  19   3    6.25    2.98
   4  19  -4    5.22    2.62
   4 -19  -4    2.88    3.00
   5 -19   0    2.12    2.23
   5  19   0    2.96    2.48
   5 -19   1    2.28    2.27
   5  19  -1    6.40    2.72
   5  19   1    5.91    2.85
   5 -19  -1    7.07    2.76
   5  19  -2    1.04    2.48
   5 -19  -2   -0.74    2.52
   5  19   2    3.42    2.71
   5  19  -3    2.54    2.57
   5  19   3    7.97    3.01
   5 -19  -3    8.00    3.20
   6 -19   0    4.00    2.38
   6  19   0    3.15    2.94
   6  19  -1    2.63    2.94
   6  19   1    8.11    3.13
   6 -19  -1    9.51    2.92
   6  19  -2    7.41    3.06
   6  19   2   13.21    3.45
   6 -19  -2   15.33    3.44
   6 -19  -3   13.02    3.46
   7  19   0    5.10    3.21
   7  19  -1   15.19    3.61
   7  19   1   19.41    3.90
   7 -19  -1   24.04    3.83
   7  19   2   10.01    3.43
   7 -19  -2   16.83    3.71
   8  19   0    3.02    3.38
   8  19   1    1.30    3.44
   8 -19  -1    2.12    2.77
   8 -19  -2   -1.44    2.93
   0  20   0    0.16    2.05
   0  20  -1  169.91    8.81
   0  20   1  175.18    9.39
   0  20   2   30.33    4.61
   0  20  -2   27.94    3.66
   0  20  -3  128.91    7.18
   0  20  -4    0.81    2.14
   0  20  -5   70.93    5.48
   1  20   0    6.95    2.65
  -1  20   0    1.45    2.57
   1  20  -1   79.53    5.59
  -1  20   1   89.14    6.84
   1  20   1   81.26    6.29
  -1  20  -1   80.60    5.88
   1  20  -2    1.02    2.02
   1  20   2    2.98    2.99
  -1  20  -2    1.63    2.20
   1  20  -3   45.57    4.23
   1  20   3   45.90    5.53
  -1  20  -3   52.81    4.73
   1  20  -4    3.25    2.24
  -1  20  -4    7.58    2.68
   1  20  -5   32.69    3.82
  -1  20  -5   46.05    4.36
   2  20   0    9.57    2.69
   2  20  -1   36.75    3.93
   2  20   1   40.10    4.53
   2  20  -2   18.55    2.89
   2  20   2   29.48    4.30
   2  20  -3   32.57    3.61
   2  20   3   32.11    4.62
   2  20  -4    3.52    2.28
   2  20   4    0.12    3.11
   3  20   0    3.85    2.37
   3  20  -1   17.92    3.16
   3  20   1   24.00    3.67
   3  20  -2   14.61    2.83
   3  20   2   16.11    3.48
   3  20  -3   11.35    2.65
   3  20   3   24.75    4.24
   3  20  -4    0.17    2.24
   3 -20  -4    1.02    2.86
   4  20   0   15.06    3.17
   4  20  -1    3.15    2.49
   4  20   1    7.66    2.86
   4  20  -2    1.78    2.31
   4 -20  -2    5.39    2.70
   4  20   2   -0.35    2.76
   4  20  -3    6.59    2.45
   4 -20  -3    8.93    3.23
   4  20   3   13.00    3.50
   5  20   0    7.78    3.08
   5 -20   0    9.32    2.70
   5  20  -1   16.22    3.19
   5  20   1   15.80    3.47
   5 -20  -1   20.50    3.56
   5  20  -2   -3.55    2.39
   5 -20  -2    1.83    2.63
   5  20   2    2.82    2.92
   5 -20  -3   18.65    3.80
   5  20   3   10.77    3.33
   6 -20   0    1.59    2.43
   6  20   0   -2.18    2.55
   6  20  -1   24.92    4.04
   6 -20  -1   36.16    4.31
   6  20  -2   -2.41    2.78
   6 -20  -2    0.14    2.63
   6  20   2    0.64    2.78
   7  20   0    2.00    3.27
   7  20   1    2.30    3.20
   7 -20  -1    1.67    2.77
   7 -20  -2    1.98    3.04
   7  20   2    0.17    2.96
   0  21   0   -0.21    2.29
   0  21   1   -1.90    2.54
   0  21  -1   -1.78    2.00
   0  21  -2   -1.26    2.04
   0  21   2   -0.42    2.99
   0  21  -3   -0.48    2.12
   0  21  -4    0.52    2.30
   0  21  -5    1.33    2.50
  -1  21   0    4.92    2.84
   1  21   0    3.67    2.68
  -1  21   1    8.02    3.38
   1  21  -1   10.74    2.71
  -1  21  -1    9.23    2.90
   1  21   1   10.22    3.19
   1  21  -2    2.57    2.15
  -1  21  -2    6.38    2.62
   1  21   2    2.41    3.08
   1  21  -3    2.21    2.37
  -1  21  -3    5.38    2.59
   1  21   3    3.61    3.43
   1  21  -4    2.36    2.30
  -1  21  -4    3.04    2.55
   2  21   0    4.17    2.53
   2  21  -1    1.01    2.16
   2  21   1    0.37    2.57
   2  21  -2    9.25    2.44
   2  21   2   13.39    3.72
   2  21  -3   -1.83    1.93
   2  21   3    3.43    3.31
   2  21  -4    1.83    2.24
   3  21   0   -0.64    2.37
   3  21  -1    2.81    2.30
   3  21   1    2.69    2.75
   3  21  -2   -0.10    2.02
   3  21   2    0.69    2.82
   3  21  -3   -1.51    2.03
   3  21   3    4.64    3.39
   4  21   0    6.62    2.82
   4  21  -1    1.47    2.43
   4  21   1    5.18    2.93
   4  21  -2    8.82    2.76
   4  21   2    9.93    3.37
   4 -21  -3    4.69    3.03
   4  21   3    5.64    3.32
   5 -21   0    4.33    2.57
   5  21   0    1.98    2.80
   5  21  -1    5.68    2.80
   5 -21  -1    9.71    3.18
   5  21   1    6.93    3.14
   5  21  -2   -0.56    2.36
   5  21   2   -2.00    2.94
   5 -21  -2    1.39    2.88
   6  21   0    5.68    3.16
   6  21  -1   -1.93    2.60
   6 -21  -1    4.93    2.76
   6  21   1    7.92    3.37
   6  21   2    6.41    3.38
   6 -21  -2    8.07    3.20
   7 -21  -1   -1.56    2.79
   7  21   1   -2.80    2.84
   0  22   0   66.22    5.68
   0  22  -1    7.00    2.76
   0  22   1    7.36    3.31
   0  22   2    3.13    3.61
   0  22  -2    6.76    2.69
   0  22  -3   13.07    3.05
   0  22  -4   41.01    4.44
   1  22   0   -0.02    2.61
  -1  22   0    5.15    3.03
  -1  22   1    5.03    3.19
   1  22  -1    1.11    2.29
  -1  22  -1    0.09    2.29
   1  22   1    0.53    2.71
   1  22  -2    2.16    2.32
  -1  22  -2    0.27    2.28
   1  22   2   -4.72    2.78
   1  22  -3    1.22    2.29
   1  22   3    1.49    3.72
  -1  22  -3   -3.54    2.27
  -1  22  -4    6.50    2.99
   2  22   0    2.95    2.59
   2  22  -1   10.49    2.83
   2  22   1   10.77    3.42
   2  22  -2   32.02    3.89
   2  22   2   33.17    4.83
   2  22  -3   11.24    2.77
   2  22   3   16.81    4.33
   3  22   0   20.68    3.63
   3  22  -1   18.12    3.26
   3  22   1   13.76    3.54
   3  22  -2   29.17    3.72
   3  22   2   37.96    4.95
   3  22   3   10.75    3.74
   4  22   0    3.56    2.71
   4  22   1   76.09    6.28
   4  22  -2    1.20    2.41
   4  22   2    1.47    3.11
   4  22   3   59.11    6.09
   5  22   0   15.77    3.58
   5 -22   0   22.12    3.64
   5  22  -1    3.24    2.85
   5  22   1    1.18    3.04
   5 -22  -1    9.22    2.93
   5 -22  -2    5.09    3.24
   5  22   2    4.84    3.21
   6  22   0    1.37    3.09
   6  22   1   12.27    3.72
   6 -22  -1   20.09    3.62
   6  22   2    1.92    3.16
   6 -22  -2    9.56    3.24
   0  23   0   -0.89    2.45
   0  23   1    1.88    3.11
   0  23  -1    1.83    2.44
   0  23   2   -2.33    3.43
   0  23  -2   -0.49    2.30
   0  23  -3    0.59    2.43
  -1  23   0    5.41    3.19
   1  23   0    3.27    2.74
  -1  23   1   -0.26    2.95
   1  23  -1   -2.39    2.23
   1  23   1    1.39    2.85
  -1  23  -1    3.04    2.64
   1  23  -2    5.37    2.73
  -1  23  -2   10.81    3.13
   1  23   2    7.48    3.81
  -1  23  -3    1.27    2.53
   1  23   3   -3.70    3.68
   2  23   0   -0.66    2.46
   2  23  -1    1.29    2.36
   2  23   1   -2.63    2.90
   2  23  -2    0.96    2.31
   2  23   2    9.85    3.76
   2  23   3   -4.36    3.36
   3  23   0    2.60    2.64
   3  23  -1   -2.03    2.31
   3  23   1    2.54    3.01
   3  23   2    3.16    3.48
   3  23   3   -0.38    3.47
   4  23   0   10.43    3.25
   4  23  -1    2.19    2.67
   4  23   1    5.47    3.11
   4  23   2   -0.91    3.36
   4  23   3   -1.76    3.44
   5  23   0    2.28    3.06
   5  23   1    3.82    3.41
   5 -23  -1   12.62    3.28
   5  23   2    0.16    3.39
   5 -23  -2    3.46    3.14
   6 -23  -1    5.09    3.01
   0  24   0   62.02    6.17
   0  24   1    2.86    3.36
   0  24  -1   -1.16    2.38
   0  24   2   44.97    5.98
   1  24   0   10.29    3.32
  -1  24   0   15.11    3.78
   1  24  -1   22.61    3.97
  -1  24  -1   20.09    3.94
   1  24   1   22.88    4.33
   1  24   2    2.43    3.66
   1  24   3    6.75    4.39
   2  24   0   71.24    6.37
   2  24  -1    4.64    2.81
   2  24   1    2.17    3.15
   2  24   2  111.77    8.46
   2  24   3    4.89    4.07
   3  24   0    3.95    2.92
   3  24   1   -1.44    3.00
   3  24   2    5.65    3.96
   3  24   3    3.67    3.97
   4  24   1    0.75    3.15
   4  24   2   39.51    5.40
   5 -24  -1    2.00    2.85
   0  25   1   -4.23    3.10
   0  25   2    5.90    4.22
   1  25   1    3.35    3.22
   1  25   2    6.40    4.20
   2  25   2   10.95    4.26
   0   0   0    0.00    0.00
;
_shelx_hkl_checksum              20806
loop_
_space_group_symop_operation_xyz
'x, y, z'
'-x, -y, z'
'-x+1/2, y+1/2, -z'
'x+1/2, -y+1/2, -z'
'-x, -y, -z'
'x, y, -z'
'x-1/2, -y-1/2, z'
'-x-1/2, y-1/2, z'
loop_
_atom_site_label
_atom_site_type_symbol
_atom_site_fract_x
_atom_site_fract_y
_atom_site_fract_z
_atom_site_U_iso_or_equiv
_atom_site_adp_type
_atom_site_occupancy
_atom_site_site_symmetry_order
_atom_site_calc_flag
_atom_site_refinement_flags_posn
_atom_site_refinement_flags_adp
_atom_site_refinement_flags_occupancy
_atom_site_disorder_assembly
_atom_site_disorder_group
Te1 Te 0.73542(14) 0.10606(6) 0.0000 0.0163(4) Uani 1 2 d S T P . .
Te2 Te 0.73660(14) 0.22840(6) -0.5000 0.0148(4) Uani 1 2 d S T P . .
Cu1 Cu 0.3851(3) 0.05063(12) 0.0000 0.0236(7) Uani 1 2 d S T P . .
Cu2 Cu 0.46006(18) 0.17850(8) 0.2510(3) 0.0177(5) Uani 1 1 d . . . . .
Cu3 Cu 0.2058(3) 0.18618(13) 0.0000 0.0215(7) Uani 1 2 d S T P . .
Cl1 Cl -0.0259(5) 0.2103(2) 0.0000 0.0231(12) Uani 1 2 d S T P . .
Cl2 Cl 0.1425(6) 0.0503(3) 0.0000 0.053(2) Uani 1 2 d S T P . .
Cl3 Cl 0.9300(8) 0.0863(4) -0.5000 0.042(2) Uani 0.85 2 d S T P . .
Cl4 Cl 0.3856(7) 0.0678(4) 0.5000 0.0381(19) Uani 0.85 2 d S T P . .
O1 O 0.3860(13) 0.1413(7) 0.0000 0.018(3) Uani 1 2 d S T P . .
O2 O 0.7544(9) 0.2956(5) -0.7038(15) 0.017(2) Uani 1 1 d . . . . .
O3 O 0.6583(11) 0.1542(5) 0.2189(17) 0.031(3) Uani 1 1 d . . . . .
O4 O 0.5924(15) 0.0417(7) 0.0000 0.034(4) Uani 1 2 d S T P . .
O5 O 0.5320(14) 0.2257(6) -0.5000 0.016(3) Uani 1 2 d S T P . .
Cu4A Cu 0.0000 0.0000 -0.5000 0.050 Uiso 0.2 4 d S U P . .
Cu4B Cu 0.0000 0.0000 0.2707(19) 0.050 Uiso 0.3 2 d S U P . .
Cu4D Cu 0.628(4) 0.0484(18) 0.5000 0.050 Uiso 0.1 2 d S U P . .
Cu4E Cu 1.1649(4) 0.1116(2) -0.5365(9) 0.050 Uiso 0.5 1 d . U P . .
Cu4G Cu 0.097(3) 0.0156(12) 0.337(4) 0.050 Uiso 0.1 1 d . U P . .
loop_
_atom_site_aniso_label
_atom_site_aniso_U_11
_atom_site_aniso_U_22
_atom_site_aniso_U_33
_atom_site_aniso_U_23
_atom_site_aniso_U_13
_atom_site_aniso_U_12
Te1 0.0155(7) 0.0108(7) 0.0226(8) 0.000 0.000 0.0001(5)
Te2 0.0156(7) 0.0139(7) 0.0150(8) 0.000 0.000 -0.0010(5)
Cu1 0.0200(14) 0.0077(14) 0.0432(19) 0.000 0.000 0.0002(10)
Cu2 0.0162(9) 0.0194(10) 0.0176(10) -0.0033(8) 0.0003(8) 0.0020(7)
Cu3 0.0184(14) 0.0285(17) 0.0176(15) 0.000 0.000 0.0080(12)
Cl1 0.023(3) 0.012(3) 0.034(3) 0.000 0.000 0.001(2)
Cl2 0.019(3) 0.026(4) 0.116(7) 0.000 0.000 -0.001(3)
Cl3 0.041(4) 0.036(4) 0.048(5) 0.000 0.000 0.020(4)
Cl4 0.033(4) 0.034(4) 0.048(5) 0.000 0.000 0.013(3)
O1 0.015(7) 0.020(9) 0.018(8) 0.000 0.000 -0.001(6)
O2 0.018(5) 0.021(6) 0.012(5) -0.004(4) 0.007(4) -0.001(4)
O3 0.025(6) 0.035(7) 0.032(7) -0.009(6) -0.002(5) 0.003(5)
O4 0.022(8) 0.015(9) 0.064(12) 0.000 0.000 -0.007(7)
O5 0.023(7) 0.011(7) 0.016(8) 0.000 0.000 -0.005(6)
loop_
_atom_type_symbol
_atom_type_description
_atom_type_scat_dispersion_real
_atom_type_scat_dispersion_imag
_atom_type_scat_source
O O 0.0106 0.0060 'International Tables Vol C Tables 4.2.6.8 and 6.1.1.4'
Te Te -0.5308 1.6751 'International Tables Vol C Tables 4.2.6.8 and 6.1.1.4'
Cl Cl 0.1484 0.1585 'International Tables Vol C Tables 4.2.6.8 and 6.1.1.4'
Cu Cu 0.3201 1.2651 'International Tables Vol C Tables 4.2.6.8 and 6.1.1.4'
loop_
_geom_angle_atom_site_label_1
_geom_angle_atom_site_label_2
_geom_angle_atom_site_label_3
_geom_angle
_geom_angle_site_symmetry_1
_geom_angle_site_symmetry_3
O3 Te1 O3 97.2(7) . 6
O3 Te1 O4 96.8(4) . .
O3 Te1 O4 96.8(4) 6 .
O3 Te1 Cl1 83.8(3) . 1_655
O3 Te1 Cl1 83.8(3) 6 1_655
O4 Te1 Cl1 179.1(5) . 1_655
O3 Te1 O1 60.5(3) . .
O3 Te1 O1 60.5(3) 6 .
O4 Te1 O1 58.4(5) . .
Cl1 Te1 O1 122.5(3) 1_655 .
O3 Te1 Cl2 129.4(4) . 5_655
O3 Te1 Cl2 129.4(4) 6 5_655
O4 Te1 Cl2 63.5(5) . 5_655
Cl1 Te1 Cl2 115.63(14) 1_655 5_655
O1 Te1 Cl2 121.9(3) . 5_655
O3 Te1 Cl3 66.2(3) . 1_556
O3 Te1 Cl3 153.6(4) 6 1_556
O4 Te1 Cl3 105.2(2) . 1_556
Cl1 Te1 Cl3 74.45(13) 1_655 1_556
O1 Te1 Cl3 120.01(10) . 1_556
Cl2 Te1 Cl3 74.65(12) 5_655 1_556
O3 Te1 Cl3 153.6(4) . .
O3 Te1 Cl3 66.2(3) 6 .
O4 Te1 Cl3 105.2(2) . .
Cl1 Te1 Cl3 74.45(13) 1_655 .
O1 Te1 Cl3 120.01(10) . .
Cl2 Te1 Cl3 74.65(12) 5_655 .
Cl3 Te1 Cl3 119.99(19) 1_556 .
O5 Te2 O2 96.1(4) . .
O5 Te2 O2 96.1(4) . 6_554
O2 Te2 O2 85.2(6) . 6_554
O5 Te2 O3 71.9(3) . 1_554
O2 Te2 O3 89.6(4) . 1_554
O2 Te2 O3 166.4(4) 6_554 1_554
O5 Te2 O3 71.9(3) . 6
O2 Te2 O3 166.4(4) . 6
O2 Te2 O3 89.6(4) 6_554 6
O3 Te2 O3 92.7(5) 1_554 6
O5 Te2 O5 162.32(19) . 7_665
O2 Te2 O5 71.1(3) . 7_665
O2 Te2 O5 71.1(3) 6_554 7_665
O3 Te2 O5 118.9(3) 1_554 7_665
O3 Te2 O5 118.9(3) 6 7_665
O5 Te2 Cl3 119.3(4) . .
O2 Te2 Cl3 125.6(3) . .
O2 Te2 Cl3 125.6(3) 6_554 .
O3 Te2 Cl3 67.3(3) 1_554 .
O3 Te2 Cl3 67.3(3) 6 .
O5 Te2 Cl3 78.4(3) 7_665 .
O1 Cu1 O4 95.3(6) . .
O1 Cu1 O4 173.6(6) . 5_655
O4 Cu1 O4 78.3(6) . 5_655
O1 Cu1 Cl2 90.5(4) . .
O4 Cu1 Cl2 174.2(5) . .
O4 Cu1 Cl2 95.9(4) 5_655 .
O1 Cu1 Cu1 134.7(4) . 5_655
O4 Cu1 Cu1 39.4(4) . 5_655
O4 Cu1 Cu1 38.9(4) 5_655 5_655
Cl2 Cu1 Cu1 134.9(2) . 5_655
O1 Cu1 Cl4 83.58(14) . 1_554
O4 Cu1 Cl4 90.54(14) . 1_554
O4 Cu1 Cl4 96.37(14) 5_655 1_554
Cl2 Cu1 Cl4 90.11(13) . 1_554
Cu1 Cu1 Cl4 94.47(13) 5_655 1_554
O1 Cu1 Cl4 83.58(14) . .
O4 Cu1 Cl4 90.54(14) . .
O4 Cu1 Cl4 96.37(14) 5_655 .
Cl2 Cu1 Cl4 90.11(13) . .
Cu1 Cu1 Cl4 94.47(13) 5_655 .
Cl4 Cu1 Cl4 167.2(3) 1_554 .
O1 Cu1 O3 52.9(4) . .
O4 Cu1 O3 50.4(4) . .
O4 Cu1 O3 121.5(4) 5_655 .
Cl2 Cu1 O3 134.6(2) . .
Cu1 Cu1 O3 85.93(19) 5_655 .
Cl4 Cu1 O3 108.5(2) 1_554 .
Cl4 Cu1 O3 63.1(2) . .
O1 Cu1 O3 52.9(4) . 6
O4 Cu1 O3 50.4(4) . 6
O4 Cu1 O3 121.5(4) 5_655 6
Cl2 Cu1 O3 134.6(2) . 6
Cu1 Cu1 O3 85.93(19) 5_655 6
Cl4 Cu1 O3 63.1(2) 1_554 6
Cl4 Cu1 O3 108.5(2) . 6
O3 Cu1 O3 45.6(4) . 6
O1 Cu2 O3 98.3(5) . .
O1 Cu2 O5 174.2(5) . 1_556
O3 Cu2 O5 84.1(5) . 1_556
O1 Cu2 O2 83.7(4) . 7_566
O3 Cu2 O2 177.8(4) . 7_566
O5 Cu2 O2 93.9(5) 1_556 7_566
O1 Cu2 Cl1 82.9(4) . 7_665
O3 Cu2 Cl1 96.5(4) . 7_665
O5 Cu2 Cl1 91.7(3) 1_556 7_665
O2 Cu2 Cl1 84.4(3) 7_566 7_665
O1 Cu2 Cu3 41.8(4) . .
O3 Cu2 Cu3 138.1(3) . .
O5 Cu2 Cu3 134.3(4) 1_556 .
O2 Cu2 Cu3 44.0(3) 7_566 .
Cl1 Cu2 Cu3 70.88(11) 7_665 .
O1 Cu2 Cl4 92.9(4) . .
O3 Cu2 Cl4 94.3(4) . .
O5 Cu2 Cl4 92.2(3) 1_556 .
O2 Cu2 Cl4 84.9(3) 7_566 .
Cl1 Cu2 Cl4 168.87(18) 7_665 .
Cu3 Cu2 Cl4 99.12(14) . .
O1 Cu2 O4 53.6(4) . .
O3 Cu2 O4 53.1(4) . .
O5 Cu2 O4 131.0(4) 1_556 .
O2 Cu2 O4 128.3(4) 7_566 .
Cl1 Cu2 O4 113.38(16) 7_665 .
Cu3 Cu2 O4 94.38(19) . .
Cl4 Cu2 O4 71.36(19) . .
O1 Cu2 O2 124.2(4) . 4_455
O3 Cu2 O2 130.5(4) . 4_455
O5 Cu2 O2 56.2(4) 1_556 4_455
O2 Cu2 O2 47.4(4) 7_566 4_455
Cl1 Cu2 O2 111.46(18) 7_665 4_455
Cu3 Cu2 O2 90.50(15) . 4_455
Cl4 Cu2 O2 62.66(19) . 4_455
O4 Cu2 O2 133.9(2) . 4_455
O1 Cu2 O3 54.3(4) . 6
O3 Cu2 O3 51.5(4) . 6
O5 Cu2 O3 125.1(4) 1_556 6
O2 Cu2 O3 130.6(3) 7_566 6
Cl1 Cu2 O3 67.4(2) 7_665 6
Cu3 Cu2 O3 87.58(17) . 6
Cl4 Cu2 O3 118.2(2) . 6
O4 Cu2 O3 46.8(2) . 6
O2 Cu2 O3 178.0(2) 4_455 6
O1 Cu2 O2 127.1(4) . 1_556
O3 Cu2 O2 58.4(4) . 1_556
O5 Cu2 O2 50.0(3) 1_556 1_556
O2 Cu2 O2 120.83(18) 7_566 1_556
Cl1 Cu2 O2 57.41(17) 7_665 1_556
Cu3 Cu2 O2 128.11(17) . 1_556
Cl4 Cu2 O2 131.9(2) . 1_556
O4 Cu2 O2 108.8(3) . 1_556
O2 Cu2 O2 103.52(12) 4_455 1_556
O3 Cu2 O2 77.3(2) 6 1_556
O1 Cu3 O2 84.1(3) . 7_566
O1 Cu3 O2 84.1(3) . 4_454
O2 Cu3 O2 145.4(5) 7_566 4_454
O1 Cu3 Cl1 163.8(5) . .
O2 Cu3 Cl1 100.2(3) 7_566 .
O2 Cu3 Cl1 100.2(3) 4_454 .
O1 Cu3 Cu2 41.8(2) . .
O2 Cu3 Cu2 44.5(3) 7_566 .
O2 Cu3 Cu2 111.2(3) 4_454 .
Cl1 Cu3 Cu2 144.65(6) . .
O1 Cu3 Cu2 41.8(2) . 6
O2 Cu3 Cu2 111.2(3) 7_566 6
O2 Cu3 Cu2 44.5(3) 4_454 6
Cl1 Cu3 Cu2 144.65(6) . 6
Cu2 Cu3 Cu2 68.50(9) . 6
O1 Cu3 Cl2 72.2(4) . .
O2 Cu3 Cl2 103.5(3) 7_566 .
O2 Cu3 Cl2 103.5(3) 4_454 .
Cl1 Cu3 Cl2 91.6(2) . .
Cu2 Cu3 Cl2 96.36(12) . .
Cu2 Cu3 Cl2 96.37(12) 6 .
O1 Cu3 Cl1 70.6(4) . 7_665
O2 Cu3 Cl1 72.7(3) 7_566 7_665
O2 Cu3 Cl1 72.7(3) 4_454 7_665
Cl1 Cu3 Cl1 125.60(13) . 7_665
Cu2 Cu3 Cl1 54.28(8) . 7_665
Cu2 Cu3 Cl1 54.28(8) 6 7_665
Cl2 Cu3 Cl1 142.77(17) . 7_665
O1 Cu3 O3 123.7(4) . 7_565
O2 Cu3 O3 59.0(3) 7_566 7_565
O2 Cu3 O3 102.6(3) 4_454 7_565
Cl1 Cu3 O3 70.9(2) . 7_565
Cu2 Cu3 O3 86.27(17) . 7_565
Cu2 Cu3 O3 111.50(18) 6 7_565
Cl2 Cu3 O3 150.78(19) . 7_565
Cl1 Cu3 O3 59.19(18) 7_665 7_565
O1 Cu3 O3 123.7(4) . 4_455
O2 Cu3 O3 102.6(3) 7_566 4_455
O2 Cu3 O3 59.0(3) 4_454 4_455
Cl1 Cu3 O3 70.9(2) . 4_455
Cu2 Cu3 O3 111.50(18) . 4_455
Cu2 Cu3 O3 86.27(17) 6 4_455
Cl2 Cu3 O3 150.78(19) . 4_455
Cl1 Cu3 O3 59.19(18) 7_665 4_455
O3 Cu3 O3 45.1(3) 7_565 4_455
Cu3 Cl1 Cu2 103.49(17) . 7_565
Cu3 Cl1 Cu2 103.49(17) . 4_455
Cu2 Cl1 Cu2 69.05(13) 7_565 4_455
Cu3 Cl1 Te1 122.1(2) . 1_455
Cu2 Cl1 Te1 123.07(14) 7_565 1_455
Cu2 Cl1 Te1 123.07(14) 4_455 1_455
Cu3 Cl1 O2 37.42(17) . 7_566
Cu2 Cl1 O2 74.61(19) 7_565 7_566
Cu2 Cl1 O2 113.8(2) 4_455 7_566
Te1 Cl1 O2 123.1(2) 1_455 7_566
Cu3 Cl1 O2 37.42(17) . 4_454
Cu2 Cl1 O2 113.8(2) 7_565 4_454
Cu2 Cl1 O2 74.61(19) 4_455 4_454
Te1 Cl1 O2 123.1(2) 1_455 4_454
O2 Cl1 O2 72.2(3) 7_566 4_454
Cu3 Cl1 O1 117.9(3) . 7_565
Cu2 Cl1 O1 36.16(9) 7_565 7_565
Cu2 Cl1 O1 36.16(9) 4_455 7_565
Te1 Cl1 O1 120.0(3) 1_455 7_565
O2 Cl1 O1 104.0(3) 7_566 7_565
O2 Cl1 O1 104.0(3) 4_454 7_565
Cu3 Cl1 Cu3 152.1(2) . 7_565
Cu2 Cl1 Cu3 54.84(10) 7_565 7_565
Cu2 Cl1 Cu3 54.84(10) 4_455 7_565
Te1 Cl1 Cu3 85.82(13) 1_455 7_565
O2 Cl1 Cu3 129.3(2) 7_566 7_565
O2 Cl1 Cu3 129.3(2) 4_454 7_565
O1 Cl1 Cu3 34.2(2) 7_565 7_565
Cu3 Cl1 O2 136.3(2) . 6_454
Cu2 Cl1 O2 81.4(2) 7_565 6_454
Cu2 Cl1 O2 37.02(17) 4_455 6_454
Te1 Cl1 O2 86.73(19) 1_455 6_454
O2 Cl1 O2 148.8(2) 7_566 6_454
O2 Cl1 O2 100.3(3) 4_454 6_454
O1 Cl1 O2 47.2(2) 7_565 6_454
Cu3 Cl1 O2 34.97(17) 7_565 6_454
Cu3 Cl1 O2 136.3(2) . 1_456
Cu2 Cl1 O2 37.02(17) 7_565 1_456
Cu2 Cl1 O2 81.4(2) 4_455 1_456
Te1 Cl1 O2 86.73(19) 1_455 1_456
O2 Cl1 O2 100.3(3) 7_566 1_456
O2 Cl1 O2 148.8(2) 4_454 1_456
O1 Cl1 O2 47.2(2) 7_565 1_456
Cu3 Cl1 O2 34.97(17) 7_565 1_456
O2 Cl1 O2 69.9(3) 6_454 1_456
Cu3 Cl1 O3 138.3(3) . 6_455
Cu2 Cl1 O3 118.1(2) 7_565 6_455
Cu2 Cl1 O3 90.6(2) 4_455 6_455
Te1 Cl1 O3 32.60(19) 1_455 6_455
O2 Cl1 O3 155.6(3) 7_566 6_455
O2 Cl1 O3 115.6(2) 4_454 6_455
O1 Cl1 O3 96.6(3) 7_565 6_455
Cu3 Cl1 O3 65.5(2) 7_565 6_455
O2 Cl1 O3 55.2(3) 6_454 6_455
O2 Cl1 O3 84.0(3) 1_456 6_455
Cu3 Cl1 O3 138.3(3) . 1_455
Cu2 Cl1 O3 90.6(2) 7_565 1_455
Cu2 Cl1 O3 118.1(2) 4_455 1_455
Te1 Cl1 O3 32.60(19) 1_455 1_455
O2 Cl1 O3 115.6(2) 7_566 1_455
O2 Cl1 O3 155.6(3) 4_454 1_455
O1 Cl1 O3 96.6(3) 7_565 1_455
Cu3 Cl1 O3 65.5(2) 7_565 1_455
O2 Cl1 O3 84.0(3) 6_454 1_455
O2 Cl1 O3 55.2(3) 1_456 1_455
O3 Cl1 O3 48.0(4) 6_455 1_455
Cu1 Cl2 Cu4G 100.5(6) . 6
Cu1 Cl2 Cu4G 100.5(6) . .
Cu4G Cl2 Cu4G 137.5(13) 6 .
Cu1 Cl2 Cu4B 123.1(2) . 5
Cu4G Cl2 Cu4B 25.4(6) 6 5
Cu4G Cl2 Cu4B 115.6(7) . 5
Cu1 Cl2 Cu4B 123.1(2) . .
Cu4G Cl2 Cu4B 115.6(7) 6 .
Cu4G Cl2 Cu4B 25.4(6) . .
Cu4B Cl2 Cu4B 91.5(5) 5 .
Cu1 Cl2 Cu3 78.18(19) . .
Cu4G Cl2 Cu3 110.1(7) 6 .
Cu4G Cl2 Cu3 110.1(7) . .
Cu4B Cl2 Cu3 122.4(2) 5 .
Cu4B Cl2 Cu3 122.4(2) . .
Cu1 Cl2 O1 40.0(3) . .
Cu4G Cl2 O1 110.0(7) 6 .
Cu4G Cl2 O1 110.0(7) . .
Cu4B Cl2 O1 134.2(2) 5 .
Cu4B Cl2 O1 134.2(2) . .
Cu3 Cl2 O1 38.1(3) . .
Cu1 Cl2 O4 38.4(3) . 5_655
Cu4G Cl2 O4 87.1(6) 6 5_655
Cu4G Cl2 O4 87.1(6) . 5_655
Cu4B Cl2 O4 99.2(2) 5 5_655
Cu4B Cl2 O4 99.2(2) . 5_655
Cu3 Cl2 O4 116.5(3) . 5_655
O1 Cl2 O4 78.4(4) . 5_655
Cu1 Cl2 Cu4E 86.25(13) . 1_456
Cu4G Cl2 Cu4E 171.7(7) 6 1_456
Cu4G Cl2 Cu4E 44.2(6) . 1_456
Cu4B Cl2 Cu4E 149.7(3) 5 1_456
Cu4B Cl2 Cu4E 63.4(2) . 1_456
Cu3 Cl2 Cu4E 66.30(13) . 1_456
O1 Cl2 Cu4E 72.21(14) . 1_456
O4 Cl2 Cu4E 101.25(16) 5_655 1_456
Cu1 Cl2 Cu4E 86.25(13) . 6_454
Cu4G Cl2 Cu4E 44.2(6) 6 6_454
Cu4G Cl2 Cu4E 171.7(7) . 6_454
Cu4B Cl2 Cu4E 63.4(2) 5 6_454
Cu4B Cl2 Cu4E 149.7(3) . 6_454
Cu3 Cl2 Cu4E 66.30(13) . 6_454
O1 Cl2 Cu4E 72.21(14) . 6_454
O4 Cl2 Cu4E 101.25(16) 5_655 6_454
Cu4E Cl2 Cu4E 132.6(3) 1_456 6_454
Cu1 Cl2 Cl2 141.6(4) . 5
Cu4G Cl2 Cl2 70.2(7) 6 5
Cu4G Cl2 Cl2 70.2(7) . 5
Cu4B Cl2 Cl2 45.7(2) 5 5
Cu4B Cl2 Cl2 45.7(2) . 5
Cu3 Cl2 Cl2 140.2(3) . 5
O1 Cl2 Cl2 178.4(4) . 5
O4 Cl2 Cl2 103.2(4) 5_655 5
Cu4E Cl2 Cl2 107.33(13) 1_456 5
Cu4E Cl2 Cl2 107.33(13) 6_454 5
Cu1 Cl2 Cu4G 131.0(4) . 5
Cu4G Cl2 Cu4G 32.8(9) 6 5
Cu4G Cl2 Cu4G 110.2(7) . 5
Cu4B Cl2 Cu4G 7.9(5) 5 5
Cu4B Cl2 Cu4G 85.5(5) . 5
Cu3 Cl2 Cu4G 122.1(5) . 5
O1 Cl2 Cu4G 139.7(5) . 5
O4 Cl2 Cu4G 105.2(5) 5_655 5
Cu4E Cl2 Cu4G 141.9(5) 1_456 5
Cu4E Cl2 Cu4G 67.7(4) 6_454 5
Cl2 Cl2 Cu4G 40.0(5) 5 5
Cu4A Cl3 Cu4E 84.0(3) 1_655 .
Cu4A Cl3 Cu4E 84.0(3) 1_655 6_554
Cu4E Cl3 Cu4E 11.9(3) . 6_554
Cu4A Cl3 Cu4G 36.5(6) 1_655 6_655
Cu4E Cl3 Cu4G 64.2(7) . 6_655
Cu4E Cl3 Cu4G 58.3(6) 6_554 6_655
Cu4A Cl3 Cu4G 36.5(6) 1_655 1_654
Cu4E Cl3 Cu4G 58.3(6) . 1_654
Cu4E Cl3 Cu4G 64.2(7) 6_554 1_654
Cu4G Cl3 Cu4G 52.0(13) 6_655 1_654
Cu4A Cl3 Cu4G 36.3(6) 1_655 2_654
Cu4E Cl3 Cu4G 105.4(7) . 2_654
Cu4E Cl3 Cu4G 110.9(7) 6_554 2_654
Cu4G Cl3 Cu4G 72.8(10) 6_655 2_654
Cu4G Cl3 Cu4G 47.2(11) 1_654 2_654
Cu4A Cl3 Cu4G 36.3(6) 1_655 5_655
Cu4E Cl3 Cu4G 110.9(7) . 5_655
Cu4E Cl3 Cu4G 105.4(7) 6_554 5_655
Cu4G Cl3 Cu4G 47.2(11) 6_655 5_655
Cu4G Cl3 Cu4G 72.8(10) 1_654 5_655
Cu4G Cl3 Cu4G 51.8(13) 2_654 5_655
Cu4A Cl3 Cu4B 37.4(3) 1_655 1_654
Cu4E Cl3 Cu4B 81.6(2) . 1_654
Cu4E Cl3 Cu4B 88.9(3) 6_554 1_654
Cu4G Cl3 Cu4B 68.1(7) 6_655 1_654
Cu4G Cl3 Cu4B 25.1(6) 1_654 1_654
Cu4G Cl3 Cu4B 25.1(6) 2_654 1_654
Cu4G Cl3 Cu4B 67.9(7) 5_655 1_654
Cu4A Cl3 Cu4B 37.4(3) 1_655 5_655
Cu4E Cl3 Cu4B 88.9(3) . 5_655
Cu4E Cl3 Cu4B 81.6(2) 6_554 5_655
Cu4G Cl3 Cu4B 25.1(6) 6_655 5_655
Cu4G Cl3 Cu4B 68.1(7) 1_654 5_655
Cu4G Cl3 Cu4B 67.9(7) 2_654 5_655
Cu4G Cl3 Cu4B 25.1(6) 5_655 5_655
Cu4B Cl3 Cu4B 74.7(5) 1_654 5_655
Cu4A Cl3 Cu4D 93.8(8) 1_655 1_554
Cu4E Cl3 Cu4D 173.7(3) . 1_554
Cu4E Cl3 Cu4D 173.7(3) 6_554 1_554
Cu4G Cl3 Cu4D 117.0(10) 6_655 1_554
Cu4G Cl3 Cu4D 117.0(10) 1_654 1_554
Cu4G Cl3 Cu4D 69.8(9) 2_654 1_554
Cu4G Cl3 Cu4D 69.8(9) 5_655 1_554
Cu4B Cl3 Cu4D 93.0(7) 1_654 1_554
Cu4B Cl3 Cu4D 93.0(7) 5_655 1_554
Cu4A Cl3 O3 130.0(3) 1_655 1_554
Cu4E Cl3 O3 124.1(3) . 1_554
Cu4E Cl3 O3 132.1(3) 6_554 1_554
Cu4G Cl3 O3 166.2(7) 6_655 1_554
Cu4G Cl3 O3 120.5(7) 1_654 1_554
Cu4G Cl3 O3 93.8(6) 2_654 1_554
Cu4G Cl3 O3 121.8(7) 5_655 1_554
Cu4B Cl3 O3 101.0(3) 1_654 1_554
Cu4B Cl3 O3 146.3(4) 5_655 1_554
Cu4D Cl3 O3 53.4(6) 1_554 1_554
Cu4A Cl3 O3 130.0(3) 1_655 6
Cu4E Cl3 O3 132.1(3) . 6
Cu4E Cl3 O3 124.1(3) 6_554 6
Cu4G Cl3 O3 120.5(7) 6_655 6
Cu4G Cl3 O3 166.2(7) 1_654 6
Cu4G Cl3 O3 121.8(7) 2_654 6
Cu4G Cl3 O3 93.8(6) 5_655 6
Cu4B Cl3 O3 146.3(4) 1_654 6
Cu4B Cl3 O3 101.0(3) 5_655 6
Cu4D Cl3 O3 53.4(6) 1_554 6
O3 Cl3 O3 63.8(4) 1_554 6
Cu4E Cl4 Cu4E 11.9(3) 1_456 6_455
Cu4E Cl4 Cu4D 164.8(9) 1_456 .
Cu4E Cl4 Cu4D 164.8(9) 6_455 .
Cu4E Cl4 Cu4D 111.1(8) 1_456 5_656
Cu4E Cl4 Cu4D 111.1(8) 6_455 5_656
Cu4D Cl4 Cu4D 82.8(13) . 5_656
Cu4E Cl4 Cu2 80.3(2) 1_456 .
Cu4E Cl4 Cu2 86.9(2) 6_455 .
Cu4D Cl4 Cu2 84.7(8) . .
Cu4D Cl4 Cu2 144.3(3) 5_656 .
Cu4E Cl4 Cu2 86.9(2) 1_456 6_556
Cu4E Cl4 Cu2 80.3(2) 6_455 6_556
Cu4D Cl4 Cu2 84.7(8) . 6_556
Cu4D Cl4 Cu2 144.3(3) 5_656 6_556
Cu2 Cl4 Cu2 66.71(18) . 6_556
Cu4E Cl4 Cu4G 52.5(5) 1_456 6_556
Cu4E Cl4 Cu4G 47.2(5) 6_455 6_556
Cu4D Cl4 Cu4G 142.5(9) . 6_556
Cu4D Cl4 Cu4G 66.3(9) 5_656 6_556
Cu2 Cl4 Cu4G 132.8(5) . 6_556
Cu2 Cl4 Cu4G 107.8(5) 6_556 6_556
Cu4E Cl4 Cu4G 47.2(5) 1_456 .
Cu4E Cl4 Cu4G 52.5(5) 6_455 .
Cu4D Cl4 Cu4G 142.5(9) . .
Cu4D Cl4 Cu4G 66.3(9) 5_656 .
Cu2 Cl4 Cu4G 107.8(5) . .
Cu2 Cl4 Cu4G 132.8(5) 6_556 .
Cu4G Cl4 Cu4G 39.8(10) 6_556 .
Cu4E Cl4 Cu1 86.63(18) 1_456 .
Cu4E Cl4 Cu1 98.5(2) 6_455 .
Cu4D Cl4 Cu1 88.94(16) . .
Cu4D Cl4 Cu1 83.58(14) 5_656 .
Cu2 Cl4 Cu1 62.84(8) . .
Cu2 Cl4 Cu1 129.5(2) 6_556 .
Cu4G Cl4 Cu1 107.3(5) 6_556 .
Cu4G Cl4 Cu1 67.7(5) . .
Cu4E Cl4 Cu1 98.5(2) 1_456 1_556
Cu4E Cl4 Cu1 86.63(18) 6_455 1_556
Cu4D Cl4 Cu1 88.94(16) . 1_556
Cu4D Cl4 Cu1 83.58(14) 5_656 1_556
Cu2 Cl4 Cu1 129.5(2) . 1_556
Cu2 Cl4 Cu1 62.84(8) 6_556 1_556
Cu4G Cl4 Cu1 67.7(5) 6_556 1_556
Cu4G Cl4 Cu1 107.3(5) . 1_556
Cu1 Cl4 Cu1 167.2(3) . 1_556
Cu4E Cl4 O2 50.7(2) 1_456 4_455
Cu4E Cl4 O2 44.5(2) 6_455 4_455
Cu4D Cl4 O2 120.4(9) . 4_455
Cu4D Cl4 O2 146.0(6) 5_656 4_455
Cu2 Cl4 O2 67.6(2) . 4_455
Cu2 Cl4 O2 36.22(17) 6_556 4_455
Cu4G Cl4 O2 81.8(5) 6_556 4_455
Cu4G Cl4 O2 96.9(5) . 4_455
Cu1 Cl4 O2 118.6(2) . 4_455
Cu1 Cl4 O2 73.14(18) 1_556 4_455
Cu4E Cl4 O2 44.5(2) 1_456 7_566
Cu4E Cl4 O2 50.7(2) 6_455 7_566
Cu4D Cl4 O2 120.4(9) . 7_566
Cu4D Cl4 O2 146.0(6) 5_656 7_566
Cu2 Cl4 O2 36.22(17) . 7_566
Cu2 Cl4 O2 67.6(2) 6_556 7_566
Cu4G Cl4 O2 96.9(5) 6_556 7_566
Cu4G Cl4 O2 81.8(5) . 7_566
Cu1 Cl4 O2 73.14(18) . 7_566
Cu1 Cl4 O2 118.6(2) 1_556 7_566
O2 Cl4 O2 45.5(3) 4_455 7_566
Cu1 O1 Cu2 114.2(4) . .
Cu1 O1 Cu2 114.2(4) . 6
Cu2 O1 Cu2 114.2(7) . 6
Cu1 O1 Cu3 119.2(7) . .
Cu2 O1 Cu3 96.4(5) . .
Cu2 O1 Cu3 96.4(5) 6 .
Cu1 O1 O2 120.3(4) . 4_454
Cu2 O1 O2 124.7(7) . 4_454
Cu2 O1 O2 49.6(3) 6 4_454
Cu3 O1 O2 49.1(3) . 4_454
Cu1 O1 O2 120.3(4) . 7_566
Cu2 O1 O2 49.6(3) . 7_566
Cu2 O1 O2 124.7(7) 6 7_566
Cu3 O1 O2 49.1(3) . 7_566
O2 O1 O2 93.0(6) 4_454 7_566
Cu1 O1 O4 42.7(4) . .
Cu2 O1 O4 93.4(4) . .
Cu2 O1 O4 93.4(4) 6 .
Cu3 O1 O4 161.9(7) . .
O2 O1 O4 133.5(3) 4_454 .
O2 O1 O4 133.5(3) 7_566 .
Cu1 O1 O3 95.6(5) . 6
Cu2 O1 O3 93.2(5) . 6
Cu2 O1 O3 40.9(3) 6 6
Cu3 O1 O3 135.4(5) . 6
O2 O1 O3 90.4(4) 4_454 6
O2 O1 O3 135.2(6) 7_566 6
O4 O1 O3 58.8(4) . 6
Cu1 O1 O3 95.6(5) . .
Cu2 O1 O3 40.9(3) . .
Cu2 O1 O3 93.2(5) 6 .
Cu3 O1 O3 135.4(5) . .
O2 O1 O3 135.2(6) 4_454 .
O2 O1 O3 90.4(4) 7_566 .
O4 O1 O3 58.8(4) . .
O3 O1 O3 57.9(5) 6 .
Cu1 O1 Cl2 49.5(3) . .
Cu2 O1 Cl2 122.5(3) . .
Cu2 O1 Cl2 122.5(3) 6 .
Cu3 O1 Cl2 69.7(4) . .
O2 O1 Cl2 88.3(4) 4_454 .
O2 O1 Cl2 88.3(4) 7_566 .
O4 O1 Cl2 92.2(5) . .
O3 O1 Cl2 136.4(5) 6 .
O3 O1 Cl2 136.4(5) . .
Cu1 O1 Cl1 165.6(6) . 7_665
Cu2 O1 Cl1 61.0(4) . 7_665
Cu2 O1 Cl1 61.0(4) 6 7_665
Cu3 O1 Cl1 75.3(4) . 7_665
O2 O1 Cl1 68.2(4) 4_454 7_665
O2 O1 Cl1 68.2(4) 7_566 7_665
O4 O1 Cl1 122.8(5) . 7_665
O3 O1 Cl1 71.9(4) 6 7_665
O3 O1 Cl1 71.9(4) . 7_665
Cl2 O1 Cl1 144.9(5) . 7_665
Cu1 O1 Te1 77.4(4) . .
Cu2 O1 Te1 75.0(4) . .
Cu2 O1 Te1 75.0(4) 6 .
Cu3 O1 Te1 163.4(6) . .
O2 O1 Te1 124.6(4) 4_454 .
O2 O1 Te1 124.6(4) 7_566 .
O4 O1 Te1 34.7(3) . .
O3 O1 Te1 34.2(3) 6 .
O3 O1 Te1 34.2(3) . .
Cl2 O1 Te1 126.9(5) . .
Cl1 O1 Te1 88.2(3) 7_665 .
Te2 O2 Cu3 140.1(5) . 7_664
Te2 O2 Cu2 112.1(5) . 7_664
Cu3 O2 Cu2 91.5(4) 7_664 7_664
Te2 O2 Cu4E 105.3(4) . 7_565
Cu3 O2 Cu4E 101.2(4) 7_664 7_565
Cu2 O2 Cu4E 100.1(4) 7_664 7_565
Te2 O2 O2 47.4(3) . 6_554
Cu3 O2 O2 162.7(3) 7_664 6_554
Cu2 O2 O2 98.3(3) 7_664 6_554
Cu4E O2 O2 63.1(3) 7_565 6_554
Te2 O2 O1 154.3(5) . 7_664
Cu3 O2 O1 46.8(3) 7_664 7_664
Cu2 O2 O1 46.7(3) 7_664 7_664
Cu4E O2 O1 94.3(4) 7_565 7_664
O2 O2 O1 136.5(3) 6_554 7_664
Te2 O2 Cu4E 96.8(4) . 4_454
Cu3 O2 Cu4E 110.3(4) 7_664 4_454
Cu2 O2 Cu4E 100.7(4) 7_664 4_454
Cu4E O2 Cu4E 9.2(2) 7_565 4_454
O2 O2 Cu4E 53.9(2) 6_554 4_454
O1 O2 Cu4E 101.4(4) 7_664 4_454
Te2 O2 O5 41.5(3) . .
Cu3 O2 O5 111.9(4) 7_664 .
Cu2 O2 O5 153.5(5) 7_664 .
Cu4E O2 O5 87.8(4) 7_565 .
O2 O2 O5 62.7(2) 6_554 .
O1 O2 O5 158.6(5) 7_664 .
Cu4E O2 O5 83.3(3) 4_454 .
Te2 O2 O5 70.1(4) . 7_665
Cu3 O2 O5 131.0(4) 7_664 7_665
Cu2 O2 O5 42.9(3) 7_664 7_665
Cu4E O2 O5 103.4(4) 7_565 7_665
O2 O2 O5 63.4(2) 6_554 7_665
O1 O2 O5 89.5(4) 7_664 7_665
Cu4E O2 O5 97.5(4) 4_454 7_665
O5 O2 O5 110.7(3) . 7_665
Te2 O2 O3 52.5(3) . 1_554
Cu3 O2 O3 88.1(4) 7_664 1_554
Cu2 O2 O3 120.2(4) 7_664 1_554
Cu4E O2 O3 138.4(4) 7_565 1_554
O2 O2 O3 99.1(3) 6_554 1_554
O1 O2 O3 119.8(5) 7_664 1_554
Cu4E O2 O3 134.9(4) 4_454 1_554
O5 O2 O3 51.6(3) . 1_554
O5 O2 O3 100.1(4) 7_665 1_554
Te2 O2 Cl1 107.6(4) . 7_664
Cu3 O2 Cl1 42.4(2) 7_664 7_664
Cu2 O2 Cl1 133.9(4) 7_664 7_664
Cu4E O2 Cl1 90.9(3) 7_565 7_664
O2 O2 Cl1 126.12(16) 6_554 7_664
O1 O2 Cl1 88.2(4) 7_664 7_664
Cu4E O2 Cl1 96.9(3) 4_454 7_664
O5 O2 Cl1 70.5(3) . 7_664
O5 O2 Cl1 165.6(4) 7_665 7_664
O3 O2 Cl1 69.0(3) 1_554 7_664
Te2 O2 Cl1 92.6(3) . 1_654
Cu3 O2 Cl1 72.3(3) 7_664 1_654
Cu2 O2 Cl1 58.6(2) 7_664 1_654
Cu4E O2 Cl1 156.7(4) 7_565 1_654
O2 O2 Cl1 124.97(17) 6_554 1_654
O1 O2 Cl1 64.6(4) 7_664 1_654
Cu4E O2 Cl1 159.2(4) 4_454 1_654
O5 O2 Cl1 115.4(4) . 1_654
O5 O2 Cl1 68.4(2) 7_665 1_654
O3 O2 Cl1 64.7(3) 1_554 1_654
Cl1 O2 Cl1 97.9(3) 7_664 1_654
Te1 O3 Cu2 126.1(6) . .
Te1 O3 Te2 140.3(5) . 1_556
Cu2 O3 Te2 92.0(4) . 1_556
Te1 O3 O5 174.5(6) . 1_556
Cu2 O3 O5 49.2(4) . 1_556
Te2 O3 O5 43.5(3) 1_556 1_556
Te1 O3 O3 41.4(3) . 6
Cu2 O3 O3 96.2(3) . 6
Te2 O3 O3 136.4(3) 1_556 6
O5 O3 O3 133.4(3) 1_556 6
Te1 O3 O4 41.9(3) . .
Cu2 O3 O4 93.9(5) . .
Te2 O3 O4 161.6(5) 1_556 .
O5 O3 O4 136.6(6) 1_556 .
O3 O3 O4 60.1(3) 6 .
Te1 O3 Cu4D 95.1(7) . .
Cu2 O3 Cu4D 92.6(8) . .
Te2 O3 Cu4D 93.3(6) 1_556 .
O5 O3 Cu4D 88.2(7) 1_556 .
O3 O3 Cu4D 128.8(5) 6 .
O4 O3 Cu4D 69.1(5) . .
Te1 O3 O1 85.4(4) . .
Cu2 O3 O1 40.8(3) . .
Te2 O3 O1 131.5(5) 1_556 .
O5 O3 O1 89.8(4) 1_556 .
O3 O3 O1 61.1(2) 6 .
O4 O3 O1 59.4(4) . .
Cu4D O3 O1 98.4(7) . .
Te1 O3 O2 121.4(5) . 1_556
Cu2 O3 O2 90.2(4) . 1_556
Te2 O3 O2 38.0(2) 1_556 1_556
O5 O3 O2 58.5(4) 1_556 1_556
O3 O3 O2 99.1(3) 6 1_556
O4 O3 O2 159.1(5) . 1_556
Cu4D O3 O2 131.3(6) . 1_556
O1 O3 O2 114.3(5) . 1_556
Te1 O3 Cl3 83.6(4) . 1_556
Cu2 O3 Cl3 139.7(5) . 1_556
Te2 O3 Cl3 70.3(3) 1_556 1_556
O5 O3 Cl3 101.9(4) 1_556 1_556
O3 O3 Cl3 121.91(19) 6 1_556
O4 O3 Cl3 94.2(4) . 1_556
Cu4D O3 Cl3 54.4(7) . 1_556
O1 O3 Cl3 149.3(5) . 1_556
O2 O3 Cl3 95.9(4) 1_556 1_556
Te1 O3 Cl1 63.6(3) . 1_655
Cu2 O3 Cl1 139.9(5) . 1_655
Te2 O3 Cl1 80.4(3) 1_556 1_655
O5 O3 Cl1 117.6(5) 1_556 1_655
O3 O3 Cl1 66.02(18) 6 1_655
O4 O3 Cl1 105.5(4) . 1_655
Cu4D O3 Cl1 126.9(7) . 1_655
O1 O3 Cl1 125.0(4) . 1_655
O2 O3 Cl1 60.1(3) 1_556 1_655
Cl3 O3 Cl1 74.4(2) 1_556 1_655
Te1 O3 Cu2 68.9(3) . 6
Cu2 O3 Cu2 63.8(3) . 6
Te2 O3 Cu2 132.2(4) 1_556 6
O5 O3 Cu2 105.6(4) 1_556 6
O3 O3 Cu2 32.34(17) 6 6
O4 O3 Cu2 65.6(3) . 6
Cu4D O3 Cu2 126.2(6) . 6
O1 O3 Cu2 32.45(19) . 6
O2 O3 Cu2 98.3(4) 1_556 6
Cl3 O3 Cu2 152.5(3) 1_556 6
Cl1 O3 Cu2 92.6(3) 1_655 6
Te1 O4 Cu1 128.9(8) . .
Te1 O4 Cu1 129.4(8) . 5_655
Cu1 O4 Cu1 101.7(6) . 5_655
Te1 O4 O4 179.9(11) . 5_655
Cu1 O4 O4 51.2(5) . 5_655
Cu1 O4 O4 50.5(5) 5_655 5_655
Te1 O4 O3 41.3(3) . .
Cu1 O4 O3 97.8(6) . .
Cu1 O4 O3 144.2(4) 5_655 .
O4 O4 O3 138.8(6) 5_655 .
Te1 O4 O3 41.3(3) . 6
Cu1 O4 O3 97.8(6) . 6
Cu1 O4 O3 144.2(4) 5_655 6
O4 O4 O3 138.8(6) 5_655 6
O3 O4 O3 59.8(6) . 6
Te1 O4 O1 86.9(6) . .
Cu1 O4 O1 42.0(4) . .
Cu1 O4 O1 143.7(7) 5_655 .
O4 O4 O1 93.2(8) 5_655 .
O3 O4 O1 61.8(4) . .
O3 O4 O1 61.8(4) 6 .
Te1 O4 Cl2 83.7(5) . 5_655
Cu1 O4 Cl2 147.4(7) . 5_655
Cu1 O4 Cl2 45.7(3) 5_655 5_655
O4 O4 Cl2 96.2(8) 5_655 5_655
O3 O4 Cl2 110.3(4) . 5_655
O3 O4 Cl2 110.3(4) 6 5_655
O1 O4 Cl2 170.6(6) . 5_655
Te1 O4 Cu4D 84.1(7) . 1_554
Cu1 O4 Cu4D 95.6(6) . 1_554
Cu1 O4 Cu4D 91.9(7) 5_655 1_554
O4 O4 Cu4D 95.9(7) 5_655 1_554
O3 O4 Cu4D 115.9(8) . 1_554
O3 O4 Cu4D 56.3(7) 6 1_554
O1 O4 Cu4D 92.1(7) . 1_554
Cl2 O4 Cu4D 86.9(7) 5_655 1_554
Te1 O4 Cu4D 84.1(7) . .
Cu1 O4 Cu4D 95.6(6) . .
Cu1 O4 Cu4D 91.9(7) 5_655 .
O4 O4 Cu4D 95.9(7) 5_655 .
O3 O4 Cu4D 56.3(7) . .
O3 O4 Cu4D 115.9(8) 6 .
O1 O4 Cu4D 92.1(7) . .
Cl2 O4 Cu4D 86.9(7) 5_655 .
Cu4D O4 Cu4D 167.2(13) 1_554 .
Te1 O4 Cu2 70.2(4) . .
Cu1 O4 Cu2 64.7(4) . .
Cu1 O4 Cu2 148.2(3) 5_655 .
O4 O4 Cu2 109.9(7) 5_655 .
O3 O4 Cu2 33.0(3) . .
O3 O4 Cu2 67.6(4) 6 .
O1 O4 Cu2 33.0(2) . .
Cl2 O4 Cu2 141.2(3) 5_655 .
Cu4D O4 Cu2 117.1(8) 1_554 .
Cu4D O4 Cu2 62.9(7) . .
Te1 O4 Cu2 70.2(4) . 6
Cu1 O4 Cu2 64.7(4) . 6
Cu1 O4 Cu2 148.2(3) 5_655 6
O4 O4 Cu2 109.9(7) 5_655 6
O3 O4 Cu2 67.6(4) . 6
O3 O4 Cu2 33.0(3) 6 6
O1 O4 Cu2 33.0(2) . 6
Cl2 O4 Cu2 141.2(3) 5_655 6
Cu4D O4 Cu2 62.9(7) 1_554 6
Cu4D O4 Cu2 117.1(8) . 6
Cu2 O4 Cu2 54.5(2) . 6
Te2 O5 Cu2 110.4(5) . 1_554
Te2 O5 Cu2 110.4(5) . 6
Cu2 O5 Cu2 106.4(6) 1_554 6
Te2 O5 O3 64.6(4) . 1_554
Cu2 O5 O3 46.7(3) 1_554 1_554
Cu2 O5 O3 114.5(6) 6 1_554
Te2 O5 O3 64.6(4) . 6
Cu2 O5 O3 114.5(6) 1_554 6
Cu2 O5 O3 46.7(3) 6 6
O3 O5 O3 86.8(6) 1_554 6
Te2 O5 O2 42.4(3) . .
Cu2 O5 O2 97.5(3) 1_554 .
Cu2 O5 O2 150.0(5) 6 .
O3 O5 O2 69.9(4) 1_554 .
O3 O5 O2 106.7(5) 6 .
Te2 O5 O2 42.4(3) . 6_554
Cu2 O5 O2 150.0(5) 1_554 6_554
Cu2 O5 O2 97.5(3) 6 6_554
O3 O5 O2 106.7(5) 1_554 6_554
O3 O5 O2 69.9(4) 6 6_554
O2 O5 O2 54.6(4) . 6_554
Te2 O5 Te2 158.9(6) . 7_565
Cu2 O5 Te2 81.3(4) 1_554 7_565
Cu2 O5 Te2 81.3(4) 6 7_565
O3 O5 Te2 127.7(4) 1_554 7_565
O3 O5 Te2 127.7(4) 6 7_565
O2 O5 Te2 120.8(4) . 7_565
O2 O5 Te2 120.8(4) 6_554 7_565
Te2 O5 O2 152.3(3) . 7_565
Cu2 O5 O2 43.2(3) 1_554 7_565
Cu2 O5 O2 89.3(5) 6 7_565
O3 O5 O2 89.9(4) 1_554 7_565
O3 O5 O2 127.8(5) 6 7_565
O2 O5 O2 120.8(4) . 7_565
O2 O5 O2 157.2(5) 6_554 7_565
Te2 O5 O2 38.7(2) 7_565 7_565
Te2 O5 O2 152.3(3) . 4_454
Cu2 O5 O2 89.3(5) 1_554 4_454
Cu2 O5 O2 43.2(3) 6 4_454
O3 O5 O2 127.8(5) 1_554 4_454
O3 O5 O2 89.9(4) 6 4_454
O2 O5 O2 157.2(5) . 4_454
O2 O5 O2 120.8(4) 6_554 4_454
Te2 O5 O2 38.7(2) 7_565 4_454
O2 O5 O2 53.1(4) 7_565 4_454
Te2 O5 Cl1 98.1(3) . 7_665
Cu2 O5 Cl1 150.3(5) 1_554 7_665
Cu2 O5 Cl1 53.81(16) 6 7_665
O3 O5 Cl1 156.0(5) 1_554 7_665
O3 O5 Cl1 70.2(3) 6 7_665
O2 O5 Cl1 109.3(4) . 7_665
O2 O5 Cl1 59.7(2) 6_554 7_665
Te2 O5 Cl1 74.3(2) 7_565 7_665
O2 O5 Cl1 109.4(4) 7_565 7_665
O2 O5 Cl1 61.1(2) 4_454 7_665
Te2 O5 Cl1 98.1(3) . 7_664
Cu2 O5 Cl1 53.81(16) 1_554 7_664
Cu2 O5 Cl1 150.3(5) 6 7_664
O3 O5 Cl1 70.2(3) 1_554 7_664
O3 O5 Cl1 156.0(5) 6 7_664
O2 O5 Cl1 59.7(2) . 7_664
O2 O5 Cl1 109.3(4) 6_554 7_664
Te2 O5 Cl1 74.3(2) 7_565 7_664
O2 O5 Cl1 61.1(2) 7_565 7_664
O2 O5 Cl1 109.4(4) 4_454 7_664
Cl1 O5 Cl1 131.4(4) 7_665 7_664
Cu4G Cu4A Cu4G 180.0 6 2_554
Cu4G Cu4A Cu4G 85(2) 6 5
Cu4G Cu4A Cu4G 95(2) 2_554 5
Cu4G Cu4A Cu4G 95(2) 6 1_554
Cu4G Cu4A Cu4G 85(2) 2_554 1_554
Cu4G Cu4A Cu4G 180(3) 5 1_554
Cu4G Cu4A Cu4B 42.5(10) 6 5
Cu4G Cu4A Cu4B 137.5(11) 2_554 5
Cu4G Cu4A Cu4B 42.5(11) 5 5
Cu4G Cu4A Cu4B 137.5(11) 1_554 5
Cu4G Cu4A Cu4B 137.5(10) 6 1_554
Cu4G Cu4A Cu4B 42.5(11) 2_554 1_554
Cu4G Cu4A Cu4B 137.5(11) 5 1_554
Cu4G Cu4A Cu4B 42.5(11) 1_554 1_554
Cu4B Cu4A Cu4B 180.0 5 1_554
Cu4G Cu4A Cl3 89.8(10) 6 1_455
Cu4G Cu4A Cl3 90.2(10) 2_554 1_455
Cu4G Cu4A Cl3 90.2(10) 5 1_455
Cu4G Cu4A Cl3 89.8(10) 1_554 1_455
Cu4B Cu4A Cl3 90.000(1) 5 1_455
Cu4B Cu4A Cl3 90.000(1) 1_554 1_455
Cu4G Cu4A Cl3 90.2(10) 6 5_654
Cu4G Cu4A Cl3 89.8(10) 2_554 5_654
Cu4G Cu4A Cl3 89.8(10) 5 5_654
Cu4G Cu4A Cl3 90.2(10) 1_554 5_654
Cu4B Cu4A Cl3 90.000(1) 5 5_654
Cu4B Cu4A Cl3 90.000(1) 1_554 5_654
Cl3 Cu4A Cl3 180.0 1_455 5_654
Cu4G Cu4A Cu4E 53.1(10) 6 6_454
Cu4G Cu4A Cu4E 126.9(10) 2_554 6_454
Cu4G Cu4A Cu4E 118.5(10) 5 6_454
Cu4G Cu4A Cu4E 61.5(10) 1_554 6_454
Cu4B Cu4A Cu4E 85.22(12) 5 6_454
Cu4B Cu4A Cu4E 94.78(12) 1_554 6_454
Cl3 Cu4A Cu4E 53.0(2) 1_455 6_454
Cl3 Cu4A Cu4E 127.0(2) 5_654 6_454
Cu4G Cu4A Cu4E 126.9(10) 6 2_655
Cu4G Cu4A Cu4E 53.1(10) 2_554 2_655
Cu4G Cu4A Cu4E 61.5(10) 5 2_655
Cu4G Cu4A Cu4E 118.5(10) 1_554 2_655
Cu4B Cu4A Cu4E 94.78(12) 5 2_655
Cu4B Cu4A Cu4E 85.22(12) 1_554 2_655
Cl3 Cu4A Cu4E 127.0(2) 1_455 2_655
Cl3 Cu4A Cu4E 53.0(3) 5_654 2_655
Cu4E Cu4A Cu4E 180.00(16) 6_454 2_655
Cu4G Cu4A Cu4E 61.5(10) 6 1_455
Cu4G Cu4A Cu4E 118.5(10) 2_554 1_455
Cu4G Cu4A Cu4E 126.9(10) 5 1_455
Cu4G Cu4A Cu4E 53.1(10) 1_554 1_455
Cu4B Cu4A Cu4E 94.78(12) 5 1_455
Cu4B Cu4A Cu4E 85.22(12) 1_554 1_455
Cl3 Cu4A Cu4E 53.0(2) 1_455 1_455
Cl3 Cu4A Cu4E 127.0(2) 5_654 1_455
Cu4E Cu4A Cu4E 9.6(2) 6_454 1_455
Cu4E Cu4A Cu4E 170.4(2) 2_655 1_455
Cu4G Cu4A Cu4E 118.5(10) 6 5_654
Cu4G Cu4A Cu4E 61.5(10) 2_554 5_654
Cu4G Cu4A Cu4E 53.1(10) 5 5_654
Cu4G Cu4A Cu4E 126.9(10) 1_554 5_654
Cu4B Cu4A Cu4E 85.22(12) 5 5_654
Cu4B Cu4A Cu4E 94.78(12) 1_554 5_654
Cl3 Cu4A Cu4E 127.0(2) 1_455 5_654
Cl3 Cu4A Cu4E 53.0(3) 5_654 5_654
Cu4E Cu4A Cu4E 170.4(2) 6_454 5_654
Cu4E Cu4A Cu4E 9.6(2) 2_655 5_654
Cu4E Cu4A Cu4E 180.0(3) 1_455 5_654
Cu4G Cu4B Cu4G 132(3) . 2
Cu4G Cu4B Cu4A 66.1(16) . 1_556
Cu4G Cu4B Cu4A 66.1(16) 2 1_556
Cu4G Cu4B Cl3 75.5(15) . 1_456
Cu4G Cu4B Cl3 76.0(15) 2 1_456
Cu4A Cu4B Cl3 52.6(3) 1_556 1_456
Cu4G Cu4B Cl3 76.0(15) . 5_655
Cu4G Cu4B Cl3 75.5(15) 2 5_655
Cu4A Cu4B Cl3 52.6(3) 1_556 5_655
Cl3 Cu4B Cl3 105.3(5) 1_456 5_655
Cu4G Cu4B Cl2 71.6(15) . .
Cu4G Cu4B Cl2 153.5(16) 2 .
Cu4A Cu4B Cl2 135.7(2) 1_556 .
Cl3 Cu4B Cl2 104.8(2) 1_456 .
Cl3 Cu4B Cl2 127.9(2) 5_655 .
Cu4G Cu4B Cl2 153.5(16) . 5
Cu4G Cu4B Cl2 71.6(15) 2 5
Cu4A Cu4B Cl2 135.7(2) 1_556 5
Cl3 Cu4B Cl2 127.9(2) 1_456 5
Cl3 Cu4B Cl2 104.8(2) 5_655 5
Cl2 Cu4B Cl2 88.5(5) . 5
Cu4G Cu4B Cu4G 45.3(16) . 6_556
Cu4G Cu4B Cu4G 87.0(18) 2 6_556
Cu4A Cu4B Cu4G 20.8(6) 1_556 6_556
Cl3 Cu4B Cu4G 55.3(6) 1_456 6_556
Cl3 Cu4B Cu4G 55.6(6) 5_655 6_556
Cl2 Cu4B Cu4G 115.7(5) . 6_556
Cl2 Cu4B Cu4G 154.8(7) 5 6_556
Cu4G Cu4B Cu4G 87.0(18) . 5_556
Cu4G Cu4B Cu4G 45.3(16) 2 5_556
Cu4A Cu4B Cu4G 20.8(6) 1_556 5_556
Cl3 Cu4B Cu4G 55.6(6) 1_456 5_556
Cl3 Cu4B Cu4G 55.3(6) 5_655 5_556
Cl2 Cu4B Cu4G 154.8(7) . 5_556
Cl2 Cu4B Cu4G 115.7(5) 5 5_556
Cu4G Cu4B Cu4G 41.7(11) 6_556 5_556
Cu4G Cu4B Cu4B 66.1(16) . 5_556
Cu4G Cu4B Cu4B 66.1(16) 2 5_556
Cu4A Cu4B Cu4B 0.0 1_556 5_556
Cl3 Cu4B Cu4B 52.6(3) 1_456 5_556
Cl3 Cu4B Cu4B 52.6(3) 5_655 5_556
Cl2 Cu4B Cu4B 135.7(2) . 5_556
Cl2 Cu4B Cu4B 135.7(2) 5 5_556
Cu4G Cu4B Cu4B 20.8(6) 6_556 5_556
Cu4G Cu4B Cu4B 20.8(6) 5_556 5_556
Cl4 Cu4D Cl4 97.2(13) . 5_656
Cl4 Cu4D O3 87.6(10) . .
Cl4 Cu4D O3 141.0(5) 5_656 .
Cl4 Cu4D O3 87.6(10) . 6_556
Cl4 Cu4D O3 141.0(5) 5_656 6_556
O3 Cu4D O3 77.7(10) . 6_556
Cl4 Cu4D Cl3 153.9(17) . 1_556
Cl4 Cu4D Cl3 108.9(13) 5_656 1_556
O3 Cu4D Cl3 72.2(8) . 1_556
O3 Cu4D Cl3 72.2(8) 6_556 1_556
Cl4 Cu4D O4 84.6(6) . .
Cl4 Cu4D O4 87.2(7) 5_656 .
O3 Cu4D O4 54.6(4) . .
O3 Cu4D O4 131.8(12) 6_556 .
Cl3 Cu4D O4 96.4(6) 1_556 .
Cl4 Cu4D O4 84.6(6) . 1_556
Cl4 Cu4D O4 87.2(7) 5_656 1_556
O3 Cu4D O4 131.8(12) . 1_556
O3 Cu4D O4 54.6(4) 6_556 1_556
Cl3 Cu4D O4 96.4(6) 1_556 1_556
O4 Cu4D O4 167.2(13) . 1_556
Cu4E Cu4E Cl3 84.04(15) 6_554 .
Cu4E Cu4E Cl4 84.04(14) 6_554 1_654
Cl3 Cu4E Cl4 140.3(3) . 1_654
Cu4E Cu4E Cu4G 111.0(7) 6_554 1_654
Cl3 Cu4E Cu4G 63.8(7) . 1_654
Cl4 Cu4E Cu4G 85.7(7) 1_654 1_654
Cu4E Cu4E O2 116.9(3) 6_554 7_665
Cl3 Cu4E O2 125.3(3) . 7_665
Cl4 Cu4E O2 93.7(3) 1_654 7_665
Cu4G Cu4E O2 131.8(8) 1_654 7_665
Cu4E Cu4E Cu4G 58.8(6) 6_554 6_655
Cl3 Cu4E Cu4G 60.5(6) . 6_655
Cl4 Cu4E Cu4G 81.0(6) 1_654 6_655
Cu4G Cu4E Cu4G 52.3(13) 1_654 6_655
O2 Cu4E Cu4G 173.3(7) 7_665 6_655
Cu4E Cu4E O2 53.9(2) 6_554 4_554
Cl3 Cu4E O2 114.9(3) . 4_554
Cl4 Cu4E O2 87.4(3) 1_654 4_554
Cu4G Cu4E O2 164.2(8) 1_654 4_554
O2 Cu4E O2 62.9(4) 7_665 4_554
Cu4G Cu4E O2 112.5(7) 6_655 4_554
Cu4E Cu4E Cu4A 85.23(12) 6_554 1_655
Cl3 Cu4E Cu4A 43.0(2) . 1_655
Cl4 Cu4E Cu4A 98.3(2) 1_654 1_655
Cu4G Cu4E Cu4A 30.1(7) 1_654 1_655
O2 Cu4E Cu4A 155.9(3) 7_665 1_655
Cu4G Cu4E Cu4A 30.3(6) 6_655 1_655
O2 Cu4E Cu4A 138.1(3) 4_554 1_655
Cu4E Cu4E Cl2 156.29(13) 6_554 1_654
Cl3 Cu4E Cl2 86.54(19) . 1_654
Cl4 Cu4E Cl2 89.5(2) 1_654 1_654
Cu4G Cu4E Cl2 45.5(7) 1_654 1_654
O2 Cu4E Cl2 86.2(3) 7_665 1_654
Cu4G Cu4E Cl2 97.7(6) 6_655 1_654
O2 Cu4E Cl2 148.7(3) 4_554 1_654
Cu4A Cu4E Cl2 73.14(15) 1_655 1_654
Cu4E Cu4E O5 86.30(9) 6_554 7_665
Cl3 Cu4E O5 83.5(3) . 7_665
Cl4 Cu4E O5 133.1(3) 1_654 7_665
Cu4G Cu4E O5 139.9(7) 1_654 7_665
O2 Cu4E O5 51.5(3) 7_665 7_665
Cu4G Cu4E O5 130.3(6) 6_655 7_665
O2 Cu4E O5 51.1(3) 4_554 7_665
Cu4A Cu4E O5 126.4(2) 1_655 7_665
Cl2 Cu4E O5 114.21(18) 1_654 7_665
Cu4E Cu4E O1 144.19(17) 6_554 1_654
Cl3 Cu4E O1 131.7(3) . 1_654
Cl4 Cu4E O1 69.2(2) 1_654 1_654
Cu4G Cu4E O1 90.9(7) 1_654 1_654
O2 Cu4E O1 45.4(3) 7_665 1_654
Cu4G Cu4E O1 134.6(7) 6_655 1_654
O2 Cu4E O1 100.0(3) 4_554 1_654
Cu4A Cu4E O1 120.9(3) 1_655 1_654
Cl2 Cu4E O1 50.3(2) 1_654 1_654
O5 Cu4E O1 94.7(3) 7_665 1_654
Cu4E Cu4E Cl2 20.80(12) 6_554 1_655
Cl3 Cu4E Cl2 76.45(17) . 1_655
Cl4 Cu4E Cl2 79.12(18) 1_654 1_655
Cu4G Cu4E Cl2 90.4(7) 1_654 1_655
O2 Cu4E Cl2 136.9(3) 7_665 1_655
Cu4G Cu4E Cl2 38.3(6) 6_655 1_655
O2 Cu4E Cl2 74.2(3) 4_554 1_655
Cu4A Cu4E Cl2 66.35(14) 1_655 1_655
Cl2 Cu4E Cl2 135.5(2) 1_654 1_655
O5 Cu4E Cl2 104.46(17) 7_665 1_655
O1 Cu4E Cl2 148.1(2) 1_654 1_655
Cu4B Cu4G Cu4A 71.4(17) . 1_556
Cu4B Cu4G Cu4G 23.9(16) . 2
Cu4A Cu4G Cu4G 47.5(11) 1_556 2
Cu4B Cu4G Cu4G 113.9(16) . 6_556
Cu4A Cu4G Cu4G 42.5(11) 1_556 6_556
Cu4G Cu4G Cu4G 90.001(3) 2 6_556
Cu4B Cu4G Cu4E 131.5(18) . 1_456
Cu4A Cu4G Cu4E 96.7(13) 1_556 1_456
Cu4G Cu4G Cu4E 124.5(17) 2 1_456
Cu4G Cu4G Cu4E 69.0(7) 6_556 1_456
Cu4B Cu4G Cl2 83.0(16) . .
Cu4A Cu4G Cl2 151.1(16) 1_556 .
Cu4G Cu4G Cl2 106.2(8) 2 .
Cu4G Cu4G Cl2 158.7(7) 6_556 .
Cu4E Cu4G Cl2 90.2(9) 1_456 .
Cu4B Cu4G Cl3 79.3(15) . 1_456
Cu4A Cu4G Cl3 53.8(8) 1_556 1_456
Cu4G Cu4G Cl3 66.6(12) 2 1_456
Cu4G Cu4G Cl3 64.0(6) 6_556 1_456
Cu4E Cu4G Cl3 57.9(7) 1_456 1_456
Cl2 Cu4G Cl3 109.3(10) . 1_456
Cu4B Cu4G Cl3 78.9(15) . 5_655
Cu4A Cu4G Cl3 53.5(8) 1_556 5_655
Cu4G Cu4G Cl3 66.2(13) 2 5_655
Cu4G Cu4G Cl3 64.1(6) 6_556 5_655
Cu4E Cu4G Cl3 131.9(12) 1_456 5_655
Cl2 Cu4G Cl3 134.9(12) . 5_655
Cl3 Cu4G Cl3 107.2(10) 1_456 5_655
Cu4B Cu4G Cu4E 133.2(18) . 6_455
Cu4A Cu4G Cu4E 88.2(12) 1_556 6_455
Cu4G Cu4G Cu4E 121.3(15) 2 6_455
Cu4G Cu4G Cu4E 58.8(6) 6_556 6_455
Cu4E Cu4G Cu4E 10.2(3) 1_456 6_455
Cl2 Cu4G Cu4E 100.4(10) . 6_455
Cl3 Cu4G Cu4E 55.3(6) 1_456 6_455
Cl3 Cu4G Cu4E 122.0(11) 5_655 6_455
Cu4B Cu4G Cu4B 93.0(18) . 5_556
Cu4A Cu4G Cu4B 21.6(6) 1_556 5_556
Cu4G Cu4G Cu4B 69.2(6) 2 5_556
Cu4G Cu4G Cu4B 20.8(6) 6_556 5_556
Cu4E Cu4G Cu4B 82.3(8) 1_456 5_556
Cl2 Cu4G Cu4B 165.9(11) . 5_556
Cl3 Cu4G Cu4B 56.6(6) 1_456 5_556
Cl3 Cu4G Cu4B 56.5(6) 5_655 5_556
Cu4E Cu4G Cu4B 72.5(7) 6_455 5_556
Cu4B Cu4G Cu4G 71.4(17) . 5_556
Cu4A Cu4G Cu4G 0.001(1) 1_556 5_556
Cu4G Cu4G Cu4G 47.5(11) 2 5_556
Cu4G Cu4G Cu4G 42.5(10) 6_556 5_556
Cu4E Cu4G Cu4G 96.7(13) 1_456 5_556
Cl2 Cu4G Cu4G 151.1(16) . 5_556
Cl3 Cu4G Cu4G 53.8(8) 1_456 5_556
Cl3 Cu4G Cu4G 53.5(8) 5_655 5_556
Cu4E Cu4G Cu4G 88.2(12) 6_455 5_556
Cu4B Cu4G Cu4G 21.6(6) 5_556 5_556
Cu4B Cu4G Cl4 176(2) . .
Cu4A Cu4G Cl4 112.5(13) 1_556 .
Cu4G Cu4G Cl4 160.0(5) 2 .
Cu4G Cu4G Cl4 70.1(5) 6_556 .
Cu4E Cu4G Cl4 47.0(5) 1_456 .
Cl2 Cu4G Cl4 92.7(8) . .
Cl3 Cu4G Cl4 101.2(9) 1_456 .
Cl3 Cu4G Cl4 105.1(9) 5_655 .
Cu4E Cu4G Cl4 46.5(5) 6_455 .
Cu4B Cu4G Cl4 90.9(8) 5_556 .
Cu4G Cu4G Cl4 112.5(13) 5_556 .
loop_
_geom_bond_atom_site_label_1
_geom_bond_atom_site_label_2
_geom_bond_distance
_geom_bond_site_symmetry_2
Te1 O3 1.875(11) .
Te1 O3 1.875(11) 6
Te1 O4 1.896(14) .
Te1 Cl1 3.117(5) 1_655
Te1 O1 3.329(12) .
Te1 Cl2 3.478(7) 5_655
Te1 Cl3 3.708(4) 1_556
Te1 Cl3 3.708(4) .
Te2 O5 1.901(13) .
Te2 O2 1.934(10) .
Te2 O2 1.934(10) 6_554
Te2 O3 2.494(11) 1_554
Te2 O3 2.494(11) 6
Te2 O5 2.908(13) 7_665
Te2 Cl3 3.486(7) .
Cu1 O1 1.907(14) .
Cu1 O4 1.934(14) .
Cu1 O4 1.954(15) 5_655
Cu1 Cl2 2.254(6) .
Cu1 Cu1 3.015(5) 5_655
Cu1 Cl4 3.2309(9) 1_554
Cu1 Cl4 3.2309(9) .
Cu1 O3 3.628(11) .
Cu1 O3 3.628(11) 6
Cu2 O1 1.919(7) .
Cu2 O3 1.922(10) .
Cu2 O5 1.997(8) 1_556
Cu2 O2 2.007(9) 7_566
Cu2 Cl1 2.845(4) 7_665
Cu2 Cu3 2.864(3) .
Cu2 Cl4 2.907(7) .
Cu2 O4 3.519(13) .
Cu2 O2 3.521(10) 4_455
Cu2 O3 3.572(11) 6
Cu2 O2 3.691(9) 1_556
Cu3 O1 1.922(13) .
Cu3 O2 1.992(10) 7_566
Cu3 O2 1.992(10) 4_454
Cu3 Cl1 2.210(6) .
Cu3 Cu2 2.864(3) 6
Cu3 Cl2 2.919(7) .
Cu3 Cl1 3.310(6) 7_665
Cu3 O3 3.666(12) 7_565
Cu3 O3 3.666(12) 4_455
Cl1 Cu2 2.844(4) 7_565
Cl1 Cu2 2.844(4) 4_455
Cl1 Te1 3.117(5) 1_455
Cl1 O2 3.226(10) 7_566
Cl1 O2 3.226(10) 4_454
Cl1 O1 3.228(15) 7_565
Cl1 Cu3 3.310(6) 7_565
Cl1 O2 3.318(10) 6_454
Cl1 O2 3.318(10) 1_456
Cl1 O3 3.459(12) 6_455
Cl1 O3 3.459(12) 1_455
Cl2 Cu4G 2.32(3) 6
Cl2 Cu4G 2.32(3) .
Cl2 Cu4B 2.427(10) 5
Cl2 Cu4B 2.427(10) .
Cl2 O1 2.964(14) .
Cl2 O4 3.132(15) 5_655
Cl2 Cu4E 3.251(6) 1_456
Cl2 Cu4E 3.251(6) 6_454
Cl2 Cl2 3.387(12) 5
Cl2 Cu4G 3.40(3) 5
Cl3 Cu4A 1.929(7) 1_655
Cl3 Cu4E 2.257(9) .
Cl3 Cu4E 2.257(9) 6_554
Cl3 Cu4G 2.39(3) 6_655
Cl3 Cu4G 2.39(3) 1_654
Cl3 Cu4G 2.40(3) 2_654
Cl3 Cu4G 2.40(3) 5_655
Cl3 Cu4B 2.427(9) 1_654
Cl3 Cu4B 2.427(9) 5_655
Cl3 Cu4D 2.91(3) 1_554
Cl3 O3 3.415(12) 1_554
Cl3 O3 3.415(12) 6
Cl4 Cu4E 2.260(8) 1_456
Cl4 Cu4E 2.260(8) 6_455
Cl4 Cu4D 2.29(3) .
Cl4 Cu4D 2.45(4) 5_656
Cl4 Cu2 2.907(7) 6_556
Cl4 Cu4G 3.08(3) 6_556
Cl4 Cu4G 3.08(3) .
Cl4 Cu1 3.2309(9) 1_556
Cl4 O2 3.383(11) 4_455
Cl4 O2 3.383(11) 7_566
O1 Cu2 1.919(7) 6
O1 O2 2.621(13) 4_454
O1 O2 2.621(13) 7_566
O1 O4 2.84(2) .
O1 O3 2.906(15) 6
O1 O3 2.906(15) .
O1 Cl1 3.228(15) 7_665
O2 Cu3 1.992(10) 7_664
O2 Cu2 2.007(9) 7_664
O2 Cu4E 2.377(10) 7_565
O2 O2 2.618(19) 6_554
O2 O1 2.621(13) 7_664
O2 Cu4E 2.622(10) 4_454
O2 O5 2.854(14) .
O2 O5 2.926(14) 7_665
O2 O3 3.145(15) 1_554
O2 Cl1 3.226(10) 7_664
O2 Cl1 3.318(10) 1_654
O3 Te2 2.494(11) 1_556
O3 O5 2.626(14) 1_556
O3 O3 2.81(2) 6
O3 O4 2.819(16) .
O3 Cu4D 2.88(3) .
O3 O2 3.145(15) 1_556
O3 Cl3 3.415(12) 1_556
O3 Cl1 3.459(12) 1_655
O3 Cu2 3.572(11) 6
O4 Cu1 1.954(15) 5_655
O4 O4 2.45(3) 5_655
O4 O3 2.819(16) 6
O4 Cl2 3.132(15) 5_655
O4 Cu4D 3.231(4) 1_554
O4 Cu4D 3.231(4) .
O4 Cu2 3.519(13) 6
O5 Cu2 1.997(8) 1_554
O5 Cu2 1.997(8) 6
O5 O3 2.626(14) 1_554
O5 O3 2.626(14) 6
O5 O2 2.854(14) 6_554
O5 Te2 2.908(13) 7_565
O5 O2 2.926(14) 7_565
O5 O2 2.926(14) 4_454
O5 Cl1 3.523(6) 7_665
O5 Cl1 3.523(6) 7_664
Cu4A Cu4G 1.42(3) 6
Cu4A Cu4G 1.42(3) 2_554
Cu4A Cu4G 1.42(3) 5
Cu4A Cu4G 1.42(3) 1_554
Cu4A Cu4B 1.473(12) 5
Cu4A Cu4B 1.473(12) 1_554
Cu4A Cl3 1.929(7) 1_455
Cu4A Cl3 1.929(7) 5_654
Cu4A Cu4E 2.813(4) 6_454
Cu4A Cu4E 2.813(4) 2_655
Cu4A Cu4E 2.813(4) 1_455
Cu4A Cu4E 2.813(4) 5_654
Cu4B Cu4G 1.05(3) .
Cu4B Cu4G 1.05(3) 2
Cu4B Cu4A 1.473(12) 1_556
Cu4B Cl3 2.427(9) 1_456
Cu4B Cl3 2.427(9) 5_655
Cu4B Cl2 2.427(10) 5
Cu4B Cu4G 2.70(3) 6_556
Cu4B Cu4G 2.70(3) 5_556
Cu4B Cu4B 2.95(2) 5_556
Cu4D Cl4 2.45(4) 5_656
Cu4D O3 2.88(3) 6_556
Cu4D Cl3 2.91(3) 1_556
Cu4D O4 3.231(4) 1_556
Cu4E Cu4E 0.469(11) 6_554
Cu4E Cl4 2.260(8) 1_654
Cu4E Cu4G 2.27(3) 1_654
Cu4E O2 2.377(10) 7_665
Cu4E Cu4G 2.47(3) 6_655
Cu4E O2 2.622(10) 4_554
Cu4E Cu4A 2.813(4) 1_655
Cu4E Cl2 3.251(6) 1_654
Cu4E O5 3.644(13) 7_665
Cu4E O1 3.670(9) 1_654
Cu4E Cl2 3.685(6) 1_655
Cu4G Cu4A 1.42(3) 1_556
Cu4G Cu4G 1.92(5) 2
Cu4G Cu4G 2.10(5) 6_556
Cu4G Cu4E 2.27(3) 1_456
Cu4G Cl3 2.39(3) 1_456
Cu4G Cl3 2.40(3) 5_655
Cu4G Cu4E 2.47(3) 6_455
Cu4G Cu4B 2.70(3) 5_556
Cu4G Cu4G 2.84(5) 5_556
