#------------------------------------------------------------------------------
#$Date: 2021-04-13 10:40:43 +0300 (Tue, 13 Apr 2021) $
#$Revision: 264075 $
#$URL: file:///home/coder/svn-repositories/cod/cif/1/56/16/1561675.cif $
#------------------------------------------------------------------------------
#
# This file is available in the Crystallography Open Database (COD),
# http://www.crystallography.net/
#
# All data on this site have been placed in the public domain by the
# contributors.
#
data_1561675
loop_
_publ_author_name
'Childs, Amanda B.'
'Baranets, Sviatoslav'
'Bobev, Svilen'
_publ_section_title
;
 Five new ternary indium-arsenides discovered. Synthesis and structural
 characterization of the Zintl phases Sr3In2As4, Ba3In2As4, Eu3In2As4,
 Sr5In2As6 and Eu5In2As6
;
_journal_name_full               'Journal of Solid State Chemistry'
_journal_page_first              120889
_journal_paper_doi               10.1016/j.jssc.2019.07.050
_journal_volume                  278
_journal_year                    2019
_chemical_formula_sum            'As6 Eu5 In2'
_chemical_formula_weight         1438.96
_space_group_crystal_system      orthorhombic
_space_group_IT_number           55
_space_group_name_Hall           '-P 2 2ab'
_space_group_name_H-M_alt        'P b a m'
_atom_sites_solution_hydrogens   .
_atom_sites_solution_primary     dual
_cell_angle_alpha                90
_cell_angle_beta                 90
_cell_angle_gamma                90
_cell_formula_units_Z            2
_cell_length_a                   11.8713(19)
_cell_length_b                   13.776(2)
_cell_length_c                   4.3467(7)
_cell_measurement_reflns_used    547
_cell_measurement_temperature    200(2)
_cell_measurement_theta_max      29.38
_cell_measurement_theta_min      3.42
_cell_volume                     710.86(19)
_computing_cell_refinement       'SAINT V8.38A (Bruker, 2016)'
_computing_data_collection       'Bruker APEX-II'
_computing_data_reduction        'SAINT V8.38A (Bruker, 2016)'
_computing_molecular_graphics    'Olex2 (Dolomanov et al., 2009)'
_computing_publication_material  'Olex2 (Dolomanov et al., 2009)'
_computing_structure_refinement  'ShelXL (Sheldrick, 2015)'
_computing_structure_solution    'ShelXT (Sheldrick, 2015)'
_diffrn_ambient_temperature      199.99
_diffrn_measured_fraction_theta_full 1.000
_diffrn_measured_fraction_theta_max 1.000
_diffrn_measurement_device_type  'Bruker APEX-II CCD'
_diffrn_measurement_method       '\f and \w scans'
_diffrn_radiation_type           MoK\a
_diffrn_radiation_wavelength     0.71073
_diffrn_reflns_av_R_equivalents  0.0745
_diffrn_reflns_av_unetI/netI     0.0553
_diffrn_reflns_Laue_measured_fraction_full 1.000
_diffrn_reflns_Laue_measured_fraction_max 1.000
_diffrn_reflns_limit_h_max       16
_diffrn_reflns_limit_h_min       -16
_diffrn_reflns_limit_k_max       19
_diffrn_reflns_limit_k_min       -18
_diffrn_reflns_limit_l_max       6
_diffrn_reflns_limit_l_min       -6
_diffrn_reflns_number            6436
_diffrn_reflns_point_group_measured_fraction_full 1.000
_diffrn_reflns_point_group_measured_fraction_max 1.000
_diffrn_reflns_theta_full        25.242
_diffrn_reflns_theta_max         30.524
_diffrn_reflns_theta_min         2.265
_diffrn_standards_number         0
_exptl_absorpt_coefficient_mu    38.708
_exptl_absorpt_correction_T_max  0.1833
_exptl_absorpt_correction_T_min  0.1195
_exptl_absorpt_correction_type   multi-scan
_exptl_absorpt_process_details
'SADABS-2016/2 (Bruker,2016/2) was used for absorption correction. wR2(int) was 0.0760 before and 0.0481 after correction. The Ratio of minimum to maximum transmission is 0.6519. The \l/2 correction factor is Not present.'
_exptl_crystal_colour            grey
_exptl_crystal_density_diffrn    6.723
_exptl_crystal_description       block
_exptl_crystal_F_000             1222
_exptl_crystal_size_max          0.065
_exptl_crystal_size_mid          0.058
_exptl_crystal_size_min          0.055
_refine_diff_density_max         2.695
_refine_diff_density_min         -2.135
_refine_diff_density_rms         0.527
_refine_ls_extinction_coef       0.00074(8)
_refine_ls_extinction_expression Fc^*^=kFc[1+0.001xFc^2^\l^3^/sin(2\q)]^-1/4^
_refine_ls_extinction_method     'SHELXL-2018/3 (Sheldrick 2018)'
_refine_ls_goodness_of_fit_ref   0.984
_refine_ls_hydrogen_treatment    undef
_refine_ls_matrix_type           full
_refine_ls_number_parameters     42
_refine_ls_number_reflns         1216
_refine_ls_number_restraints     0
_refine_ls_restrained_S_all      0.984
_refine_ls_R_factor_all          0.0605
_refine_ls_R_factor_gt           0.0358
_refine_ls_shift/su_max          0.000
_refine_ls_shift/su_mean         0.000
_refine_ls_structure_factor_coef Fsqd
_refine_ls_weighting_details
'w=1/[\s^2^(Fo^2^)+(0.0287P)^2^] where P=(Fo^2^+2Fc^2^)/3'
_refine_ls_weighting_scheme      calc
_refine_ls_wR_factor_gt          0.0691
_refine_ls_wR_factor_ref         0.0773
_reflns_Friedel_coverage         0.000
_reflns_Friedel_fraction_full    .
_reflns_Friedel_fraction_max     .
_reflns_number_gt                880
_reflns_number_total             1216
_reflns_threshold_expression     'I > 2\s(I)'
_cod_data_source_file            yjssc_20889_Eu5In2As6_mmc4.cif
_cod_data_source_block           Eu5In2As6
_cod_database_code               1561675
_shelx_space_group_comment
;
The symmetry employed for this shelxl refinement is uniquely defined
by the following loop, which should always be used as a source of
symmetry information in preference to the above space-group names.
They are only intended as comments.
;
_shelx_estimated_absorpt_t_max   0.225
_shelx_estimated_absorpt_t_min   0.188
_olex2_refinement_description
;
;
_shelx_res_file
;
TITL shelx_a.res in Pbam
CELL 0.71073 11.8713 13.7761 4.3467 90 90 90
ZERR 2 0.0019 0.0021 0.0007 0 0 0
LATT 1
SYMM -X,-Y,+Z
SYMM 0.5-X,0.5+Y,-Z
SYMM 0.5+X,0.5-Y,-Z
SFAC As Eu In
UNIT 12 10 4

L.S. 20
PLAN  20
TEMP -73.16
list 4
fmap 2 53
acta


WGHT    0.028700
EXTI    0.000736
FVAR       0.13226
Eu3  2    0.000000    0.000000    0.000000    10.25000    0.01282    0.00923 =
         0.01418    0.00000    0.00000   -0.00035
Eu2  2    0.325032    0.015502    0.000000    10.50000    0.01320    0.01127 =
         0.01107    0.00000    0.00000    0.00109
Eu1  2    0.085252    0.252878    0.000000    10.50000    0.01200    0.00904 =
         0.01251    0.00000    0.00000   -0.00041
In  3    0.329071    0.216027    0.500000    10.50000    0.01429    0.01043 =
         0.01081    0.00000    0.00000   -0.00095
As3  1    0.336393    0.324726    0.000000    10.50000    0.01156    0.00934 =
         0.01135    0.00000    0.00000    0.00017
As1  1    0.020833    0.410527    0.500000    10.50000    0.01326    0.00780 =
         0.01149    0.00000    0.00000   -0.00108
As2  1    0.153189    0.098728    0.500000    10.50000    0.01255    0.01061 =
         0.01082    0.00000    0.00000   -0.00135
HKLF 4


END

WGHT      0.0287      0.0000

REM Highest difference peak  2.695,  deepest hole -2.135,  1-sigma level  0.527
Q1    1   0.2453  0.2519  0.0000  10.50000  0.05    2.69
Q2    1   0.2537 -0.0009  0.5000  10.50000  0.05    2.15
Q3    1  -0.0724  0.2971  0.0000  10.50000  0.05    2.12
Q4    1   0.0049  0.2583  0.0000  10.50000  0.05    2.10
Q5    1   0.2355  0.3578  0.5000  10.50000  0.05    1.91
Q6    1   0.3818 -0.0426  0.2835  11.00000  0.05    1.79
Q7    1  -0.0182  0.0589  0.2525  11.00000  0.05    1.74
Q8    1   0.5000  0.0000  0.0000  10.25000  0.05    1.71
Q9    1   0.3777  0.0542  0.3047  11.00000  0.05    1.68
Q10   1   0.0952 -0.0039 -0.3130  11.00000  0.05    1.63
Q11   1   0.0605 -0.0020  0.0000  10.50000  0.05    1.62
Q12   1   0.2193  0.2005  0.2810  11.00000  0.05    1.61
Q13   1   0.0785 -0.0376  0.5000  10.50000  0.05    1.61
Q14   1   0.0200  0.3142 -0.2443  11.00000  0.05    1.60
Q15   1   0.1757  0.3199  0.5000  10.50000  0.05    1.55
Q16   1   0.0000  0.5000  0.7991  10.50000  0.05    1.53
Q17   1   0.1978 -0.0423  0.5000  10.50000  0.05    1.52
Q18   1   0.3037  0.0145 -0.2836  11.00000  0.05    1.52
Q19   1   0.2622 -0.0655  0.0000  10.50000  0.05    1.50
Q20   1   0.2402  0.2207  0.5000  10.50000  0.05    1.49
;
_shelx_res_checksum              85831
_shelx_hkl_file
;
   0   0   1 1274.97   41.30
   0   0   1 1285.37   44.00
   0   0   2 9999.00  295.27
   0   0   2 9975.60  302.57
   0   0   3  608.44   28.00
   0   0   3  613.04   36.30
   0   0   4 5728.53  196.48
   0   0   5  202.58   30.90
   0   0   6 2002.30   97.29
  -1   0   0    0.60    1.20
  -1   0   0    2.30    1.70
   1   0   0    0.70    1.20
   1   0   1    2.30    3.90
   1   0   1   -1.20    3.70
  -1   0   1   -7.00    3.90
  -1   0   1   -1.00    2.80
  -1   0   2   -1.10    6.10
   1   0   2   -3.00    4.70
  -1   0   2    6.30    3.90
   1   0   2    3.60    6.30
   1   0   3    0.30    8.20
  -1   0   3    1.60    4.60
   1   0   3    3.30    5.40
  -1   0   3    5.10    8.70
   1   0   4    8.40   11.10
  -1   0   4   -5.60    9.60
  -1   0   5    2.00   13.50
   1   0   5    4.90   11.50
  -1   0   6    1.00   20.00
   1   0   6    8.90   18.90
  -2   0   0    4.80    3.10
  -2   0   0    1.90    3.80
   2   0   0    3.30    2.90
   2   0   1   42.50    6.90
   2   0   1   43.40    7.50
  -2   0  -1   53.49    7.60
  -2   0   1   41.20    7.90
  -2   0   1   53.29    5.50
  -2   0   2    3.30    3.60
   2   0   2   -0.90    4.90
   2   0   2   12.90    6.50
  -2   0   2    2.20    6.70
   2   0   3   30.60    9.20
  -2   0   3   18.80    5.40
   2   0   3   39.50   12.10
  -2   0   3   21.60   10.90
   2   0   4   -2.00    7.40
  -2   0  -4    2.00    8.50
   2   0   4   -6.40    8.50
  -2   0   4   -0.70   10.50
   2   0   5   11.10   15.00
  -2   0   5    4.00   12.80
  -2   0   6   18.10   19.30
  -3   0   0   -3.30    5.20
   3   0   0    3.20    3.70
  -3   0   0    1.00    4.30
   3   0   1    3.00    5.30
  -3   0   1   -3.10    4.70
  -3   0   1   -3.40    3.20
  -3   0  -1   -2.20    4.70
   3   0   1    1.50    4.80
  -3   0   2    2.70    3.60
   3   0   2   -1.40    5.80
   3   0   2   -0.70    5.00
  -3   0   2    2.60    5.90
  -3   0  -3   -1.50    5.60
  -3   0   3    9.30    8.80
   3   0   3    9.40    6.90
   3   0   3   -0.70    6.30
  -3   0  -4   -4.00    7.60
  -3   0   4   11.90   12.00
   3   0   4  -10.00    8.00
   3   0   4   -6.50    8.70
   3   0   5   -5.20   12.30
  -3   0   5  -17.70   10.40
  -3   0   6  -11.10   15.40
   4   0   0  573.04   25.60
  -4   0   0  583.84   25.50
  -4   0   0  596.44   27.40
  -4   0  -1   88.69   12.90
  -4   0   1  100.59   13.90
  -4   0  -1  104.19   12.80
  -4   0   1  106.79   10.50
   4   0   1  133.19   14.30
  -4   0  -2  403.86   24.80
   4   0   2  417.96   24.50
  -4   0   2  361.96   31.20
   4   0   2  382.66   24.40
  -4   0   2  391.56   17.80
  -4   0  -2  395.36   24.10
  -4   0   3   64.19   16.30
   4   0   3   48.40   13.40
  -4   0  -3   56.79   14.40
  -4   0  -3   57.69   13.30
   4   0   3   48.50   12.20
   4   0   4  110.79   21.80
  -4   0  -4  181.28   23.30
   4   0   4  166.68   21.90
  -4   0   4  162.48   27.10
   4   0   5    3.60   14.20
  -4   0   5   24.00   17.50
  -4   0  -5   26.70   14.40
  -4   0   6   55.89   22.90
  -5   0   0    6.90    6.70
   5   0   0   -3.80    4.20
  -5   0   0   -0.10    4.70
  -5   0   1    0.20    7.00
   5   0   1   -0.90    4.90
  -5   0  -1   21.70    9.30
  -5   0   1    6.50    5.20
  -5   0  -1    7.60    5.60
   5   0   2   -4.90    6.40
   5   0   2   -0.70    6.50
  -5   0   2    3.00    4.60
  -5   0  -2    9.30    8.00
  -5   0  -2    2.70    7.10
  -5   0   2   -2.20    6.70
  -5   0   3   -9.30    8.10
  -5   0  -3  -10.80    7.50
  -5   0  -3    4.40    8.00
   5   0   3   -1.40    7.70
   5   0   3   -7.40    7.40
   5   0   4   15.00   10.60
  -5   0  -4  -16.30    8.70
  -5   0  -4    3.30    8.30
   5   0   4  -19.80    7.30
  -5   0   4  -10.10   10.50
  -5   0   5   20.10   18.80
   6   0   0 3010.20  100.99
  -6   0   0 2958.80  102.69
  -6   0   0 3018.70  100.79
  -6   0   1  158.08   15.70
  -6   0  -1  178.48   19.50
  -6   0   1  163.78   20.30
  -6   0  -1  126.99   16.90
   6   0   1  167.58   19.00
  -6   0   2 2415.46   79.39
  -6   0  -2 2402.96   88.19
  -6   0  -2 2404.46   90.19
  -6   0   2 2329.57   91.69
   6   0   2 2397.26   90.99
  -6   0   3   69.19   16.90
  -6   0  -3   69.79   15.80
   6   0   3   87.89   17.30
   6   0   3   69.29   16.80
  -6   0  -3   87.29   17.90
  -6   0  -4 1036.50   58.39
   6   0   4 1156.58   55.89
  -6   0   4 1200.48   63.69
   6   0   4 1076.09   57.39
  -6   0  -4 1042.50   54.99
  -6   0   5   17.40   17.70
  -7   0   0   -9.10    4.40
   7   0   0    4.20    6.50
  -7   0   0    1.90    7.10
  -7   0  -1    8.90    7.80
  -7   0  -1    1.00    6.00
  -7   0   1   -9.40    4.70
   7   0   1    6.10    6.40
  -7   0   1   12.10    9.80
  -7   0  -2   -7.70    7.20
  -7   0   2   -6.80    8.00
  -7   0  -2    5.20    9.00
   7   0   2   -2.10    8.00
  -7   0   2   -3.00    6.00
   7   0   3    8.70   11.00
  -7   0  -3   -3.20   10.30
   7   0   3   -3.30    7.60
  -7   0  -3    1.20    8.80
  -7   0   3   -5.20    8.60
   7   0   4   -4.40   12.40
   7   0   4   10.20   11.30
  -7   0  -4   -1.80   12.40
  -7   0   4   -1.40   12.00
  -7   0  -4    8.50   11.70
  -7   0   5    3.80   15.20
  -8   0   0  448.36   30.20
   8   0   0  421.96   27.70
  -8   0   0  425.26   27.00
  -8   0  -1  181.28   22.20
  -8   0   1  223.58   22.50
   8   0   1  263.97   26.20
  -8   0   1  205.38   25.60
  -8   0  -1  234.08   26.30
  -8   0   2  367.36   37.10
   8   0   2  390.76   34.00
  -8   0  -2  381.26   33.90
  -8   0   2  356.56   23.70
  -8   0  -2  349.77   34.80
  -8   0  -3  181.68   27.70
  -8   0   3  143.29   25.40
  -8   0  -3  110.49   20.20
   8   0   3   82.69   18.40
  -8   0  -4  204.58   35.50
  -8   0   4  120.79   26.70
  -8   0  -4  179.28   27.90
   8   0   4  158.88   26.50
  -8   0  -5   46.40   17.70
   8   0   5   59.29   18.50
  -8   0   5   73.49   25.00
  -9   0   0    1.70    8.60
  -9   0   0   17.10    9.30
   9   0   0   -1.60    7.60
  -9   0   1   -4.20    7.30
  -9   0  -1   -7.60    7.40
  -9   0   1    5.20    9.80
  -9   0  -1   12.20   10.70
   9   0   1   11.90    9.90
   9   0   2   -4.00    8.80
  -9   0   2  -15.60    8.30
  -9   0  -2   11.40   11.20
  -9   0  -2   -2.10   10.10
  -9   0   2    1.10    8.90
  -9   0   3    0.00   10.70
  -9   0  -3   -8.00   11.60
  -9   0  -3    3.10   11.20
   9   0   3   -1.80   10.20
  -9   0   4  -14.50   12.50
   9   0   4   15.00   13.00
  -9   0  -4   -2.70   11.70
  -9   0   5   11.30   19.40
   9   0   5    5.00   14.90
  -9   0  -5  -12.00   10.80
 -10   0   0   41.50   14.70
 -10   0   0    3.40    8.80
 -10   0  -1  424.06   38.50
 -10   0   1  457.85   36.10
  10   0   1  486.15   41.50
 -10   0   1  480.75   42.90
 -10   0  -1  417.96   37.50
 -10   0  -2   15.40   12.30
 -10   0  -2   24.70   13.90
 -10   0   2   14.30   12.90
  10   0   2    4.70   11.10
  10   0   3  228.78   32.40
 -10   0  -3  327.57   37.50
 -10   0   3  283.17   36.80
 -10   0  -3  329.27   38.00
 -10   0  -4    2.90   14.50
  10   0   4    3.60   12.80
 -10   0   4   42.80   19.60
  10   0   5   62.89   22.10
 -10   0   5  138.79   34.00
 -10   0  -5  139.59   27.30
 -11   0   0   -5.80    8.70
 -11   0   0   -3.00   10.20
  11   0   1    8.30   10.50
 -11   0   1   -5.10   11.10
 -11   0  -1    8.30   11.30
 -11   0   1    5.40   11.20
 -11   0  -1    2.80    9.90
 -11   0  -2    6.20   13.80
 -11   0   2   -2.10   11.40
  11   0   2   15.00   11.90
 -11   0  -2   -0.50   11.20
  11   0   3    5.40   12.50
 -11   0  -3   -2.50   12.10
 -11   0   3   -3.80   11.90
 -11   0   4  -10.80   13.60
  11   0   4   -1.10   14.10
 -11   0  -4   -7.50   12.60
 -12   0   0 2650.93  104.99
 -12   0   1  705.83   42.90
 -12   0  -1  620.94   49.70
 -12   0   1  651.93   55.09
 -12   0  -1  686.73   45.10
  12   0   1  691.23   45.80
  12   0   2 2248.77  102.39
 -12   0   2 2331.37  104.29
 -12   0  -2 2367.36  101.69
 -12   0  -2 2345.27   98.99
 -12   0  -3  370.56   43.20
  12   0   3  478.25   50.69
 -12   0   3  431.06   48.70
 -12   0   4 1254.17   78.49
 -12   0  -4 1233.88   73.59
 -13   0   0   18.00   13.30
 -13   0   0  -11.10   11.20
 -13   0  -1   -2.20   10.10
 -13   0   1   -7.40   10.70
 -13   0  -1    9.80   13.40
 -13   0   1  -14.60   11.20
  13   0   2  -10.70   11.10
 -13   0  -2    5.50   14.30
 -13   0  -2   11.60   13.10
 -13   0   2   -4.30   14.00
 -13   0   3  -12.50   13.20
 -13   0  -3  -16.80   13.40
  13   0   3    3.70   14.00
 -14   0   0   62.69   20.70
 -14   0   0   40.40   16.90
 -14   0   1   -0.80   13.10
 -14   0   1   -7.90   12.20
 -14   0  -1   45.40   16.70
 -14   0  -1    7.10   12.20
 -14   0   2   26.90   17.60
 -14   0  -2   40.00   17.50
 -14   0   3  -12.50   13.90
  14   0   3  -13.40   12.40
 -14   0  -3   10.20   16.00
 -15   0   0  -16.40   11.20
 -15   0   0   -6.00   12.10
 -15   0  -1   -2.90   13.30
 -15   0  -1  -10.40   11.80
 -15   0   1   -5.30   13.80
 -15   0   2   17.20   18.00
 -15   0  -2    7.00   15.10
 -16   0   0   64.59   22.00
 -16   0   0   77.69   23.70
 -16   0  -1   15.30   16.30
 -16   0   1   45.60   20.80
 -16   0   2   55.49   23.90
 -16   0  -2   45.80   21.30
   0   1   0    0.50    1.10
   0   1   1    1.80    4.60
   0   1   1   -0.70    4.40
   0  -1   1   -0.60    3.60
   0   1  -1   -2.20    2.50
   0  -1   1    1.20    2.70
   0  -1   2    9.50    4.20
   0   1   2   -4.30    4.40
   0   1   2   -0.80    5.70
   0  -1   2   -3.30    5.10
   0   1  -3   -4.10    4.60
   0  -1   3   12.50    8.30
   0   1   3   -0.90    7.60
   0  -1   3    3.70    5.30
   0   1   3   -3.10    6.00
   0  -1   4    9.70   11.40
   0   1   4    8.20   11.60
   0  -1   5   -0.40   14.00
   0   1   5   12.30   14.60
   0   1   6    4.00   17.30
  -1   1   0   16.40    3.30
  -1   1   0   16.00    2.40
  -1  -1   0   16.30    3.50
   1   1   0   15.70    3.30
   1  -1   1  154.88    9.80
  -1   1   1  152.78   10.10
   1  -1   1  155.18    9.90
  -1   1   1  155.68   13.40
  -1  -1   1  176.68   13.40
   1   1   1  164.08   13.00
  -1   1  -1  131.49   10.20
   1   1   1  188.48   14.10
   1  -1   2   12.00    5.40
  -1   1   2    5.60    6.80
  -1   1   2   19.50    6.40
   1  -1   2   14.80    7.10
   1   1   2    7.20    5.90
  -1   1  -2    9.00    5.20
  -1  -1   2    6.00    3.10
  -1  -1   2   11.30    7.00
   1   1   2   10.60    6.90
  -1   1   3  105.39   18.20
  -1   1   3   45.80    9.10
   1  -1   3   50.79   12.80
   1   1  -3   51.29    7.60
   1  -1   3   66.19   10.80
  -1  -1   3   69.59    8.10
  -1   1  -3   67.69   10.80
   1   1   3   56.09   13.90
  -1  -1   3   38.60   12.10
   1   1   3   55.49   11.20
  -1   1   4   -0.60   10.60
   1  -1   4   18.80   12.00
   1   1   4    1.80    7.50
  -1  -1   4   17.70   11.30
   1   1   4   -2.40   10.20
   1  -1   5   21.40   16.40
  -1   1   5   49.10   19.20
   1   1   5    5.40   12.30
  -1  -1   5   39.30   18.50
  -1   1   6   -7.40   15.60
  -1  -1   6   -7.40   18.80
   1   1   6    3.30   20.80
  -2  -1   0    0.40    3.80
  -2   1   0   15.80    4.20
  -2   1   0    9.20    4.20
   2   1   0   17.50    4.40
  -2   1   1  375.36   19.20
   2  -1   1  337.67   15.50
  -2   1   1  328.67   16.30
   2  -1   1  336.47   17.40
  -2  -1  -1  343.47   17.90
  -2  -1   1  358.26   18.70
   2   1   1  311.17   17.40
  -2   1  -1  353.06   15.80
   2   1   1  361.16   18.50
  -2   1  -1  363.16   17.40
  -2   1   2    3.90    7.20
  -2   1   2    8.20    5.30
   2  -1   2    4.30    5.90
   2  -1   2   -3.50    5.20
   2   1   2    9.00    6.70
  -2   1  -2    6.60    6.00
  -2  -1   2    7.90    2.10
   2   1   2   19.20    7.20
  -2  -1   2    8.10    7.00
   2  -1   3  167.58   17.70
  -2   1   3  145.09   14.30
  -2   1   3  123.69   19.70
   2  -1   3  181.38   21.90
  -2  -1   3  147.69   21.20
  -2   1  -3  175.08   18.30
   2   1   3  203.18   23.60
   2   1   3  192.78   20.50
   2  -1   4    6.20   11.20
  -2   1   4   -1.40    9.90
  -2   1  -4   19.30   10.90
   2   1   4    9.10   10.70
   2   1   4    5.50    7.80
  -2  -1   4   12.40   11.90
   2  -1   5   55.69   19.10
  -2   1   5   44.10   19.40
   2   1   5   67.99   21.00
  -2  -1   5   36.70   17.60
  -2   1   6  -15.70   18.10
   2   1   6   -5.10   15.60
  -2  -1   6  -16.60   15.10
  -3   1   0  306.87   15.70
   3   1   0  326.07   16.00
  -3  -1   0  299.97   18.30
  -3   1   0  304.97   15.90
  -3   1   1 2585.74   84.69
  -3  -1  -1 2469.05   84.09
  -3   1   1 2566.04   80.29
   3  -1   1 2488.35   80.69
   3  -1   1 2545.75   82.89
   3   1   1 2534.85   84.69
  -3  -1   1 2549.74   76.69
  -3  -1   1 2504.85   85.49
   3   1   1 2549.84   84.59
  -3   1  -1 2564.34   83.49
  -3   1  -1 2478.45   80.69
   3  -1   2  210.68   18.30
  -3   1   2  210.28   13.50
   3  -1   2  192.38   18.20
  -3   1   2  184.38   20.70
  -3   1  -2  215.38   19.10
   3   1   2  205.28   20.00
   3   1   2  188.58   19.60
  -3  -1   2  192.38   20.50
  -3   1   3 1335.57   48.40
   3  -1   3 1356.86   56.69
   3  -1   3 1328.87   54.79
  -3   1   3 1391.46   62.29
  -3   1  -3 1319.97   54.89
  -3  -1   3 1348.86   60.89
   3   1   3 1208.28   55.49
   3   1   3 1363.86   60.19
  -3   1   4   61.39   18.50
   3  -1   4   72.19   14.00
   3  -1   4   90.09   18.30
  -3   1  -4   83.49   15.20
  -3  -1   4   59.49   18.60
   3   1   4  100.79   17.00
   3   1   4   90.59   19.40
  -3   1   5  461.85   48.90
   3  -1   5  510.95   47.20
  -3  -1   5  577.54   52.89
   3   1   5  459.75   46.10
  -3   1   6   65.99   27.10
  -3  -1   6    5.00   20.00
  -4   1   0 2535.95   83.79
  -4  -1   0 2589.84   86.29
  -4  -1   0 2551.64   83.09
   4   1   0 2534.45   83.39
  -4   1   0 2562.84   83.49
  -4  -1  -1  329.37   20.80
  -4   1   1  293.17   17.30
  -4   1   1  371.66   21.60
   4  -1   1  342.67   20.10
   4   1   1  320.57   20.90
  -4  -1   1  328.87   15.50
  -4   1  -1  349.67   19.00
  -4  -1   1  340.67   21.30
  -4   1  -1  314.17   20.10
   4  -1   2 1704.53   62.99
  -4  -1  -2 1685.63   65.89
  -4   1   2 1709.03   58.89
   4  -1   2 1763.12   65.99
  -4   1   2 1786.82   67.29
  -4   1  -2 1739.73   63.29
   4   1   2 1784.52   68.09
  -4   1  -2 1727.23   65.49
  -4  -1   2 1677.93   68.09
   4   1   2 1689.93   65.89
  -4  -1   2 1721.73   53.09
   4  -1   3  162.58   20.60
  -4  -1  -3  199.58   24.70
  -4   1   3  165.48   23.70
   4  -1   3  201.88   22.80
  -4   1  -3  174.28   21.60
   4   1   3  158.78   22.20
  -4  -1   3  147.49   21.70
   4   1   3  148.89   20.30
  -4   1  -3  165.78   20.80
  -4  -1  -4  824.92   43.10
   4  -1   4  759.42   40.60
  -4   1   4  804.22   49.70
  -4  -1  -4  733.83   47.30
   4  -1   4  808.52   46.30
  -4  -1   4  713.63   47.50
  -4   1  -4  772.32   41.90
   4   1   4  777.92   47.50
   4   1   4  755.82   42.60
  -4  -1  -5   53.99   18.40
  -4   1   5   53.69   19.70
   4   1   5   52.39   21.40
  -4  -1   5   50.29   19.40
  -4   1   6  278.27   42.90
  -4  -1   6  238.88   38.70
  -5   1   0  180.78   17.10
  -5  -1   0  179.78   19.30
  -5  -1   0  176.68   16.00
   5   1   0  161.08   15.90
  -5   1   0  169.18   16.10
  -5   1   1   40.70    8.60
  -5  -1  -1   53.29   11.40
   5  -1   1   33.30    9.40
  -5   1   1   43.00   10.80
  -5  -1   1   49.90    8.00
  -5   1  -1   56.69   11.10
   5   1   1   36.60    9.00
  -5  -1   1   35.80   10.50
  -5   1  -1   31.00    9.10
  -5   1   2  108.69   12.70
   5  -1   2   83.19   14.00
  -5   1   2  116.99   17.90
  -5  -1  -2   96.69   14.90
   5  -1   2  117.29   14.50
  -5   1  -2   84.89   12.70
  -5  -1   2  116.59    9.70
   5   1   2  106.09   16.70
  -5   1  -2  118.79   17.00
  -5  -1   2  122.99   18.90
   5   1   2   91.39   15.10
   5  -1   3   12.00    9.10
  -5   1   3   55.19   15.20
  -5  -1  -3   39.50   14.10
   5  -1   3   21.70   10.50
  -5  -1   3   14.20   11.00
  -5   1  -3   21.60   10.60
   5   1   3   21.70   10.30
  -5   1  -3   26.80   11.30
   5   1   3   40.40   13.70
  -5  -1  -4   55.79   18.00
  -5   1   4   38.40   16.40
   5  -1   4   44.50   15.30
   5  -1   4   54.29   14.20
  -5  -1  -4   33.00   13.60
   5   1   4   57.89   17.40
  -5  -1   4   64.89   18.80
  -5   1  -4   42.70   14.10
   5   1   4   52.79   15.30
  -5   1  -4   56.49   17.40
  -5   1   5   18.90   17.00
  -5  -1  -5   42.90   18.60
   5   1   5    1.70   14.90
  -5  -1   5    8.20   15.10
  -6  -1   0    8.50    8.60
  -6   1   0    2.00    6.30
  -6   1   0    9.70    6.40
  -6  -1   0   13.00    6.60
   6   1   0   10.90    6.70
  -6  -1  -1   20.90    9.10
   6  -1   1   -3.00    6.00
  -6  -1  -1    4.00    5.50
  -6   1   1   -2.60    4.80
  -6   1   1    3.90    7.70
  -6  -1   1   10.00    8.90
   6   1   1   -0.70    4.80
  -6  -1   1    1.50    4.90
  -6   1  -1    1.20    6.50
  -6   1  -1   -5.80    5.60
  -6  -1  -2   27.80   10.60
  -6   1   2    5.20    8.80
  -6   1   2    4.00    6.70
  -6  -1  -2   12.60    8.90
   6  -1   2   24.00    9.40
  -6   1  -2   19.00   10.50
   6   1   2    4.80    7.70
  -6   1  -2    6.80    8.00
  -6  -1   2    5.00    5.00
  -6  -1   2   -1.40    6.50
   6  -1   3    1.20    8.70
  -6  -1  -3  -12.10    9.40
  -6   1   3    1.90    9.60
  -6  -1  -3    8.30    9.10
   6  -1   3   -4.40    8.50
   6   1   3   -2.50    8.60
   6   1   3   -6.60   10.10
  -6   1  -3    5.50    8.60
  -6  -1   3    5.50   10.20
  -6   1  -3    1.50    8.30
  -6  -1  -4   -5.10    9.10
  -6  -1  -4   12.60   14.50
   6  -1   4   -0.30    8.80
  -6   1   4   11.70   13.50
   6  -1   4   11.60   13.20
   6   1   4   10.10   12.80
  -6   1  -4   -9.60    8.80
  -6   1  -4    1.00   12.10
   6   1   4    3.40   11.60
  -6  -1   4    0.60   10.80
  -6   1   5    9.90   15.10
  -6  -1  -5    8.10   15.50
  -6  -1   5    5.90   14.90
   6   1   5   -1.20   15.30
  -7   1   0  137.99   17.00
   7   1   0  140.69   16.50
  -7   1   0  165.48   18.80
  -7  -1   0  154.68   18.10
  -7  -1   0  118.39   18.80
  -7   1   1   74.79   12.40
  -7   1   1   54.59   13.90
  -7  -1  -1   82.49   15.10
  -7  -1  -1   68.59   14.50
   7  -1   1   79.69   14.80
  -7  -1   1   89.79   16.60
   7   1   1  115.29   18.10
  -7   1  -1   80.69   15.30
  -7   1  -1   91.29   15.80
  -7  -1   1  109.79   14.20
  -7   1   2  118.59   15.40
  -7  -1  -2   93.69   17.90
   7  -1   2   96.89   17.20
  -7   1   2   85.49   17.00
  -7  -1  -2   75.39   16.90
  -7   1  -2   63.19   13.50
  -7  -1   2  168.08   24.30
  -7  -1   2  152.88   14.90
   7   1   2  124.09   20.10
  -7   1  -2   93.09   17.30
   7  -1   3   28.30   12.80
  -7  -1  -3   11.30   12.50
  -7  -1  -3   31.50   13.90
  -7   1   3   54.39   17.20
   7   1   3   32.30   13.40
  -7  -1   3   45.30   16.50
  -7   1  -3   60.99   16.10
  -7   1  -3   58.89   16.00
   7   1   3   46.10   14.50
  -7  -1  -4   28.60   14.30
  -7   1   4   59.89   19.30
   7  -1   4   49.20   16.20
  -7  -1  -4   33.20   17.10
   7   1   4   49.30   17.70
   7   1   4   48.50   16.60
  -7   1  -4   52.39   16.70
  -7  -1   4   22.20   15.90
  -7  -1  -5   25.00   15.80
  -7   1   5   49.99   20.90
   7   1   5   25.00   15.10
  -7  -1   5   15.60   19.20
  -8  -1   0  780.82   38.40
  -8  -1   0  770.82   41.80
   8   1   0  784.32   38.30
  -8   1   0  698.53   39.50
  -8   1   0  784.12   38.90
   8  -1   1  672.53   40.10
  -8   1   1  693.43   36.40
  -8   1   1  803.72   42.10
  -8  -1  -1  814.42   42.50
  -8  -1  -1  779.22   40.50
  -8   1  -1  742.03   39.40
  -8  -1   1  690.73   41.20
  -8   1  -1  669.13   37.80
  -8  -1   1  717.63   35.40
   8   1   1  670.03   39.10
   8  -1   2  667.33   39.60
  -8   1   2  619.94   32.90
  -8  -1  -2  566.54   45.20
  -8   1   2  620.04   39.70
  -8  -1  -2  522.75   42.80
  -8  -1   2  614.54   31.60
  -8  -1   2  564.54   47.20
   8   1   2  584.74   38.70
  -8   1  -2  599.24   37.50
  -8   1  -2  590.34   36.30
  -8  -1  -3  437.96   39.80
  -8   1   3  493.75   43.30
  -8  -1  -3  485.95   43.60
   8  -1   3  390.56   37.70
   8   1   3  408.56   40.40
  -8   1  -3  429.76   40.00
  -8  -1   3  493.65   46.10
  -8   1  -3  437.46   37.80
   8  -1   4  243.08   31.00
  -8   1   4  285.47   37.50
  -8  -1  -4  335.57   38.10
  -8  -1  -4  296.67   38.00
   8   1   4  289.17   36.10
  -8   1  -4  320.97   35.80
  -8  -1   4  303.07   38.90
   8   1   4  329.77   37.80
  -8   1   5  204.78   36.20
  -8  -1  -5  127.29   25.20
  -8   1  -5  167.68   32.30
  -8  -1   5  144.59   31.70
  -9  -1   0  228.98   27.10
  -9  -1   0  212.08   23.20
   9   1   0  212.88   24.20
  -9   1   0  236.68   26.10
  -9   1   0  230.48   25.10
  -9   1   1  685.03   37.90
  -9   1   1  700.03   41.30
   9  -1   1  739.03   41.50
  -9  -1  -1  662.33   40.50
  -9  -1  -1  688.33   43.00
  -9   1  -1  722.53   40.90
  -9   1  -1  683.23   39.00
  -9  -1   1  739.43   43.60
   9   1   1  659.93   39.10
  -9  -1   1  581.74   33.50
   9  -1   2  154.08   23.20
  -9   1   2  176.88   22.30
  -9  -1  -2  146.89   23.20
  -9   1   2  272.77   32.50
  -9  -1  -2  183.48   25.50
  -9  -1   2  136.39   24.40
   9   1   2  201.68   26.60
  -9   1  -2  204.88   25.80
  -9   1  -2  189.88   26.80
  -9  -1  -3  358.96   37.30
   9  -1   3  472.35   42.50
  -9  -1  -3  406.36   41.10
  -9   1   3  450.65   44.10
   9   1   3  301.07   34.60
  -9   1  -3  462.55   42.80
  -9  -1   3  386.66   41.30
  -9   1  -3  385.76   37.30
  -9   1   4   87.29   25.30
  -9  -1  -4   74.19   22.30
  -9  -1  -4   76.39   21.00
   9  -1   4   90.19   22.00
  -9   1  -4   53.79   17.40
  -9  -1   4   88.59   24.30
   9   1   4   83.79   20.40
  -9  -1  -5  161.08   28.40
   9  -1   5  173.68   29.80
  -9   1   5  168.38   32.90
  -9  -1   5  202.18   37.60
   9   1   5  174.08   31.80
  -9   1  -5  122.79   25.50
  10   1   0   81.89   17.10
 -10   1   0   84.89   17.20
 -10  -1   0  110.49   18.10
 -10  -1   0   45.90   16.00
 -10   1   0   86.99   17.30
  10  -1   1  401.46   37.50
 -10   1   1  366.46   36.20
 -10  -1  -1  390.56   36.10
 -10  -1  -1  405.16   39.50
 -10   1   1  330.77   31.70
 -10   1  -1  400.26   36.80
 -10   1  -1  410.66   35.10
  10   1   1  430.36   37.30
 -10  -1   1  382.46   31.30
 -10  -1   1  383.26   39.00
 -10  -1  -2   38.20   16.40
 -10  -1  -2   73.69   20.60
 -10   1   2   48.10   16.10
  10  -1   2   42.20   16.10
 -10  -1   2   47.10   17.20
  10   1   2   55.69   16.40
 -10   1  -2   69.19   17.50
 -10   1  -2   64.69   17.30
 -10  -1  -3  216.48   30.40
 -10   1   3  310.57   38.30
  10  -1   3  251.57   34.40
 -10  -1  -3  234.08   33.70
  10   1   3  231.08   30.40
 -10  -1   3  199.18   31.50
 -10   1  -3  238.38   33.50
  10  -1   4   36.10   17.60
 -10   1   4   36.40   19.10
 -10  -1  -4   26.30   17.20
 -10   1  -4    3.40   14.10
 -10  -1   4   53.79   21.60
  10   1   4   52.19   19.00
  10  -1   5  121.69   25.50
 -10  -1  -5  124.59   26.80
 -10   1   5  133.09   31.90
 -10  -1   5  146.89   33.10
 -10   1  -5   94.09   22.40
  10   1   5  151.88   29.00
 -11  -1   0   63.69   16.50
 -11   1   0   85.49   18.00
  11   1   0   74.79   17.50
 -11   1   0  106.79   20.30
 -11  -1   0   54.59   17.30
 -11  -1  -1   -1.50   11.80
 -11  -1  -1  -11.10    8.40
 -11   1   1  -10.00    8.40
 -11   1   1    6.00   11.90
 -11   1  -1   -8.80    8.50
  11   1   1    8.50   10.40
 -11  -1   1   17.10   13.40
 -11  -1   1    9.90    9.90
 -11   1  -1   -5.70    9.60
 -11  -1  -2  106.29   22.70
 -11   1   2   79.79   20.60
  11  -1   2   70.99   19.20
 -11  -1  -2   81.89   20.10
 -11  -1   2   65.09   19.80
 -11   1  -2   66.09   18.30
  11   1   2   98.19   20.90
 -11   1  -2  120.89   24.10
 -11  -1  -3    1.00   13.10
  11  -1   3   -8.90   10.10
 -11  -1  -3  -16.20   13.10
 -11   1   3   24.20   16.40
  11   1   3    2.10   11.90
 -11  -1   3    9.60   13.10
 -11   1  -3   -4.70   12.90
  11  -1   4   57.29   20.20
 -11  -1  -4   39.20   19.20
 -11   1   4   64.09   23.00
  11   1   4   66.59   21.60
 -11  -1   4   38.30   21.00
 -11   1  -4   67.09   23.00
 -12   1   0   12.90   11.50
 -12   1   0    1.80   11.30
 -12  -1   0    6.30   12.10
 -12  -1   0   -1.00    9.50
 -12   1   1   16.80   11.90
 -12   1   1   32.90   15.90
 -12  -1  -1    5.70   11.90
 -12  -1  -1   62.09   17.40
 -12  -1   1   12.10   12.50
 -12  -1   1   11.40   13.20
  12   1   1   23.70   15.10
 -12   1  -1   21.40   13.70
 -12   1  -1   12.00   12.60
  12  -1   2  -11.10   10.20
 -12  -1  -2   12.60   14.10
 -12   1   2   17.90   16.10
 -12  -1  -2    0.70   11.60
 -12  -1   2   -7.20   11.60
  12   1   2   11.90   13.30
 -12   1  -2    3.10   12.70
 -12   1  -2   -6.50   12.20
 -12  -1  -3   -0.10   14.30
  12  -1   3    5.30   12.90
 -12  -1  -3   37.00   19.10
 -12   1   3   26.60   17.40
 -12  -1   3    5.60   13.60
  12   1   3   42.50   18.80
 -12   1  -3   17.30   16.40
  12  -1   4   -3.50   13.90
 -12  -1  -4  -16.00   13.10
 -12   1   4   -9.70   15.20
 -12  -1   4    9.20   15.70
  12   1   4  -21.20   11.70
 -12   1  -4   -8.30   12.80
 -13  -1   0  263.17   33.60
 -13   1   0  264.17   33.80
 -13   1   0  246.58   33.30
 -13  -1   0  227.18   30.10
 -13   1   1   28.50   16.10
 -13  -1  -1   14.50   15.20
 -13   1   1   19.50   14.30
 -13  -1  -1   20.70   14.50
  13   1   1   10.20   13.70
 -13   1  -1   14.30   13.70
 -13   1  -1   44.40   15.70
 -13  -1   1   26.40   16.70
 -13  -1   1    1.40   12.10
 -13   1   2  133.89   27.20
 -13  -1  -2  166.08   30.20
 -13  -1  -2  216.48   32.80
 -13  -1   2  178.08   32.50
  13   1   2  219.88   35.60
 -13   1  -2  216.98   32.90
 -13  -1  -3   14.00   17.40
 -13   1   3   17.80   17.40
 -13  -1   3   -6.00   13.40
 -13   1  -3   28.60   19.10
  13   1   3   50.99   21.60
 -14   1   0   37.50   17.20
 -14  -1   0   67.59   19.50
 -14   1   0   18.70   15.40
 -14  -1   0   36.10   17.70
 -14  -1  -1   14.10   15.70
 -14   1   1   12.20   16.30
 -14  -1  -1   19.50   13.80
 -14   1   1   48.90   19.50
 -14   1  -1    5.40   14.30
 -14   1  -1   23.10   14.70
  14   1   1   19.70   15.30
 -14  -1   1   31.10   18.20
 -14   1   2   91.79   23.70
 -14  -1  -2   41.30   20.20
 -14  -1  -2   21.60   17.70
 -14  -1   2   45.90   20.60
 -14   1  -2   27.60   18.20
  14   1   2    4.70   15.20
 -14  -1  -3    5.70   17.70
 -14   1   3   25.90   17.70
 -14   1  -3   34.80   20.60
  14   1   3   18.70   19.00
 -14  -1   3   25.30   18.40
 -15   1   0  125.29   26.80
 -15  -1   0  152.78   26.50
 -15   1   0  186.58   30.80
 -15  -1   0  127.09   26.40
 -15   1   1   73.19   20.80
 -15  -1  -1   84.99   24.20
 -15  -1  -1   84.49   23.30
 -15   1  -1   50.99   20.10
 -15  -1   1   58.99   21.60
 -15  -1  -2  182.78   33.10
 -15   1   2  159.88   31.90
 -15   1  -2  119.89   27.30
 -15  -1   2  111.89   28.50
  15   1   2  130.39   28.20
 -16  -1   0  300.07   40.40
 -16   1   0  377.16   43.50
 -16  -1   0  437.76   47.90
 -16  -1  -1   -4.90   15.30
 -16   1   1   -8.00   13.90
 -16  -1  -1  -19.20   10.80
 -16  -1   1   16.40   18.10
 -16   1  -1  -19.70   12.90
 -16  -1  -2  330.37   43.50
 -16   1   2  374.36   45.60
 -16  -1   2  353.06   47.90
 -16   1  -2  351.76   45.70
   0   2   0    8.60    3.90
   0   2   0   21.40    3.40
   0  -2   0   25.30    3.70
   0   2  -1  197.28   10.00
   0  -2   1  196.88   11.10
   0   2   1  208.88   15.50
   0   2   1  194.58   15.50
   0  -2   2    9.90    4.10
   0   2  -2    4.90    3.90
   0  -2   2   21.50    7.60
   0   2   2   10.20    7.40
   0   2   2    6.50    6.10
   0   2  -3   95.59   10.80
   0  -2   3  106.39   11.40
   0   2   3   74.89   15.70
   0   2   3  104.49   14.90
   0  -2   3   76.39   14.90
   0   2   4  -16.60    8.00
   0  -2   4   11.40   12.50
   0  -2   5   20.70   14.90
   0   2   5   23.80   17.70
   0   2   6    4.10   15.50
   1   2   0  156.98    9.90
  -1  -2   0  177.78   10.20
  -1   2   0  185.78   10.60
  -1   2   0  174.78    7.70
   1  -2   1  552.34   21.00
   1   2  -1  579.04   19.20
  -1   2   1  554.34   24.80
  -1   2   1  560.04   25.50
  -1   2  -1  607.54   23.00
   1   2   1  594.34   25.50
   1   2   1  580.04   26.40
  -1  -2   1  584.34   24.00
   1  -2   2   82.19    9.80
  -1   2   2  109.19   15.90
   1  -2   2   92.89   12.00
   1   2  -2   97.79    6.30
  -1   2   2   91.89   12.30
  -1  -2   2   76.89   11.90
   1   2   2  103.69   13.60
  -1   2  -2   88.69   10.30
   1   2   2   63.29   12.50
   1   2  -3  231.28   12.40
   1  -2   3  232.38   18.60
  -1   2   3  269.97   22.30
   1  -2   3  232.08   23.00
  -1   2   3  259.67   28.20
   1   2   3  229.98   22.20
  -1   2  -3  290.17   17.50
  -1  -2   3  233.88   25.20
   1   2   3  262.77   27.50
  -1   2   4   34.30   15.30
   1  -2   4   36.40   14.50
  -1  -2   4   48.80   16.10
   1   2   4   25.40   11.00
   1   2   4   44.20   16.20
   1  -2   5   93.39   21.90
  -1   2   5   92.49   24.30
  -1  -2   5   50.29   18.00
   1   2   5  106.69   23.50
  -1   2   6   20.70   19.30
   1   2   6   31.40   22.60
   2   2   0    1.50    4.90
  -2   2   0   16.20    5.90
  -2   2   0   11.50    3.90
  -2  -2   0   15.00    6.70
  -2   2   1  724.93   29.30
  -2   2   1  696.63   30.80
   2  -2   1  732.63   28.60
   2  -2   1  733.33   25.00
  -2  -2  -1  699.53   30.50
  -2   2  -1  728.33   28.70
   2   2   1  664.13   30.10
  -2   2  -1  719.23   25.00
  -2  -2   1  698.93   30.30
   2   2   1  723.63   31.60
   2  -2   2   -5.60    4.80
  -2   2   2    7.50    7.10
   2  -2   2   -0.40    5.00
  -2   2   2   11.40    6.30
   2   2   2    9.70    6.80
  -2  -2   2    9.90    7.00
   2   2   2    6.00    7.30
  -2   2  -2    3.10    5.20
   2  -2   3  324.77   20.50
  -2   2   3  334.57   21.30
  -2   2   3  271.37   30.00
   2  -2   3  332.57   28.20
  -2   2  -3  312.37   20.60
   2   2   3  280.47   28.70
  -2  -2   3  389.36   32.10
   2   2   3  354.16   28.60
  -2   2   4   18.40   12.40
   2  -2   4    4.60   10.70
   2   2   4   -4.90    9.20
  -2  -2   4   -2.40   11.20
   2   2   4    7.80    9.10
  -2   2   5   93.79   23.80
  -2  -2   5  125.09   26.10
   2   2   5  129.09   26.90
  -2   2   6    1.50   16.20
  -2  -2   6    9.20   17.50
   2   2   6   13.00   20.20
  -3  -2   0   25.70    7.10
   3   2   0   15.90    5.80
  -3   2   0   21.20    5.20
  -3   2   0   11.50    6.10
   3  -2   1    8.00    5.70
  -3   2   1   -2.30    4.90
   3   2  -1    2.40    2.60
  -3  -2  -1   -3.70    5.00
  -3   2   1    1.40    5.20
  -3  -2   1    1.20    2.40
  -3  -2   1    1.40    4.60
   3   2   1    1.90    6.00
  -3   2  -1    5.20    5.50
  -3   2  -1   -1.30    3.30
   3   2   1   -1.70    5.50
  -3   2   2   10.40    7.90
  -3   2   2    7.60    6.00
  -3  -2  -2    9.50    7.70
   3  -2   2   16.10    7.20
   3  -2   2   23.20    6.90
   3   2   2    9.10    7.80
  -3   2  -2   15.30    6.60
   3   2   2   13.30    8.40
  -3  -2   2   15.40    7.80
   3  -2   3   -1.40    6.40
  -3   2   3    9.90    9.30
  -3   2   3   -3.40    5.80
   3  -2   3   -0.60    7.20
  -3  -2   3   -5.00    8.00
   3   2   3    5.10    7.40
  -3   2  -3   -2.50    6.20
   3   2   3  -10.60    6.90
  -3   2   4    6.80   11.80
   3  -2   4    2.20    9.30
   3  -2   4   -9.00    6.60
  -3   2  -4   12.80    9.30
   3   2   4   -1.50    9.70
  -3  -2   4    4.90   11.00
   3   2   4   12.50   12.00
  -3   2   5    8.20   13.90
  -3  -2   5   13.50   15.40
   3   2   5    2.30   15.70
  -3  -2  -6  -23.00   12.40
  -3   2   6    2.00   16.30
  -3  -2   6   -6.60   17.50
   3   2   6  -19.10   14.90
  -4   2   0 1174.58   43.10
  -4   2   0 1250.57   46.50
   4   2   0 1156.88   44.60
  -4  -2   0 1167.08   47.90
  -4  -2  -1  223.48   20.50
  -4   2   1  203.18   18.70
   4   2  -1  197.68   11.40
   4  -2   1  220.28   19.80
  -4   2   1  225.78   18.30
  -4   2  -1  224.78   14.30
   4   2   1  204.08   19.30
  -4   2  -1  226.68   19.90
  -4  -2   1  213.98   11.70
   4   2   1  211.18   19.90
  -4  -2   1  225.38   20.90
  -4   2   2  732.23   32.40
  -4   2   2  775.02   38.90
  -4  -2  -2  779.22   38.00
   4  -2   2  682.23   34.80
   4  -2   2  694.73   31.50
  -4   2  -2  705.73   34.50
  -4  -2   2  840.32   40.20
  -4   2  -2  726.63   32.10
   4   2   2  729.93   37.30
   4   2   2  690.13   36.60
  -4  -2  -3   74.09   16.50
   4  -2   3  100.59   16.20
  -4   2   3   78.49   12.20
   4  -2   3   93.09   15.20
  -4   2   3   72.29   17.40
  -4  -2   3   86.29   17.10
   4   2   3   87.19   17.80
   4   2   3   66.59   14.40
  -4   2  -3   91.29   15.70
  -4   2  -3   75.89   13.90
   4  -2   4  345.87   34.00
   4  -2   4  328.17   29.90
  -4  -2  -4  358.86   38.30
  -4   2   4  305.77   35.50
  -4  -2   4  292.07   35.10
   4   2   4  351.16   37.80
   4   2   4  308.07   32.00
  -4   2  -4  328.37   29.80
  -4  -2  -5   46.80   19.20
  -4   2   5   18.80   17.20
   4   2   5   38.90   18.60
  -4  -2   5   53.59   20.30
  -4   2   6   68.49   26.30
  -4  -2  -6   62.19   29.00
  -4  -2   6  200.88   37.40
  -5   2   0  396.46   23.30
   5   2   0  351.36   21.40
  -5  -2   0  383.36   25.90
  -5   2   0  420.96   21.90
   5   2  -1  835.92   31.90
  -5   2   1  806.82   35.50
  -5  -2  -1  880.81   39.90
   5  -2   1  824.92   38.40
  -5   2   1  812.92   38.60
  -5   2  -1  776.22   38.00
   5   2   1  802.22   38.90
  -5   2  -1  848.82   34.80
  -5  -2   1  834.72   31.80
  -5  -2   1  807.72   40.50
  -5   2   2  246.78   20.90
  -5  -2  -2  288.27   27.10
   5  -2   2  247.68   23.90
  -5   2   2  264.67   25.50
   5  -2   2  251.17   20.90
  -5   2  -2  275.27   22.60
   5   2   2  318.07   29.70
   5   2   2  293.17   27.40
  -5  -2   2  272.87   11.80
  -5   2  -2  269.87   25.10
  -5  -2   2  295.37   28.50
   5  -2   3  467.55   30.80
  -5   2   3  324.57   34.60
   5  -2   3  388.86   31.70
  -5  -2  -3  399.96   37.20
   5   2   3  556.64   42.20
  -5   2  -3  475.85   36.40
   5   2   3  433.66   36.40
  -5  -2   3  517.35   42.40
  -5   2  -3  434.06   28.80
  -5  -2  -4  137.49   25.50
  -5   2   4  114.69   23.50
   5  -2   4   76.79   17.50
  -5   2  -4   81.89   19.20
   5   2   4  108.89   20.00
   5   2   4  122.69   23.80
  -5   2  -4  122.59   19.70
  -5  -2   4  105.29   22.30
  -5   2   5  207.68   34.90
  -5  -2   5  152.88   30.20
   5   2   5  141.39   29.40
  -6  -2   0 1715.43   67.79
  -6   2   0 1643.24   62.59
   6   2   0 1694.83   63.19
  -6  -2   0 1640.84   62.09
  -6   2   0 1683.73   63.59
   6   2  -1 2956.10   96.39
   6  -2   1 2951.60  104.09
  -6  -2  -1 2947.01  105.89
  -6   2   1 3038.30  101.59
  -6   2   1 2990.40  103.79
  -6  -2   1 3020.30  106.39
   6   2   1 3003.30  105.29
  -6  -2   1 2925.61   96.09
  -6   2  -1 2955.60  104.09
  -6   2  -1 2878.81   99.89
  -6  -2  -2 1233.88   56.59
  -6   2   2 1203.28   49.70
  -6   2   2 1224.18   56.69
   6  -2   2 1266.47   55.29
   6   2   2 1281.57   55.69
  -6   2  -2 1190.28   49.90
  -6  -2   2 1242.48   42.30
  -6   2  -2 1235.88   55.09
  -6  -2   2 1242.78   58.39
   6   2   2 1154.48   55.79
  -6  -2  -3 1668.13   75.59
   6  -2   3 1736.93   71.79
  -6   2   3 1782.92   79.29
   6  -2   3 1751.52   69.09
   6   2   3 1711.73   74.69
  -6  -2   3 1801.52   78.59
  -6   2  -3 1781.02   69.59
  -6   2  -3 1683.33   72.79
   6   2   3 1562.44   74.79
   6  -2   4  634.94   40.50
  -6  -2  -4  613.44   48.30
  -6   2   4  508.25   48.80
  -6  -2  -4  616.74   52.59
  -6  -2   4  559.84   51.09
   6   2   4  669.03   53.19
   6   2   4  626.04   49.60
  -6   2  -4  597.14   39.60
  -6  -2  -5  836.32   56.19
  -6   2   5  813.32   69.49
  -6  -2   5  741.73   64.69
   6   2   5  698.53   61.49
  -7  -2   0   -4.40    7.70
   7   2   0    6.60    6.90
  -7   2   0   -9.40    5.30
  -7  -2   0    5.60    6.60
  -7   2   0    3.20    6.70
  -7  -2  -1   23.40   10.10
  -7   2   1   49.80   12.10
   7  -2   1   23.90   10.30
  -7   2   1    3.70    7.40
  -7  -2  -1   20.60   10.90
   7   2  -1   19.60    7.80
  -7   2  -1   39.70   11.50
  -7  -2   1   11.30    9.20
  -7  -2   1   33.80    8.70
   7   2   1   51.09   12.70
  -7   2  -1   21.50    9.70
  -7   2   2   -3.40    7.00
  -7   2   2    4.60    7.20
   7  -2   2    5.30    9.00
  -7  -2  -2   13.30   10.10
  -7   2  -2   -4.60    7.30
  -7   2  -2    6.90    7.80
  -7  -2   2    4.90    6.60
  -7  -2   2   10.70    9.90
   7   2   2   -0.70    8.10
   7  -2   3    5.00    9.30
  -7  -2  -3   16.00   12.10
  -7   2   3    7.00   11.40
  -7  -2  -3   11.40   11.60
   7   2   3   12.90   11.60
   7   2   3    9.60   11.70
  -7   2  -3   16.40   11.30
  -7  -2   3   21.90   12.70
  -7   2  -3    0.70    8.90
  -7  -2  -4   -9.50    8.90
  -7  -2  -4    6.00   15.20
  -7   2   4    2.10   12.60
   7  -2   4    0.00    9.90
   7   2   4  -13.50   12.90
  -7   2  -4  -16.40    8.30
   7   2   4   18.40   13.50
  -7  -2   4  -16.10    9.90
  -7  -2  -5   15.40   14.60
  -7   2   5   18.00   15.50
  -7  -2  -5   -0.80   18.40
   7   2   5    5.90   18.70
   7   2   5   34.10   18.10
  -7  -2   5   -2.20   17.60
   8   2   0  327.07   27.80
  -8  -2   0  244.98   28.20
  -8   2   0  259.87   25.60
  -8   2   0  289.07   26.10
  -8  -2   0  275.67   25.50
   8   2  -1   40.30   10.30
  -8   2   1   60.29   13.00
  -8   2   1   20.10   10.10
  -8  -2  -1    7.80   11.00
  -8  -2  -1   49.40   14.10
  -8  -2   1   50.59   11.50
   8   2   1   31.70   12.10
  -8   2  -1   46.70   12.50
  -8   2  -1   25.20   10.50
  -8  -2   1   88.89   18.70
  -8  -2  -2  234.28   29.60
  -8   2   2  255.57   25.40
  -8  -2  -2  149.39   23.40
  -8   2   2  171.28   24.40
   8  -2   2  145.39   21.90
   8   2   2  184.28   25.90
  -8  -2   2  165.18   25.40
  -8   2  -2  175.28   24.20
  -8   2  -2  181.38   21.80
  -8   2   3    7.70   12.30
  -8  -2  -3   23.50   15.80
   8  -2   3    7.30   11.50
  -8  -2  -3   27.90   15.00
  -8   2  -3    4.60   10.50
   8   2   3   22.20   13.30
  -8  -2   3    5.80   12.40
  -8   2   4   62.49   20.70
   8  -2   4   42.90   15.80
  -8  -2  -4   68.69   20.20
  -8  -2  -4  111.09   27.50
   8   2   4   67.29   19.50
  -8  -2   4   88.79   24.60
  -8   2  -4   63.39   19.10
   8   2   4   72.19   22.00
  -8   2   5   10.30   16.80
  -8  -2  -5   63.69   19.50
  -8  -2   5   13.60   17.90
   8   2   5   10.60   14.40
  -9   2   0   17.10   10.70
   9   2   0   14.20    9.20
  -9  -2   0   21.30   12.50
  -9   2   0   23.90    9.90
  -9  -2   0   10.90    8.70
  -9  -2  -1   -3.80    9.30
  -9   2   1   -7.10    7.30
  -9  -2  -1   14.90   10.50
  -9   2   1   -3.70    8.00
   9   2  -1    4.40    7.60
   9   2   1   -1.20    9.30
  -9  -2   1   -8.50    7.00
  -9   2  -1    2.30    9.10
  -9   2  -1    8.30    8.90
  -9  -2   1    8.70   10.70
   9  -2   2    6.50   10.10
  -9   2   2   16.90   11.50
  -9  -2  -2   36.00   14.50
  -9   2   2   34.40   13.80
  -9  -2  -2   17.20   13.00
   9   2   2    2.20    8.10
  -9   2  -2   14.30   12.00
  -9   2  -2   22.10   11.60
  -9  -2   2   14.10   12.60
   9  -2   3    0.50   10.60
  -9   2   3   -2.70   10.20
  -9  -2  -3    8.40   14.60
  -9  -2  -3  -16.40    9.70
  -9   2  -3   -7.00   11.10
  -9  -2   3    7.40   12.90
   9   2   3   13.00   13.60
   9  -2   4   16.40   13.80
  -9  -2  -4    8.20   17.00
  -9   2   4    5.40   12.70
  -9  -2  -4   16.70   14.70
   9   2   4    1.90   12.30
  -9  -2   4   20.10   16.10
  -9   2  -4   36.90   16.40
  -9   2   5   21.70   19.10
  -9  -2  -5    2.30   15.60
   9   2   5   30.70   17.80
  -9  -2   5    0.60   18.50
  -9   2  -5    4.50   13.10
 -10  -2   0   -0.70   10.60
 -10   2   0   15.80   12.00
 -10   2   0   14.90   11.00
  10   2   0    8.50    9.50
 -10  -2   0    5.70    9.70
 -10  -2  -1   10.10   12.20
 -10  -2  -1    0.80    8.90
 -10   2   1    2.30    9.70
 -10   2   1    3.50    9.50
 -10   2  -1    5.80   10.50
 -10  -2   1    2.90   10.10
 -10  -2   1    7.40    8.90
  10   2   1   -2.40    8.40
 -10   2  -1   -2.10    9.70
 -10  -2  -2  -12.70    9.50
  10  -2   2   22.60   12.20
 -10  -2  -2   16.10   12.90
 -10   2   2    0.00   10.70
 -10   2   2   13.90   11.70
  10   2   2   14.80   12.30
 -10   2  -2   -6.70   10.00
 -10   2  -2    1.00    9.50
 -10  -2   2   -3.40   10.60
 -10   2   3    4.90   11.50
 -10  -2  -3  -12.20   10.50
  10  -2   3   19.60   13.90
 -10  -2  -3   14.90   15.60
 -10   2  -3   -9.70   10.30
 -10  -2   3   -6.90   11.40
  10   2   3    1.70   10.90
 -10  -2  -4    5.90   16.90
 -10  -2  -4    5.20   15.20
 -10   2   4   27.90   17.20
 -10  -2   4   -1.10   14.50
 -10   2  -4  -14.50   11.90
  10   2   4   -0.70   13.00
 -11  -2   0   80.29   18.30
 -11   2   0  180.28   25.80
 -11  -2   0  171.28   27.80
 -11   2   0  140.69   21.70
  11   2   0  118.69   21.10
 -11  -2  -1  432.86   39.80
 -11  -2  -1  444.36   43.80
 -11   2   1  426.36   38.00
 -11   2   1  462.45   40.80
 -11   2  -1  456.25   37.80
  11   2   1  405.96   39.80
 -11  -2   1  393.16   41.10
 -11  -2   1  324.37   31.90
 -11   2  -1  390.06   38.50
 -11  -2  -2   48.60   17.80
 -11   2   2   76.89   20.00
 -11  -2  -2   82.69   22.40
  11   2   2  110.29   22.50
 -11   2  -2   62.59   17.80
 -11  -2   2  102.79   23.20
 -11   2   3  219.18   32.60
 -11  -2  -3  330.97   40.50
 -11  -2  -3  331.67   42.20
 -11   2  -3  267.57   36.10
  11   2   3  186.58   30.50
 -11  -2   3  227.38   34.70
 -11   2   4   82.59   25.10
 -11  -2  -4   43.40   20.30
  11   2   4   61.19   21.70
 -11  -2   4   59.19   21.90
 -11   2  -4   59.49   19.80
 -12   2   0   55.19   16.20
 -12   2   0   58.19   17.30
  12   2   0   55.99   15.50
 -12  -2   0   35.70   16.90
 -12  -2   0   46.00   15.40
 -12   2   1   38.00   15.60
 -12   2   1   11.90   12.90
 -12  -2  -1    1.50   10.60
 -12  -2  -1   59.89   19.50
 -12  -2   1   55.79   15.20
 -12  -2   1   45.80   17.70
 -12   2  -1   63.39   17.90
 -12   2  -1   59.99   16.90
  12   2   1   33.50   15.40
 -12  -2  -2   12.40   14.30
 -12  -2  -2   71.99   22.00
 -12   2   2   45.00   18.30
 -12  -2   2   75.39   21.50
 -12   2  -2   31.80   16.80
  12   2   2   32.70   14.50
 -12  -2  -3    8.90   15.50
 -12  -2  -3   20.30   18.00
 -12   2   3   31.20   16.30
  12   2   3   18.20   15.30
 -12   2  -3   -1.00   13.70
 -12  -2   3   52.79   21.60
 -12   2   4   25.90   19.60
 -12  -2  -4   24.50   20.80
 -12   2  -4   26.30   18.60
  12   2   4   24.90   18.90
 -12  -2   4   13.50   16.70
  13   2   0   23.80   15.30
 -13   2   0   15.40   13.90
 -13   2   0    0.20   12.00
 -13  -2   0    3.20   14.60
 -13  -2   0   18.40   13.80
 -13   2   1   -2.60   11.70
 -13  -2  -1    2.20   12.30
 -13  -2  -1   -5.50   13.60
 -13   2   1  -17.50    9.40
 -13   2  -1   -3.50   10.70
 -13  -2   1   14.40   15.30
 -13  -2   1    9.50   13.00
 -13   2  -1   15.70   12.80
  13   2   1   -6.30   13.40
 -13   2   2   13.90   15.60
 -13  -2  -2    5.30   15.40
 -13  -2  -2   -2.80   13.90
  13   2   2    7.60   14.60
 -13   2  -2    0.00   13.40
 -13  -2   2   -4.70   13.10
 -13   2   3  -13.50   12.00
 -13  -2  -3    1.50   16.00
 -13  -2  -3  -15.90   13.30
 -13  -2   3   28.50   18.80
 -13   2  -3    0.00   15.60
  13   2   3    3.30   15.50
 -14   2   0    4.20   15.50
 -14  -2   0  -10.80   11.10
 -14   2   0   -2.90   13.80
 -14  -2   0   -1.70   12.20
 -14   2   1  204.88   31.30
 -14  -2  -1  203.88   33.20
 -14  -2  -1  137.59   26.80
 -14   2   1  244.78   34.70
 -14  -2   1  158.08   30.10
 -14   2  -1  201.38   33.20
  14   2   1  147.29   29.30
 -14   2   2    3.20   14.10
 -14  -2  -2  -15.20   11.70
 -14  -2  -2   -8.60   15.40
 -14  -2   2    2.20   15.40
  14   2   2  -13.50   13.70
 -14   2  -2    2.80   13.10
 -14   2   3  112.19   26.60
 -14  -2  -3  110.79   29.90
  14   2   3  214.48   38.30
 -14  -2   3  198.08   36.20
 -14   2  -3  120.79   28.30
 -15  -2   0    4.10   14.80
 -15  -2   0   24.90   18.00
 -15   2   0    8.80   14.30
 -15   2   0   26.20   16.50
 -15   2   1   18.20   16.30
 -15  -2  -1    1.40   14.20
 -15  -2  -1  -15.30   11.50
 -15   2   1    4.10   15.50
  15   2   1   11.10   16.10
 -15  -2   1   13.20   17.40
 -15   2  -1   -8.10   13.50
 -15  -2  -2   24.90   21.20
 -15   2   2   32.40   18.10
 -15  -2  -2   10.80   18.10
 -15  -2   2   16.50   20.70
 -15   2  -2   -3.90   15.70
  15   2   2   22.30   18.50
 -16   2   0  205.98   33.20
 -16  -2   0  190.48   32.80
 -16  -2   0  228.28   34.50
 -16   2   1  335.17   42.90
 -16  -2  -1  295.07   38.10
 -16  -2  -1  289.07   41.60
 -16   2  -1  246.78   36.30
 -16  -2   1  334.87   44.50
   0   3   0    2.50    3.20
   0  -3   0    5.00    3.70
   0   3   0   -5.00    5.20
   0   3  -1   -3.70    3.60
   0   3   1    3.90    5.70
   0   3   1   -1.40    5.10
   0  -3   1   -1.50    3.10
   0  -3   2    0.00    4.80
   0   3   2    6.20    6.80
   0   3  -2    1.10    4.30
   0   3   2   11.10    8.00
   0   3   3    6.30    8.40
   0   3  -3   -4.10    4.50
   0   3   3   -6.90    6.70
   0  -3   3    9.30    7.80
   0   3   4    2.40   10.90
   0  -3   4    4.70   10.60
   0   3   4   14.80    9.40
   0   3   5    1.20   13.80
   0  -3   5   12.00   14.30
   0   3   6  -13.50   15.70
  -1   3   0   -2.50    2.80
  -1   3   0    5.40    6.00
   1   3   0    0.20    5.00
  -1  -3   0    9.20    5.30
  -1   3   1   80.09   11.50
   1  -3   1   93.99    6.10
  -1   3   1   93.89   11.70
   1   3  -1   85.49    8.00
  -1  -3   1   89.89    9.60
  -1   3  -1   73.69    9.10
   1   3   1   95.09   13.40
   1   3   1   78.39   11.50
   1  -3   2   10.20    5.60
   1   3  -2   -1.20    3.00
  -1   3   2    2.80    5.40
  -1   3   2    2.10    6.30
   1   3   2   -6.20    6.00
   1   3   2  -10.70    6.00
  -1  -3   2    2.10    4.80
  -1   3  -2    1.40    4.50
  -1   3   3   49.50   14.40
   1  -3   3   48.30   11.80
  -1   3   3   72.99   14.10
   1   3   3   44.70   11.50
  -1  -3   3   25.10   11.40
  -1   3  -3   31.00    8.30
   1   3   3   46.10   13.60
  -1   3   4  -17.60    7.80
   1  -3   4   -0.20   10.20
   1   3   4    1.30    9.30
   1   3   4   -5.30   10.40
  -1  -3   4   21.80   12.40
  -1   3   5   23.60   17.90
  -1  -3   5   19.50   14.50
   1   3   5   29.10   17.20
  -1   3   6    0.00   13.80
   1   3   6   -5.30   16.60
   2   3   0   12.70    5.90
  -2   3   0    6.50    6.00
  -2  -3   0   -0.80    5.80
  -2   3   0    6.90    3.30
  -2   3   1 3177.78  101.59
   2  -3   1 3126.59   92.09
  -2   3   1 3154.98  101.09
  -2  -3  -1 3102.59  102.49
   2   3  -1 3098.29   94.49
  -2   3  -1 3110.09   92.19
  -2   3  -1 3146.79   99.79
   2   3   1 3116.59  102.29
  -2  -3   1 3014.40  100.79
   2   3   1 3119.49  103.69
  -2   3   2   -7.40    4.10
  -2   3   2    4.20    6.60
   2  -3   2    8.70    5.40
  -2   3  -2    7.40    5.50
  -2  -3   2    4.10    6.40
   2   3   2   -4.10    6.30
   2   3   2    3.00    6.60
  -2   3   3 1549.24   61.59
  -2   3   3 1604.84   70.29
   2  -3   3 1592.44   62.19
  -2   3  -3 1550.94   58.39
   2   3   3 1629.64   65.29
  -2  -3   3 1542.45   66.19
   2   3   3 1600.54   68.89
   2  -3   4    1.40   10.20
  -2   3   4   19.40   13.30
   2   3   4    8.60   12.70
  -2  -3   4    5.50   11.50
   2   3   4    1.70    8.20
  -2   3   5  594.34   55.09
   2   3   5  637.24   55.99
  -2  -3   5  563.54   49.50
  -2   3   6   -1.00   18.20
   2   3   6   -2.90   17.50
   3   3   0 2244.48   72.19
  -3   3   0 2091.29   67.39
  -3  -3   0 2137.59   74.19
  -3   3   0 2045.40   72.79
  -3   3   1 3156.58  102.99
  -3  -3  -1 3218.08  105.29
   3   3  -1 3116.19   95.89
  -3   3   1 3128.19  103.39
   3   3   1 3110.59  106.29
  -3   3  -1 3132.19  102.99
  -3  -3   1 3136.39  104.29
   3   3   1 3160.28  105.49
  -3   3  -1 3131.79   94.99
  -3   3   2 1340.47   57.89
  -3   3   2 1368.46   52.99
   3  -3   2 1429.46   49.20
  -3  -3  -2 1375.96   57.59
  -3  -3   2 1306.57   55.99
   3   3   2 1340.27   56.99
   3   3   2 1392.16   58.19
  -3   3  -2 1385.36   52.29
  -3   3   3 1631.34   63.49
   3  -3   3 1664.23   63.39
   3  -3   3 1617.34   63.29
  -3   3   3 1833.02   73.09
   3   3   3 1607.84   71.39
   3   3   3 1615.04   69.29
  -3   3  -3 1620.14   62.89
  -3  -3   3 1569.74   69.99
   3  -3   4  653.13   38.60
  -3   3   4  565.44   49.30
  -3  -3   4  617.34   49.60
   3   3   4  669.93   39.90
   3   3   4  642.64   43.80
  -3   3   5  620.74   56.99
   3   3   5  610.94   56.39
  -3  -3   5  667.73   56.39
  -3  -3  -6  175.58   32.60
  -3   3   6  208.88   38.30
   3   3   6  169.38   34.70
  -4  -3   0 1087.89   46.30
  -4   3   0 1087.19   44.60
  -4   3   0 1073.39   39.60
   4   3   0 1123.49   42.90
  -4   3   1    4.70    6.00
  -4  -3  -1   -1.10    7.50
   4   3  -1   -2.90    3.40
  -4   3   1   -5.20    5.10
  -4   3  -1    3.90    6.10
   4   3   1    5.00    6.90
   4   3   1    4.30    7.00
  -4  -3   1    4.70    6.20
  -4   3  -1   -1.60    4.10
  -4   3   2  786.22   39.50
   4  -3   2  711.03   35.30
  -4  -3  -2  762.62   39.20
   4  -3   2  771.02   32.00
  -4   3   2  678.63   34.10
   4   3   2  752.82   39.20
  -4   3  -2  790.62   36.10
  -4  -3   2  706.73   38.80
   4   3   2  768.92   39.80
  -4   3  -2  730.63   31.20
   4  -3   3    3.50    7.60
  -4  -3  -3   -2.10    9.80
   4  -3   3   -0.30    6.70
  -4   3   3    5.10    7.70
  -4   3   3   -9.30    6.70
  -4   3  -3   -0.50    7.80
   4   3   3   11.10   10.90
  -4  -3   3   -7.30    8.00
   4   3   3    4.90    9.10
  -4   3  -3   -7.90    6.90
  -4  -3  -4  363.56   39.90
  -4   3   4  349.07   40.10
   4   3   4  263.27   31.40
  -4   3  -4  276.97   26.60
   4   3   4  359.66   39.10
  -4  -3   4  360.36   37.70
  -4  -3  -5   25.90   15.40
  -4   3   5   -4.80   12.80
   4   3   5   14.60   15.80
  -4  -3   5   -5.40   13.70
  -5   3   0    8.80    7.10
   5   3   0    8.90    6.90
  -5   3   0    8.20    5.90
  -5  -3   0    5.50    8.10
  -5  -3  -1  290.97   26.00
  -5   3   1  264.77   22.70
   5   3  -1  303.77   16.30
  -5   3   1  340.97   25.80
  -5  -3   1  246.48   25.70
   5   3   1  278.07   25.40
  -5  -3   1  302.67   16.10
  -5   3  -1  283.07   16.80
  -5   3  -1  331.77   26.10
  -5  -3  -2    1.40    8.20
   5  -3   2    8.20    7.70
  -5   3   2    9.80    8.40
  -5   3   2    4.40    7.10
  -5   3  -2   10.60    8.10
  -5  -3   2   24.00    9.70
   5   3   2    4.90    8.50
   5   3   2    6.40    8.60
  -5   3  -2    5.90    5.90
  -5  -3   2    9.40    3.80
   5  -3   3  176.18   19.70
   5  -3   3  167.38   21.90
  -5   3   3  178.18   18.80
  -5  -3  -3  157.38   23.80
  -5   3   3  173.08   27.00
  -5  -3   3  182.98   25.90
   5   3   3  187.98   25.80
   5   3   3  145.59   23.00
  -5   3  -3  177.38   20.20
  -5   3  -3  192.88   23.70
  -5  -3  -4   11.90   13.80
  -5   3   4   11.40   13.00
   5   3   4   19.60   12.50
   5   3   4   16.70   13.90
  -5   3  -4    3.10    9.60
  -5  -3   4   15.00   14.70
  -5   3   5   91.49   24.40
  -5  -3  -5   25.20   18.60
  -5  -3  -5   82.39   21.20
   5   3   5   78.69   23.10
  -5  -3   5   49.40   20.40
   6   3   0   19.90    8.20
  -6   3   0   20.50    7.30
  -6  -3   0   34.50   12.30
  -6   3   0   10.40    8.20
   6   3  -1   31.10    7.50
  -6   3   1   16.40    8.00
  -6   3   1   32.90    9.90
  -6  -3  -1   39.40   12.40
   6   3   1    4.00    7.60
  -6   3  -1   25.90    9.20
  -6   3  -1   32.30    7.70
  -6  -3   1   14.30    6.20
  -6  -3   1   14.20   10.90
  -6  -3  -2   37.90   12.30
  -6   3   2   -2.90    7.00
  -6   3   2   17.30    9.90
   6  -3   2   18.20    9.60
   6   3   2   17.70   10.80
  -6  -3   2   13.00   10.50
  -6   3  -2   -0.40    8.00
   6   3   2   36.50   11.90
  -6   3  -2   11.20    7.70
   6  -3   3   12.10   10.70
  -6  -3  -3   19.70   12.80
   6  -3   3   11.80    9.50
  -6   3   3   13.40   12.10
   6   3   3   20.90   12.80
  -6   3  -3    9.20   10.00
   6   3   3   17.30   13.10
  -6   3  -3    4.20    8.50
  -6  -3   3   19.10   13.00
  -6   3   4   -8.60   10.90
  -6  -3  -4  -17.20   12.40
  -6  -3   4   -1.30   10.50
   6   3   4   10.50   12.90
   6   3   4    1.90   13.50
  -6   3  -4    1.70    9.20
  -6   3   5   13.10   16.70
  -6  -3  -5   10.00   13.90
  -6  -3  -5  -17.20   12.90
   6   3   5    8.00   14.00
   6   3   5  -15.90   13.10
  -6  -3   5    6.60   18.10
   7   3   0    5.20    6.50
  -7  -3   0    7.00   10.00
  -7   3   0    2.30    6.70
  -7   3   0   -0.30    7.40
  -7   3   1    7.50    8.20
  -7  -3  -1    9.00   10.10
  -7   3   1   12.10    8.50
   7   3  -1    8.40    5.80
  -7  -3   1   -6.20    8.20
  -7   3  -1    3.60    7.60
   7   3   1    2.20    8.00
  -7  -3   1   -5.10    5.50
  -7   3  -1    1.50    6.10
  -7   3   2   13.80    9.80
  -7  -3  -2    4.70    9.70
  -7   3   2   -4.30    7.10
   7   3   2   12.30   11.10
  -7   3  -2   -1.60    7.40
  -7   3  -2   -3.10    6.70
  -7  -3   2    1.20   10.10
  -7   3   3   -3.80    9.30
  -7  -3  -3   -1.90   10.20
   7  -3   3    3.50    8.80
   7   3   3    2.20   10.80
   7   3   3    2.70   11.20
  -7  -3   3    5.90   10.70
  -7   3  -3   12.00   10.30
  -7   3   4   22.60   14.90
  -7  -3  -4    8.30   15.40
  -7  -3  -4   -3.60   11.00
  -7  -3   4  -10.70   13.70
   7   3   4   -5.90   13.40
   7   3   4    2.30   12.00
  -7   3  -4  -15.50    7.80
  -7  -3  -5  -10.50   10.80
  -7   3   5   -9.20   14.00
  -7  -3  -5  -18.20   14.50
   7   3   5   -6.90   12.80
   7   3   5   -3.70   16.70
  -7  -3   5    7.20   17.80
  -8  -3   0 1725.03   68.99
  -8   3   0 1687.13   70.79
  -8  -3   0 1803.92   75.29
  -8   3   0 1785.12   68.19
   8   3   0 1738.13   69.69
  -8   3   1  135.99   19.00
  -8  -3  -1   73.09   16.80
  -8   3   1   88.09   16.40
   8   3  -1   64.39   11.40
  -8  -3   1   73.09   17.50
  -8   3  -1   66.09   14.30
   8   3   1  104.49   18.60
  -8   3  -1  112.19   15.20
  -8  -3   1   97.69   13.60
  -8   3   2 1400.76   59.79
  -8   3   2 1265.87   62.09
  -8  -3  -2 1405.26   64.09
  -8  -3   2 1204.88   64.79
  -8   3  -2 1360.16   55.39
  -8   3  -2 1301.77   60.89
   8   3   2 1251.07   62.59
  -8   3   3   43.30   16.30
  -8  -3  -3   61.89   19.60
  -8  -3   3   55.39   18.10
  -8   3  -3   45.10   15.40
   8   3   3   38.70   15.30
  -8  -3  -4  605.74   54.39
  -8  -3  -4  657.03   58.19
  -8   3   4  674.73   59.89
   8   3   4  686.43   57.09
  -8   3  -4  727.73   45.80
   8   3   4  681.43   56.29
  -8  -3   4  634.94   56.89
  -8   3   5   44.50   21.10
  -8  -3  -5   25.10   16.30
  -8  -3  -5   13.90   21.40
   8   3   5   34.80   19.00
   8   3   5   45.70   23.20
  -8  -3   5    6.40   18.60
  -9   3   0  856.91   44.80
  -9  -3   0  758.42   41.30
  -9   3   0  784.22   40.30
  -9  -3   0  795.32   46.80
   9   3   0  769.12   42.80
   9   3  -1 1298.47   54.99
  -9   3   1 1374.46   60.99
  -9  -3  -1 1247.78   63.49
  -9  -3  -1 1270.77   62.59
  -9   3   1 1298.57   60.59
  -9   3  -1 1307.17   61.39
   9   3   1 1326.47   62.99
  -9   3  -1 1417.36   56.79
  -9  -3   1 1363.36   64.29
  -9  -3   1 1325.67   55.49
  -9  -3  -2  540.65   48.20
  -9   3   2  528.35   34.10
  -9  -3  -2  508.55   45.40
  -9   3   2  637.54   50.29
  -9   3  -2  584.64   46.40
  -9   3  -2  565.94   33.50
   9   3   2  548.45   47.60
  -9  -3   2  703.13   55.09
  -9   3   3  765.02   50.69
  -9  -3  -3  848.92   55.09
   9   3   3  787.22   51.59
  -9  -3   3  896.71   55.59
  -9   3  -3  782.12   48.60
  -9   3   4  324.67   41.40
  -9  -3  -4  296.97   38.80
  -9  -3  -4  349.47   44.50
  -9  -3   4  267.77   36.00
   9   3   4  292.47   39.30
  -9   3  -4  252.87   34.40
  -9  -3  -5  350.06   42.50
  -9   3   5  433.16   50.89
   9   3   5  441.26   47.80
  -9  -3   5  450.95   53.59
 -10  -3   0  219.58   28.80
 -10   3   0  258.47   27.80
 -10   3   0  206.88   27.10
 -10  -3   0  166.68   23.00
  10   3   0  161.88   21.80
  10   3  -1  380.26   30.90
 -10  -3  -1  360.36   36.50
 -10   3   1  398.26   36.00
 -10  -3  -1  277.47   35.00
 -10   3   1  363.46   34.40
 -10  -3   1  338.67   36.70
  10   3   1  351.46   36.10
 -10   3  -1  390.96   32.70
 -10  -3   1  353.56   30.60
 -10   3  -1  308.17   32.30
 -10  -3  -2  139.19   26.90
 -10   3   2  128.99   23.20
 -10  -3  -2  133.99   24.50
 -10   3   2  214.38   27.00
  10   3   2  220.78   32.10
 -10   3  -2  120.19   23.20
 -10  -3   2  173.58   29.70
 -10  -3  -3  311.97   39.40
 -10  -3  -3  203.58   32.50
 -10   3   3  249.38   36.10
 -10  -3   3  211.78   33.70
  10   3   3  193.58   31.90
 -10   3  -3  267.77   35.30
 -10  -3  -4   72.79   23.20
 -10   3   4   61.79   22.20
 -10  -3  -4  102.09   27.40
  10   3   4   64.89   21.80
 -10   3  -4   90.19   22.80
 -10  -3   4   49.20   20.50
 -11  -3   0  -13.10    9.20
 -11  -3   0  -10.60    8.20
  11   3   0   -4.40   10.20
 -11   3   0  -11.10    9.10
 -11   3   0   -3.80    9.20
 -11  -3  -1  108.79   22.00
  11   3  -1  173.88   22.60
 -11   3   1  126.29   22.30
 -11  -3  -1  118.89   24.10
 -11   3   1  164.48   24.80
 -11   3  -1  170.48   26.30
 -11   3  -1  171.28   21.90
  11   3   1  124.59   23.60
 -11  -3   1  148.39   20.80
 -11  -3   1  113.89   23.60
 -11  -3  -2   -3.50   13.90
 -11   3   2    2.40   12.30
 -11  -3  -2   -1.50   11.50
 -11   3   2    1.40   13.20
  11   3   2   -4.10   10.00
 -11  -3   2    3.60   12.10
 -11   3  -2   -5.50   10.90
 -11   3   3   85.19   23.10
 -11  -3  -3   56.99   20.80
 -11  -3  -3   49.10   21.70
 -11  -3   3   65.59   22.50
 -11   3  -3  123.49   24.80
  11   3   3   84.59   22.60
 -11  -3  -4   -8.90   18.20
 -11   3   4   -5.50   14.30
 -11  -3  -4  -18.50   12.70
 -11   3  -4   13.00   15.80
  11   3   4   -5.50   12.50
 -11  -3   4    2.80   15.90
 -12  -3   0   17.60   14.80
  12   3   0    5.90   12.50
 -12  -3   0   12.30   12.30
 -12   3   0   11.30   12.00
 -12   3   0   -6.80   10.80
 -12  -3  -1   57.29   17.90
 -12  -3  -1   58.59   19.10
 -12   3   1   68.19   20.00
 -12   3   1   54.09   17.20
 -12  -3   1   53.79   16.90
 -12   3  -1   38.30   16.80
  12   3   1  101.99   21.50
 -12   3  -1   75.79   18.10
 -12  -3   1   63.69   16.20
 -12  -3  -2   -7.30   12.40
 -12   3   2   13.10   13.40
 -12  -3  -2    2.90   13.80
  12   3   2   18.40   13.20
 -12  -3   2    4.80   14.70
 -12   3  -2    7.30   12.60
 -12  -3  -3   46.20   21.40
 -12  -3  -3   16.40   20.30
 -12   3   3   56.89   20.60
  12   3   3   31.30   17.90
 -12  -3   3   82.49   24.40
 -12   3  -3   36.00   18.50
 -12  -3  -4   -0.40   16.40
 -12   3   4  -11.90   13.80
 -12  -3   4    3.60   17.20
  12   3   4  -11.70   12.70
 -12   3  -4    8.50   17.10
 -13  -3   0   27.30   14.00
 -13   3   0    6.70   12.60
 -13   3   0   23.70   13.90
  13   3   0   17.90   13.80
 -13  -3   0   34.90   16.90
 -13   3   1   11.70   14.10
 -13   3   1   45.70   17.90
 -13  -3  -1    5.50   15.20
 -13  -3  -1   36.10   16.40
  13   3   1   20.00   16.00
 -13   3  -1   51.19   17.80
 -13  -3   1   33.10   18.00
 -13  -3  -2   21.00   17.20
 -13  -3  -2   28.00   18.70
 -13   3   2   -2.70   13.60
 -13   3  -2   22.70   15.20
 -13  -3   2    4.20   15.00
  13   3   2    1.30   13.80
 -13  -3  -3    9.50   17.70
 -13   3   3   20.00   16.20
 -13  -3  -3   20.10   18.50
 -13  -3   3   66.39   22.90
  13   3   3    0.50   14.90
 -13   3  -3    8.40   14.50
 -14  -3   0   23.80   16.90
 -14   3   0    9.40   13.10
 -14  -3   0   12.90   12.70
  14   3   0   -3.00   10.90
 -14   3   0   -6.20   11.30
 -14  -3  -1  588.64   55.19
 -14   3   1  613.14   53.19
 -14   3   1  715.33   57.99
 -14  -3  -1  619.34   56.29
 -14  -3   1  658.33   58.89
 -14   3  -1  574.04   53.19
  14   3   1  616.74   57.79
 -14  -3  -2   31.60   20.50
 -14  -3  -2    6.00   17.10
 -14   3   2    3.00   13.20
 -14  -3   2    1.30   14.40
 -14   3  -2   -2.80   14.70
  14   3   2    9.30   15.40
 -14   3   3  397.26   48.50
 -14  -3  -3  348.07   46.20
 -14  -3  -3  427.36   54.69
  14   3   3  343.77   45.90
 -14  -3   3  431.46   53.29
 -15  -3   0   88.99   23.70
 -15  -3   0  203.18   31.20
 -15   3   0  146.29   29.10
 -15  -3  -1  350.66   44.40
 -15   3   1  470.45   47.70
 -15  -3  -1  484.25   50.09
 -15   3   1  322.97   40.00
 -15  -3   1  378.26   47.00
  15   3   1  486.15   51.39
 -15   3  -1  416.36   47.10
 -15   3   2  127.59   29.10
 -15  -3  -2  118.89   28.10
 -15  -3  -2  136.89   30.20
 -15   3  -2  161.78   32.70
 -15  -3   2  171.18   31.90
  15   3   2  158.78   33.90
 -16   3   0   33.60   22.00
 -16  -3   0   30.70   18.40
 -16  -3   0   17.10   18.20
 -16  -3  -1   36.80   18.80
 -16  -3  -1   18.00   19.10
 -16   3   1   14.00   18.20
 -16   3  -1   26.10   19.00
  16   3   1   21.40   19.50
 -16  -3   1   43.20   22.20
   0   4   0 3198.08   98.29
   0  -4   0 3198.68   98.19
   0   4   0 3141.39  102.99
   0   4   1 3969.30  126.19
   0   4  -1 3895.51  122.19
   0  -4   1 3968.80  119.59
   0   4   1 3940.61  127.69
   0   4   2 2210.18   82.59
   0  -4   2 2187.18   75.29
   0   4  -2 2222.38   71.29
   0   4   2 2179.78   81.19
   0  -4   3 2304.27   84.29
   0   4   3 2285.57   86.89
   0   4   3 2284.57   91.69
   0   4  -3 2278.07   75.19
   0  -4   4 1026.60   52.59
   0   4   4 1012.20   50.59
   0   4   4 1017.60   58.09
   0   4   5  869.11   56.09
   0   4   6  413.46   51.39
  -1   4   0  219.88   18.10
   1   4   0  188.48   16.20
  -1   4   0  202.68   10.60
  -1  -4   0  229.18   14.40
  -1   4   1  836.52   37.90
   1  -4   1  827.12   27.80
  -1   4   1  873.91   36.10
   1   4  -1  901.41   32.90
   1   4   1  812.72   37.40
  -1   4  -1  864.91   34.30
   1   4   1  874.21   37.00
  -1  -4   1  862.61   33.20
  -1   4   2  154.28   18.80
   1  -4   2  144.99   12.80
  -1   4   2   99.39   14.50
   1   4  -2  147.19    9.70
  -1  -4   2  110.79   13.80
   1   4   2  111.39   16.30
  -1   4  -2  147.89   14.20
   1   4   2  133.49   17.20
   1  -4   3  438.56   26.90
  -1   4   3  453.85   29.30
  -1   4   3  404.06   36.40
   1   4   3  487.45   38.60
  -1  -4   3  384.76   31.80
   1   4   3  403.06   34.10
  -1   4  -3  419.96   22.80
  -1   4   4   35.90   12.50
   1  -4   4   61.99   16.60
  -1   4   4   92.39   20.80
  -1  -4   4   28.90   14.60
   1   4   4   68.99   17.50
   1   4   4   19.70   11.60
  -1   4   5  138.69   28.70
   1   4   5  158.08   28.90
  -1   4   6   24.50   19.00
   1   4   6   24.40   21.50
  -2   4   0    0.60    3.10
  -2  -4   0    8.50    6.30
  -2   4   0    1.80    5.90
   2   4   0   -4.80    5.10
  -2  -4  -1  602.54   30.20
  -2   4   1  595.34   29.00
   2   4  -1  620.44   24.80
  -2   4   1  592.74   30.80
  -2   4  -1  629.14   28.60
   2   4   1  593.34   31.30
  -2  -4   1  646.14   29.40
   2   4   1  620.94   30.30
   2   4  -2    1.60    2.40
  -2   4   2   10.10    7.70
  -2   4   2   -2.80    6.50
   2  -4   2    4.80    4.70
   2   4   2    7.50    7.70
  -2   4  -2    1.80    4.90
   2   4   2    8.20    8.50
  -2  -4   2   10.10    7.70
  -2   4   3  311.67   28.50
  -2   4   3  306.97   32.40
   2  -4   3  320.87   22.00
   2   4   3  377.66   32.80
  -2   4  -3  327.37   21.70
   2   4   3  291.97   33.00
  -2  -4   3  336.47   29.80
  -2   4   4    0.00   10.40
   2   4   4   17.20   11.60
   2   4   4  -11.00   10.00
  -2  -4   4    5.00   12.20
  -2   4   5  100.69   25.60
   2   4   5  115.19   27.60
  -2  -4   5  123.39   23.90
  -2   4   6  -28.00   15.30
   2   4   6   -8.90   18.50
  -3   4   0    8.10    5.80
   3   4   0   -2.50    4.70
  -3   4   0    0.80    3.40
  -3  -4   0   -2.40    6.30
  -3   4   1   -0.60    6.70
  -3   4   1   -5.30    5.10
   3   4  -1    1.30    4.50
  -3  -4  -1   -1.80    6.30
  -3   4  -1    2.70    6.40
   3   4   1   12.00    7.60
  -3  -4   1    4.80    7.10
   3   4   1    6.60    7.90
  -3   4   2    0.10    6.10
   3  -4   2   -3.20    3.70
  -3  -4  -2    5.30    8.10
  -3   4   2  -11.90    5.70
   3   4   2   -3.30    5.40
  -3  -4   2    1.60    6.90
   3   4   2    3.70    7.40
  -3   4  -2   -5.90    6.00
  -3   4  -2    3.40    3.90
  -3   4   3   -6.10    9.00
  -3   4   3   -5.90    7.50
   3  -4   3    1.80    6.90
   3   4   3  -16.80    7.60
   3   4   3   -3.10    9.20
  -3  -4   3   -4.90    6.70
  -3   4  -3    1.10    7.10
  -3   4   4    2.70   12.20
   3   4   4   -2.40   11.10
  -3  -4   4    5.40   12.10
   3   4   4   17.50   12.20
  -3   4   5   -4.30   14.30
   3   4   5   -6.30   14.80
  -3  -4   5  -10.90   14.10
  -4  -4   0  104.09   15.10
   4   4   0   65.29   11.40
  -4   4   0   99.49   14.60
  -4   4   0  121.59   11.00
  -4  -4  -1    3.40    6.00
  -4   4   1   -0.50    5.60
  -4   4   1    5.70    7.90
   4   4  -1    5.50    4.70
   4   4   1   12.00    7.00
  -4   4  -1   -3.50    6.10
  -4  -4   1    0.60    5.80
   4   4   1   -8.40    6.00
  -4   4  -1    5.40    3.40
   4  -4   2   78.09    9.50
  -4  -4  -2   91.89   16.40
  -4   4   2   62.59   13.00
  -4   4   2   41.10   12.60
  -4  -4   2   60.89   14.20
   4   4   2  100.69   17.30
   4   4   2   31.40   11.50
  -4   4  -2   73.59   13.10
  -4   4  -2   70.49    9.10
  -4   4   3   -4.80    8.20
   4  -4   3    3.90    7.10
  -4  -4  -3   16.20   13.10
  -4   4   3    3.00    8.80
  -4   4  -3    4.50    7.40
  -4   4  -3   10.70    8.80
   4   4   3    2.10   10.10
   4   4   3   11.00   11.80
  -4  -4   3   13.30   10.40
  -4   4   4   19.50   15.10
  -4  -4  -4   19.90   14.50
  -4  -4   4   37.90   15.90
   4   4   4   22.80   13.90
   4   4   4   49.00   17.70
  -4   4  -4   18.60   11.20
  -4  -4  -5   12.10   15.90
  -4   4   5   12.70   14.00
  -4  -4   5  -17.40   10.30
   4   4   5    9.20   17.00
  -5   4   0  378.46   20.00
  -5  -4   0  353.56   29.30
  -5   4   0  379.56   24.00
   5   4   0  343.67   22.70
  -5   4   1  139.89   17.50
  -5   4   1  128.99   15.70
  -5  -4  -1  147.59   19.40
   5   4  -1  193.18   15.60
   5   4   1  118.09   17.60
  -5   4  -1  164.08   19.20
  -5   4  -1  166.68   10.90
  -5  -4   1  189.58   22.20
  -5   4   2  220.48   25.00
  -5   4   2  295.77   25.70
  -5  -4  -2  263.17   27.00
   5   4   2  266.27   28.10
  -5   4  -2  292.57   26.20
  -5   4  -2  259.57   16.10
  -5  -4   2  181.68   24.60
   5   4   2  247.08   27.90
  -5  -4  -3  107.79   21.50
  -5   4   3   54.69   17.00
  -5   4   3  110.49   16.30
   5   4   3   75.09   17.60
  -5  -4   3   87.79   18.90
   5   4   3   85.19   19.50
  -5   4  -3   61.19   14.80
  -5  -4  -4  128.79   27.80
  -5   4   4   95.89   23.40
  -5  -4   4  103.39   22.20
   5   4   4  106.39   22.20
  -5   4  -4   96.79   17.90
   5   4   4  123.09   26.40
  -5   4   5   37.20   19.60
  -5  -4  -5   48.70   22.20
   5   4   5   78.59   25.40
   5   4   5   23.60   15.50
  -5  -4   5   26.60   17.20
  -6   4   0    2.20    7.60
  -6  -4   0    7.40   10.10
  -6   4   0   15.30    6.70
   6   4   0    9.40    7.30
  -6  -4  -1   41.00   12.50
  -6   4   1   52.69   12.70
  -6   4   1   34.70   10.40
   6   4  -1   55.39    9.50
  -6   4  -1   66.79   14.20
  -6  -4   1   39.60   12.60
   6   4   1   45.70   12.80
  -6   4  -1   38.00    7.60
  -6  -4  -2   10.90   11.30
  -6   4   2   11.30    9.60
  -6   4   2    1.60    7.70
  -6   4  -2    6.10    8.30
   6   4   2    2.60    9.10
   6   4   2    3.80    9.20
  -6   4  -2    9.50    5.90
  -6  -4   2   19.90   11.70
  -6  -4  -3   32.40   15.10
  -6   4   3   18.70   10.40
  -6   4   3   34.30   14.70
  -6   4  -3   27.80   13.00
  -6  -4   3   24.60   13.60
   6   4   3   55.59   17.80
   6   4   3   14.60   12.70
  -6   4   4   12.80   13.20
  -6  -4  -4   12.20   14.30
  -6  -4   4   -6.90   12.50
  -6   4  -4   -9.70    8.30
   6   4   4  -11.70   11.30
   6   4   4   -3.90   11.30
  -6  -4  -5   18.60   14.70
  -6   4   5   12.20   14.90
  -6  -4  -5   36.20   20.40
  -6  -4   5   36.40   20.20
   6   4   5   19.70   15.70
   6   4   5   16.10   18.90
  -7  -4   0    4.60    9.90
  -7   4   0    1.70    6.50
  -7   4   0   -1.80    5.80
   7   4   0   -6.40    6.60
   7   4  -1  800.42   35.30
  -7  -4  -1  777.72   44.00
  -7   4   1  793.52   39.70
  -7   4   1  742.63   40.40
   7   4   1  781.22   43.30
  -7   4  -1  794.12   34.30
  -7   4  -1  689.33   40.50
  -7  -4   1  790.32   35.10
  -7  -4   1  804.22   44.20
  -7   4   2   -7.40    8.80
  -7  -4  -2    5.00    9.90
  -7   4   2   -5.40    8.30
  -7   4  -2    4.20    7.10
   7   4   2    1.30    9.50
  -7  -4   2   -7.20    6.60
  -7   4  -2   -2.60    8.90
  -7  -4  -3  447.36   42.40
  -7   4   3  404.56   40.10
   7   4   3  545.25   46.90
   7   4   3  430.36   41.00
  -7   4  -3  453.85   38.10
  -7  -4   3  401.46   40.90
  -7   4   4    2.80   11.70
  -7  -4  -4   14.00   16.40
   7   4   4    4.70   14.80
  -7  -4   4   -2.50   11.40
   7   4   4   -2.40   11.40
  -7   4  -4   -5.90   10.30
  -7  -4  -5  219.08   36.00
  -7   4   5  191.98   35.50
  -7  -4  -5  110.29   24.00
  -7  -4   5  165.38   31.60
   7   4   5  211.68   32.40
   7   4   5  221.78   39.80
  -8   4   0  467.95   38.00
  -8   4   0  482.05   27.60
   8   4   0  427.06   28.80
  -8  -4   0  426.36   38.50
  -8   4   1    7.00    9.30
   8   4  -1   -9.50    5.40
  -8   4   1    0.10    7.70
  -8  -4  -1    3.80    9.60
  -8  -4   1   -5.10    5.60
  -8   4  -1   -4.90    8.60
  -8  -4   1   -4.10    9.40
   8   4   1    9.10    9.60
  -8   4  -1   -0.80    6.10
  -8  -4  -2  349.57   36.00
  -8   4   2  380.66   33.20
  -8   4   2  394.96   35.80
   8   4   2  374.26   36.70
  -8   4  -2  399.16   37.00
  -8  -4   2  389.06   40.00
  -8  -4  -3   -6.00   11.50
  -8   4   3    0.90   11.50
  -8  -4   3   -7.00   10.20
  -8   4  -3    7.60   10.30
   8   4   3   27.60   14.60
  -8   4   4  147.59   29.10
  -8  -4  -4  280.77   39.00
   8   4   4  152.68   29.90
  -8   4  -4  240.98   31.60
   8   4   4  236.38   34.80
  -8  -4   4  186.98   29.20
  -8   4   5   14.40   18.20
  -8  -4  -5   19.90   16.50
  -8  -4  -5   -7.90   17.00
  -8  -4   5   14.50   17.50
   8   4   5    3.30   19.20
   8   4   5   18.80   18.00
  -9  -4   0   10.40   11.50
  -9   4   0   13.80    9.70
  -9  -4   0    4.20   10.00
   9   4   0   -7.10    8.30
  -9   4   0    9.20   10.70
  -9  -4  -1    3.80   11.80
  -9   4   1   25.20   10.90
  -9   4   1    3.00    9.40
   9   4  -1    9.80    8.50
  -9   4  -1   -5.00    7.20
   9   4   1    3.70   10.50
  -9  -4   1    8.40   11.80
  -9   4  -1    4.90   10.10
  -9  -4   1    2.20    8.10
  -9  -4  -2   10.40   12.70
  -9   4   2    8.20    9.70
  -9   4   2   -5.80   10.30
  -9  -4   2   16.70   14.30
   9   4   2   24.00   13.80
  -9   4  -2   22.90   12.20
  -9  -4  -3    8.70   14.80
  -9   4   3    8.20   13.10
   9   4   3   16.10   13.00
  -9  -4   3   -2.50   12.30
  -9   4  -3   24.80   13.40
  -9  -4  -4   31.20   20.20
  -9  -4  -4   -1.00   12.60
  -9   4   4    1.20   15.20
  -9  -4   4   19.50   15.80
   9   4   4    4.10   13.80
  -9   4  -4    5.40   12.40
  -9  -4  -5   15.10   20.40
  -9  -4  -5   16.60   16.50
  -9   4   5    9.20   17.20
  -9  -4   5    8.30   16.90
   9   4   5   -1.50   14.90
  10   4   0  613.94   37.80
 -10  -4   0  586.94   49.10
 -10   4   0  490.15   33.00
 -10  -4   0  546.15   34.80
 -10   4   0  454.65   40.70
 -10   4   1  269.07   29.20
 -10  -4  -1  256.87   32.00
 -10  -4  -1  252.17   32.80
  10   4  -1  215.58   24.20
 -10   4   1  242.48   28.50
  10   4   1  245.78   31.00
 -10  -4   1  193.48   28.60
 -10   4  -1  264.07   23.90
 -10   4  -1  222.88   29.70
 -10  -4   1  285.17   26.50
 -10  -4  -2  489.35   49.30
 -10  -4  -2  354.26   39.30
 -10   4   2  361.76   39.10
 -10   4   2  406.26   37.90
 -10  -4   2  412.06   43.80
  10   4   2  450.55   44.40
 -10   4  -2  407.56   40.30
 -10  -4  -3  216.88   35.80
 -10   4   3  159.48   28.90
 -10  -4  -3  165.38   29.70
 -10  -4   3  123.39   26.90
  10   4   3  112.29   25.60
 -10   4  -3  166.68   28.20
 -10  -4  -4  175.08   32.30
 -10  -4  -4  197.48   34.60
 -10   4   4  221.38   35.70
  10   4   4  235.98   36.10
 -10  -4   4  176.38   34.00
 -10   4  -4  205.48   31.10
 -11   4   0  175.18   26.30
  11   4   0  223.58   28.20
 -11   4   0  215.28   25.00
 -11  -4   0  136.19   26.00
 -11  -4   0  207.28   26.80
  11   4  -1   18.10   12.10
 -11  -4  -1    9.50   12.20
 -11   4   1   26.90   13.10
 -11  -4  -1   37.40   17.10
 -11   4   1   33.40   15.00
 -11  -4   1    3.80   11.70
 -11   4  -1   31.50   14.50
 -11  -4   1   32.90   12.00
  11   4   1   32.20   15.90
 -11   4   2  154.58   26.30
 -11  -4  -2  138.99   27.80
 -11  -4  -2  169.68   28.40
 -11   4   2  131.49   21.80
 -11  -4   2  106.79   24.60
 -11   4  -2  156.88   28.30
  11   4   2  152.88   28.60
 -11   4   3   27.00   15.60
 -11  -4  -3   18.10   17.10
 -11  -4  -3    8.50   16.30
 -11   4  -3   18.10   15.50
 -11  -4   3   15.00   16.10
  11   4   3   24.50   16.40
 -11  -4  -4   58.89   25.00
 -11  -4  -4   47.00   21.30
 -11   4   4   90.99   25.90
 -11  -4   4   70.29   24.70
 -11   4  -4   53.29   20.70
  11   4   4   55.99   22.00
 -12   4   0 1076.59   53.39
 -12  -4   0  991.90   52.79
 -12  -4   0  985.90   59.09
 -12   4   0  944.51   56.59
  12   4   0  965.60   53.19
 -12  -4  -1  573.54   50.79
 -12   4   1  608.24   48.70
 -12  -4  -1  541.85   52.39
  12   4  -1  522.55   41.70
 -12   4   1  564.14   46.90
  12   4   1  618.64   53.59
 -12  -4   1  660.53   55.79
 -12   4  -1  635.04   52.89
 -12  -4   1  639.04   50.59
 -12  -4  -2  903.41   71.69
 -12  -4  -2  829.92   56.09
 -12   4   2  946.21   56.49
  12   4   2  840.32   67.59
 -12  -4   2  770.52   65.19
 -12   4  -2  820.62   55.69
 -12  -4  -3  517.55   55.49
 -12   4   3  494.95   49.80
 -12  -4  -3  513.55   51.99
  12   4   3  389.46   45.60
 -12  -4   3  425.56   50.69
 -12   4  -3  390.36   47.40
 -12  -4  -4  551.64   60.09
 -12   4   4  360.86   45.10
 -12  -4  -4  566.94   60.19
 -12   4  -4  606.44   59.89
  12   4   4  430.56   49.40
 -12  -4   4  504.45   56.79
 -13  -4   0    2.40   10.30
 -13  -4   0   29.30   18.30
 -13   4   0   18.50   14.30
 -13   4   0   20.90   12.60
  13   4   0   -5.40   10.70
 -13  -4  -1  271.57   35.20
 -13   4   1  345.07   39.10
 -13   4   1  445.26   42.70
 -13  -4  -1  482.45   49.00
  13   4   1  447.96   44.10
 -13   4  -1  355.06   40.90
 -13  -4   1  318.27   39.00
 -13  -4  -2   -4.00   15.70
 -13   4   2    2.20   15.30
 -13  -4  -2   20.90   19.60
 -13   4  -2   31.30   16.90
 -13  -4   2   -2.60   14.50
  13   4   2  -11.10   11.20
 -13  -4  -3  319.27   47.50
 -13   4   3  250.27   36.20
  13   4   3  295.47   40.00
 -13  -4   3  172.88   34.20
 -13   4  -3  170.48   33.80
 -14  -4   0   12.20   16.10
  14   4   0   50.79   18.70
 -14   4   0   67.99   20.70
 -14  -4   0   31.40   16.20
 -14   4   1   20.90   18.00
 -14  -4  -1   17.20   17.40
 -14   4   1   49.70   17.20
 -14  -4  -1   25.20   15.80
  14   4   1   61.59   20.20
 -14  -4   1   35.30   19.70
 -14   4  -1   38.60   18.80
 -14  -4  -2   -3.30   17.50
 -14  -4  -2   44.30   21.70
 -14   4   2   27.50   17.60
 -14  -4   2   15.70   16.70
  14   4   2   47.20   20.10
 -14   4  -2   44.60   19.70
 -14   4   3   35.00   18.90
 -14  -4  -3    7.40   21.30
 -14  -4  -3   34.50   23.60
  14   4   3   34.80   19.10
 -14  -4   3   30.80   20.60
 -14   4  -3    4.20   15.20
 -15  -4   0   11.00   13.30
 -15   4   0   -4.50   16.50
 -15  -4   0   15.30   15.80
  15   4   0  -19.80    9.40
 -15  -4  -1   11.90   15.50
 -15   4   1   25.30   17.10
 -15   4   1    8.00   17.00
 -15  -4  -1   18.10   16.90
 -15  -4   1   16.30   17.10
  15   4   1  -14.80   14.90
 -15   4  -1    1.30   13.90
 -15   4   2   -5.10   15.30
 -15  -4  -2   -2.00   17.20
 -15  -4  -2  -11.10   16.90
 -15  -4   2   -3.10   15.10
  15   4   2    6.90   17.10
 -15   4  -2   -3.90   14.70
 -16   4   0   48.50   22.20
 -16  -4   0   86.89   26.30
 -16  -4   0   34.30   18.00
 -16   4   1  -12.70   16.90
 -16  -4  -1    3.60   18.30
 -16  -4  -1   41.20   21.00
 -16   4  -1   15.30   16.20
  16   4   1  -13.30   16.30
 -16  -4   1   26.30   19.60
   0   5   0   -0.60    4.30
   0  -5   0   -3.20    4.40
   0   5   0    0.50    6.60
   0   5  -1    4.20    6.10
   0  -5   1   -2.20    3.70
   0   5   1    4.80    5.80
   0   5   1   -0.90    5.00
   0   5  -2    3.20    5.20
   0   5   2   -6.00    6.30
   0   5   2   -7.60    6.50
   0  -5   2   -8.20    4.30
   0  -5   3   12.70    8.10
   0   5  -3   -1.30    6.40
   0   5   3    3.70    9.50
   0   5   3   -7.20    7.60
   0   5   4  -11.30    9.20
   0  -5   4  -11.30    8.10
   0   5   4    2.70   11.70
   0   5   5    9.00   13.70
   0   5   6   -0.20   18.50
  -1  -5   0    0.40    5.30
  -1   5   0    7.70    7.50
   1   5   0    2.50    6.80
  -1   5   0    1.20    3.60
  -1   5   1   93.79   14.80
   1   5  -1   77.89   11.50
  -1   5   1   52.29   10.10
   1  -5   1   70.29    5.80
   1   5   1   44.20   10.10
   1   5   1   43.50   11.20
  -1  -5   1   71.29   10.60
  -1   5  -1   88.49   12.00
   1   5  -2   -2.60    4.50
  -1   5   2   12.60    9.00
  -1   5   2    2.20    7.70
   1  -5   2   -3.70    4.10
  -1  -5   2    2.20    5.60
  -1   5  -2   -2.40    4.90
   1   5   2    8.10    6.90
   1   5   2   -3.40    6.70
  -1   5   3   49.40   13.10
   1  -5   3   31.70    9.90
  -1   5   3   20.00   11.80
   1   5   3   11.30   10.40
  -1   5  -3   54.79   10.60
  -1  -5   3   20.60   10.10
   1   5   3   20.00   11.60
  -1   5   4   -1.00   11.60
  -1   5   4    8.60   11.50
  -1  -5   4   -5.30    9.30
   1   5   4   15.60   12.00
   1   5   4  -14.40    8.90
  -1   5   5  -12.80   11.60
   1   5   5    6.00   16.20
  -2  -5   0  230.18   19.00
   2   5   0  237.68   20.70
  -2   5   0  231.68   12.40
  -2   5   0  178.08   18.70
  -2   5   1  679.63   32.30
  -2  -5  -1  745.13   34.90
   2   5  -1  682.33   30.00
  -2   5   1  765.12   37.20
  -2   5  -1  675.13   32.40
  -2  -5   1  717.83   32.80
   2   5   1  726.93   34.80
   2   5   1  673.43   35.90
   2  -5   2  154.78   10.40
  -2   5   2  141.59   18.90
  -2   5   2  133.79   18.30
   2   5  -2  146.79    9.70
  -2   5  -2  174.38   17.90
   2   5   2  141.29   20.30
  -2  -5   2  104.49   14.70
   2   5   2  169.88   22.00
  -2   5   3  295.47   31.40
  -2   5   3  379.86   32.50
   2  -5   3  340.27   21.90
  -2   5  -3  392.66   23.80
   2   5   3  313.07   31.60
   2   5   3  330.17   34.70
  -2  -5   3  374.16   31.90
  -2   5   4   63.59   19.30
  -2  -5   4   84.69   19.10
   2   5   4   78.59   21.40
   2   5   4   73.59   17.20
  -2   5   5  131.99   28.30
   2   5   5  155.58   30.10
  -3   5   0 3885.41  127.99
  -3   5   0 3815.62  118.79
   3   5   0 3842.82  126.69
  -3  -5   0 3984.90  127.69
  -3   5   1  203.98   22.10
  -3  -5  -1  195.78   21.10
  -3   5   1  213.48   19.20
   3   5  -1  207.98   16.60
   3   5   1  158.88   20.10
  -3  -5   1  166.28   18.40
  -3   5  -1  236.68   21.60
   3   5   1  211.28   22.00
  -3   5   2 2884.11  104.89
   3   5  -2 2806.82   86.59
  -3  -5  -2 2871.41  105.69
   3  -5   2 2911.91   88.49
  -3   5   2 2936.31  102.29
   3   5   2 3026.50  106.09
  -3   5  -2 2911.21   88.69
  -3  -5   2 2807.72  101.19
   3   5   2 2813.72  105.89
  -3   5  -2 2870.21   98.89
  -3   5   3   72.59   15.10
  -3   5   3   75.09   17.70
  -3  -5   3   73.49   15.70
  -3   5  -3   82.59   14.20
   3   5   3  106.59   20.70
   3   5   3  124.49   22.00
  -3   5   4 1419.06   70.49
  -3  -5   4 1367.06   65.69
   3   5   4 1327.37   71.99
   3   5   4 1283.17   65.59
  -3   5   5   66.29   23.00
  -3  -5   5   49.60   20.20
   3   5   5   28.70   20.60
  -4   5   0 1087.19   39.50
   4   5   0 1090.29   46.50
  -4   5   0 1119.59   47.60
  -4  -5   0 1075.49   48.20
   4   5  -1  147.29   14.60
  -4   5   1  196.78   21.40
  -4   5   1  193.68   19.00
  -4  -5  -1  184.48   21.80
   4   5   1  156.38   20.50
   4   5   1  194.78   21.60
  -4  -5   1  216.08   22.20
  -4   5  -1  209.18   21.60
  -4   5   2  766.22   41.00
   4   5  -2  784.72   25.50
  -4   5   2  784.52   41.10
  -4  -5  -2  749.92   41.90
   4   5   2  759.12   42.00
  -4  -5   2  764.52   41.20
   4   5   2  819.62   43.80
  -4   5  -2  788.12   28.00
  -4   5  -2  717.13   37.90
  -4   5   3  107.59   17.80
  -4  -5  -3  205.88   29.20
  -4   5   3   82.89   19.00
   4   5   3  117.49   22.60
   4   5   3   88.09   18.70
  -4  -5   3   53.09   14.60
  -4   5  -3   70.79   14.30
  -4   5   4  368.66   40.50
  -4  -5  -4  312.77   38.40
  -4  -5   4  399.96   39.70
   4   5   4  380.46   38.60
   4   5   4  368.86   41.70
  -4   5   5   59.79   21.40
  -4  -5  -5   38.20   20.80
  -4  -5   5   42.40   17.00
   4   5   5   28.20   17.10
   4   5   5   60.39   22.90
  -5   5   0    4.10    7.90
  -5   5   0    1.50    4.40
  -5  -5   0   -3.50    8.20
   5   5   0    7.90    7.00
  -5   5   1   18.90    8.20
  -5  -5  -1    9.10    7.30
  -5   5   1   21.00   10.10
   5   5  -1   12.70    6.40
  -5  -5   1    4.10    8.80
  -5   5  -1   14.30    9.20
   5   5   1    3.60    8.30
  -5   5  -1   12.70    3.80
  -5   5   2   -2.00    8.00
  -5  -5  -2    9.80    9.80
  -5   5   2   15.40    9.10
  -5   5  -2   -0.70    7.60
  -5  -5   2   -0.50    9.00
   5   5   2   -1.30    8.50
  -5   5  -2    2.00    5.50
   5   5   2   -1.10    6.10
  -5   5   3   -5.10    8.90
  -5  -5  -3   20.00   13.00
  -5   5   3   22.40   12.10
  -5  -5   3    9.20   11.00
   5   5   3   -3.60   10.40
  -5   5  -3    5.10    9.10
   5   5   3   25.60   13.50
  -5  -5  -4    8.40   16.00
  -5   5   4    5.60   14.10
  -5   5  -4   -4.60   10.60
   5   5   4   -1.60   14.70
  -5  -5   4    1.40   13.30
   5   5   4   18.90   13.90
  -5   5   5  -13.10   12.10
  -5  -5  -5    5.00   18.80
   5   5   5    4.50   14.20
  -5  -5   5   -8.80   12.90
   5   5   5   19.50   19.50
   6   5   0   29.50   10.00
  -6   5   0   22.10   10.70
  -6   5   0   21.70    6.90
  -6  -5   0   12.70    9.90
  -6   5   1   29.80    9.80
  -6   5   1   32.70   11.20
  -6  -5  -1   44.90   14.10
   6   5  -1   50.59   10.30
  -6  -5   1   31.90   12.60
  -6   5  -1   55.59    7.80
  -6   5  -1   19.00    8.80
   6   5   1   21.60   10.40
  -6   5   2   17.60   10.30
  -6  -5  -2    2.40    9.80
  -6   5   2   19.10   10.60
   6   5   2    7.20    9.90
   6   5   2   20.70   12.20
  -6   5  -2   12.30    9.60
  -6  -5   2   12.50   12.90
  -6   5   3   17.10   12.60
  -6   5   3   24.70   11.70
  -6  -5  -3   40.80   16.00
  -6   5  -3   19.70   12.20
   6   5   3   27.90   13.30
   6   5   3    1.00   12.00
  -6  -5   3   27.80   14.10
  -6   5   4   -2.50   13.30
  -6  -5  -4    6.20   14.60
   6   5   4   24.20   16.30
  -6  -5   4   -2.60   12.40
   6   5   4   -9.40   11.10
  -6   5  -4   19.40   14.10
  -6   5   5   18.90   17.70
  -6  -5  -5   29.80   19.40
   6   5   5    1.10   15.90
   6   5   5    4.10   15.50
  -6  -5   5   18.80   19.80
  -7   5   0   24.80    7.90
  -7   5   0   41.00   13.50
  -7  -5   0   42.30   15.20
   7   5   0   51.09   13.30
  -7   5   1  404.46   26.80
  -7   5   1  377.66   32.50
  -7  -5  -1  457.55   39.40
   7   5  -1  420.06   24.80
  -7   5  -1  403.76   21.30
  -7   5  -1  480.35   38.50
  -7  -5   1  429.36   38.30
   7   5   1  396.96   36.10
  -7  -5  -2   22.10   13.40
  -7   5   2   10.80   10.00
  -7   5   2   53.49   15.40
  -7  -5   2   29.20   14.20
   7   5   2   25.90   11.00
  -7   5  -2   33.00   12.70
  -7   5   3  283.87   30.30
  -7  -5  -3  248.38   33.20
  -7   5   3  229.48   30.70
  -7  -5   3  229.88   32.00
  -7   5  -3  252.07   31.40
   7   5   3  280.57   34.50
   7   5   3  206.78   30.10
  -7   5   4    4.50   13.30
  -7  -5  -4    1.90   15.40
  -7   5  -4   12.40   12.90
   7   5   4    3.90   14.20
  -7  -5   4    3.90   12.60
   7   5   4   -4.40   13.90
  -7   5   5   66.79   22.30
  -7  -5  -5   84.89   26.20
   7   5   5   79.59   28.30
  -7  -5   5  108.09   26.70
   7   5   5   91.29   24.60
  -8   5   0  313.47   25.80
   8   5   0  451.45   36.40
  -8   5   0  328.97   32.30
  -8  -5   0  247.28   29.90
  -8   5   1  217.68   23.30
  -8   5   1  192.28   24.80
   8   5  -1  155.28   18.70
  -8  -5  -1  187.48   27.00
  -8  -5   1  212.48   20.50
  -8   5  -1  193.98   25.70
  -8   5  -1  204.78   18.00
   8   5   1  239.38   29.10
  -8  -5   1  177.08   25.70
  -8   5   2  164.88   23.80
  -8  -5  -2  201.68   28.40
  -8   5   2  212.38   27.40
  -8  -5   2  256.67   32.30
   8   5   2  192.18   27.70
  -8   5  -2  238.58   30.10
  -8   5   3  162.58   26.70
  -8  -5  -3  123.99   25.70
  -8  -5   3  105.39   24.20
   8   5   3   81.69   22.40
  -8   5  -3   77.99   19.90
  -8  -5  -4  113.99   28.30
  -8   5   4  145.09   28.30
  -8   5  -4  112.19   24.10
   8   5   4  148.79   29.60
   8   5   4   74.69   20.90
  -8  -5   4  107.09   26.50
  -8   5   5   49.70   23.70
  -8  -5  -5   64.59   26.30
  -8  -5  -5   41.00   20.50
   8   5   5   69.69   27.10
  -8  -5   5   83.29   25.50
   8   5   5   75.89   24.10
   9   5   0 1293.17   58.99
  -9   5   0 1249.07   54.19
  -9   5   0 1270.37   61.39
  -9  -5   0 1249.28   63.89
  -9   5   1   24.80   14.30
   9   5  -1   21.80   10.00
  -9   5   1    6.30    8.90
  -9  -5  -1   36.00   16.90
  -9   5  -1    9.90    9.50
  -9  -5   1   13.90    9.40
   9   5   1    8.20   11.00
  -9  -5   1    9.00   12.00
  -9   5   2 1051.49   53.29
  -9  -5  -2 1014.50   58.69
  -9   5   2  897.41   53.29
  -9  -5   2  943.91   57.19
  -9   5  -2  966.10   54.29
   9   5   2 1044.10   57.49
  -9   5   3   10.60   12.90
  -9  -5  -3    3.90   14.60
   9   5   3  -20.80    9.60
  -9  -5   3    6.20   15.30
  -9   5  -3    6.30   13.90
  -9  -5  -4  571.14   57.99
  -9   5   4  479.35   51.99
  -9   5  -4  504.95   49.20
   9   5   4  483.75   50.99
  -9  -5   4  649.14   60.79
  -9  -5  -5   15.00   21.50
  -9   5   5   -7.50   17.10
  -9  -5  -5    9.50   19.40
  -9  -5   5   -5.70   17.40
   9   5   5   -6.40   17.50
 -10  -5   0   14.00   13.50
 -10   5   0   10.60   10.30
 -10   5   0    1.10    9.10
 -10  -5   0    2.10   10.30
  10   5   0   -8.30    8.90
 -10  -5  -1  227.38   32.50
 -10   5   1  320.97   31.60
 -10   5   1  202.88   28.00
  10   5  -1  217.38   23.70
 -10  -5   1  277.17   35.10
 -10  -5   1  268.27   27.00
  10   5   1  367.86   38.00
 -10   5  -1  237.68   30.90
 -10   5   2    0.00    9.40
 -10  -5  -2    1.20   14.00
 -10   5   2   -3.30   13.50
 -10   5  -2   -3.00   10.60
 -10  -5   2   -4.10   12.10
  10   5   2    9.30   12.80
 -10   5   3  176.68   29.40
 -10  -5  -3  115.99   26.00
  10   5   3  186.38   30.40
 -10   5  -3  137.99   26.80
 -10  -5   3  188.38   33.10
 -10  -5  -4   13.50   17.30
 -10   5   4   -0.30   14.50
 -10  -5  -4   -8.60   15.90
 -10  -5   4    0.90   16.00
 -10   5  -4   18.30   17.40
  10   5   4   -6.30   15.50
 -11   5   0   26.70   13.70
 -11   5   0   51.59   14.40
  11   5   0   70.89   18.20
 -11  -5   0   50.79   15.30
 -11  -5   0   41.50   17.40
 -11  -5  -1   -4.80   13.90
 -11   5   1   15.10   12.20
 -11  -5  -1    2.70   13.60
  11   5  -1    4.40    8.90
 -11   5   1   -8.60   11.00
 -11  -5   1   25.50   16.30
 -11   5  -1   13.80   12.60
 -11  -5   1  -12.00    6.80
  11   5   1   -8.70   12.30
 -11   5   2   37.20   14.80
 -11  -5  -2   60.59   22.90
 -11   5   2   58.79   19.80
 -11  -5  -2   29.00   16.60
 -11   5  -2   16.80   14.60
 -11  -5   2   50.19   20.90
  11   5   2   30.80   17.40
 -11   5   3   -2.40   12.50
 -11  -5  -3   -3.30   17.20
 -11  -5  -3   -1.00   17.30
  11   5   3   -3.40   13.40
 -11  -5   3    0.00   16.00
 -11   5  -3   -7.00   12.90
 -11  -5  -4   63.29   24.50
 -11   5   4   27.20   18.50
 -11  -5  -4    5.90   20.50
  11   5   4   47.80   22.40
 -11  -5   4   41.50   21.30
 -11   5  -4   65.99   23.40
 -12  -5   0   23.30   14.60
 -12  -5   0   13.50   13.90
 -12   5   0   10.50   11.90
  12   5   0   21.50   13.40
 -12   5   0   20.90   14.50
 -12  -5  -1   -8.30   13.50
 -12   5   1   24.00   13.50
 -12   5   1   13.70   15.20
 -12  -5  -1    4.70   13.90
 -12  -5   1   16.20   15.40
 -12   5  -1    5.60   10.80
  12   5   1    5.40   14.00
 -12  -5  -2   23.10   16.30
 -12   5   2   -4.20   11.10
 -12  -5  -2  -10.70   13.40
 -12   5   2   16.00   16.40
 -12   5  -2    9.20   13.60
  12   5   2  -20.90   11.40
 -12  -5   2   -0.90   13.80
 -12  -5  -3    5.20   14.90
 -12   5   3   11.50   17.60
 -12  -5  -3   12.20   21.00
 -12   5  -3   -2.00   13.50
  12   5   3   -0.50   14.80
 -12  -5   3   27.80   18.60
 -12  -5  -4   -3.60   18.50
 -12   5   4   10.90   18.50
 -12  -5  -4    7.60   19.40
 -12  -5   4   -0.70   16.90
 -12   5  -4   -5.90   15.60
  12   5   4   13.90   17.60
 -13  -5   0    0.40   14.60
 -13  -5   0    2.00   11.50
 -13   5   0    2.90   13.80
  13   5   0   -3.40   10.60
 -13   5   1  289.57   37.10
 -13   5   1  292.27   33.70
 -13  -5  -1  345.07   40.10
 -13  -5  -1  310.77   40.40
 -13  -5   1  199.48   33.30
  13   5   1  286.17   36.90
 -13   5  -1  281.37   36.80
 -13   5   2    0.00   11.10
 -13  -5  -2   -9.30   15.10
 -13  -5  -2    8.20   16.90
  13   5   2   12.00   16.80
 -13   5  -2   -9.50   12.60
 -13  -5   2  -13.60   13.40
 -13  -5  -3  235.58   42.60
 -13  -5  -3  186.58   35.90
 -13   5   3  255.27   38.50
 -13  -5   3  143.89   31.00
  13   5   3  226.78   38.60
 -13   5  -3  187.78   34.50
  14   5   0  167.48   29.00
 -14  -5   0  164.88   28.20
 -14   5   0  216.58   34.40
 -14  -5   0  135.29   28.70
 -14  -5  -1  144.99   28.20
 -14  -5  -1   97.99   25.90
 -14   5   1  114.49   22.80
 -14   5   1  203.08   31.40
 -14  -5   1  158.08   31.20
 -14   5  -1  105.39   25.40
  14   5   1  136.09   28.20
 -14  -5  -2  188.38   38.60
 -14  -5  -2   91.79   26.90
 -14   5   2  133.09   24.00
 -14  -5   2  141.99   30.80
 -14   5  -2  109.29   27.20
  14   5   2  130.29   29.20
 -14  -5  -3   85.49   25.80
 -14  -5  -3  223.08   43.80
 -14   5   3   99.99   26.00
 -14  -5   3  131.79   31.50
  14   5   3  125.39   29.20
 -14   5  -3  102.09   28.20
  15   5   0  142.69   27.40
 -15   5   0  168.38   30.50
 -15  -5   0  202.68   37.00
 -15  -5   0  145.29   26.70
 -15   5   1   37.90   20.60
 -15  -5  -1   15.70   18.10
 -15  -5  -1  -17.10   13.30
 -15  -5   1    8.50   15.50
  15   5   1    7.80   17.60
 -15   5  -1   -5.90   14.20
 -15  -5  -2  117.19   29.50
 -15   5   2  101.69   24.30
 -15  -5  -2  236.68   40.20
 -15  -5   2  157.68   33.90
  15   5   2  149.79   30.30
 -15   5  -2  128.29   28.90
 -16   5   0  149.49   31.60
 -16  -5   0  167.38   32.00
 -16  -5  -1   22.00   18.10
 -16  -5  -1    3.40   18.50
 -16   5   1    2.20   18.60
 -16  -5   1   29.60   19.30
  16   5   1   36.20   22.70
 -16   5  -1    4.90   16.00
   0   6   0   44.90   12.00
   0   6   0   84.59   10.70
   0  -6   0   48.60    8.80
   0   6  -1 2284.57   79.39
   0  -6   1 2245.78   73.49
   0   6   1 2221.88   80.59
   0   6   1 2306.67   84.19
   0   6   2   35.70   11.60
   0   6   2   37.50   11.20
   0   6  -2   60.79   10.10
   0  -6   2   50.79    9.20
   0   6   3 1126.09   58.09
   0  -6   3 1198.68   50.19
   0   6   3 1200.08   57.49
   0   6   4   15.20   12.30
   0   6   4   13.30   12.70
   0   6   5  365.96   42.50
   1   6   0  284.47   25.00
   1  -6   0  336.47   17.70
  -1  -6   0  360.56   20.40
  -1   6   0  318.87   17.10
  -1   6   0  359.86   28.30
   1   6  -1   15.00    7.90
   1  -6   1   15.50    3.80
  -1  -6  -1   14.40    7.80
  -1   6   1    0.10    8.50
  -1   6   1   10.50    7.60
  -1  -6   1   12.10    6.80
   1   6   1   12.20    8.00
  -1   6  -1    3.10    7.00
   1   6   1   13.40    7.90
  -1   6   2  264.77   26.40
   1   6  -2  254.37   16.70
  -1   6   2  302.37   29.00
   1  -6   2  221.18   14.30
  -1  -6   2  267.87   21.70
   1   6   2  207.78   25.00
  -1   6  -2  194.08   18.80
   1   6   2  233.88   25.40
  -1   6   3   -5.80    7.40
  -1   6   3    1.40    9.80
   1  -6   3    6.20    7.30
  -1   6  -3    8.10    7.60
  -1  -6   3   -8.00    7.60
   1   6   3   -4.50    9.20
   1   6   3   -6.60    8.90
  -1   6   4   90.29   21.80
  -1   6   4  110.59   22.30
   1   6   4  115.89   22.30
   1   6   4  100.29   23.00
  -1   6   5    5.20   13.00
   1   6   5    2.30   15.50
  -2  -6   0  421.56   25.30
  -2   6   0  499.35   28.70
   2   6   0  492.95   27.60
  -2   6   0  488.85   21.10
   2   6  -1  119.29   14.10
  -2  -6  -1  109.19   15.70
  -2   6   1   95.59   16.20
  -2   6   1  119.19   14.90
  -2   6  -1  125.29   16.10
   2   6   1  141.89   17.90
  -2  -6   1  137.79   15.80
   2   6   1  120.89   18.20
   2  -6   2  366.76   15.70
  -2  -6  -2  366.96   33.20
   2   6  -2  376.06   18.50
  -2   6   2  383.66   32.90
  -2   6   2  354.96   30.90
   2   6   2  326.87   31.00
  -2   6  -2  375.76   23.30
   2   6   2  338.27   32.40
  -2  -6   2  364.16   23.60
  -2   6   3   75.49   18.50
  -2   6   3   61.99   15.60
   2   6   3   67.99   17.00
   2   6   3   78.19   17.70
  -2  -6   3   85.79   15.10
  -2   6  -3   69.99   13.50
  -2   6   4  180.88   25.20
  -2   6   4  121.79   24.90
   2   6   4  171.98   28.60
  -2  -6   4  173.48   23.90
   2   6   4  155.38   25.40
  -2   6   5   15.10   18.50
   2   6   5   -5.80   13.70
   3   6   0   33.90   10.10
  -3   6   0   73.29    8.80
  -3   6   0   40.50   11.90
  -3  -6   0   49.20   12.10
  -3   6   1   -2.90    7.20
  -3   6   1    7.80    5.90
   3   6  -1   15.70    7.40
  -3  -6  -1    3.90    7.90
  -3  -6   1    8.60    8.80
  -3   6  -1    8.50    8.50
   3   6   1   23.30   10.20
   3   6   1   15.70    8.70
  -3   6   2   23.70   10.80
   3   6  -2   38.80    6.60
  -3  -6  -2   34.40   13.00
  -3   6   2   34.30   11.60
  -3   6  -2   46.10   12.10
  -3  -6   2   36.00   11.10
   3   6   2   29.80   12.60
   3   6   2   31.30   12.90
  -3   6   3   12.40   11.10
  -3   6   3   16.80   11.50
  -3  -6  -3    7.10   11.80
   3   6   3    8.40   11.40
  -3   6  -3   17.20    9.90
  -3  -6   3   -9.10    8.60
   3   6   3    1.50    9.80
  -3  -6  -4   25.20   16.50
  -3   6   4   38.70   16.80
   3   6   4   33.30   17.30
   3   6   4   13.80   12.70
  -3  -6   4   28.50   13.90
  -3   6   5   -4.20   14.50
  -3  -6  -5  -12.10   13.00
   3   6   5   -2.10   15.30
  -4  -6   0  145.99   19.80
  -4   6   0  116.09   10.80
   4   6   0  127.49   17.70
  -4   6   0  111.69   17.70
   4   6  -1  148.09   16.00
  -4  -6  -1  160.18   21.10
  -4   6   1  126.09   15.30
  -4   6   1  125.39   19.30
  -4   6  -1  137.99   18.30
  -4  -6   1  125.09   17.80
   4   6   1  119.19   17.60
   4   6   1  131.29   20.10
  -4   6   2   83.49   16.70
  -4  -6  -2   60.79   15.10
  -4   6   2   66.99   15.90
   4   6  -2   90.69    8.60
   4   6   2   78.09   16.90
  -4   6  -2   53.49   13.00
  -4  -6   2   94.89   17.60
   4   6   2   81.39   16.10
  -4   6   3   64.99   17.40
  -4  -6  -3  106.09   23.40
  -4   6   3   44.50   14.10
   4   6   3   78.09   19.90
  -4  -6   3   81.19   17.60
   4   6   3   53.89   16.80
  -4   6  -3   58.29   14.20
  -4   6   4   42.90   16.90
  -4  -6  -4   38.70   18.10
   4   6   4   75.59   22.50
   4   6   4   43.10   16.80
  -4  -6   4   53.99   17.10
  -4   6   5   35.30   20.30
  -4  -6  -5   24.20   19.10
   4   6   5   31.80   16.70
   4   6   5   27.00   21.00
  -5  -6   0  102.39   17.00
  -5   6   0  138.29   12.80
   5   6   0  134.49   19.10
  -5   6   0   90.29   16.70
  -5   6   1   11.00   10.10
   5   6  -1   14.50    7.00
  -5   6   1    1.70    6.70
  -5  -6  -1   12.10    9.40
  -5   6  -1   56.99   14.50
  -5   6  -1    7.20    2.40
  -5  -6   1    6.00    8.60
   5   6   1    8.30    9.40
  -5  -6  -2   50.69   15.40
  -5   6   2   64.29   16.40
  -5   6   2  117.49   18.90
  -5  -6   2  120.09   19.90
   5   6   2   81.09   17.80
  -5   6  -2   75.49   15.80
   5   6   2   76.59   17.70
  -5   6   3   13.30   11.20
  -5   6   3   14.80   12.10
  -5  -6  -3    7.80   12.20
   5   6   3   -2.90   11.80
  -5   6  -3  -10.60    7.40
  -5  -6   3    1.80    9.60
   5   6   3   13.10   11.60
  -5  -6  -4   54.89   21.30
  -5   6   4   43.80   17.60
   5   6   4   26.10   17.70
  -5  -6   4   46.20   18.50
   5   6   4   20.80   15.50
  -5   6   5  -15.30   11.90
  -5  -6  -5   -8.50   14.50
   5   6   5    3.90   17.60
   5   6   5    8.50   16.50
  -5  -6   5    4.20   14.20
   6   6   0 1359.06   58.89
  -6   6   0 1463.85   52.99
  -6   6   0 1455.35   62.69
  -6  -6   0 1398.96   63.09
  -6   6   1 4757.02  164.08
  -6  -6  -1 4772.12  165.78
   6   6  -1 4899.11  155.28
  -6   6   1 4898.51  157.98
  -6   6  -1 4783.12  144.99
  -6   6  -1 4863.01  163.98
  -6  -6   1 4904.81  164.48
   6   6   1 4962.30  165.18
  -6   6   2 1063.29   52.59
  -6   6   2 1008.20   52.19
  -6  -6  -2 1013.20   55.29
   6   6   2 1000.50   54.59
  -6   6  -2 1058.09   51.49
   6   6   2 1082.89   56.39
  -6  -6   2 1079.39   54.79
  -6   6   3 2916.91  117.59
  -6  -6  -3 3172.88  122.29
  -6   6   3 3158.98  113.49
   6   6   3 2999.80  120.49
   6   6   3 3001.90  123.69
  -6  -6   3 2909.81  118.99
  -6   6  -3 3139.99  114.69
  -6  -6  -4  593.64   56.59
  -6   6   4  576.74   53.49
   6   6   4  560.44   51.29
   6   6   4  623.24   57.59
  -6  -6   4  365.26   40.00
  -6   6  -4  582.64   38.70
  -6   6   5 1285.87   78.39
  -6  -6  -5 1433.86   82.69
   6   6   5 1399.26   83.09
   6   6   5 1394.16   74.89
  -7  -6   0  451.35   39.90
  -7   6   0  460.45   37.30
   7   6   0  455.75   30.10
  -7   6   0  422.06   24.10
  -7   6   1    6.60   10.30
  -7  -6  -1   14.90   11.70
   7   6  -1    4.00    7.10
  -7   6   1   15.10    9.40
  -7   6  -1   10.60   10.60
   7   6   1    8.80   10.60
  -7  -6   1    6.70   10.50
  -7   6   2  383.96   37.00
  -7  -6  -2  324.77   35.10
  -7   6   2  348.07   33.50
   7   6   2  302.37   33.40
  -7   6  -2  353.86   34.10
  -7  -6   2  292.17   33.30
  -7  -6  -3  -12.20   10.90
  -7   6   3    8.70   12.00
  -7   6   3   14.10   13.20
   7   6   3   20.60   15.20
  -7   6  -3   20.50   12.70
   7   6   3    9.90   11.90
  -7  -6   3    2.20   12.10
  -7   6   4  185.28   32.40
  -7  -6  -4  220.08   35.20
   7   6   4  181.08   32.30
   7   6   4  148.79   27.20
  -7  -6   4  136.29   27.00
  -7   6  -4  171.68   25.70
  -7  -6  -5   27.30   22.50
  -7   6   5   23.30   17.90
  -7  -6   5   20.90   19.50
   7   6   5    8.20   23.10
   7   6   5   -6.00   13.50
  -8   6   0    4.30    8.40
  -8   6   0   11.10    7.80
  -8  -6   0    1.80   10.90
   8   6   0   -2.40    7.60
  -8  -6  -1   16.30   13.40
   8   6  -1   21.70    9.50
  -8   6   1   -2.60   10.20
  -8   6   1   16.10   10.60
  -8  -6   1    3.30   11.40
   8   6   1   13.10   11.50
  -8   6  -1   10.50   11.60
  -8   6   2    8.90   11.70
  -8   6   2   18.90   13.80
  -8  -6  -2    9.30   12.00
   8   6   2   -6.30   10.00
  -8   6  -2   -5.90   10.50
  -8  -6   2   15.20   12.70
  -8  -6  -3   -7.60   12.90
  -8   6   3   -2.40   11.80
  -8   6  -3    2.40   12.40
  -8  -6   3    0.30   13.40
   8   6   3   -2.50   11.10
  -8   6   4   -2.20   12.60
  -8  -6  -4    9.10   16.40
  -8  -6   4    6.00   16.00
  -8   6  -4  -12.10   10.80
   8   6   4   -5.60   14.10
   8   6   4   14.70   15.80
  -8  -6  -5  -19.30   16.20
  -8   6   5   11.90   17.20
  -8  -6   5   17.00   18.80
   8   6   5   13.70   21.10
   8   6   5   13.10   17.50
  -9  -6   0   52.89   18.20
  -9   6   0   30.20   14.30
  -9   6   0   31.90    9.90
   9   6   0   27.20   12.40
   9   6  -1    1.60    7.90
  -9   6   1   -1.40   10.60
  -9  -6  -1   13.50   13.80
  -9   6   1   -4.90    6.10
  -9  -6   1    8.10    8.10
  -9  -6   1    9.80   12.70
  -9   6  -1   17.10   12.20
   9   6   1   -1.40   11.00
  -9   6   2   35.80   15.70
  -9  -6  -2   15.80   15.70
  -9   6   2   60.19   17.00
  -9   6  -2   24.00   14.00
  -9  -6   2   43.50   17.00
   9   6   2   46.10   17.30
  -9   6   3   -7.40   10.70
  -9  -6  -3   22.40   14.80
  -9  -6   3   -0.60   12.60
  -9   6  -3    2.20   12.80
   9   6   3  -13.90    9.90
  -9   6   4   16.80   15.60
  -9  -6  -4   35.10   22.10
  -9  -6   4    8.10   17.50
   9   6   4   16.40   15.00
  -9   6  -4   21.00   17.20
 -10   6   0    4.80    8.10
  10   6   0    9.90   10.80
 -10  -6   0   -1.60   13.30
 -10   6   0   -4.70   10.50
 -10   6   1  133.89   20.20
 -10  -6  -1   89.59   22.50
  10   6  -1  107.29   18.20
 -10   6   1  154.08   25.30
  10   6   1  168.38   27.40
 -10  -6   1   95.99   21.90
 -10  -6   1   78.89   15.40
 -10   6  -1   95.99   20.90
 -10   6   2   19.50   12.90
 -10  -6  -2   13.30   14.40
 -10   6   2   15.90   13.70
 -10   6  -2   -0.10   12.40
 -10  -6   2  -24.20    9.50
  10   6   2   12.50   14.10
 -10   6   3   39.40   17.70
 -10  -6  -3  104.49   26.90
  10   6   3  101.29   24.90
 -10  -6   3   77.79   23.40
 -10   6  -3   79.29   21.60
 -10  -6  -4   -3.80   14.80
 -10   6   4    0.90   14.80
 -10  -6  -4    0.70   15.80
  10   6   4   -9.90   13.60
 -10  -6   4   14.30   18.00
 -10   6  -4   30.10   18.90
 -11  -6   0   29.30   14.20
 -11  -6   0   19.40   12.80
  11   6   0   34.20   15.30
 -11   6   0   32.40   16.50
 -11  -6  -1    2.40   14.80
 -11   6   1  -12.30   10.40
 -11  -6  -1   -8.70   10.60
 -11   6   1   -6.50    9.70
 -11   6  -1    7.90   12.00
 -11  -6   1   13.80   15.70
  11   6   1  -15.20    9.10
 -11   6   2   26.30   16.10
 -11   6   2   -1.60   10.40
 -11  -6  -2   20.00   15.40
 -11   6  -2    2.50   12.90
  11   6   2    5.50   13.30
 -11  -6   2   13.70   15.00
 -11  -6  -3  -10.60   15.50
 -11  -6  -3    6.50   18.50
 -11   6   3    0.50   14.30
 -11   6  -3  -23.50   10.30
 -11  -6   3  -10.10   13.40
  11   6   3    5.50   14.40
 -11  -6  -4    5.20   20.10
 -11  -6  -4   35.10   21.40
 -11   6   4   11.10   16.90
 -11   6  -4    5.50   16.20
 -11  -6   4   11.40   18.40
  11   6   4    3.80   16.10
  12   6   0   15.30   15.40
 -12  -6   0    2.50   12.90
 -12  -6   0   -5.40   14.90
 -12   6   0   28.80   16.50
 -12   6   1  183.78   26.00
 -12  -6  -1  148.09   28.20
 -12  -6  -1  159.28   29.10
 -12   6   1  242.78   33.80
 -12  -6   1   99.19   24.40
  12   6   1  176.38   29.80
 -12   6  -1  158.68   28.60
 -12   6   2    8.60   13.60
 -12  -6  -2    6.30   14.70
 -12   6   2   30.40   17.60
 -12  -6  -2   10.20   19.00
 -12   6  -2   13.20   15.20
  12   6   2   22.60   16.70
 -12  -6   2  -20.90   11.00
 -12  -6  -3  172.28   37.90
 -12   6   3   69.09   23.30
 -12  -6  -3   41.80   21.60
 -12  -6   3   69.59   23.60
  12   6   3   72.09   23.60
 -12   6  -3   84.89   24.60
  13   6   0  180.98   28.40
 -13  -6   0  214.08   35.20
 -13   6   0  180.58   30.10
 -13  -6   0  201.08   30.90
 -13  -6  -1   10.00   15.40
 -13   6   1   50.29   18.90
 -13  -6  -1   25.20   17.60
 -13   6   1   32.40   14.60
 -13  -6   1   23.80   17.00
  13   6   1   32.00   17.90
 -13   6  -1   36.50   17.50
 -13  -6  -2   96.09   28.50
 -13  -6  -2  173.28   33.20
 -13   6   2  128.39   27.30
 -13   6  -2  103.89   25.80
  13   6   2  173.58   33.90
 -13  -6   2  146.69   29.80
 -13   6   3   30.30   18.70
 -13  -6  -3   19.10   23.20
 -13  -6  -3    7.30   18.30
  13   6   3   45.50   21.40
 -13   6  -3   21.40   18.50
 -13  -6   3   19.90   19.90
 -14   6   0   62.59   21.60
  14   6   0   57.49   18.50
 -14  -6   0    7.30   16.80
 -14  -6   0   45.10   16.80
 -14   6   1   73.99   23.00
 -14  -6  -1   47.80   21.00
 -14  -6  -1  108.09   26.20
  14   6   1   57.29   20.90
 -14   6  -1   45.40   19.50
 -14  -6   1   26.40   17.90
 -14  -6  -2   51.49   22.80
 -14   6   2   23.40   17.70
 -14  -6  -2   54.99   24.50
 -14  -6   2   42.00   20.10
 -14   6  -2   46.90   22.00
  14   6   2   72.19   24.90
 -15  -6   0   81.39   24.40
 -15  -6   0  106.69   24.70
  15   6   0   50.89   20.90
 -15   6   0   62.09   21.30
 -15  -6  -1   11.70   17.20
 -15  -6  -1    3.20   17.40
 -15   6   1   16.90   17.40
 -15   6  -1  -17.00   12.90
 -15  -6   1  -10.80   14.30
  15   6   1   17.20   18.60
 -15  -6  -2   57.89   23.10
 -15   6   2   90.49   24.50
 -15  -6  -2   67.59   26.40
  15   6   2   29.30   19.60
 -15   6  -2   59.49   23.70
 -15  -6   2   84.69   27.00
 -16  -6   0  269.97   42.00
 -16   6   0  193.98   34.20
   0   7   0   -8.20    7.70
   0   7   0   -4.50    4.50
   0  -7   0    0.10    5.60
   0  -7   1    7.00    5.50
   0   7   1   -4.60    5.20
   0   7   1    0.80    8.30
   0   7  -1   -2.40    6.90
   0   7   2   -4.20    8.30
   0   7   2   16.30    9.60
   0  -7   2    6.90    5.70
   0   7  -2   12.10    7.80
   0   7   3   -8.40    8.60
   0  -7   3   -1.70   10.50
   0   7   3    3.00    9.60
   0   7   4    9.20   13.90
   0   7   4    9.80   11.70
   0   7   5  -20.60   14.60
  -1   7   0  499.15   23.50
   1  -7   0  496.55   23.80
  -1   7   0  466.45   30.50
  -1  -7   0  480.35   26.10
   1   7   0  521.55   31.00
  -1   7   1   55.49   14.40
  -1  -7  -1   45.60   11.80
   1   7  -1   50.59   12.30
   1  -7   1   36.50    6.10
  -1   7   1   31.40    8.90
  -1   7  -1   46.80   12.10
   1   7   1   49.50   13.70
  -1  -7   1   47.10    9.80
   1   7   1   25.00    9.30
  -1   7   2  362.36   34.00
   1  -7   2  326.97   16.70
   1   7  -2  372.36   22.10
  -1   7   2  308.97   29.80
   1   7   2  361.36   34.50
   1   7   2  292.07   30.00
  -1   7  -2  343.27   27.30
  -1  -7   2  320.87   20.50
  -1   7   3   14.50   12.60
  -1   7   3   25.90   13.30
  -1  -7   3   42.40   12.00
   1   7   3   34.10   14.80
  -1   7  -3   27.40   10.40
   1   7   3   16.50   12.30
  -1   7   4  148.69   23.80
  -1   7   4  111.89   24.60
   1   7   4  100.69   23.80
   1   7   4  118.29   21.50
  -1   7   5   -7.20   12.40
   1   7   5   15.40   18.00
  -2  -7   0 2919.01   99.29
   2   7   0 2935.51  103.59
  -2   7   0 2827.82   92.39
  -2   7   0 2948.61  104.39
  -2  -7  -1  890.61   43.10
   2   7  -1  973.60   40.90
  -2   7   1  912.81   41.30
  -2   7   1  859.41   46.70
   2   7   1 1000.50   44.30
  -2  -7   1  923.71   41.00
  -2   7  -1  927.81   43.60
   2   7   1  831.72   44.90
  -2   7   2 2087.29   85.29
   2   7  -2 1988.10   71.89
  -2  -7  -2 2117.39   85.49
  -2   7   2 2174.58   83.49
   2   7   2 2296.27   87.39
  -2   7  -2 2079.89   78.19
   2   7   2 2147.99   86.29
  -2  -7   2 2135.29   78.09
  -2   7   3  427.66   39.40
  -2   7   3  512.45   39.80
   2   7   3  548.35   44.40
  -2  -7   3  384.76   31.40
  -2   7  -3  423.56   28.10
   2   7   3  413.36   41.20
  -2   7   4  948.71   54.39
  -2   7   4  992.30   60.49
   2   7   4 1035.10   62.29
   2   7   4 1069.59   57.09
  -2   7   5  180.78   32.40
   2   7   5  166.28   32.80
  -3  -7   0  446.56   28.50
  -3   7   0  463.05   20.50
  -3   7   0  413.56   28.30
   3   7   0  469.65   29.40
  -3   7   1  968.00   41.80
  -3   7   1  911.21   46.90
  -3  -7  -1  914.01   45.20
   3   7  -1  951.20   41.30
  -3  -7   1  962.40   43.80
  -3   7  -1  903.41   44.20
   3   7   1  918.81   44.80
   3   7   1  936.81   47.50
  -3   7   2  385.66   32.20
   3   7  -2  374.46   20.50
  -3   7   2  395.96   36.20
  -3  -7  -2  348.67   33.60
  -3  -7   2  409.16   32.30
  -3   7  -2  349.96   29.60
   3   7   2  310.97   32.80
   3   7   2  376.66   35.20
  -3   7   3  436.96   40.50
  -3   7   3  464.95   42.10
  -3  -7  -3  521.75   47.20
   3   7   3  489.65   42.90
  -3   7  -3  558.24   31.70
   3   7   3  508.95   46.40
  -3  -7   3  525.15   34.00
  -3   7   4  202.18   28.00
  -3   7   4  153.78   27.60
  -3  -7  -4  160.88   29.80
   3   7   4  116.49   26.60
   3   7   4  168.88   27.00
  -3  -7   4  139.99   22.70
  -3  -7  -5  181.28   33.80
  -3   7   5  180.48   32.60
   3   7   5  244.28   39.60
   3   7   5  179.08   30.30
  -4   7   0   28.00    6.50
  -4   7   0   17.40   10.60
  -4  -7   0   22.40   10.30
   4   7   0   23.50   10.30
  -4   7   1   -1.00    9.80
  -4   7   1    7.70    7.30
   4   7  -1   11.50    7.80
  -4  -7  -1   15.20   10.50
   4   7   1    9.50    9.00
  -4   7  -1   -2.80    7.00
   4   7   1   18.30    9.90
  -4  -7   1    2.60    8.10
  -4   7   2   18.50    9.60
  -4  -7  -2   36.80   13.10
  -4   7   2   21.30   12.40
   4   7   2   17.60   11.70
  -4  -7   2   17.00   10.80
  -4   7  -2   14.20    9.80
   4   7   2   30.80   12.80
  -4   7   3   -8.00    9.10
  -4   7   3   -3.00   10.50
  -4  -7  -3    4.60   12.80
   4   7   3   -7.50    9.40
  -4   7  -3   -8.20    9.20
  -4  -7   3   16.20   11.70
   4   7   3   15.60   14.00
  -4  -7  -4   -6.80   14.20
  -4   7   4   18.80   15.20
   4   7   4   19.30   16.20
  -4  -7   4   -3.30   12.10
   4   7   4    5.60   12.20
  -4   7   5   -1.00   14.70
  -4  -7  -5  -28.10   13.50
   4   7   5   -9.20   15.20
   4   7   5   -2.40   13.40
   5   7   0  146.79   19.80
  -5   7   0  155.98   13.90
  -5  -7   0   98.29   17.70
  -5   7   0   99.19   17.90
  -5   7   1  262.47   22.90
   5   7  -1  299.57   24.10
  -5   7   1  280.57   29.40
  -5  -7  -1  224.48   26.70
  -5  -7   1  254.37   26.80
   5   7   1  276.07   29.40
  -5   7  -1  282.77   28.20
  -5   7   2  147.49   23.00
  -5   7   2  114.09   19.90
  -5  -7  -2   92.69   19.30
   5   7   2   91.89   20.10
   5   7   2  104.39   20.50
  -5   7  -2  130.19   20.40
  -5  -7   2  103.69   19.40
  -5  -7  -3  152.98   27.20
  -5   7   3  210.08   27.40
  -5   7   3  143.49   24.50
  -5   7  -3  142.89   21.40
   5   7   3  165.98   26.20
   5   7   3  175.98   28.90
  -5  -7   3  126.69   22.60
  -5   7   4   38.50   17.50
  -5  -7  -4   57.29   22.10
   5   7   4   20.60   15.50
  -5  -7   4   56.49   17.80
   5   7   4   46.90   18.40
  -5  -7  -5   57.09   24.90
  -5   7   5   77.89   24.70
   5   7   5   33.90   20.40
   5   7   5   63.29   25.40
  -6  -7   0   17.50   11.00
   6   7   0    0.10    7.30
  -6   7   0   17.20   11.60
  -6   7   0   -0.30    4.80
  -6   7   1    3.10    9.00
   6   7  -1    1.90    6.40
  -6   7   1    0.40    6.40
  -6  -7  -1  -11.30    7.90
  -6  -7   1   -4.60    9.40
   6   7   1   -2.20    8.80
  -6   7  -1  -15.30    7.10
  -6  -7  -2   -3.50   10.00
  -6   7   2    0.00   11.50
  -6   7   2   -6.10    7.40
  -6   7  -2   -4.10    8.30
   6   7   2   -4.30    9.30
  -6  -7   2    5.20   10.30
   6   7   2   -0.20    7.70
  -6   7   3    3.30   11.30
  -6   7   3   -3.10   11.40
  -6  -7  -3   -2.50   11.60
   6   7   3    5.00   10.80
   6   7   3    9.70   12.60
  -6   7  -3  -13.00    8.60
  -6  -7   3   10.70   11.60
  -6   7   4   -3.80   12.60
  -6  -7  -4    4.70   15.40
   6   7   4   -7.20   14.90
   6   7   4  -11.60   11.10
  -6   7  -4   -2.90   11.70
  -6  -7   4   -2.40   10.10
  -6   7   5    1.20   16.10
  -6  -7  -5    1.50   17.50
   6   7   5   -9.60   14.40
   6   7   5    0.50   18.60
  -7  -7   0  149.49   24.10
   7   7   0  127.29   19.20
  -7   7   0  110.09   13.70
  -7   7   0  124.69   21.80
  -7   7   1   -6.90   10.20
  -7   7   1   11.90    8.80
  -7  -7  -1   -7.80    7.30
   7   7  -1    3.00    7.90
  -7  -7   1   -3.60   10.30
  -7   7  -1    7.60   10.80
   7   7   1    1.80    7.70
  -7   7   2  127.69   21.60
  -7  -7  -2  106.19   22.60
  -7   7   2  125.59   22.70
  -7  -7   2   81.49   19.80
   7   7   2   87.29   20.00
  -7   7  -2   52.69   16.30
  -7  -7  -3   -3.40   12.70
  -7   7   3    0.70   12.20
  -7   7   3   -0.80   10.00
   7   7   3   10.90   13.50
  -7   7  -3   -2.50   11.70
   7   7   3    4.60   11.60
  -7  -7   3  -11.00   10.80
  -7   7   4   69.29   21.00
  -7  -7  -4   35.80   20.50
  -7   7  -4   41.70   17.80
   7   7   4   63.09   23.00
   7   7   4   27.10   17.50
  -7  -7   4   56.19   20.50
  -7   7   5   14.30   17.30
  -7  -7  -5    1.60   19.90
   7   7   5   -0.70   15.90
   7   7   5   10.30   19.20
  -7  -7   5   11.50   18.20
  -8  -7   0  131.49   25.20
  -8   7   0  127.19   23.00
   8   7   0  118.79   20.90
  -8   7   0  144.09   16.90
   8   7  -1  154.88   20.20
  -8   7   1  169.58   21.90
  -8  -7  -1  191.48   30.00
  -8   7   1  159.78   24.00
  -8  -7   1  189.08   26.30
   8   7   1  125.09   23.30
  -8   7  -1  158.58   26.00
  -8  -7  -2  118.49   24.20
  -8   7   2  113.79   21.10
  -8   7   2   95.29   21.10
   8   7   2   95.79   21.90
  -8   7  -2   79.29   18.90
  -8  -7   2  105.99   22.50
  -8   7   3   93.49   21.40
  -8   7   3   82.79   20.80
  -8  -7  -3   93.59   24.30
  -8   7  -3   85.39   20.20
  -8  -7   3  111.19   24.20
   8   7   3   63.19   20.30
  -8  -7  -4   59.09   25.30
  -8   7   4   45.60   21.00
  -8   7  -4   69.09   21.20
  -8  -7   4   66.69   22.90
   8   7   4   13.40   19.10
   8   7   4   43.40   21.50
  -8  -7  -5   29.50   26.10
  -8   7   5   34.50   21.60
  -8  -7   5   32.30   21.70
   8   7   5  111.09   33.40
   8   7   5   60.89   24.80
  -9   7   0  123.09   17.60
   9   7   0  139.99   22.10
  -9   7   0   95.49   19.80
  -9  -7   0   95.99   22.00
  -9  -7  -1  553.64   48.70
  -9   7   1  639.44   37.50
  -9   7   1  534.95   47.10
   9   7  -1  633.34   35.40
   9   7   1  596.24   50.09
  -9  -7   1  503.05   46.20
  -9   7  -1  558.24   48.20
  -9  -7  -2  145.49   27.70
  -9   7   2   94.39   20.80
  -9   7   2   80.79   21.60
  -9   7  -2  135.89   24.30
   9   7   2  123.49   25.10
  -9  -7   2  104.39   23.20
  -9  -7  -3  354.36   43.90
  -9   7   3  408.36   44.50
   9   7   3  445.26   48.30
  -9  -7   3  425.36   47.40
  -9   7  -3  406.06   42.10
  -9   7   4   49.10   22.80
  -9  -7  -4   63.99   24.60
  -9   7  -4   29.00   17.40
   9   7   4   72.59   23.60
  -9  -7   4   34.40   19.90
  10   7   0  479.55   43.10
 -10  -7   0  436.06   44.80
 -10   7   0  489.95   43.70
 -10   7   1  972.20   55.79
 -10  -7  -1 1023.00   59.19
 -10   7   1  936.81   48.20
  10   7  -1  923.81   47.10
 -10  -7   1  771.52   52.09
 -10   7  -1  890.11   54.99
  10   7   1  880.21   55.69
 -10  -7   1  971.30   50.49
 -10   7   2  379.36   39.40
 -10   7   2  403.96   42.20
 -10  -7  -2  353.66   42.10
  10   7   2  404.66   45.60
 -10  -7   2  461.75   46.30
 -10   7  -2  461.85   45.30
 -10  -7  -3  570.64   54.79
 -10   7   3  549.05   50.59
 -10   7  -3  628.34   53.19
 -10  -7   3  516.15   54.19
  10   7   3  627.54   58.89
 -10   7   4  255.57   38.40
 -10  -7  -4  236.88   40.00
 -10   7  -4  213.48   33.60
  10   7   4  184.48   32.60
 -10  -7   4  235.88   38.20
  11   7   0   77.89   20.70
 -11  -7   0   56.99   19.70
 -11   7   0   65.29   18.70
 -11  -7   0   46.40   16.70
 -11  -7  -1   50.89   20.70
 -11   7   1   81.09   21.20
 -11   7   1   77.99   18.30
 -11   7  -1   73.29   22.00
 -11  -7   1   84.19   22.00
  11   7   1   92.09   22.30
 -11  -7  -2   31.30   17.60
 -11   7   2   84.59   19.90
 -11   7   2   30.00   18.70
 -11  -7   2   33.90   17.60
 -11   7  -2   57.49   19.40
  11   7   2   36.30   18.20
 -11  -7  -3   52.69   23.20
 -11   7   3   55.49   19.30
  11   7   3   87.99   24.60
 -11   7  -3   57.29   20.90
 -11  -7   3   62.39   23.10
 -11  -7  -4   44.60   26.00
 -11  -7  -4   49.99   24.30
 -11   7   4   30.00   17.50
  11   7   4   -2.60   15.50
 -11  -7   4   42.60   24.40
 -11   7  -4   25.10   22.00
 -12  -7   0   47.60   16.10
  12   7   0   20.80   15.10
 -12  -7   0   49.99   18.90
 -12   7   0   -3.20   12.70
 -12  -7  -1   18.40   16.60
 -12  -7  -1   13.10   15.40
 -12   7   1   31.60   16.70
  12   7   1   21.30   16.60
 -12   7  -1   13.40   16.00
 -12  -7   1   33.80   18.80
 -12  -7  -2   20.10   20.00
 -12   7   2   18.80   18.40
 -12  -7  -2   12.40   17.00
 -12   7   2    8.90   12.70
 -12  -7   2    6.50   15.50
  12   7   2   -2.60   16.00
 -12   7  -2    7.00   14.90
 -12   7   3   26.10   18.80
 -12  -7  -3   -4.20   16.80
 -12  -7  -3   71.69   27.80
  12   7   3    3.50   15.50
 -12   7  -3   -3.50   18.00
 -12  -7   3   12.10   16.70
 -13  -7   0   59.09   18.40
 -13  -7   0   50.89   20.50
  13   7   0   81.39   20.70
 -13   7   0   47.10   20.70
 -13  -7  -1  142.09   29.20
 -13  -7  -1   76.49   24.70
 -13   7   1  151.88   31.00
  13   7   1   94.29   25.10
 -13   7  -1   82.19   23.40
 -13  -7   1   93.69   24.90
 -13   7   2   43.60   20.40
 -13  -7  -2   71.89   26.80
 -13   7   2   53.29   20.10
 -13  -7  -2   25.00   21.00
 -13  -7   2   58.79   23.00
 -13   7  -2   30.20   19.40
  13   7   2   81.59   25.90
 -13  -7  -3  133.39   36.60
 -13   7   3   69.99   23.50
 -13  -7  -3   83.19   27.70
 -13  -7   3   76.99   26.80
 -13   7  -3   21.40   20.20
  13   7   3  100.79   30.80
 -14   7   0  573.64   54.69
 -14  -7   0  654.83   54.39
  14   7   0  611.74   53.79
 -14  -7   0  628.74   60.69
 -14   7   1  103.09   26.50
 -14  -7  -1  107.69   26.80
 -14  -7  -1   62.59   23.80
 -14   7  -1   76.09   23.20
 -14  -7   1   63.19   23.30
  14   7   1  133.19   29.50
 -14  -7  -2  612.14   68.59
 -14  -7  -2  547.35   57.29
 -14  -7   2  448.66   53.29
 -14   7  -2  491.65   51.49
  14   7   2  531.95   59.39
 -15  -7   0    2.10   14.90
 -15   7   0   11.10   19.30
 -15  -7  -1  137.09   31.60
 -15   7   1  235.28   37.10
  15   7   1  223.28   34.80
 -15  -7   1  254.07   38.70
 -15   7  -1  203.38   35.80
   0  -8   0 1586.44   57.89
   0   8   0 1513.75   57.49
   0   8   0 1492.75   65.89
   0   8  -1 1640.74   67.89
   0  -8  -1 1686.13   66.29
   0  -8   1 1659.73   59.29
   0   8   1 1661.83   66.79
   0   8   1 1901.81   74.59
   0  -8   2 1083.19   41.40
   0   8  -2 1060.69   46.30
   0   8   2  981.70   53.39
   0   8   2 1115.39   53.59
   0   8   3  930.31   51.19
   0   8   3  832.82   50.89
   0   8   4  508.25   49.30
   0   8   4  511.65   47.80
   0   8   5  511.65   54.29
  -1  -8   0  167.18   18.10
  -1   8   0  119.99   19.90
   1  -8   0  141.29   14.70
  -1   8   0  132.79   14.40
   1   8   0  157.38   21.30
   1   8  -1  987.40   45.30
  -1  -8  -1  938.21   44.70
  -1   8   1  938.71   49.99
   1  -8   1  965.10   34.80
  -1   8   1  946.81   44.30
  -1  -8   1  962.10   40.60
   1   8   1  921.91   44.90
   1   8   1  962.20   50.59
  -1   8  -1  991.20   46.70
   1   8  -2  116.69   15.80
  -1   8   2   95.79   17.50
  -1   8   2  159.58   24.50
   1   8   2   94.79   19.40
  -1  -8   2  105.09   13.90
  -1   8  -2  103.69   16.30
   1   8   2   68.49   17.50
  -1   8   3  494.65   43.60
  -1   8   3  466.95   41.30
   1   8   3  503.85   45.20
   1   8   3  499.65   44.20
  -1   8   4   35.90   15.50
  -1   8   4   55.29   17.90
   1   8   4   64.29   18.50
   1   8   4   35.40   17.70
  -1   8   5  212.28   34.90
   1   8   5  175.28   33.40
  -2  -8   0  228.78   23.20
  -2   8   0  212.28   24.30
   2   8   0  215.68   25.80
  -2   8   0  216.48   14.60
   2  -8   0  217.48   17.80
  -2   8   1  290.17   31.30
  -2  -8  -1  328.77   28.90
   2  -8   1  320.27   11.90
  -2   8   1  337.17   21.80
   2   8  -1  278.97   25.10
  -2  -8   1  301.47   25.00
   2   8   1  291.27   27.90
   2   8   1  286.07   30.10
  -2   8  -1  349.96   29.60
  -2   8   2  159.38   22.60
  -2  -8  -2  181.68   25.20
   2   8  -2  179.58   18.20
  -2   8   2  177.28   26.50
  -2  -8   2  182.08   20.50
  -2   8  -2  149.19   19.20
   2   8   2  194.48   25.50
   2   8   2   71.29   18.10
  -2  -8  -3  200.78   31.70
  -2   8   3  136.69   22.50
  -2   8   3  171.68   26.30
   2   8   3  179.78   27.10
  -2  -8   3  145.99   20.00
   2   8   3  200.08   29.30
  -2   8  -3  157.88   21.30
  -2   8   4   31.30   16.90
  -2   8   4   64.39   18.20
   2   8   4   70.19   22.00
   2   8   4   58.79   18.30
  -2   8   5   54.19   19.90
  -2  -8  -5   93.99   26.10
   2   8   5   78.09   25.50
  -3   8   0   10.40    5.40
  -3  -8   0   10.50    8.70
  -3   8   0    0.10    7.20
   3   8   0   18.10   10.90
   3   8  -1    6.50    7.60
  -3   8   1    0.40    9.90
  -3   8   1   16.70    7.80
  -3  -8  -1    4.70    8.40
  -3   8  -1  -16.80    6.60
   3   8   1   15.90    9.20
   3   8   1   18.30   10.10
  -3  -8   1    9.00    8.70
  -3   8   2    3.60   10.60
   3   8  -2    0.10    6.00
  -3  -8  -2   -3.40    9.20
  -3   8   2   -3.60    7.70
   3   8   2   12.30   11.50
  -3  -8   2   13.70    9.00
   3   8   2    9.20   11.30
  -3   8  -2    5.10    8.90
  -3  -8  -3    8.80   12.80
  -3   8   3   -5.20   12.70
  -3   8   3    6.00   11.10
   3   8   3   -3.90   11.30
  -3  -8   3   -2.50    8.50
   3   8   3   -1.70   10.80
  -3   8  -3   -0.80    9.60
  -3   8   4   -1.30   12.80
  -3  -8  -4   -5.70   13.70
  -3   8   4   -2.40   12.60
   3   8   4    3.50   13.20
   3   8   4    6.30   14.50
  -3  -8  -5    4.00   17.90
  -3   8   5    3.40   14.90
   3   8   5  -24.80   14.40
   3   8   5  -15.50   16.10
  -4   8   0    5.70    5.30
  -4  -8   0   16.40   12.00
  -4   8   0   19.60   10.90
   4   8   0   16.90    9.70
   4   8  -1    8.90    7.90
  -4  -8  -1   19.50   10.80
  -4   8   1    8.40    7.30
  -4   8   1    0.20    9.10
   4   8   1   11.30    8.90
  -4  -8   1   10.30    9.50
  -4   8  -1    5.70    9.60
  -4   8   2   -0.90   11.00
  -4   8   2    1.10    7.40
  -4  -8  -2   12.50   11.70
   4   8   2  -13.70    9.20
   4   8   2    6.50   12.10
  -4   8  -2    0.50    9.50
  -4  -8   2    3.70    9.50
  -4   8   3   -3.00    9.40
  -4  -8  -3    8.00   13.90
  -4   8   3   15.40   12.90
  -4  -8   3    0.80   10.60
   4   8   3   -4.00   12.40
  -4   8  -3    4.40   10.30
   4   8   3   -1.60   10.80
  -4   8   4   15.30   14.50
  -4  -8  -4    5.40   15.40
   4   8   4   19.90   14.70
   4   8   4    2.20   14.40
  -4   8   5   31.10   18.80
  -4  -8  -5    5.10   17.70
   4   8   5  -13.80   12.60
   4   8   5   -2.40   16.20
  -5   8   0  520.75   24.40
  -5  -8   0  524.55   34.00
   5   8   0  482.25   33.00
  -5   8   0  551.24   36.50
  -5   8   1  827.42   47.40
   5   8  -1  780.72   40.00
  -5   8   1  903.01   40.10
  -5  -8  -1  851.71   46.00
  -5  -8   1  716.13   43.60
   5   8   1  863.61   47.80
  -5   8  -1  782.52   44.70
  -5   8   2  404.46   34.90
  -5  -8  -2  403.86   38.40
  -5   8   2  372.46   38.50
  -5  -8   2  346.47   33.50
   5   8   2  329.07   36.30
   5   8   2  394.76   38.50
  -5   8  -2  396.16   34.50
  -5   8   3  453.25   43.90
  -5  -8  -3  457.65   46.70
  -5   8   3  530.75   45.60
   5   8   3  596.54   50.69
  -5   8  -3  561.44   42.60
   5   8   3  559.44   52.39
  -5  -8   3  455.75   41.80
  -5  -8  -4  275.07   39.20
  -5   8   4  211.78   33.50
   5   8   4  211.18   36.60
   5   8   4  228.58   33.10
  -5  -8   4  147.99   24.80
  -5   8   5  141.29   31.00
   5   8   5  229.48   36.60
   5   8   5  195.68   37.80
  -6  -8   0   35.20   14.20
   6   8   0   38.00   13.20
  -6   8   0   36.30    8.20
  -6   8   0   22.80   11.40
   6   8  -1   21.50   10.00
  -6   8   1   11.50    9.00
  -6  -8  -1   14.30   12.70
  -6   8   1    2.50   10.30
  -6   8  -1    9.00   10.00
   6   8   1    6.50   11.60
  -6  -8   1   30.80   13.30
  -6   8   2   24.60   12.20
  -6   8   2   18.80   13.60
  -6  -8  -2   29.60   13.60
   6   8   2   44.90   14.70
  -6   8  -2   20.10   12.50
   6   8   2   39.40   16.20
  -6  -8   2   23.20   12.90
  -6   8   3    2.10   12.70
  -6   8   3   -3.40   10.00
  -6  -8  -3    7.70   14.00
  -6   8  -3    9.10   12.20
   6   8   3   -1.90   11.80
   6   8   3   -7.20   11.30
  -6  -8   3   21.60   15.20
  -6   8   4   18.40   16.10
  -6  -8  -4   17.50   17.90
   6   8   4   19.80   18.60
   6   8   4   26.60   16.70
  -6  -8   4   23.90   17.10
  -6   8   5    2.20   16.70
  -6  -8  -5    8.60   19.40
   6   8   5   30.30   24.30
   6   8   5    4.40   16.30
   7   8   0   17.80   11.70
  -7  -8   0   -1.70   11.10
  -7   8   0    9.60    6.70
  -7   8   0    8.20   12.20
  -7   8   1  233.08   23.50
  -7   8   1  207.78   28.10
   7   8  -1  200.38   22.90
  -7  -8  -1  234.18   30.00
  -7   8  -1  225.48   28.80
  -7  -8   1  208.28   28.10
   7   8   1  165.88   25.20
  -7  -8  -2   -0.10   12.50
  -7   8   2   10.10    9.70
  -7   8   2   16.60   12.20
   7   8   2   -2.40   10.30
  -7  -8   2   -2.10   11.40
  -7   8  -2   -0.70   10.00
  -7  -8  -3  151.68   29.20
  -7   8   3  149.88   26.90
  -7   8   3  109.79   23.60
  -7  -8   3   92.39   22.60
   7   8   3  122.39   26.30
   7   8   3  166.98   30.30
  -7   8  -3  123.69   24.60
  -7  -8  -4  -13.70   13.90
  -7   8   4   14.90   14.30
  -7  -8   4   -0.40   12.70
  -7   8  -4  -15.00   11.30
   7   8   4   10.30   14.90
   7   8   4   -7.60   15.30
  -7  -8  -5   81.39   28.70
  -7   8   5   48.00   21.80
   7   8   5   60.69   25.80
   7   8   5   74.39   28.30
  -8   8   0   15.10   13.10
   8   8   0   32.70   14.40
  -8  -8   0   23.60   15.60
   8   8  -1   50.39   13.80
  -8   8   1   35.50   15.30
  -8   8   1   17.30   11.00
  -8  -8  -1   24.30   13.60
   8   8   1   23.50   13.00
  -8   8  -1   23.00   13.90
  -8  -8   1   35.70   14.90
  -8   8   2   17.70   11.30
  -8   8   2    9.80   13.00
  -8  -8  -2   -2.10   12.20
   8   8   2   20.40   14.70
  -8   8  -2    6.40   12.20
  -8  -8   2    8.00   13.50
  -8   8   3   25.00   15.90
  -8  -8  -3   13.70   15.80
  -8   8   3   27.60   15.50
  -8  -8   3   38.20   17.50
  -8   8  -3   47.80   17.80
   8   8   3   35.70   17.30
  -8   8   4    3.70   14.70
  -8  -8  -4   28.40   20.60
  -8   8  -4   27.30   17.40
  -8  -8   4    7.90   15.60
   8   8   4   20.50   17.20
   8   8   4   16.70   18.40
  -9  -8   0   -6.20   11.50
   9   8   0  -10.50    9.60
  -9   8   0    0.50   11.60
  -9   8   1  152.28   26.30
  -9  -8  -1  120.69   24.40
   9   8  -1  127.19   20.00
  -9   8   1  167.98   21.20
  -9  -8   1  179.38   27.40
  -9   8  -1  144.39   24.50
   9   8   1  146.49   26.20
  -9   8   2   15.30   13.90
  -9  -8  -2   -4.50   13.90
  -9   8   2   27.20   19.00
   9   8   2    5.40   12.30
  -9   8  -2   25.60   15.90
  -9  -8   2    9.10   13.10
  -9  -8  -3   79.69   23.20
  -9   8   3   96.89   22.90
  -9   8  -3   63.79   19.10
   9   8   3   89.19   23.70
  -9  -8   3   64.49   21.50
  -9  -8  -4    3.60   17.60
  -9   8   4   -5.20   14.40
  -9  -8   4    7.20   16.70
  -9   8  -4    3.60   15.60
   9   8   4  -20.70   12.90
  10   8   0  364.16   37.90
 -10  -8   0  321.27   40.10
 -10   8   0  350.26   39.90
 -10  -8  -1  506.15   49.30
 -10   8   1  347.47   40.00
 -10   8   1  466.55   37.20
 -10   8  -1  521.25   45.70
  10   8   1  565.64   50.59
 -10  -8   1  359.26   41.00
 -10  -8  -2  258.87   36.70
 -10   8   2  270.47   37.40
 -10   8   2  193.28   27.30
 -10  -8   2  184.48   30.10
 -10   8  -2  253.37   35.00
  10   8   2  228.68   35.20
 -10  -8  -3  276.07   41.30
 -10   8   3  347.37   40.70
  10   8   3  322.17   42.70
 -10   8  -3  333.17   41.40
 -10  -8   3  419.16   48.20
 -10  -8  -4   97.49   29.50
 -10   8   4  157.58   33.40
 -10  -8   4   94.39   27.70
 -10   8  -4  156.08   29.90
  10   8   4   96.39   26.90
  11   8   0  314.37   35.40
 -11  -8   0  217.68   33.60
 -11   8   0  239.48   34.40
 -11  -8  -1  327.37   41.10
 -11   8   1  359.66   38.20
 -11  -8   1  272.77   36.70
  11   8   1  460.55   45.70
 -11   8  -1  300.47   36.90
 -11   8   2  304.57   36.10
 -11   8   2  188.48   32.00
 -11  -8  -2  196.68   33.40
  11   8   2  203.88   32.50
 -11  -8   2  148.29   28.60
 -11   8  -2  238.78   35.70
 -11   8   3  297.47   38.10
 -11  -8  -3  219.58   38.60
 -11   8  -3  321.47   41.10
 -11  -8   3  262.27   39.30
  11   8   3  289.57   42.70
 -11   8   4  113.09   29.70
 -11  -8  -4  119.69   32.10
 -11  -8   4  120.29   30.30
 -12  -8   0  489.35   46.00
 -12   8   0  544.65   52.09
 -12  -8   0  382.86   45.50
  12   8   0  434.66   44.80
 -12  -8  -1  350.26   44.20
 -12   8   1  405.36   44.80
 -12  -8   1  342.87   42.60
 -12   8  -1  374.06   42.10
  12   8   1  393.96   44.10
 -12   8   2  321.07   36.40
 -12   8   2  371.16   45.20
 -12  -8  -2  310.67   42.00
  12   8   2  382.76   46.00
 -12   8  -2  378.86   45.50
 -12  -8   2  249.48   37.40
 -12   8   3  336.87   42.50
 -12  -8  -3  292.57   43.20
 -12   8  -3  307.97   41.60
  12   8   3  183.18   34.60
 -12  -8   3  325.97   44.30
 -13  -8   0   24.20   18.20
 -13   8   0   42.80   19.50
 -13  -8   0   33.10   16.20
  13   8   0   36.30   17.90
 -13  -8  -1   98.19   25.90
 -13   8   1   50.89   19.70
 -13  -8  -1   79.09   24.10
  13   8   1   25.10   18.40
 -13   8  -1  102.19   25.20
 -13  -8   1   54.19   21.20
 -13   8   2   28.40   20.50
 -13  -8  -2    6.50   20.50
 -13  -8  -2   17.20   19.40
 -13  -8   2   23.70   18.30
  13   8   2   13.90   17.80
 -13   8  -2    7.60   18.40
 -13  -8  -3   79.39   29.90
 -13   8   3   49.60   20.60
 -13  -8  -3   32.20   24.10
  13   8   3   74.09   26.50
 -13   8  -3   18.60   20.50
 -13  -8   3   87.79   26.70
  14   8   0   39.50   17.50
 -14  -8   0   23.30   16.30
 -14   8   0   -1.60   15.90
 -14  -8   0   26.40   19.00
 -14  -8  -1    1.50   17.30
 -14  -8  -1    5.70   16.60
 -14   8   1    4.20   16.50
 -14  -8   1    7.80   17.40
 -14   8  -1    4.20   15.70
  14   8   1   -7.60   16.30
 -14  -8  -2   25.20   27.40
 -14  -8  -2   39.00   23.00
 -14   8  -2   12.10   17.80
 -14  -8   2   26.60   20.50
  14   8   2   18.70   21.90
 -15   8   0    9.60   18.60
 -15  -8   0   10.90   17.00
 -15   8   1   27.00   20.40
 -15  -8  -1   21.90   19.90
 -15  -8  -1   51.99   23.00
 -15   8  -1   59.69   22.40
  15   8   1   71.29   24.10
 -15  -8   1   63.79   23.70
   0  -9   0   -4.10    5.60
   0   9   0    3.30    8.80
   0   9   0    4.60    6.60
   0  -9   1   -8.80    5.40
   0  -9  -1   -7.60    6.60
   0   9   1    7.10    8.00
   0   9   1  -13.90    8.00
   0   9  -1  -14.90    6.10
   0   9  -2    1.20    9.30
   0   9   2   -2.10   10.40
   0   9   2    1.40    9.20
   0   9   3   13.10   13.70
   0   9   3   -7.00    9.60
   0   9   4    4.90   13.20
   0   9   4  -10.10   11.00
   0   9   5   -8.90   13.70
  -1  -9   0   72.39   13.70
  -1   9   0   80.39   11.90
   1  -9   0   72.49   11.50
   1   9   0   87.59   18.30
  -1   9   0   80.69   17.50
   1   9  -1   -0.80    9.30
  -1   9   1    8.30    7.80
  -1   9   1   14.20   12.60
   1  -9   1   20.30    6.50
  -1  -9  -1    1.30    8.20
   1   9   1    0.30   10.50
  -1  -9   1   24.50    8.90
   1   9   1   -2.70    7.70
  -1   9  -1   -2.40    9.50
   1   9  -2   57.49   13.60
  -1   9   2   43.70   15.80
  -1   9   2   81.79   17.20
  -1  -9  -2   35.40   14.30
   1   9   2   65.39   18.60
  -1  -9   2   56.29   10.80
  -1   9  -2   30.00   12.40
   1   9   2   51.09   15.10
  -1   9   3    1.50   10.20
  -1   9   3   10.20   11.80
   1   9   3   12.90   13.80
   1   9   3   -3.60   10.40
  -1   9   4   27.10   14.90
  -1   9   4    6.50   13.20
   1   9   4   26.40   15.30
   1   9   4   36.90   18.80
  -1   9   5   11.70   16.50
   1   9   5    3.60   14.70
   2   9   0   14.20   10.80
  -2  -9   0   12.90    9.90
  -2   9   0   14.10   11.40
  -2   9   0   34.40    8.00
   2  -9   0   39.10    8.90
  -2   9   1  194.88   27.10
   2   9  -1  226.28   24.80
  -2   9   1  194.98   21.50
  -2  -9  -1  188.78   24.00
   2   9   1  205.98   27.70
   2   9   1  224.08   25.80
  -2   9  -1  236.18   26.10
  -2  -9   1  167.28   19.90
  -2   9   2   38.70   16.20
  -2   9   2   23.90   11.00
  -2  -9  -2   10.10   11.80
   2   9  -2    2.60    7.80
   2   9   2   21.50   12.40
  -2   9  -2   23.50   11.60
   2   9   2   27.10   14.90
  -2  -9   2   27.50   10.10
  -2   9   3   77.79   19.70
  -2  -9  -3   73.89   21.00
  -2   9   3  100.09   21.50
   2   9   3  117.99   24.20
  -2   9  -3  116.39   19.10
   2   9   3   84.49   20.40
  -2   9   4   11.50   15.10
  -2   9   4    5.70   13.00
  -2  -9  -4   18.50   16.00
   2   9   4    9.20   13.10
   2   9   4   31.80   18.20
  -2  -9  -5   44.30   22.20
  -2   9   5   39.70   20.40
   2   9   5   34.70   18.20
   2   9   5   73.29   24.90
  -3   9   0 1270.77   45.80
  -3  -9   0 1157.08   54.69
   3   9   0 1324.57   58.69
   3  -9   0 1240.38   46.00
  -3   9   0 1073.39   57.49
   3   9  -1  764.32   39.90
  -3   9   1  744.53   37.30
  -3   9   1  797.02   46.90
  -3  -9  -1  705.73   42.40
  -3  -9   1  756.52   40.00
  -3   9  -1  765.32   42.20
   3   9   1  816.12   47.10
   3   9   1  854.41   44.40
  -3   9   2  894.81   46.90
  -3  -9  -2  909.61   50.39
   3   9  -2  897.71   39.90
  -3   9   2  713.73   47.70
  -3   9  -2  971.70   46.50
  -3  -9   2  827.32   43.00
   3   9   2  852.21   50.59
   3   9   2  908.31   52.59
  -3   9   3  531.55   47.40
  -3  -9  -3  520.45   50.39
  -3   9   3  465.15   44.70
  -3  -9   3  536.65   33.30
  -3   9  -3  500.45   40.40
   3   9   3  503.45   47.80
   3   9   3  416.26   44.60
  -3  -9  -4  375.06   46.50
  -3   9   4  440.86   43.00
  -3   9   4  467.85   49.50
   3   9   4  335.67   38.50
   3   9   4  494.55   51.59
  -3  -9  -5  161.18   33.10
  -3   9   5  113.09   26.70
   3   9   5  190.78   31.00
   3   9   5  228.28   41.00
  -4  -9   0  462.65   38.10
   4   9   0  482.45   38.60
  -4   9   0  449.16   39.20
  -4   9   0  464.15   22.70
   4   9  -1  957.50   45.00
  -4   9   1  983.00   52.39
  -4   9   1  922.11   43.50
  -4  -9  -1  889.21   49.50
   4   9   1  933.31   52.09
  -4  -9   1  988.30   47.70
  -4   9  -1  821.62   48.00
  -4   9   2  379.26   41.00
  -4   9   2  349.17   33.50
  -4  -9  -2  272.77   33.10
   4   9   2  380.56   39.90
  -4  -9   2  370.06   34.00
   4   9   2  316.97   36.10
  -4   9  -2  430.06   36.70
  -4   9   3  461.65   44.40
  -4  -9  -3  461.85   47.70
  -4   9   3  570.74   49.20
   4   9   3  538.15   51.99
  -4   9  -3  591.24   37.80
  -4  -9   3  589.84   37.60
   4   9   3  587.84   50.89
  -4   9   4  199.48   32.10
  -4  -9  -4  224.28   37.10
  -4   9   4  232.58   32.20
   4   9   4  174.68   31.60
   4   9   4  151.78   32.00
  -4  -9  -5  252.07   41.00
  -4   9   5  179.38   34.60
   4   9   5  275.07   43.30
   4   9   5  277.37   39.00
  -5   9   0  121.69   21.20
  -5   9   0   86.79   11.50
   5   9   0   85.59   17.60
  -5  -9   0   88.39   18.20
   5   9  -1   78.59   16.20
  -5  -9  -1   68.99   16.70
  -5   9   1   92.19   15.10
  -5   9   1   71.39   19.80
  -5   9  -1   71.99   18.50
  -5  -9   1  106.49   20.40
   5   9   1   80.09   19.40
  -5   9   2   15.80   14.60
  -5   9   2   64.69   16.30
  -5  -9  -2   53.09   16.50
   5   9   2   75.39   19.70
  -5   9  -2   16.70   11.80
  -5  -9   2   41.80   14.70
   5   9   2   78.39   19.60
  -5   9   3   42.60   15.90
  -5   9   3   55.99   18.10
  -5  -9  -3   42.50   18.30
  -5  -9   3   30.10   15.60
   5   9   3   12.80   13.70
   5   9   3   35.20   18.60
  -5   9  -3   35.30   15.90
  -5  -9  -4   29.30   20.30
  -5   9   4   13.00   13.50
   5   9   4   42.60   20.70
   5   9   4   52.69   19.60
  -5   9   5   37.80   21.00
  -5  -9  -5   43.40   24.70
   5   9   5    3.50   17.60
   5   9   5   48.00   20.60
  -6  -9   0   57.29   17.10
  -6   9   0   50.89   17.10
   6   9   0   70.99   16.70
  -6   9   1   17.20   13.70
   6   9  -1   17.30   10.20
  -6  -9  -1    2.30   11.80
  -6   9   1   13.70    9.10
  -6   9  -1   10.50   12.70
  -6  -9   1    3.70   12.00
   6   9   1    7.20   11.30
  -6   9   2   47.00   14.20
  -6   9   2   63.09   19.20
  -6  -9  -2   59.79   17.90
  -6   9  -2   53.39   17.10
   6   9   2   30.40   16.50
  -6  -9   2   18.00   13.40
  -6  -9  -3   -1.40   12.70
  -6   9   3    5.30   11.20
  -6   9   3   -5.80   13.40
  -6  -9   3    5.00   13.10
   6   9   3   17.50   16.00
  -6   9  -3   13.60   13.10
   6   9   3   25.40   15.50
  -6  -9  -4   11.80   16.90
  -6   9   4   33.40   17.80
   6   9   4   34.30   21.50
  -6  -9   4   72.49   21.40
   6   9   4   33.10   18.00
  -6   9   5    2.20   15.50
  -6  -9  -5    8.80   21.90
   6   9   5    7.80   22.80
   6   9   5   -9.00   17.10
   7   9   0   24.00   13.10
  -7  -9   0   19.60   14.10
  -7   9   0   20.90   13.50
   7   9  -1   17.30   10.50
  -7   9   1   -0.20   12.30
  -7  -9  -1   17.20   14.40
  -7   9   1    4.80    7.90
  -7  -9   1   17.80   13.30
   7   9   1   -1.60   11.10
  -7   9  -1   -2.90    8.40
  -7   9   2   25.10   15.90
  -7  -9  -2    3.80   12.90
  -7   9   2   13.80   11.80
  -7   9  -2   37.30   14.60
  -7  -9   2   21.10   13.30
   7   9   2   13.00   12.90
  -7   9   3   -9.50   14.20
  -7  -9  -3   17.70   16.70
  -7   9   3   24.80   14.90
  -7  -9   3    5.00   15.40
   7   9   3   37.60   18.30
   7   9   3   39.80   17.00
  -7   9  -3    8.20   14.30
  -7   9   4    6.40   13.70
  -7  -9  -4   10.90   18.00
   7   9   4    5.80   13.90
   7   9   4   -6.60   15.40
  -7  -9   4   17.20   16.30
  -8  -9   0  734.83   49.00
  -8   9   0  710.13   47.70
   8   9   0  688.63   42.60
   8   9  -1   93.49   17.10
  -8   9   1   71.09   14.30
  -8  -9  -1   90.79   21.80
  -8   9   1   51.79   18.30
   8   9   1   99.89   21.90
  -8   9  -1   43.10   16.90
  -8  -9   1   39.00   16.80
  -8   9   2  663.23   41.20
  -8  -9  -2  594.44   51.89
  -8   9   2  499.15   47.80
  -8   9  -2  454.55   42.40
  -8  -9   2  520.55   46.60
   8   9   2  545.85   50.29
  -8  -9  -3   51.99   21.30
  -8   9   3   31.30   15.20
  -8   9   3   66.19   23.10
  -8   9  -3   62.09   18.60
  -8  -9   3   38.50   18.70
   8   9   3   69.39   21.50
  -8  -9  -4  366.36   48.50
  -8   9   4  247.78   37.50
  -8  -9   4  271.57   38.60
   8   9   4  322.47   42.40
  -8   9  -4  339.27   38.10
  -9   9   0  617.74   53.29
  -9  -9   0  706.73   56.19
   9   9   0  673.63   43.60
  -9   9   1  236.48   32.70
   9   9  -1  318.97   35.10
  -9  -9  -1  131.59   26.60
  -9   9   1  290.57   31.20
  -9   9  -1  219.08   32.20
  -9  -9   1  286.17   33.90
   9   9   1  288.37   35.70
  -9   9   2  510.25   41.70
  -9  -9  -2  530.15   52.69
  -9   9   2  510.15   49.00
   9   9   2  470.35   49.40
  -9   9  -2  494.85   45.50
  -9  -9   2  582.94   51.09
  -9  -9  -3  221.38   36.60
  -9   9   3  203.38   31.20
  -9   9   3  186.98   33.00
  -9  -9   3  173.68   30.40
   9   9   3  165.78   32.20
  -9   9  -3  144.89   27.10
  -9  -9  -4  325.97   46.70
  -9   9   4  285.87   40.30
  -9  -9   4  271.07   38.50
  -9   9  -4  317.27   40.90
   9   9   4  264.57   40.50
  10   9   0   72.69   20.50
 -10  -9   0  120.39   26.80
 -10   9   0  101.79   23.90
 -10   9   1   -4.00   13.70
 -10  -9  -1   34.00   18.90
  10   9   1   12.50   15.10
 -10   9  -1    0.60   13.00
 -10  -9   1    8.30   14.90
 -10   9   2  131.09   23.30
 -10   9   2   85.99   24.30
 -10  -9  -2   73.59   23.60
  10   9   2   79.19   23.20
 -10   9  -2   81.39   20.70
 -10  -9   2   41.10   18.30
 -10   9   3   12.40   14.60
 -10  -9  -3   46.50   22.80
  10   9   3    8.60   16.20
 -10  -9   3   12.10   15.60
 -10   9  -3   24.80   18.10
 -10   9   4   72.39   23.30
 -10  -9  -4   75.79   27.00
 -10   9  -4   80.19   25.20
  10   9   4   40.80   22.10
 -10  -9   4   44.90   21.60
  11   9   0  146.89   26.10
 -11   9   0  180.48   30.50
 -11  -9   0  155.68   29.50
 -11   9   1   19.40   16.20
 -11  -9  -1   24.60   18.50
 -11  -9   1    7.90   13.70
 -11   9  -1   17.90   15.60
  11   9   1   20.00   15.90
 -11  -9  -2  133.69   27.50
 -11   9   2  103.29   22.00
 -11   9   2  126.89   28.50
  11   9   2  191.48   33.30
 -11   9  -2  106.69   25.30
 -11  -9   2   96.09   25.20
 -11   9   3    4.20   13.60
 -11  -9  -3  -14.40   16.00
 -11   9  -3   14.80   16.10
 -11  -9   3   28.90   18.80
  11   9   3    0.10   17.20
 -12  -9   0   29.50   19.50
  12   9   0   50.09   19.20
 -12   9   0   27.20   16.80
 -12   9   1   38.70   20.00
 -12  -9  -1   -1.50   15.30
  12   9   1    1.30   14.60
 -12   9  -1   32.70   17.10
 -12  -9   1   -0.80   13.90
 -12  -9  -2   -5.90   17.40
 -12   9   2   44.00   22.90
 -12   9  -2   27.50   17.50
 -12  -9   2   10.70   14.70
  12   9   2   22.00   18.00
 -12  -9  -3   19.70   21.30
 -12   9   3   -0.80   15.50
 -12   9  -3   19.60   18.90
 -12  -9   3   31.50   18.40
  12   9   3    1.20   17.00
 -13  -9   0   20.90   14.80
 -13   9   0   35.10   18.80
 -13  -9   0   18.20   17.00
  13   9   0   19.80   16.10
 -13  -9  -1    6.40   16.80
 -13  -9  -1   -1.40   20.00
 -13   9   1   -0.20   16.90
 -13  -9   1  -11.70   14.20
 -13   9  -1   10.20   17.40
  13   9   1   -6.80   14.70
 -13  -9  -2   30.60   23.80
 -13  -9  -2   -0.20   18.20
 -13   9   2   26.00   21.70
 -13   9  -2   36.10   20.50
 -13  -9   2   15.30   16.90
  13   9   2   23.70   19.00
 -14  -9   0   18.90   16.40
 -14   9   0  -17.00   13.20
 -14   9   1  236.48   39.80
 -14  -9  -1  208.78   37.60
 -14  -9  -1  135.89   30.60
  14   9   1  210.98   36.50
 -14  -9   1  230.98   37.70
 -14   9  -1  162.78   32.60
 -14  -9  -2   46.20   24.10
 -14  -9  -2   -5.10   19.80
 -14   9  -2   26.10   22.20
 -14  -9   2   18.70   18.90
  14   9   2    5.10   17.60
 -15   9   0  182.98   34.10
 -15  -9   0  256.57   40.10
   0  10   0  688.73   42.80
   0 -10   0  672.73   35.00
   0  10   1  543.55   33.10
   0  10   1  476.45   43.30
   0  10  -1  561.94   35.90
   0 -10  -1  487.35   31.70
   0 -10   1  518.25   27.40
   0  10  -2  495.85   33.70
   0  10   2  581.94   46.00
   0  10   2  533.05   47.20
   0  10   3  354.56   39.20
   0  10   3  242.78   34.20
   0  10   4  273.27   37.60
   0  10   4  247.18   33.90
   0  10   5  121.69   30.50
   1 -10   0 1040.50   44.20
  -1 -10   0 1006.70   46.40
  -1  10   0 1019.70   54.09
  -1  10   0 1048.10   43.70
   1  10   0  947.91   51.19
  -1  10   1  102.39   17.20
  -1 -10  -1   78.59   16.10
  -1  10   1   75.09   19.60
   1  10  -1   87.59   17.10
  -1 -10   1  128.79   16.90
  -1  10  -1  123.49   22.30
   1  10   1  126.19   19.10
   1 -10  -1   90.49   16.00
   1  10   1  136.59   24.60
  -1  10   2  774.22   50.19
  -1  10   2  726.83   44.60
   1  10  -2  807.32   41.40
  -1 -10  -2  828.02   48.10
   1  10   2  698.63   44.60
   1  10   2  773.92   49.00
  -1  10  -2  767.32   41.80
  -1  10   3   73.89   19.40
  -1  10   3   36.80   15.40
  -1 -10  -3   74.29   22.60
   1  10   3   49.20   18.80
   1  10   3   70.09   19.80
  -1  10   4  415.56   45.90
  -1  10   4  360.46   39.60
   1  10   4  362.66   42.00
   1  10   4  360.76   43.90
  -1  10   5   23.20   20.50
  -1 -10  -5   31.10   21.40
   1  10   5   20.10   19.40
  -2 -10   0   47.80   12.10
   2  10   0   43.20   15.20
  -2  10   0   28.30    8.90
  -2  10   0   40.20   15.20
   2 -10   0   37.40    9.90
   2  10  -1   47.10   15.00
  -2  10   1   23.30   10.50
  -2  10   1   48.00   18.00
  -2 -10  -1   56.69   15.20
  -2  10  -1   37.00   14.40
   2  10   1   29.30   12.30
   2  10   1   29.30   14.80
  -2 -10   1   33.50   11.90
  -2  10   2    6.70   11.70
  -2  10   2   18.30   10.90
  -2 -10  -2    3.60   11.60
   2  10  -2   24.80   10.20
  -2  10  -2   26.50   12.70
   2  10   2    9.70   13.10
  -2 -10   2   14.30   10.70
   2  10   2   42.10   16.60
  -2 -10  -3    1.80   14.40
  -2  10   3   28.30   14.10
  -2  10   3   21.20   14.20
   2  10   3   20.40   15.20
   2  10   3   28.90   15.30
  -2 -10  -4   15.90   17.20
  -2  10   4   37.50   16.30
  -2  10   4    4.30   14.60
   2  10   4   66.39   20.80
   2  10   4    4.00   14.10
  -2  10   5   11.00   17.80
  -2 -10  -5  -19.10   15.30
   2  10   5   22.70   20.50
   2  10   5    6.70   15.60
  -3  10   0   20.40    7.20
   3  10   0    7.70   12.50
  -3 -10   0   28.40   12.20
  -3  10   0    6.80   10.60
   3 -10   0    9.20    7.60
  -3  10   1   28.20   15.70
   3  10  -1   33.80   11.80
  -3 -10  -1   43.30   14.70
  -3  10   1   50.39   12.40
   3  10   1   25.80   14.90
  -3 -10   1   46.20   13.50
   3  10   1   41.10   14.40
  -3  10  -1   29.40   12.60
  -3  10   2   27.80   11.30
  -3  10   2   10.20   13.40
  -3 -10  -2    7.00   11.60
   3  10   2   23.50   14.30
  -3 -10   2   15.50   11.20
  -3  10  -2    8.90   11.90
   3  10   2   -4.70   11.30
  -3  10   3   31.90   18.20
  -3  10   3   11.20   12.50
  -3 -10  -3   50.39   19.70
  -3  10  -3   26.60   14.10
   3  10   3    6.00   12.60
   3  10   3   34.60   16.30
  -3 -10  -4    8.10   17.50
  -3  10   4    7.30   15.20
  -3  10   4    3.40   12.90
   3  10   4   22.60   16.90
   3  10   4   19.40   16.50
  -3 -10  -5  -11.30   17.70
  -3  10   5   11.10   16.80
   3  10   5   29.20   17.90
   3  10   5    5.20   21.40
  -4  10   0  155.98   26.20
  -4 -10   0  131.59   21.50
  -4  10   0  158.48   19.70
   4  10   0  114.89   21.90
   4  10  -1  388.16   33.30
  -4  10   1  388.66   30.20
  -4  10   1  331.47   37.50
  -4 -10  -1  411.76   37.80
  -4 -10   1  366.86   34.20
  -4  10  -1  283.97   32.30
   4  10   1  305.97   35.20
  -4 -10  -2   97.99   22.30
  -4  10   2  102.09   19.90
  -4  10   2  119.69   24.30
   4  10   2   99.49   22.60
  -4 -10   2  146.19   22.60
   4  10   2   76.29   19.70
  -4  10  -2   93.69   18.80
  -4  10   3  174.68   29.40
  -4  10   3  188.68   28.50
  -4 -10  -3  190.28   31.30
  -4  10  -3  277.27   31.60
   4  10   3  171.48   30.40
   4  10   3  221.48   32.70
  -4 -10  -4   60.19   24.90
  -4  10   4   23.50   17.70
  -4  10   4   41.90   18.60
   4  10   4   55.89   20.30
   4  10   4   64.79   23.10
  -4 -10  -5  111.79   30.70
  -4  10   5   83.29   23.20
   4  10   5  105.99   31.00
   4  10   5   68.99   23.90
   5  10   0  573.54   38.70
  -5  10   0  533.55   46.40
  -5 -10   0  616.34   39.40
   5  10  -1  232.18   26.60
  -5  10   1  259.27   24.90
  -5  10   1  233.58   31.70
  -5 -10  -1  222.08   29.30
  -5 -10   1  244.98   28.70
  -5  10  -1  217.88   30.20
   5  10   1  180.58   27.80
  -5  10   2  405.06   43.20
  -5  10   2  433.16   38.40
  -5 -10  -2  451.45   43.80
   5  10   2  426.16   43.00
   5  10   2  425.16   43.80
  -5  10  -2  410.96   39.00
  -5 -10   2  450.85   38.90
  -5 -10  -3   89.19   24.70
  -5  10   3  113.79   23.90
  -5  10   3  136.89   24.40
  -5 -10   3  122.89   24.00
   5  10   3   93.99   23.50
   5  10   3  149.39   30.60
  -5  10  -3  113.39   22.60
  -5  10   4  246.78   35.70
  -5 -10  -4  249.28   39.60
   5  10   4  256.17   41.30
   5  10   4  260.77   36.50
  -5 -10  -5   11.70   19.20
  -5  10   5   73.89   25.30
   5  10   5   49.90   25.50
   5  10   5   80.19   24.80
  -6  10   0 2592.94  105.89
   6  10   0 2702.93  104.49
  -6 -10   0 2582.14  104.79
  -6  10   1  225.08   32.10
  -6 -10  -1  209.98   30.00
   6  10  -1  195.98   23.80
  -6  10   1  234.08   24.70
  -6 -10   1  173.98   27.20
   6  10   1  243.28   32.50
  -6  10  -1  315.97   35.70
  -6  10   2 2129.39   95.69
  -6 -10  -2 2058.69   94.09
  -6  10   2 2048.90   84.59
  -6 -10   2 2097.39   87.99
  -6  10  -2 2051.79   88.69
   6  10   2 2050.99   94.79
  -6  10   3  106.39   24.10
  -6 -10  -3  131.49   27.40
  -6  10   3  127.89   27.30
  -6 -10   3  143.89   26.50
   6  10   3   86.49   24.20
   6  10   3  188.58   31.20
  -6  10  -3  203.48   29.20
  -6 -10  -4 1090.09   73.39
   6  10   4 1124.49   66.89
   6  10   4 1098.59   72.39
   7  10   0 1004.00   53.99
  -7 -10   0  958.30   56.09
  -7  10   0 1082.69   59.99
  -7 -10  -1   52.39   18.60
  -7  10   1   27.40   16.10
   7  10  -1   48.40   14.00
  -7  10   1   44.20   12.60
  -7  10  -1   52.29   18.40
   7  10   1   51.99   17.70
  -7 -10   1   34.80   16.90
  -7  10   2  856.01   48.10
  -7  10   2  779.82   62.79
  -7 -10  -2  775.52   52.39
   7  10   2  819.02   54.19
  -7  10  -2  739.83   49.00
  -7 -10   2  855.21   50.89
  -7  10   3   54.49   18.00
  -7  10   3   15.40   15.30
  -7 -10  -3   58.99   21.10
  -7  10  -3   35.20   17.20
   7  10   3   57.99   19.70
  -7 -10   3   52.29   19.00
  -7  10   4  496.45   52.99
  -7 -10  -4  549.35   60.79
   7  10   4  528.55   59.29
   7  10   4  465.95   50.69
   8  10   0   44.60   15.60
  -8  10   0   32.10   15.60
  -8 -10   0   30.30   18.00
   8  10  -1   41.40   14.40
  -8 -10  -1   10.30   15.10
  -8  10   1   38.40   17.50
  -8 -10   1   24.90   16.50
   8  10   1   49.40   17.30
  -8  10  -1   22.60   16.10
  -8 -10  -2    3.00   14.50
  -8  10   2   55.19   20.90
  -8  10   2   43.20   14.40
  -8 -10   2   36.60   16.10
  -8  10  -2   38.90   18.70
   8  10   2   40.70   17.80
  -8  10   3    8.90   14.50
  -8 -10  -3   24.80   18.40
  -8  10   3   33.30   19.00
  -8  10  -3    0.20   12.50
  -8 -10   3   -0.80   13.20
   8  10   3   24.00   16.70
  -8  10   4   -7.50   14.00
  -8 -10  -4   42.10   24.70
  -8 -10   4   20.10   17.20
   8  10   4   10.40   19.50
  -9 -10   0   -2.20   13.20
   9  10   0    3.90   12.00
  -9  10   0   -7.50   11.60
  -9 -10  -1   -6.10   13.30
  -9  10   1   30.90   18.10
   9  10   1    7.30   13.80
  -9  10  -1   -0.10   13.00
  -9 -10   1   -6.60   10.60
  -9  10   2    7.10   12.40
  -9  10   2  -15.60   14.30
  -9 -10  -2    2.20   15.50
  -9  10  -2   -2.60   12.80
  -9 -10   2   -0.10   13.20
   9  10   2   -0.70   13.80
  -9 -10  -3   24.90   18.60
  -9  10   3    5.80   12.70
  -9  10   3    5.40   19.00
   9  10   3    5.50   15.00
  -9 -10   3    7.20   13.50
  -9  10  -3    5.40   14.20
  -9  10   4    1.00   15.30
  -9 -10  -4    3.40   19.00
   9  10   4    0.50   16.30
  -9  10  -4   14.50   18.80
  -9 -10   4   -1.00   17.70
 -10 -10   0   71.79   23.30
 -10  10   0   66.59   21.00
  10  10   0   58.49   18.40
 -10 -10  -1   30.20   17.50
 -10  10   1   40.70   18.30
 -10  10  -1    6.10   14.90
 -10 -10   1   28.40   17.30
  10  10   1   42.20   18.20
 -10 -10  -2   52.59   21.50
 -10  10   2   49.20   17.30
 -10  10   2   49.00   21.70
  10  10   2   68.39   22.20
 -10 -10   2   48.70   19.00
 -10  10  -2   25.90   16.10
 -10  10   3   13.00   15.40
 -10 -10  -3   39.60   21.90
  10  10   3   59.99   23.00
 -10  10  -3   18.30   17.10
 -10 -10   3   36.00   18.40
 -11  10   0   73.69   24.00
  11  10   0   99.69   23.30
 -11 -10   0   86.89   24.10
 -11 -10  -1   49.20   21.90
 -11  10   1   27.30   18.30
 -11 -10   1   74.29   22.70
  11  10   1   38.20   19.20
 -11  10  -1   60.59   21.20
 -11 -10  -2   72.29   24.30
 -11  10   2  110.29   27.60
 -11  10  -2   53.29   22.50
  11  10   2   53.19   22.90
 -11 -10   2  110.19   25.20
 -11 -10  -3   32.90   23.40
 -11  10   3   50.69   20.20
 -11  10  -3   39.50   20.20
 -11 -10   3   83.59   25.60
  11  10   3   71.39   27.20
  12  10   0   17.50   13.80
 -12 -10   0   27.40   18.10
 -12  10   0   38.30   20.90
 -12 -10  -1   51.19   23.00
 -12  10   1   46.40   21.10
 -12 -10   1   70.49   22.40
  12  10   1   29.60   19.20
 -12  10  -1   29.60   19.10
 -12  10   2   36.20   22.60
 -12 -10  -2   19.00   22.30
  12  10   2    8.50   17.90
 -12  10  -2   29.10   20.20
 -12 -10   2   35.40   19.20
 -12  10   3   47.80   21.90
 -12 -10  -3   25.30   23.50
 -12  10  -3    3.10   18.30
 -12 -10   3   34.80   20.80
  12  10   3   40.80   22.00
  13  10   0  462.15   67.09
 -13 -10   0  341.57   44.90
 -13  10   0  488.55   53.69
 -13 -10  -1   14.20   20.90
 -13  10   1    1.00   19.00
 -13  10  -1   11.50   17.00
 -13 -10   1    1.40   15.10
  13  10   1   -0.20   16.50
 -13  10   2  298.57   45.20
 -13 -10  -2  333.07   47.70
  13  10   2  322.37   44.70
 -13 -10   2  288.07   41.30
 -13  10  -2  389.96   48.10
 -14 -10   0   24.70   19.00
 -14  10   0   17.40   18.40
 -14 -10  -1   36.00   23.30
 -14  10   1    6.00   17.60
 -14 -10  -1    2.80   18.10
 -14  10  -1    9.00   20.00
  14  10   1   41.80   21.60
 -14 -10   1   14.10   17.50
   0 -11   0   -6.90    8.20
   0  11   0   16.00   12.10
   0  11   1   -4.20    7.30
   0  11   1   -0.10   12.60
   0  11  -1  -10.70    8.80
   0 -11  -1    2.20    8.70
   0 -11  -2    2.60   11.10
   0  11  -2  -11.40    9.90
   0  11   2    5.10   13.60
   0  11   2    1.10   10.70
   0  11   3    6.80   14.20
   0  11   3   -2.60   13.30
   0  11   4   -5.40   13.20
   0  11   4   -6.60   12.70
   0  11   5  -17.70   16.50
  -1 -11   0  135.39   19.50
   1 -11   0  202.98   21.10
  -1  11   0  156.78   26.50
   1  11   0  163.58   25.70
  -1  11   1  172.48   22.90
  -1  11   1  141.29   25.10
  -1 -11  -1  149.49   22.60
   1  11  -1  194.48   25.40
   1  11   1  142.39   23.10
  -1 -11   1  176.38   20.80
   1 -11  -1  187.38   23.60
   1  11   1  148.79   27.90
  -1  11  -1  200.28   27.40
  -1  11   2   65.89   17.40
   1  11  -2   96.49   18.20
  -1  11   2   93.69   22.80
  -1 -11  -2  100.99   21.60
   1  11   2  101.79   22.00
  -1  11  -2  117.69   22.10
   1  11   2   79.39   21.60
  -1 -11  -3   72.99   21.70
  -1  11   3   97.79   22.80
  -1  11   3   60.29   20.10
   1  11   3  145.49   27.50
   1  11   3  110.59   24.70
  -1  11   4   75.69   22.30
  -1  11   4   26.10   17.40
  -1 -11  -4   48.20   22.40
   1  11   4   72.09   23.20
   1  11   4   58.69   20.40
  -1  11   5   45.60   22.00
  -1 -11  -5   14.90   18.10
   1  11   5   51.39   23.80
   1  11   5   34.30   19.20
   2  11   0  836.62   50.39
  -2 -11   0  844.92   44.10
  -2  11   0  855.11   50.29
   2 -11   0  786.42   37.40
  -2  11   0  787.02   36.60
  -2 -11  -1  481.45   39.40
   2  11  -1  430.36   38.80
  -2  11   1  388.96   32.60
  -2  11   1  397.66   41.80
   2  11   1  381.46   40.70
  -2 -11   1  456.15   30.10
  -2  11  -1  387.46   37.80
   2  11   1  458.35   38.70
   2 -11  -1  457.45   29.90
  -2 -11  -2  685.63   44.30
  -2  11   2  652.03   42.10
   2  11  -2  581.24   36.80
  -2  11   2  682.03   55.29
   2  11   2  607.24   54.89
  -2  11  -2  688.23   42.70
   2  11   2  668.53   54.39
  -2  11   3  330.47   39.10
  -2 -11  -3  295.97   40.50
  -2  11   3  208.78   31.70
   2  11   3  287.67   38.20
   2  11   3  240.88   35.40
  -2  11   4  241.58   36.80
  -2  11   4  440.26   44.90
  -2 -11  -4  250.77   39.80
   2  11   4  382.16   46.60
   2  11   4  303.67   39.90
  -2  11   5  102.59   27.40
  -2 -11  -5   81.79   26.90
   2  11   5   71.39   24.10
   2  11   5  201.28   38.40
  -3 -11   0  247.68   28.30
   3  11   0  245.88   31.40
  -3  11   0  278.47   34.10
   3  11  -1 1134.69   55.19
  -3 -11  -1 1031.30   55.89
  -3  11   1 1070.29   60.99
  -3  11   1 1170.08   51.49
   3  11   1 1057.19   61.79
  -3  11  -1 1121.59   59.39
  -3 -11   1 1118.49   52.49
  -3  11   2  115.09   20.00
  -3  11   2  187.68   30.40
  -3 -11  -2  167.78   27.10
   3  11   2  124.89   25.10
   3  11   2  192.98   30.80
  -3  11  -2  154.58   24.50
  -3 -11   2  136.49   20.20
  -3  11   3  602.44   56.19
  -3  11   3  610.04   50.89
  -3 -11  -3  647.84   57.39
   3  11   3  643.54   55.39
   3  11   3  610.64   56.29
  -3  11  -3  628.24   53.39
  -3 -11  -4  120.59   31.00
  -3  11   4  125.59   26.60
  -3  11   4  112.59   25.50
   3  11   4  101.49   24.60
   3  11   4   65.99   23.30
  -3  11   5  359.56   48.30
  -3 -11  -5  271.17   43.60
   3  11   5  240.58   36.10
   3  11   5  301.77   46.40
  -4  11   0    5.90   12.20
  -4 -11   0   19.30   13.80
   4  11   0   11.80   10.30
   4  11  -1   60.09   16.90
  -4  11   1   38.60   18.40
  -4 -11  -1   21.50   12.90
  -4  11   1   40.70   12.10
   4  11   1   57.99   17.70
  -4 -11   1   93.59   19.20
  -4  11  -1   65.49   19.00
  -4 -11  -2    0.00   11.10
  -4  11   2    0.70   14.70
  -4  11   2   -0.90    8.60
  -4  11  -2    0.20   10.70
   4  11   2   10.40   13.10
  -4 -11   2    5.60   10.90
   4  11   2   -7.40   11.00
  -4  11   3   59.69   22.10
  -4  11   3   46.10   16.70
  -4 -11  -3   56.09   20.00
  -4  11  -3   81.39   20.50
   4  11   3   38.00   20.10
   4  11   3   24.60   16.60
  -4  11   4    6.90   13.20
  -4  11   4    2.20   13.00
  -4 -11  -4    6.00   17.10
   4  11   4    0.80   15.40
   4  11   4    9.60   14.00
  -5  11   0  -10.00   11.70
  -5 -11   0   10.30   12.30
   5  11   0   -1.30   10.30
  -5  11   1    0.40   10.60
  -5 -11  -1  -12.60    9.70
  -5  11   1   31.30   10.40
   5  11  -1   13.30   10.40
  -5 -11   1   34.40   13.70
  -5  11  -1   24.50   15.00
   5  11   1    9.60   11.90
  -5 -11  -2    5.10   12.70
  -5  11   2    7.20   10.00
  -5  11   2    3.70   14.90
   5  11   2   -3.20   10.80
  -5  11  -2   -7.00   11.10
  -5 -11   2   -8.80   11.00
   5  11   2   -7.50   12.10
  -5 -11  -3    4.90   14.80
  -5  11   3    4.90   12.80
  -5  11   3    2.80   15.20
   5  11   3   23.00   17.50
  -5  11  -3    1.50   12.20
   5  11   3    6.40   13.80
  -5 -11  -4    5.80   19.10
  -5  11   4   -0.60   16.00
  -5  11   4   -7.50   12.90
   5  11   4    2.00   15.00
   5  11   4  -12.40   17.30
  -6  11   0   27.70   16.20
   6  11   0   13.80   13.30
  -6 -11   0   57.09   18.20
  -6  11   1   -6.80    7.60
  -6 -11  -1  -11.90   11.90
  -6  11   1   -5.80   10.40
   6  11  -1   -3.50    9.90
   6  11   1    4.20   12.10
  -6 -11   1  -22.00   11.00
  -6  11  -1   11.50   14.50
  -6  11   2    1.80   10.40
  -6 -11  -2   36.70   17.40
  -6  11   2   67.99   21.50
  -6  11  -2   53.19   18.30
   6  11   2   27.80   16.40
  -6 -11   2   38.10   15.00
  -6 -11  -3   12.50   16.80
  -6  11   3    8.30   12.60
  -6  11   3   16.00   16.80
  -6  11  -3    4.80   13.70
   6  11   3    2.80   13.20
  -6 -11   3   16.20   15.90
   6  11   3   -1.80   15.20
  -6 -11  -4   24.30   19.60
  -6  11   4   40.50   18.80
   6  11   4    8.50   17.80
   6  11   4   29.70   19.40
  -7  11   0  117.19   24.40
   7  11   0  114.49   23.90
  -7 -11   0  145.89   25.90
  -7  11   1   53.39   18.70
  -7 -11  -1   27.70   16.20
   7  11  -1    9.80   10.80
  -7 -11   1   17.20   14.00
   7  11   1   36.40   17.40
  -7  11  -1    7.50   14.00
  -7  11   2  129.19   27.60
  -7  11   2   83.79   19.30
  -7 -11  -2  155.08   27.50
  -7  11  -2  122.79   25.00
   7  11   2   73.89   21.80
  -7 -11   2   84.19   20.80
  -7  11   3    5.20   17.60
  -7  11   3   18.80   14.90
  -7 -11  -3   15.50   17.10
  -7  11  -3   12.00   15.80
   7  11   3    6.00   13.40
  -7 -11   3   39.60   17.40
  -7  11   4   41.10   20.40
  -7 -11  -4   48.40   25.80
   7  11   4   72.39   23.60
   7  11   4   53.49   25.00
   8  11   0   37.30   15.50
  -8  11   0   47.80   18.40
  -8 -11   0   13.70   16.50
  -8  11   1  102.89   25.10
  -8 -11  -1   96.39   25.00
   8  11   1   84.89   21.10
  -8  11  -1  126.69   26.40
  -8 -11   1   83.09   21.30
  -8 -11  -2   24.30   16.90
  -8  11   2   31.20   13.70
  -8  11   2    8.30   18.30
   8  11   2   53.29   20.10
  -8 -11   2   26.10   15.40
  -8  11  -2    6.60   13.30
  -8 -11  -3   31.90   19.70
  -8  11   3   46.10   21.80
  -8  11   3   61.99   19.00
  -8 -11   3   43.00   18.50
   8  11   3   54.39   20.50
  -8  11  -3   64.59   21.70
  -8  11   4   25.90   19.00
  -8 -11  -4   21.00   21.20
   8  11   4    6.50   16.80
   9  11   0   43.80   17.10
  -9 -11   0   34.70   17.90
  -9  11   0   37.30   19.70
  -9 -11  -1  371.76   43.60
  -9  11   1  362.66   44.50
  -9  11  -1  382.66   44.30
   9  11   1  346.37   41.80
  -9 -11   1  299.87   36.60
  -9 -11  -2   55.39   21.00
  -9  11   2   27.20   17.20
   9  11   2   43.50   20.50
  -9 -11   2    0.10   13.80
  -9  11  -2   35.70   17.60
  -9  11   3  273.47   35.30
  -9  11   3  203.88   34.50
  -9 -11  -3  236.78   39.60
  -9 -11   3  193.38   31.70
   9  11   3  159.78   32.20
  -9  11  -3  205.18   32.90
  10  11   0  614.64   50.09
 -10 -11   0  571.34   55.09
 -10  11   0  573.14   55.19
 -10 -11  -1  132.99   29.00
 -10  11   1  151.98   30.20
 -10  11  -1  210.28   33.20
 -10 -11   1  198.08   31.70
  10  11   1  184.78   31.90
 -10  11   2  466.25   49.10
 -10 -11  -2  433.86   49.20
  10  11   2  450.85   49.00
 -10 -11   2  367.46   43.10
 -10  11  -2  407.36   45.30
 -10 -11  -3  110.89   29.70
 -10  11   3  108.09   28.10
 -10  11   3  162.28   29.60
 -10 -11   3   99.89   24.40
  10  11   3   88.39   26.40
 -10  11  -3  108.79   25.90
  11  11   0   42.70   19.10
 -11 -11   0   50.69   20.70
 -11  11   0   26.20   18.70
 -11  11   1   26.80   19.10
 -11 -11  -1    4.00   16.50
  11  11   1    7.50   15.50
 -11  11  -1   -2.20   15.70
 -11 -11   1    8.90   14.20
 -11 -11  -2   14.90   17.60
 -11  11   2   -1.10   16.10
 -11  11  -2   51.69   23.60
  11  11   2   41.30   20.60
 -11 -11   2   25.50   18.00
 -11 -11  -3   16.80   20.80
 -11  11  -3    0.80   17.60
 -11 -11   3   -0.20   14.00
  11  11   3   -8.80   15.70
  12  11   0  179.18   29.90
 -12  11   0   90.19   26.60
 -12 -11   0   96.99   27.40
 -12  11   1   14.70   20.50
 -12 -11  -1   10.90   17.40
  12  11   1   26.90   19.10
 -12 -11   1    2.80   13.90
 -12  11  -1   14.00   17.30
 -12 -11  -2   42.10   26.20
 -12  11   2  162.88   34.20
 -12 -11   2  115.69   28.90
  12  11   2  169.98   33.40
 -12  11  -2  122.09   28.40
 -13 -11   0  253.47   39.90
 -13  11   0  187.88   34.10
 -13  11   1   17.90   20.20
 -13 -11  -1   32.20   23.00
 -13 -11   1   28.90   20.50
 -13  11  -1   24.60   20.10
  13  11   1   43.80   22.30
 -14  11   0  109.89   27.90
 -14 -11   0  103.49   26.70
   0  12   0 1665.03   78.09
   0 -12   0 1639.94   67.09
   0  12   1 1455.25   74.49
   0  12   1 1352.36   63.69
   0  12  -1 1346.87   66.19
   0 -12  -1 1411.86   63.29
   0  12   2 1341.77   69.19
   0  12  -2 1415.06   66.29
   0  12   2 1422.76   75.69
   0 -12  -2 1370.26   69.79
   0  12   3  912.31   73.09
   0  12   3 1007.10   59.99
   0 -12  -3  840.52   57.99
   0  12   4  520.15   54.39
   0 -12  -4  649.83   61.09
   0  12   4  592.64   54.69
   1 -12   0  178.48   20.80
   1  12   0  137.19   25.60
  -1 -12   0  103.29   18.80
  -1  12   0  138.19   25.50
  -1  12   1  117.79   25.00
  -1 -12  -1   99.89   19.60
  -1  12   1  118.59   19.70
   1  12  -1  104.99   21.00
   1  12   1   78.79   17.60
   1 -12  -1  160.08   23.00
   1  12   1  150.88   27.60
  -1  12  -1  142.09   25.60
   1  12  -2   97.99   19.70
  -1  12   2   87.09   20.80
  -1 -12  -2   50.29   17.60
  -1  12   2   61.39   22.60
  -1  12  -2  116.39   22.60
   1  12   2   70.49   19.40
   1  12   2   86.39   22.80
   1 -12  -2   99.99   21.70
  -1 -12  -3  114.39   27.30
  -1  12   3   50.19   20.10
  -1  12   3   75.79   22.30
   1  12   3   67.19   21.60
   1  12   3   73.99   22.10
  -1  12   4   37.30   19.70
  -1 -12  -4   44.20   20.90
  -1  12   4   40.10   19.20
   1  12   4   30.10   19.70
   1  12   4   43.20   19.90
  -2 -12   0  514.15   41.00
   2  12   0  551.74   49.90
  -2  12   0  556.64   49.60
  -2 -12  -1   -0.90   10.10
   2  12  -1   31.30   14.90
  -2  12   1   -1.70   12.30
  -2  12   1  -12.90    7.70
   2  12   1   -8.30   12.00
  -2 -12   1   15.50   11.80
  -2  12  -1   -2.50   12.00
   2 -12  -1   15.60   12.00
   2  12   1   -5.10    8.50
  -2 -12  -2  348.97   37.80
  -2  12   2  423.46   40.20
  -2  12   2  347.37   42.30
  -2  12  -2  266.37   31.90
   2  12   2  342.37   38.50
   2  12   2  350.36   43.60
  -2  12   3   13.40   15.10
  -2  12   3   -3.70   13.40
  -2 -12  -3   13.50   16.60
   2  12   3  -12.70   11.00
   2  12   3   21.70   15.30
  -2 -12  -4  199.28   36.90
  -2  12   4  131.59   28.80
  -2  12   4  156.58   31.00
   2  12   4  187.18   33.90
   2  12   4  177.88   35.00
  -3 -12   0   -8.00    9.80
  -3  12   0   -4.50   12.80
   3  12   0   -4.90   12.30
  -3 -12  -1   -0.40   11.20
  -3  12   1    2.60    9.70
  -3  12   1   -4.80   11.90
   3  12  -1    3.20   11.20
   3  12   1   -7.10   12.20
  -3 -12   1    5.20   11.90
   3 -12  -1    3.20   10.30
  -3  12  -1   -3.00   10.70
  -3  12   2    2.50    9.80
  -3 -12  -2    7.30   13.60
  -3  12   2    9.00   14.60
   3  12   2  -12.30   11.30
  -3  12  -2   19.80   14.10
   3  12   2  -32.50   10.70
  -3  12   3   13.20   18.30
  -3  12   3   10.60   13.30
  -3 -12  -3   15.30   15.60
   3  12   3  -10.50   12.50
   3  12   3    9.10   13.70
  -3  12   4   -1.60   18.70
  -3  12   4   14.80   16.90
  -3 -12  -4   -3.50   17.10
   3  12   4   -1.00   13.80
   3  12   4    4.90   17.70
   4  12   0   11.40   13.10
  -4 -12   0   20.20   14.70
  -4  12   0   -4.00   10.30
  -4 -12  -1  155.68   25.60
   4  12  -1  177.48   26.20
  -4  12   1  200.78   23.40
  -4  12   1  176.38   31.10
   4  12   1  193.38   30.60
  -4 -12   1  150.68   25.10
  -4  12  -1  128.79   25.70
  -4  12   2   -3.30    9.70
  -4 -12  -2   12.30   14.00
  -4  12   2    9.60   15.90
  -4  12  -2    7.40   12.90
   4  12   2   -7.30   12.10
   4  12   2    1.20   12.60
  -4 -12  -3  143.09   30.50
  -4  12   3  107.89   27.70
  -4  12   3  106.79   22.00
   4  12   3   98.39   27.70
  -4  12  -3   95.99   20.80
   4  12   3  143.49   29.60
  -4 -12  -4  -25.30   13.00
  -4  12   4    3.70   13.20
  -4  12   4  -19.30   13.00
   4  12   4  -12.60   11.80
   4  12   4   -7.20   14.00
  -5 -12   0   71.99   18.90
   5  12   0   81.29   20.20
  -5  12   0   79.19   22.10
  -5 -12  -1    6.50   12.30
   5  12  -1    8.50   10.80
  -5  12   1    3.60   13.60
   5  12   1   16.10   14.10
  -5  12  -1    7.90   14.20
  -5 -12   1   11.80   12.10
  -5  12   2   53.29   14.60
  -5  12   2   52.39   20.10
  -5 -12  -2   57.19   19.30
  -5  12  -2   25.00   15.10
   5  12   2   30.00   19.50
  -5 -12   2   58.69   16.50
  -5  12   3   17.10   16.10
  -5  12   3   -4.20   12.90
  -5 -12  -3   21.00   18.10
   5  12   3   -2.00   12.60
   5  12   3    7.50   15.70
  -5  12  -3   -0.10   14.60
  -5  12   4   32.20   17.70
  -5 -12  -4   11.80   20.00
  -5  12   4   36.10   20.40
   5  12   4   48.40   22.00
   5  12   4   57.09   25.70
  -6  12   0    3.30   13.40
   6  12   0   10.70   14.50
  -6 -12   0    3.70   14.40
  -6 -12  -1   55.49   19.50
   6  12  -1   34.80   13.80
  -6  12   1   38.40   18.50
  -6  12  -1   20.90   16.00
  -6 -12   1   23.20   15.40
   6  12   1   12.50   14.50
  -6  12   2  -17.20   12.30
  -6 -12  -2   -6.80   11.70
  -6  12   2   -6.70   11.40
  -6 -12   2   21.30   15.00
   6  12   2   26.40   16.50
  -6  12  -2    8.00   14.20
  -6  12   3   11.00   13.60
  -6  12   3   23.40   18.60
  -6 -12  -3   21.90   19.40
  -6  12  -3  -13.00   14.50
   6  12   3   25.60   16.80
   6  12   3   13.10   17.70
  -6 -12  -4   21.70   20.00
  -6  12   4   -7.60   15.40
   6  12   4   10.30   16.00
   6  12   4   -1.70   17.70
  -7 -12   0   10.90   15.00
   7  12   0  -14.20    9.50
  -7  12   0   17.60   15.90
   7  12  -1  166.88   29.40
  -7  12   1  103.89   25.20
  -7 -12  -1  173.78   30.60
  -7 -12   1  106.39   24.00
   7  12   1  153.78   28.30
  -7  12  -1  130.39   26.10
  -7  12   2   25.10   13.10
  -7 -12  -2   13.00   17.10
  -7  12   2  -15.60   13.20
  -7 -12   2    7.80   15.00
  -7  12  -2   21.70   16.10
   7  12   2    7.00   13.90
  -7  12   3  165.88   31.10
  -7  12   3   70.69   20.80
  -7 -12  -3  104.79   28.80
   7  12   3   90.09   23.80
  -7  12  -3   99.99   24.40
  -7  12   4    7.30   18.10
  -7 -12  -4   15.30   21.40
   7  12   4    5.70   20.30
   7  12   4    9.80   16.30
  -8  12   0    8.80   15.10
   8  12   0   -1.20   11.70
  -8 -12   0   21.80   18.20
  -8 -12  -1  166.98   30.20
  -8  12   1  164.48   30.40
  -8 -12   1   85.09   22.60
   8  12   1  175.08   29.90
  -8  12  -1  198.78   33.70
  -8  12   2   29.00   18.30
  -8 -12  -2  -10.20   13.80
  -8 -12   2   30.10   16.00
  -8  12  -2   13.10   16.80
   8  12   2   25.60   16.10
  -8  12   3   89.49   28.20
  -8 -12  -3   54.19   23.40
   8  12   3  111.89   26.20
  -8 -12   3  113.59   26.20
  -8  12  -3   98.29   25.20
  -9  12   0   30.80   18.20
   9  12   0   41.20   16.00
  -9 -12   0   17.50   16.60
  -9 -12  -1  100.69   26.90
  -9  12   1  159.68   32.00
  -9 -12   1  109.59   23.40
   9  12   1  166.98   30.90
  -9  12  -1  123.19   28.10
  -9  12   2   26.30   21.30
  -9 -12  -2   22.40   18.70
   9  12   2   23.70   18.00
  -9  12  -2   46.80   20.70
  -9 -12   2    3.70   14.70
  -9  12   3   57.89   20.60
  -9  12   3   44.80   22.80
  -9 -12  -3  119.99   30.00
  -9 -12   3   85.19   24.80
   9  12   3   48.00   20.70
  -9  12  -3   43.40   20.10
  10  12   0  102.59   23.40
 -10  12   0   78.19   23.70
 -10 -12   0  141.49   28.90
 -10 -12  -1   40.60   20.50
 -10  12   1   85.29   24.80
  10  12   1   81.09   23.30
 -10 -12   1   59.19   21.00
 -10  12  -1   61.39   21.40
 -10 -12  -2   88.79   27.80
 -10  12   2  163.48   32.60
 -10  12  -2   69.99   23.80
 -10 -12   2   95.29   22.80
  10  12   2   69.09   24.10
 -10  12   3   43.10   23.30
 -10 -12  -3   59.69   26.30
 -10 -12   3   29.20   21.10
  10  12   3   42.70   22.20
 -10  12  -3   93.39   25.90
 -11  12   0   41.90   20.70
  11  12   0   41.90   20.20
 -11 -12   0   57.19   23.90
 -11  12   1   17.60   19.90
 -11 -12  -1   -3.00   16.00
  11  12   1  -17.70   13.40
 -11  12  -1  -13.50   13.80
 -11 -12   1    2.20   14.40
 -11  12   2   71.69   25.40
 -11 -12  -2   30.40   21.10
  11  12   2   42.00   21.50
 -11  12  -2    9.40   18.80
 -11 -12   2   31.90   19.30
 -12  12   0  330.97   46.00
 -12 -12   0  365.36   47.10
 -12  12   1  640.34   63.19
 -12 -12  -1  745.03   68.59
 -12 -12   1  557.44   56.29
 -12  12  -1  600.34   57.79
  12  12   1  636.64   61.39
 -12  12   2  235.18   40.10
 -12 -12  -2  168.98   34.70
  12  12   2  263.57   40.80
 -12  12  -2  169.08   35.10
 -12 -12   2  208.48   34.50
 -13  12   0    6.10   17.30
 -13 -12   0   17.20   17.30
 -13  12   1  129.69   31.00
 -13 -12  -1  124.09   32.80
 -13 -12   1  138.99   30.50
  13  12   1  287.07   43.10
   0  13   0   11.40   15.10
   0  13   1    9.90   13.40
   0  13  -1    8.00   12.80
   0 -13  -1   -1.20   11.40
   0  13   1    0.30   10.00
   0 -13  -2    0.10   11.50
   0  13   2   -4.90   10.40
   0  13  -2  -10.00   11.10
   0  13   2  -10.80   10.80
   0 -13  -3   -9.80   13.90
   0  13   3   17.80   18.60
   0  13   3   29.20   16.70
   0  13   4    2.70   16.00
   0 -13  -4   -0.10   18.60
   0  13   4    0.30   14.00
  -1  13   0   28.20   17.10
  -1 -13   0   48.40   15.80
   1  13   0   18.10   15.40
  -1 -13  -1   79.89   20.00
   1  13  -1   78.59   19.60
  -1  13   1   93.49   18.00
  -1  13   1   71.69   23.40
   1  13   1   46.90   15.40
   1  13   1   64.09   21.00
   1 -13  -1   66.49   16.60
  -1  13  -1   84.59   21.10
  -1  13   2   38.20   20.20
  -1 -13  -2   18.40   15.70
  -1  13   2   21.20   13.90
   1  13  -2    9.00   15.30
   1  13   2   33.80   16.60
  -1  13  -2   30.70   16.40
   1 -13  -2   25.40   15.40
   1  13   2   -5.80   12.00
  -1  13   3   78.29   22.30
  -1 -13  -3   51.79   22.70
  -1  13   3   32.90   20.50
   1  13   3   19.00   18.30
   1 -13  -3   45.90   20.40
   1  13   3   54.79   20.50
  -1 -13  -4    2.70   17.60
  -1  13   4    3.90   15.80
  -1  13   4   42.40   20.90
   1  13   4   21.00   17.90
   1  13   4   -3.30   16.30
   2  13   0  159.88   27.90
  -2 -13   0  161.98   24.60
  -2  13   0  196.18   30.70
  -2  13   1  520.15   34.90
   2  13  -1  526.65   46.30
  -2 -13  -1  523.65   44.40
  -2  13   1  484.65   50.69
  -2  13  -1  555.84   48.70
   2  13   1  485.45   49.90
   2 -13  -1  471.55   38.60
  -2  13   2  153.88   26.20
  -2  13   2  125.39   28.00
  -2 -13  -2   68.69   20.80
   2  13   2  116.69   25.40
   2 -13  -2  116.19   24.00
  -2  13  -2  112.29   23.10
   2  13   2  163.58   31.90
  -2 -13  -3  383.26   46.50
  -2  13   3  288.77   40.00
  -2  13   3  309.77   39.10
   2  13   3  270.47   40.20
   2  13   3  291.07   40.60
  -2 -13  -4  102.59   29.80
  -2  13   4   80.69   23.40
  -2  13   4   71.49   24.40
   2  13   4   56.39   22.60
   2  13   4   59.59   24.00
  -3 -13   0  293.67   34.40
  -3  13   0  226.98   34.00
   3  13   0  229.58   33.40
  -3  13   1  113.59   26.30
  -3 -13  -1  118.89   23.30
   3  13  -1  129.29   23.60
  -3  13   1  127.79   19.70
   3  13   1  148.79   29.90
  -3  13  -1  127.29   25.30
  -3 -13   1  143.29   22.20
  -3  13   2  128.69   29.70
  -3 -13  -2  199.98   29.90
  -3  13   2  166.28   25.80
   3  13   2  171.28   31.30
   3  13   2  160.58   28.00
  -3  13  -2  204.18   30.70
  -3  13   3   95.39   23.10
  -3  13   3   88.59   25.30
  -3 -13  -3  105.29   26.40
   3  13   3   98.29   27.20
   3  13   3   50.79   20.70
  -3 -13  -4   59.69   27.10
  -3  13   4   96.49   24.60
  -3  13   4  100.39   27.30
   3  13   4   43.80   24.70
   3  13   4  148.59   31.30
  -4 -13   0  471.15   41.70
   4  13   0  513.15   48.80
  -4  13   0  480.95   49.70
  -4  13   1 1658.03   83.69
  -4 -13  -1 1670.23   78.09
   4  13  -1 1665.73   76.99
   4  13   1 1511.55   80.59
  -4  13  -1 1664.73   80.09
  -4 -13   1 1632.84   73.29
  -4 -13  -2  423.86   45.40
  -4  13   2  393.36   38.70
  -4  13   2  326.57   41.90
   4  13   2  335.77   41.00
  -4  13  -2  418.96   44.70
   4  13   2  333.67   43.50
  -4  13   3 1172.28   73.89
  -4 -13  -3 1156.58   71.89
  -4  13   3 1043.70   64.09
   4  13   3 1110.39   71.49
   4  13   3 1326.97   75.49
  -4 -13  -4  283.47   44.80
  -4  13   4  218.18   37.90
  -4  13   4  236.78   37.50
   4  13   4  215.98   42.20
   4  13   4  176.18   34.00
  -5  13   0   16.30   14.50
  -5 -13   0  -25.50   12.30
   5  13   0    8.30   15.30
  -5 -13  -1   99.19   22.70
   5  13  -1  160.58   26.60
  -5  13   1  102.59   24.20
  -5 -13   1  139.19   25.20
  -5  13  -1  175.08   31.10
   5  13   1   95.49   24.10
  -5  13   2   -8.70   14.90
  -5  13   2  -14.00   10.30
  -5 -13  -2   -9.90   12.20
   5  13   2   12.70   16.70
  -5  13  -2   10.80   17.00
  -5 -13  -3   75.09   25.50
  -5  13   3  111.29   28.20
  -5  13   3   97.49   21.80
   5  13   3   82.19   25.60
  -5  13  -3   97.29   24.20
   5  13   3  109.69   26.20
  -5  13   4    1.70   18.90
  -5 -13  -4  -15.80   15.90
  -5  13   4   24.50   16.60
   5  13   4   16.90   20.60
   5  13   4    8.10   16.50
  -6  13   0   10.90   15.00
  -6 -13   0    1.70   15.10
   6  13   0    3.70   13.50
  -6 -13  -1   49.40   19.10
  -6  13   1   65.49   23.00
   6  13  -1   71.29   18.30
  -6 -13   1   18.40   14.20
  -6  13  -1   42.20   22.20
   6  13   1   27.20   17.20
  -6 -13  -2    0.50   13.10
  -6  13   2    6.10   15.30
   6  13   2    4.70   15.10
  -6  13  -2   -2.40   13.70
  -6 -13   2   16.80   14.80
  -6  13   3   19.90   18.50
  -6  13   3   50.79   16.20
  -6 -13  -3   32.10   20.90
   6  13   3   27.40   18.30
  -6  13  -3   50.89   19.80
  -6  13   4   16.30   15.20
  -6 -13  -4  -18.60   17.90
   6  13   4   -7.10   18.80
   6  13   4   -2.60   14.50
  -7 -13   0   48.20   18.90
   7  13   0   16.20   13.10
  -7  13   0    3.60   15.00
  -7 -13  -1   85.69   24.90
  -7  13   1  134.89   28.40
  -7 -13   1  169.08   27.40
  -7  13  -1  214.68   34.80
   7  13   1  125.79   26.90
  -7  13   2   27.60   18.80
  -7 -13  -2   -5.50   14.40
   7  13   2    6.40   14.70
  -7  13  -2   20.60   16.80
  -7 -13   2   10.10   15.90
  -7  13   3  104.19   29.80
  -7 -13  -3   41.50   21.30
  -7  13   3   80.19   21.10
  -7  13  -3   99.59   25.80
   7  13   3   62.29   22.80
   8  13   0   13.30   15.40
  -8 -13   0   75.99   23.10
  -8  13   0   25.90   19.80
  -8  13   1 1462.35   81.49
  -8 -13  -1 1592.74   81.49
   8  13   1 1502.45   80.29
  -8  13  -1 1607.94   82.49
  -8 -13   1 1597.14   78.99
  -8 -13  -2   59.39   23.70
  -8  13   2   59.29   24.30
   8  13   2   31.40   19.40
  -8  13  -2   62.29   21.90
  -8 -13   2   70.89   20.20
  -8  13   3 1079.29   69.19
  -8  13   3 1154.58   72.99
  -8 -13  -3 1041.80   84.69
  -8  13  -3 1016.60   66.49
   8  13   3 1049.70   70.89
   9  13   0   87.59   21.20
  -9  13   0  121.79   29.40
  -9 -13   0  130.09   28.20
  -9  13   1   20.50   19.60
  -9 -13  -1   77.59   27.40
  -9 -13   1   54.39   21.60
  -9  13  -1   36.20   21.10
   9  13   1   36.90   20.60
  -9 -13  -2   89.99   27.60
  -9  13   2   56.79   23.80
  -9 -13   2   55.29   19.50
   9  13   2   89.49   24.70
  -9  13  -2  127.29   28.50
  -9  13   3   57.39   24.60
  -9 -13  -3   30.10   23.00
   9  13   3   34.40   21.50
  -9  13  -3   38.80   19.90
 -10 -13   0   -6.40   14.60
  10  13   0  -14.90   12.20
 -10  13   0   10.30   17.40
 -10  13   1   56.89   24.00
 -10 -13  -1   26.60   20.20
 -10  13  -1   73.59   25.20
 -10 -13   1   75.69   23.90
  10  13   1  111.79   25.90
 -10  13   2   15.20   20.80
 -10 -13  -2  -13.80   15.90
  10  13   2   26.30   20.90
 -10  13  -2   14.20   17.90
 -10 -13   2    5.10   14.40
 -11 -13   0   25.60   18.60
  11  13   0   18.60   17.40
 -11  13   0   14.90   19.60
 -11 -13  -1    4.10   18.60
 -11  13   1   17.70   21.40
 -11 -13   1   19.40   17.20
  11  13   1   -3.50   13.50
 -11  13  -1    4.50   18.20
 -11  13   2  -19.10   21.70
 -11 -13  -2    8.70   20.50
  11  13   2   26.40   21.10
 -11 -13   2   38.90   18.80
 -11  13  -2   21.80   19.10
 -12  13   0    3.00   18.60
 -12 -13   0   25.70   18.30
 -12 -13  -1   46.80   24.20
 -12  13   1   63.19   27.20
 -12  13  -1    5.10   19.70
  12  13   1    1.30   16.20
 -12 -13   1    8.50   17.30
   0  14   0   83.59   22.70
   0  14  -1  310.87   37.40
   0  14   1  195.88   27.00
   0  14   1  222.58   36.90
   0 -14  -1  264.87   31.20
   0 -14  -2   36.70   17.60
   0  14   2   22.20   16.90
   0  14   2   45.30   19.70
   0  14  -2   17.40   14.80
   0 -14  -3  195.48   34.80
   0  14   3  133.39   30.40
   0  14   3   95.59   25.30
   0  14   4   -2.30   17.20
   0  14   4    7.60   17.90
   0 -14  -4   26.30   22.60
  -1  14   0  140.39   27.40
   1  14   0  175.18   32.00
  -1  14   1   33.90   15.70
  -1 -14  -1    5.20   13.30
   1  14  -1   20.50   16.70
  -1  14   1    4.00   14.80
   1 -14  -1   47.40   16.20
   1  14   1   48.50   20.60
   1  14   1    4.70   11.40
  -1  14  -1   21.30   16.20
  -1 -14  -2  198.88   30.10
  -1  14   2  126.29   31.20
  -1  14   2  145.59   26.40
  -1  14  -2  117.09   25.00
   1  14   2  169.18   30.70
   1  14   2  109.49   27.60
   1 -14  -2  135.49   25.60
  -1  14   3    8.10   18.10
  -1  14   3    1.90   15.50
  -1 -14  -3    0.00   16.80
   1  14   3   15.20   15.80
   1 -14  -3   57.79   24.30
   1  14   3    5.00   16.40
  -1  14   4   98.59   28.10
  -1 -14  -4   61.19   26.90
  -1  14   4   70.99   24.30
   1  14   4  122.49   30.00
   1  14   4   68.19   24.20
   1 -14  -4   77.49   26.50
  -2  14   0   10.30   14.00
   2  14   0   -5.30   12.90
  -2 -14   0  -13.90   13.10
  -2  14   1   25.30   19.20
   2  14  -1   90.99   22.50
  -2 -14  -1   19.70   14.50
  -2  14  -1   29.80   17.00
   2  14   1   51.69   20.70
  -2  14   2  -23.90   10.30
  -2 -14  -2   25.20   16.90
  -2  14   2   32.10   19.70
  -2  14  -2   26.10   16.30
   2  14   2   10.10   17.50
   2 -14  -2   11.20   14.90
   2  14   2    2.30   14.00
  -2 -14  -3   -0.90   16.00
  -2  14   3   26.90   17.90
  -2  14   3   12.90   17.00
   2  14   3   11.20   16.90
   2 -14  -3   22.60   20.60
   2  14   3    3.30   14.80
  -2 -14  -4    1.60   18.80
  -2  14   4   16.10   19.60
  -2  14   4  -26.40   10.60
   2  14   4    3.40   18.00
   2  14   4   18.50   18.60
  -3  14   0   60.69   21.10
   3  14   0   81.89   22.00
  -3 -14   0   49.40   18.90
  -3  14   1    6.90   15.90
  -3 -14  -1   16.70   16.20
   3  14  -1    7.50   14.00
  -3  14  -1   16.70   17.10
   3  14   1   12.20   17.30
  -3  14   2   49.50   20.80
  -3  14   2   45.70   17.40
  -3 -14  -2   51.29   19.40
   3 -14  -2   63.09   19.50
   3  14   2   73.09   22.20
   3  14   2   63.89   22.10
  -3  14  -2   70.59   21.00
  -3  14   3    4.40   13.40
  -3  14   3   37.00   21.30
  -3 -14  -3   36.10   20.00
   3  14   3   10.30   16.40
   3  14   3   14.90   16.60
  -3  14   4   29.30   19.30
  -3 -14  -4   34.30   23.00
  -3  14   4   53.69   24.60
   3  14   4   31.10   21.10
   3  14   4   33.20   22.90
  -4  14   0  277.17   38.70
   4  14   0  357.76   42.80
  -4 -14   0  294.87   35.00
   4  14  -1  274.97   34.30
  -4  14   1  205.38   35.00
  -4 -14  -1  351.76   39.80
  -4  14  -1  322.67   40.70
   4  14   1  294.77   39.30
  -4  14   2  265.77   32.50
  -4 -14  -2  163.08   31.00
  -4  14   2  203.48   36.50
  -4  14  -2  218.48   31.70
   4  14   2  248.68   38.80
  -4 -14  -3  122.69   29.10
  -4  14   3  244.18   40.20
  -4  14   3  129.59   26.20
   4  14   3  123.69   29.60
   4  14   3  211.88   36.80
  -4  14   4  136.59   32.70
  -4 -14  -4   96.49   30.90
  -4  14   4  140.39   30.30
   4  14   4   96.19   27.50
   4  14   4  143.09   34.30
  -5  14   0  340.17   43.00
  -5 -14   0  319.07   38.90
   5  14   0  397.76   43.90
   5  14  -1    1.60   12.80
  -5  14   1    9.30   16.10
  -5 -14  -1  -12.90   14.30
  -5 -14   1   -8.30   12.90
   5  14   1   -3.30   13.70
  -5  14  -1   -0.60   14.60
  -5 -14  -2  253.07   38.00
  -5  14   2  276.87   40.00
  -5  14  -2  301.77   39.70
   5  14   2  370.56   47.40
  -5  14   3  -10.70   12.90
  -5 -14  -3    2.20   17.10
  -5  14   3   -9.20   17.90
   5  14   3   18.90   17.90
   5  14   3    3.50   17.00
  -6 -14   0  412.26   44.10
  -6  14   0  391.86   46.80
   6  14   0  431.86   46.30
  -6 -14  -1  131.89   28.90
  -6  14   1  111.89   27.60
   6  14   1  114.89   27.60
  -6 -14   1  118.09   24.00
  -6  14  -1  103.89   26.60
  -6  14   2  316.27   44.00
  -6 -14  -2  318.27   41.40
   6  14   2  299.97   43.10
  -6  14  -2  326.77   41.80
  -6  14   3   38.70   24.50
  -6 -14  -3   97.29   29.00
  -6  14   3   62.59   20.10
  -6  14  -3   71.39   24.70
   6  14   3   64.19   26.40
   7  14   0  110.69   24.00
  -7 -14   0   96.59   25.70
  -7  14   0   75.39   24.10
  -7 -14  -1  212.68   33.80
  -7  14   1  175.78   34.10
   7  14   1  138.09   29.20
  -7 -14   1  139.49   28.10
  -7  14  -1  153.18   32.60
  -7 -14  -2   79.99   25.00
  -7  14   2   57.39   24.80
  -7  14  -2   77.19   24.50
   7  14   2   70.99   25.00
  -7  14   3  133.99   33.20
  -7 -14  -3   73.99   26.30
   7  14   3  117.89   31.60
  -7  14  -3  137.79   30.50
  -8  14   0   34.90   21.70
   8  14   0   24.80   16.90
  -8 -14   0   16.90   17.20
  -8 -14  -1  294.77   40.00
  -8  14   1  267.37   41.00
  -8  14  -1  312.27   43.50
  -8 -14   1  256.47   34.00
   8  14   1  285.37   39.80
  -8 -14  -2   41.40   22.10
  -8  14   2   17.30   19.20
  -8 -14   2   28.90   17.70
   8  14   2   20.40   20.20
  -8  14  -2   39.80   19.10
  -8  14   3  165.88   34.90
  -8 -14  -3  100.29   30.10
  -8  14  -3   93.09   24.30
   8  14   3  159.88   33.80
  -9  14   0   37.80   22.40
  -9 -14   0   22.30   18.50
   9  14   0   13.60   14.00
  -9  14   1   11.80   14.90
  -9 -14  -1   -0.20   17.20
  -9  14  -1   24.30   20.40
  -9 -14   1    6.70   15.50
   9  14   1   15.10   18.60
  -9 -14  -2    2.70   17.70
  -9  14   2   42.20   25.80
  -9 -14   2   21.30   16.90
  -9  14  -2   27.50   19.30
   9  14   2   24.80   18.50
 -10 -14   0   37.10   23.80
 -10  14   0   13.80   21.50
  10  14   0   11.70   17.50
 -10 -14  -1   -5.90   17.40
 -10  14   1  -13.20   14.60
 -10  14  -1   24.90   21.50
  10  14   1   12.60   17.10
 -10 -14   1   17.20   18.50
 -10  14   2    7.50   20.10
 -10 -14  -2  -16.90   15.30
 -10 -14   2    2.40   15.90
  10  14   2   15.30   22.50
 -10  14  -2   34.80   23.40
 -11  14   0   72.49   27.50
 -11 -14   0   56.29   26.30
 -11 -14  -1   28.90   23.50
 -11  14   1   19.30   18.90
 -11 -14   1   17.30   18.80
 -11  14  -1   44.30   22.40
  11  14   1   23.60   19.40
   0  15   0    7.20   16.20
   0  15   1    8.90   13.30
   0  15   1   21.10   17.80
   0  15  -1   -0.60   14.00
   0 -15  -2   19.60   16.90
   0  15   2    1.60   15.20
   0  15   2    0.70   15.60
   0  15   3   -4.40   16.80
   0  15   3  -14.80   13.90
   0 -15  -3   10.40   18.50
   0 -15  -4   14.30   19.20
   0  15   4   -2.20   16.00
   0  15   4   19.70   21.30
  -1  15   0   30.20   18.80
   1  15   0   64.99   22.40
  -1 -15  -1   50.39   19.70
   1  15  -1   77.69   20.50
  -1  15   1   40.10   20.10
  -1  15  -1   63.69   22.00
   1  15   1   54.49   22.00
  -1  15   2   27.60   16.50
  -1 -15  -2   43.50   18.80
  -1  15   2   20.80   18.00
   1  15   2   35.40   19.20
  -1  15  -2   32.60   16.80
   1  15   2   16.30   18.50
   1 -15  -2   50.59   18.20
  -1  15   3   43.70   21.00
  -1  15   3   48.00   22.30
  -1 -15  -3   42.10   22.10
   1 -15  -3   56.19   24.40
   1  15   3   39.60   19.70
   1  15   3   23.30   19.70
  -1  15   4   18.90   18.60
  -1  15   4    6.40   18.30
  -1 -15  -4   42.60   24.50
   1  15   4    2.50   20.60
   1 -15  -4   65.19   26.80
   1  15   4   32.40   22.30
   2  15   0  591.44   55.39
  -2  15   0  584.24   56.39
   2  15  -1  136.69   28.20
  -2  15   1  133.19   31.10
  -2 -15  -1   98.09   21.70
  -2  15  -1  143.49   28.90
   2  15   1   89.69   24.70
  -2  15   2  499.25   47.00
  -2  15   2  426.56   53.39
  -2 -15  -2  545.35   51.09
   2  15   2  448.56   55.19
   2 -15  -2  485.25   46.90
   2  15   2  448.86   47.30
  -2 -15  -3  102.89   29.00
  -2  15   3   87.49   28.10
  -2  15   3  146.29   29.10
   2  15   3  121.29   31.90
   2 -15  -3  103.89   29.70
   2  15   3   92.19   26.70
   3  15   0  585.14   55.19
  -3 -15   0  586.44   53.89
  -3  15   0  423.76   49.00
   3  15  -1    2.80   15.00
  -3  15   1   -5.30   13.40
  -3 -15  -1   11.50   14.40
   3  15   1   -7.10   15.20
  -3  15  -1   -1.50   15.50
  -3  15   2  397.06   49.20
  -3 -15  -2  422.46   46.90
   3  15   2  366.36   48.40
  -3  15  -2  490.75   49.90
   3  15   2  412.66   45.50
  -3  15   3    2.20   19.60
  -3  15   3   -9.10   14.20
  -3 -15  -3  -10.50   15.00
   3  15   3  -15.10   13.30
   3  15   3    9.40   17.60
   3 -15  -3    5.90   17.50
  -4 -15   0   37.20   17.70
   4  15   0   84.29   22.50
  -4  15   0   54.29   21.90
  -4 -15  -1  195.58   31.50
   4  15  -1  151.28   27.40
  -4  15   1  155.18   31.90
  -4  15  -1  152.98   31.30
   4  15   1  152.28   31.20
  -4  15   2   57.49   24.50
  -4 -15  -2   78.29   24.10
  -4  15  -2   62.79   22.50
   4  15   2   64.09   24.60
  -4  15   3  117.09   32.00
  -4  15   3  131.49   28.60
  -4 -15  -3  102.09   29.00
   4  15   3   61.89   24.70
   4  15   3   88.09   27.20
  -5  15   0  -13.70   13.50
   5  15   0  -21.70   14.60
  -5 -15   0   16.80   17.20
  -5  15   1   10.40   17.00
  -5 -15  -1    1.50   15.20
   5  15   1  -15.50   13.10
  -5  15  -1   15.50   15.90
  -5  15   2   18.30   17.20
  -5 -15  -2   -7.70   14.90
  -5  15  -2    2.80   18.30
   5  15   2   -0.50   15.90
  -5 -15  -3    3.50   17.70
  -5  15   3    0.60   18.50
   5  15   3    0.20   15.90
  -6 -15   0  -22.20   14.70
   6  15   0    2.20   15.40
  -6  15   0   32.90   19.30
  -6  15   1   55.59   23.00
  -6 -15  -1   30.00   19.30
  -6  15  -1   35.30   20.50
   6  15   1   35.00   20.70
  -6 -15  -2  -21.40   14.80
  -6  15   2   31.30   19.70
  -6  15  -2    4.50   19.50
   6  15   2    1.30   15.40
  -6 -15  -3   49.40   24.50
  -6  15   3   -1.70   17.70
   6  15   3    7.60   18.50
  -7  15   0   -8.30   14.10
  -7 -15   0  -25.40   14.70
   7  15   0    0.90   15.10
  -7 -15  -1    9.80   18.20
  -7  15   1   20.50   19.00
  -7  15  -1   22.90   19.90
   7  15   1   14.70   17.10
  -7 -15   1   23.60   18.50
  -7 -15  -2  -19.30   14.70
  -7  15   2    0.20   17.20
   7  15   2   15.90   17.80
  -7  15  -2   10.90   18.90
  -7  15   3   31.30   24.40
  -7 -15  -3   -6.00   16.80
  -7  15  -3   29.30   21.10
   7  15   3   -6.70   17.10
   8  15   0   21.40   16.70
  -8  15   0   32.90   21.60
  -8 -15   0   43.20   21.00
  -8  15   1   99.69   29.40
  -8 -15  -1   69.59   25.70
  -8  15  -1   75.99   27.80
   8  15   1   59.69   21.70
  -8 -15   1   45.70   19.60
  -8 -15  -2   16.10   19.30
  -8  15   2   14.10   20.00
   8  15   2   44.20   22.20
  -8  15  -2   18.70   20.50
  -9 -15   0  296.97   42.50
  -9  15   0  151.88   33.80
  -9  15   1   47.80   25.00
  -9 -15  -1   26.30   20.80
  -9 -15   1   21.10   18.80
   9  15   1   23.40   19.30
  -9  15  -1   13.40   21.70
  -9 -15  -2  160.98   35.80
  -9  15   2  151.48   34.30
   9  15   2  211.78   37.70
  -9  15  -2   99.59   29.30
 -10 -15   0  580.34   58.79
 -10  15   0  655.83   67.29
 -10  15   1   44.60   24.30
 -10 -15  -1   22.60   21.00
 -10 -15   1   12.40   20.20
 -10  15  -1   21.40   20.30
  10  15   1   23.30   20.90
   0  16   0   -0.50   14.80
   0  16  -1 1632.54   81.09
   0  16   1 1494.55   87.19
   0  16   2    7.40   17.60
   0 -16  -2    5.70   14.30
   0  16   2   -4.90   14.00
   0  16   3 1152.68   71.09
   0  16   3 1192.68   79.99
   0 -16  -3 1211.28   75.59
   1  16   0  361.16   46.10
  -1  16   0  356.86   46.70
   1  16  -1  355.26   44.10
  -1  16   1  257.07   40.90
   1  16   1  316.47   43.80
  -1  16  -1  338.67   41.30
  -1 -16  -2  174.48   31.00
  -1  16   2  224.18   36.70
  -1  16   2  252.37   41.00
   1  16   2  326.77   47.60
   1  16   2  229.88   34.40
  -1 -16  -3  199.88   38.20
  -1  16   3  228.38   42.00
  -1  16   3  254.07   37.10
   1  16   3  251.37   41.80
   1 -16  -3  255.27   40.60
   1  16   3  144.19   34.50
   2  16   0  151.38   31.40
  -2  16   0  172.08   32.80
  -2  16   1   96.29   26.80
   2  16  -1  109.69   26.40
  -2 -16  -1  101.89   24.60
  -2  16  -1  102.39   25.80
   2  16   1  100.59   28.20
  -2 -16  -2   86.09   25.40
  -2  16   2   99.49   30.30
  -2  16  -2  108.69   27.20
   2  16   2  120.99   30.40
   2  16   2  102.89   25.80
  -2  16   3   56.99   26.30
  -2 -16  -3   28.50   20.80
  -2  16   3   38.40   20.60
   2  16   3   65.09   26.70
   2 -16  -3  115.79   31.00
   2  16   3   87.19   26.20
  -3  16   0   22.00   18.60
   3  16   0  -14.60   13.50
   3  16  -1   36.90   17.90
  -3 -16  -1   12.20   15.20
  -3  16   1  -18.10   14.40
   3  16   1   -5.20   13.30
  -3  16  -1   20.50   18.90
  -3  16   2   10.30   18.30
  -3 -16  -2   13.00   17.80
  -3  16  -2    2.80   16.10
   3  16   2  -11.50   17.10
  -3 -16  -3    5.60   17.70
  -3  16   3   29.10   18.80
  -3  16   3   10.30   18.30
   3 -16  -3   16.60   20.70
   3  16   3    6.60   18.60
   3  16   3   18.40   19.20
   4  16   0   -8.80   12.20
  -4  16   0   -4.70   18.40
  -4  16   1   32.80   19.40
  -4 -16  -1   16.20   20.00
   4  16  -1   -2.00   12.90
  -4  16  -1    5.00   18.90
   4  16   1    0.70   16.70
  -4 -16  -2    3.60   15.50
  -4  16   2  -21.50   13.70
  -4  16  -2   14.80   20.10
   4  16   2    3.20   17.40
  -4 -16  -3    0.50   18.60
  -4  16   3  -12.90   19.60
   4  16   3  -13.80   16.20
   4  16   3   20.10   19.60
  -5  16   0   95.49   28.40
  -5 -16   0  151.68   30.20
   5  16   0  144.99   31.10
  -5  16   1   82.59   25.60
  -5 -16  -1  117.19   27.50
   5  16   1  114.89   29.20
  -5  16  -1   81.59   26.90
  -5  16   2  108.89   30.20
  -5 -16  -2   56.09   24.40
   5  16   2  125.49   31.10
  -5  16  -2  129.89   30.50
  -5 -16  -3   71.69   27.40
  -5  16   3   66.29   29.80
   5  16   3   38.60   24.40
  -6  16   0  370.76   48.50
   6  16   0  362.16   43.70
  -6 -16   0  308.07   41.00
  -6  16   1  106.19   30.30
  -6 -16  -1  152.58   31.80
  -6  16  -1  120.69   29.30
   6  16   1  112.99   29.30
  -6  16   2  311.87   45.00
  -6 -16  -2  217.48   36.90
   6  16   2  259.97   42.50
  -6  16  -2  327.97   43.00
   7  16   0  155.28   30.80
  -7 -16   0  198.28   36.60
  -7  16   0  138.49   33.10
  -7  16   1  117.89   29.90
  -7 -16  -1  183.48   34.20
   7  16   1  142.59   32.20
  -7  16  -1  123.19   30.90
  -7 -16  -2  133.49   32.10
  -7  16   2  133.19   32.70
   7  16   2   95.99   29.10
  -7  16  -2   94.49   29.10
   8  16   0   23.20   16.10
  -8 -16   0   -2.70   18.80
  -8  16   0   15.10   19.90
  -8 -16  -1   -0.10   19.20
  -8  16   1   26.00   21.20
  -8  16  -1  -19.30   19.30
   8  16   1  -13.80   14.80
  -8  16   2   -8.00   18.40
  -8 -16  -2   15.40   20.80
   8  16   2  -11.20   17.80
  -8  16  -2    7.60   20.50
  -9 -16   0   94.29   28.60
  -9  16   0  119.79   31.70
  -9  16   1  -23.70   16.60
  -9 -16  -1    2.60   20.90
  -9  16  -1   -1.00   19.90
   9  16   1  -10.80   18.80
  -9 -16   1   21.30   20.00
   0  17   0   -2.40   16.90
   0  17  -1   13.50   18.60
   0  17   1  -11.00   17.10
   0  17   2  -18.50   13.30
   0 -17  -3    1.90   21.60
   0  17   3  -13.10   18.80
   0  17   3    0.50   18.10
   1  17   0  172.38   33.90
  -1  17   0  167.68   32.80
  -1  17   1   -3.40   16.60
   1  17  -1  -12.30   14.40
   1  17   1  -15.00   15.00
  -1  17  -1   18.70   17.90
  -1 -17  -2  165.08   34.40
  -1  17   2  128.79   31.40
   1  17   2  109.69   26.90
   1  17   2  235.38   43.80
  -1  17   3    4.10   21.00
  -1 -17  -3    0.70   19.80
  -1  17   3  -10.90   15.70
   1 -17  -3   -0.90   18.20
   1  17   3   -1.50   18.20
   1  17   3   -1.40   16.80
  -2  17   0   -5.30   19.10
   2  17   0  -12.40   17.00
  -2  17   1    6.40   17.00
   2  17  -1   16.40   18.40
   2  17   1   -7.90   15.90
  -2  17  -1    6.80   17.20
  -2 -17  -2   -9.00   18.30
  -2  17   2   25.40   21.40
   2  17   2   -5.70   16.30
  -2  17   3  -36.80   16.70
  -2 -17  -3   11.50   21.90
   2  17   3   -1.70   20.40
   2  17   3   -1.20   19.30
   3  17   0   -0.20   17.40
  -3  17   0   12.70   17.30
  -3  17   1    5.60   17.60
   3  17  -1   15.30   19.50
   3  17   1   36.10   21.90
  -3  17  -1   13.10   18.30
  -3  17   2  -12.20   18.40
  -3 -17  -2   -7.00   17.00
   3  17   2   24.90   21.90
  -3  17  -2    2.70   19.20
  -4  17   0  199.58   36.10
   4  17   0  156.38   31.90
  -4 -17  -1  491.65   50.69
  -4  17   1  561.74   60.59
   4  17   1  517.45   57.99
  -4  17  -1  473.95   53.69
  -4 -17  -2  144.49   32.80
  -4  17   2  159.18   34.70
  -4  17  -2  169.68   34.30
   4  17   2  275.87   44.50
   5  17   0  406.96   50.09
  -5  17   0  286.07   43.10
  -5 -17  -1   15.00   22.10
  -5  17   1   39.80   22.50
   5  17   1   49.70   23.90
  -5  17  -1   25.60   20.80
  -5 -17  -2  154.18   32.70
  -5  17   2  243.38   41.60
   5  17   2  181.58   38.00
  -5  17  -2  261.57   42.10
   6  17   0    6.60   17.50
  -6  17   0  -28.80   15.20
  -6  17   1   43.70   22.90
  -6 -17  -1   44.30   24.00
   6  17   1   65.99   26.40
  -6  17  -1   26.20   22.60
  -6  17   2    6.40   20.00
  -6 -17  -2  -20.30   19.50
  -6  17  -2    3.70   20.50
   6  17   2   -9.10   17.30
  -7 -17   0  135.79   33.60
  -7  17   0  190.58   39.30
   7  17   0  204.48   35.40
  -7 -17  -1   76.99   27.60
  -7  17   1   74.09   27.90
   7  17   1   37.40   21.50
  -7  17  -1  107.69   30.30
  -8 -17   0  243.88   41.10
  -8  17   0  118.19   32.00
  -8 -17  -1  248.88   40.80
  -8  17   1  206.78   40.30
   8  17   1  188.98   36.00
   0  18   0   -3.60   17.40
   0  18  -1  100.59   28.10
   0  18   1    4.90   17.60
   0  18   2  -38.90   16.00
  -1  18   0   26.10   22.00
   1  18   0   20.40   19.90
  -1  18   1  100.09   31.70
   1  18  -1  123.89   30.60
  -1  18  -1   71.49   24.10
   1  18   1  110.89   29.80
  -1  18   2   20.40   20.20
   1  18   2   32.20   24.40
   2  18   0   87.29   26.20
  -2  18   0   40.10   22.20
  -2  18   1   50.29   23.90
   2  18  -1   46.60   22.80
  -2  18  -1   66.39   26.30
   2  18   1   96.59   30.70
  -2  18   2   65.09   26.90
   2  18   2   56.39   26.80
  -3  18   0    2.30   17.50
   3  18   0   56.09   25.70
  -3  18   1   49.50   23.20
   3  18   1   45.10   23.60
  -3  18  -1   15.70   19.50
  -3 -18  -2   15.60   18.70
  -3  18   2   39.40   24.50
   3  18   2   30.00   22.90
  -4  18   0   -6.60   18.60
   4  18   0   51.59   24.40
  -4  18   1  312.67   48.70
   4  18   1  233.98   41.20
  -4  18  -1  328.47   47.00
  -4 -18  -2   14.80   22.50
  -4  18   2   60.39   27.60
   4  18   2   13.00   23.00
  -4  18  -2   41.30   24.00
   5  18   0   10.10   19.20
  -5  18   0   29.00   22.30
  -5  18   1  163.68   36.20
  -5  18  -1  217.18   39.80
   5  18   1  233.78   40.70
  -6  18   0  294.37   45.70
   6  18   0  316.57   44.70
  -6  18   1  185.38   37.50
  -6 -18  -1  135.49   32.40
   6  18   1  262.97   45.80
  -6  18  -1  163.48   36.40
   0  19   0   28.70   23.00
   0  19   1   -1.90   17.30
   0  19  -1   33.60   22.40
  -1  19   0  110.59   32.10
   1  19   0  116.89   30.10
  -1  19   1   69.09   26.00
   1  19  -1   40.10   23.00
   1  19   1   90.79   30.30
  -1  19  -1   81.09   27.00
   2  19   0  824.52   75.79
  -2  19   0  751.32   70.59
  -2  19   1  155.18   36.60
  -2  19  -1   58.49   29.60
   2  19   1  161.08   40.10
  -3  19   0  113.79   32.40
   3  19   0  120.19   31.80
  -3  19   1   29.70   22.60
  -3  19  -1   21.60   22.90
   3  19   1  -28.10   16.30
  -4  19   0   41.90   27.00
   4  19   0   68.19   24.60
   0   0   0    0.00    0.00

_computing_structure_solution     'SHELXT 2018/2 (Sheldrick, 2018)'
;
_shelx_hkl_checksum              31020
loop_
_space_group_symop_operation_xyz
'x, y, z'
'-x, -y, z'
'-x+1/2, y+1/2, -z'
'x+1/2, -y+1/2, -z'
'-x, -y, -z'
'x, y, -z'
'x-1/2, -y-1/2, z'
'-x-1/2, y-1/2, z'
loop_
_atom_site_label
_atom_site_type_symbol
_atom_site_fract_x
_atom_site_fract_y
_atom_site_fract_z
_atom_site_U_iso_or_equiv
_atom_site_adp_type
_atom_site_occupancy
_atom_site_site_symmetry_order
_atom_site_calc_flag
_atom_site_refinement_flags_posn
_atom_site_refinement_flags_adp
_atom_site_refinement_flags_occupancy
_atom_site_disorder_assembly
_atom_site_disorder_group
Eu3 Eu 0.000000 0.000000 0.000000 0.0121(2) Uani 1 4 d S T P . .
Eu2 Eu 0.32503(6) 0.01550(5) 0.000000 0.01184(17) Uani 1 2 d S T P . .
Eu1 Eu 0.08525(6) 0.25288(5) 0.000000 0.01118(17) Uani 1 2 d S T P . .
In In 0.32907(9) 0.21603(7) 0.500000 0.0118(2) Uani 1 2 d S T P . .
As3 As 0.33639(13) 0.32473(10) 0.000000 0.0108(3) Uani 1 2 d S T P . .
As2 As 0.15319(12) 0.09873(10) 0.500000 0.0113(3) Uani 1 2 d S T P . .
As1 As 0.02083(12) 0.41053(10) 0.500000 0.0108(3) Uani 1 2 d S T P . .
loop_
_atom_site_aniso_label
_atom_site_aniso_U_11
_atom_site_aniso_U_22
_atom_site_aniso_U_33
_atom_site_aniso_U_23
_atom_site_aniso_U_13
_atom_site_aniso_U_12
Eu3 0.0128(4) 0.0092(5) 0.0142(5) 0.000 0.000 -0.0004(4)
Eu2 0.0132(3) 0.0113(3) 0.0111(3) 0.000 0.000 0.0011(3)
Eu1 0.0120(3) 0.0090(3) 0.0125(4) 0.000 0.000 -0.0004(2)
In 0.0143(4) 0.0104(5) 0.0108(5) 0.000 0.000 -0.0009(4)
As3 0.0116(6) 0.0093(6) 0.0113(7) 0.000 0.000 0.0002(5)
As1 0.0133(7) 0.0078(7) 0.0115(7) 0.000 0.000 -0.0011(5)
As2 0.0126(6) 0.0106(7) 0.0108(7) 0.000 0.000 -0.0014(5)
loop_
_atom_type_symbol
_atom_type_description
_atom_type_scat_dispersion_real
_atom_type_scat_dispersion_imag
_atom_type_scat_source
As As 0.0499 2.0058 'International Tables Vol C Tables 4.2.6.8 and 6.1.1.4'
Eu Eu -0.1578 3.6682 'International Tables Vol C Tables 4.2.6.8 and 6.1.1.4'
In In -0.7276 1.3100 'International Tables Vol C Tables 4.2.6.8 and 6.1.1.4'
loop_
_geom_angle_atom_site_label_1
_geom_angle_atom_site_label_2
_geom_angle_atom_site_label_3
_geom_angle
_geom_angle_site_symmetry_1
_geom_angle_site_symmetry_3
Eu3 Eu3 Eu3 180.0 1_556 1_554
Eu2 Eu3 Eu3 90.0 5 1_554
Eu2 Eu3 Eu3 90.0 5 1_556
Eu2 Eu3 Eu3 90.0 . 1_554
Eu2 Eu3 Eu3 90.0 . 1_556
Eu2 Eu3 Eu2 180.0 5 .
Eu1 Eu3 Eu3 90.0 . 1_556
Eu1 Eu3 Eu3 90.0 . 1_554
Eu1 Eu3 Eu3 90.0 5 1_554
Eu1 Eu3 Eu3 90.0 5 1_556
Eu1 Eu3 Eu2 109.367(16) 5 .
Eu1 Eu3 Eu2 70.633(16) . .
Eu1 Eu3 Eu2 70.632(16) 5 5
Eu1 Eu3 Eu2 109.368(16) . 5
Eu1 Eu3 Eu1 180.0 . 5
As3 Eu3 Eu3 90.0 7_565 1_554
As3 Eu3 Eu3 90.0 3_545 1_554
As3 Eu3 Eu3 90.0 3_545 1_556
As3 Eu3 Eu3 90.0 7_565 1_556
As3 Eu3 Eu2 125.64(3) 7_565 .
As3 Eu3 Eu2 54.36(3) 3_545 .
As3 Eu3 Eu2 54.36(3) 7_565 5
As3 Eu3 Eu2 125.64(3) 3_545 5
As3 Eu3 Eu1 124.99(3) 3_545 .
As3 Eu3 Eu1 124.99(3) 7_565 5
As3 Eu3 Eu1 55.01(3) 7_565 .
As3 Eu3 Eu1 55.01(3) 3_545 5
As3 Eu3 As3 180.00(3) 7_565 3_545
As3 Eu3 As2 88.54(3) 7_565 5
As3 Eu3 As2 91.46(3) 7_565 1_554
As3 Eu3 As2 88.54(3) 3_545 1_554
As3 Eu3 As2 91.46(3) 7_565 .
As3 Eu3 As2 91.46(3) 3_545 5_556
As3 Eu3 As2 91.46(3) 3_545 5
As3 Eu3 As2 88.54(3) 3_545 .
As3 Eu3 As2 88.54(3) 7_565 5_556
As2 Eu3 Eu3 46.258(18) 5 1_554
As2 Eu3 Eu3 46.258(18) 1_554 1_554
As2 Eu3 Eu3 133.742(18) 5 1_556
As2 Eu3 Eu3 46.257(18) . 1_556
As2 Eu3 Eu3 133.743(18) . 1_554
As2 Eu3 Eu3 133.742(19) 5_556 1_554
As2 Eu3 Eu3 133.742(19) 1_554 1_556
As2 Eu3 Eu3 46.258(18) 5_556 1_556
As2 Eu3 Eu2 53.02(2) . .
As2 Eu3 Eu2 126.98(2) . 5
As2 Eu3 Eu2 53.02(2) 1_554 .
As2 Eu3 Eu2 126.98(2) 1_554 5
As2 Eu3 Eu2 126.98(2) 5_556 .
As2 Eu3 Eu2 53.02(2) 5 5
As2 Eu3 Eu2 53.02(2) 5_556 5
As2 Eu3 Eu2 126.98(2) 5 .
As2 Eu3 Eu1 125.23(2) . 5
As2 Eu3 Eu1 54.77(2) 5_556 5
As2 Eu3 Eu1 125.23(2) 5 .
As2 Eu3 Eu1 125.23(2) 5_556 .
As2 Eu3 Eu1 54.77(2) . .
As2 Eu3 Eu1 54.77(2) 5 5
As2 Eu3 Eu1 125.23(2) 1_554 5
As2 Eu3 Eu1 54.77(2) 1_554 .
As2 Eu3 As2 180.0 . 5
As2 Eu3 As2 92.52(4) . 5_556
As2 Eu3 As2 87.48(4) 5 5_556
As2 Eu3 As2 87.48(4) . 1_554
As2 Eu3 As2 180.00(5) 5_556 1_554
As2 Eu3 As2 92.52(4) 5 1_554
Eu3 Eu2 Eu2 170.96(3) . 5_655
Eu1 Eu2 Eu3 103.24(2) 3_545 .
Eu1 Eu2 Eu2 67.73(2) 3_545 5_655
In Eu2 Eu3 93.27(2) . .
In Eu2 Eu3 93.27(2) 1_554 .
In Eu2 Eu2 93.83(3) 1_554 5_655
In Eu2 Eu2 93.83(3) . 5_655
In Eu2 Eu1 138.592(17) 1_554 3_545
In Eu2 Eu1 138.591(18) . 3_545
In Eu2 In 76.38(3) . 1_554
As3 Eu2 Eu3 50.73(3) 3_545 .
As3 Eu2 Eu2 120.23(4) 3_545 5_655
As3 Eu2 Eu1 52.50(3) 3_545 3_545
As3 Eu2 In 130.02(3) 3_545 .
As3 Eu2 In 130.02(3) 3_545 1_554
As3 Eu2 As1 131.02(3) 3_545 7_664
As3 Eu2 As1 131.02(3) 3_545 7_665
As1 Eu2 Eu3 135.35(2) 7_664 .
As1 Eu2 Eu3 123.23(3) 3_546 .
As1 Eu2 Eu3 123.23(3) 3_545 .
As1 Eu2 Eu3 135.35(2) 7_665 .
As1 Eu2 Eu2 51.88(2) 3_546 5_655
As1 Eu2 Eu2 48.64(2) 7_664 5_655
As1 Eu2 Eu2 48.64(2) 7_665 5_655
As1 Eu2 Eu2 51.88(2) 3_545 5_655
As1 Eu2 Eu1 53.33(3) 3_546 3_545
As1 Eu2 Eu1 53.33(3) 3_545 3_545
As1 Eu2 Eu1 95.52(3) 7_664 3_545
As1 Eu2 Eu1 95.52(3) 7_665 3_545
As1 Eu2 In 98.80(3) 7_665 1_554
As1 Eu2 In 98.80(3) 7_664 .
As1 Eu2 In 85.82(3) 3_545 1_554
As1 Eu2 In 49.36(3) 7_664 1_554
As1 Eu2 In 140.37(4) 3_546 1_554
As1 Eu2 In 85.82(3) 3_546 .
As1 Eu2 In 140.37(4) 3_545 .
As1 Eu2 In 49.36(3) 7_665 .
As1 Eu2 As3 88.37(4) 3_546 3_545
As1 Eu2 As3 88.37(4) 3_545 3_545
As1 Eu2 As1 85.96(4) 3_546 3_545
As1 Eu2 As1 100.51(3) 3_545 7_665
As1 Eu2 As1 81.15(4) 7_665 7_664
As1 Eu2 As1 45.22(5) 3_545 7_664
As1 Eu2 As1 45.22(5) 3_546 7_665
As1 Eu2 As1 100.51(3) 3_546 7_664
As1 Eu2 As2 173.43(4) 3_545 .
As1 Eu2 As2 93.76(3) 3_546 .
As1 Eu2 As2 173.43(4) 3_546 1_554
As1 Eu2 As2 93.76(3) 3_545 1_554
As2 Eu2 Eu3 51.83(2) . .
As2 Eu2 Eu3 51.83(2) 1_554 .
As2 Eu2 Eu2 132.23(3) . 5_655
As2 Eu2 Eu2 132.23(3) 1_554 5_655
As2 Eu2 Eu1 121.65(3) 1_554 3_545
As2 Eu2 Eu1 121.65(3) . 3_545
As2 Eu2 In 98.47(3) 1_554 .
As2 Eu2 In 46.04(3) 1_554 1_554
As2 Eu2 In 98.47(3) . 1_554
As2 Eu2 In 46.04(3) . .
As2 Eu2 As3 85.05(4) 1_554 3_545
As2 Eu2 As3 85.05(4) . 3_545
As2 Eu2 As1 83.81(3) . 7_665
As2 Eu2 As1 141.03(4) 1_554 7_665
As2 Eu2 As1 141.03(4) . 7_664
As2 Eu2 As1 83.81(3) 1_554 7_664
As2 Eu2 As2 85.77(4) . 1_554
Eu3 Eu1 Eu2 179.80(3) . 3
Eu3 Eu1 In 83.33(2) . 7_565
Eu3 Eu1 In 95.02(2) . .
Eu3 Eu1 In 83.33(2) . 7_564
Eu3 Eu1 In 95.02(2) . 1_554
In Eu1 Eu2 96.84(2) 7_565 3
In Eu1 Eu2 84.81(2) 1_554 3
In Eu1 Eu2 96.84(2) 7_564 3
In Eu1 Eu2 84.81(2) . 3
In Eu1 In 178.03(2) . 7_564
In Eu1 In 178.03(2) 1_554 7_565
In Eu1 In 70.57(3) 7_564 7_565
In Eu1 In 108.206(13) . 7_565
In Eu1 In 108.206(13) 1_554 7_564
In Eu1 In 72.97(3) . 1_554
As3 Eu1 Eu3 53.91(3) 7_565 .
As3 Eu1 Eu3 124.57(3) . .
As3 Eu1 Eu2 55.23(3) . 3
As3 Eu1 Eu2 126.30(4) 7_565 3
As3 Eu1 In 134.22(2) 7_565 .
As3 Eu1 In 136.99(2) . 7_564
As3 Eu1 In 43.84(2) 7_565 7_564
As3 Eu1 In 134.22(2) 7_565 1_554
As3 Eu1 In 136.99(2) . 7_565
As3 Eu1 In 43.84(2) 7_565 7_565
As3 Eu1 In 44.94(2) . 1_554
As3 Eu1 In 44.94(2) . .
As3 Eu1 As3 178.47(3) . 7_565
As3 Eu1 As1 90.75(4) . .
As3 Eu1 As1 90.36(4) 7_565 .
As3 Eu1 As1 90.75(4) . 1_554
As3 Eu1 As1 90.36(4) 7_565 1_554
As3 Eu1 As2 90.65(4) 7_565 .
As3 Eu1 As2 88.24(4) . .
As3 Eu1 As2 88.24(4) . 1_554
As3 Eu1 As2 90.65(4) 7_565 1_554
As1 Eu1 Eu3 126.25(3) 1_554 .
As1 Eu1 Eu3 126.25(3) . .
As1 Eu1 Eu2 53.86(3) 1_554 3
As1 Eu1 Eu2 53.86(3) . 3
As1 Eu1 In 134.00(4) . 1_554
As1 Eu1 In 134.00(4) 1_554 .
As1 Eu1 In 97.08(3) 1_554 7_565
As1 Eu1 In 97.08(3) . 7_564
As1 Eu1 In 47.95(3) 1_554 7_564
As1 Eu1 In 83.01(3) . .
As1 Eu1 In 47.95(3) . 7_565
As1 Eu1 In 83.01(3) 1_554 1_554
As1 Eu1 As1 86.69(4) . 1_554
As2 Eu1 Eu3 54.75(3) . .
As2 Eu1 Eu3 54.75(3) 1_554 .
As2 Eu1 Eu2 125.14(3) 1_554 3
As2 Eu1 Eu2 125.14(3) . 3
As2 Eu1 In 44.92(3) 1_554 1_554
As2 Eu1 In 96.55(3) . 1_554
As2 Eu1 In 83.39(3) . 7_565
As2 Eu1 In 133.13(4) 1_554 7_565
As2 Eu1 In 83.39(3) 1_554 7_564
As2 Eu1 In 44.92(3) . .
As2 Eu1 In 133.13(4) . 7_564
As2 Eu1 In 96.55(3) 1_554 .
As2 Eu1 As1 92.91(3) . .
As2 Eu1 As1 178.92(4) . 1_554
As2 Eu1 As1 178.92(4) 1_554 .
As2 Eu1 As1 92.91(3) 1_554 1_554
As2 Eu1 As2 87.47(4) 1_554 .
Eu2 In Eu2 76.38(3) 1_556 .
Eu2 In Eu1 74.38(2) . .
Eu2 In Eu1 117.77(3) 1_556 .
Eu2 In Eu1 117.23(3) 1_556 7_665
Eu2 In Eu1 74.38(2) 1_556 1_556
Eu2 In Eu1 117.77(3) . 1_556
Eu2 In Eu1 117.23(3) . 7_666
Eu2 In Eu1 75.13(2) . 7_665
Eu2 In Eu1 75.13(2) 1_556 7_666
Eu1 In Eu1 106.309(13) . 7_665
Eu1 In Eu1 72.97(3) . 1_556
Eu1 In Eu1 70.57(3) 7_666 7_665
Eu1 In Eu1 165.42(3) 1_556 7_665
Eu1 In Eu1 165.42(3) . 7_666
Eu1 In Eu1 106.309(13) 1_556 7_666
As3 In Eu2 86.40(3) . .
As3 In Eu2 162.73(4) . 1_556
As3 In Eu2 86.40(3) 1_556 1_556
As3 In Eu2 162.73(4) 1_556 .
As3 In Eu1 112.60(4) 1_556 7_665
As3 In Eu1 112.60(4) . 7_666
As3 In Eu1 57.17(4) . .
As3 In Eu1 57.17(4) 1_556 1_556
As3 In Eu1 115.89(4) 1_556 .
As3 In Eu1 115.89(4) . 1_556
As3 In Eu1 55.49(4) 1_556 7_666
As3 In Eu1 55.49(4) . 7_665
As3 In As3 110.78(6) 1_556 .
As3 In As1 108.58(4) 1_556 7_665
As3 In As1 108.58(4) . 7_665
As1 In Eu2 62.16(3) 7_665 .
As1 In Eu2 62.16(3) 7_665 1_556
As1 In Eu1 135.49(3) 7_665 .
As1 In Eu1 135.49(3) 7_665 1_556
As1 In Eu1 55.07(3) 7_665 7_666
As1 In Eu1 55.07(3) 7_665 7_665
As2 In Eu2 60.54(3) . 1_556
As2 In Eu2 60.54(3) . .
As2 In Eu1 135.15(3) . 7_665
As2 In Eu1 135.15(3) . 7_666
As2 In Eu1 57.23(3) . .
As2 In Eu1 57.23(3) . 1_556
As2 In As3 111.91(4) . 1_556
As2 In As3 111.91(4) . .
As2 In As1 104.82(5) . 7_665
Eu3 As3 Eu2 74.91(4) 3 3
Eu3 As3 Eu1 147.18(5) 3 .
Eu3 As3 Eu1 71.08(4) 3 7_665
Eu1 As3 Eu2 72.27(4) . 3
Eu1 As3 Eu2 145.99(5) 7_665 3
Eu1 As3 Eu1 141.74(5) . 7_665
In As3 Eu3 117.55(4) 1_554 3
In As3 Eu3 117.55(4) . 3
In As3 Eu2 116.03(4) 1_554 3
In As3 Eu2 116.03(4) . 3
In As3 Eu1 80.68(4) . 7_665
In As3 Eu1 77.88(4) . .
In As3 Eu1 80.68(4) 1_554 7_665
In As3 Eu1 77.88(4) 1_554 .
In As3 In 110.78(6) 1_554 .
Eu2 As1 Eu2 85.96(4) 3_556 3
Eu2 As1 Eu2 79.49(3) 3_556 7_566
Eu2 As1 Eu2 81.15(4) 7_565 7_566
Eu2 As1 Eu2 134.78(5) 3 7_566
Eu2 As1 Eu2 79.49(3) 3 7_565
Eu2 As1 Eu2 134.78(5) 3_556 7_565
Eu1 As1 Eu2 72.82(3) 1_556 3_556
Eu1 As1 Eu2 72.82(3) . 3
Eu1 As1 Eu2 145.45(5) 1_556 7_565
Eu1 As1 Eu2 86.03(2) 1_556 7_566
Eu1 As1 Eu2 145.45(5) . 7_566
Eu1 As1 Eu2 129.83(5) . 3_556
Eu1 As1 Eu2 129.83(5) 1_556 3
Eu1 As1 Eu2 86.03(2) . 7_565
Eu1 As1 Eu1 86.69(4) 1_556 .
In As1 Eu2 137.01(2) 7_565 3_556
In As1 Eu2 68.48(3) 7_565 7_566
In As1 Eu2 137.01(2) 7_565 3
In As1 Eu2 68.48(3) 7_565 7_565
In As1 Eu1 76.98(4) 7_565 .
In As1 Eu1 76.98(4) 7_565 1_556
As1 As1 Eu2 70.62(5) 5_566 3_556
As1 As1 Eu2 70.62(5) 5_566 3
As1 As1 Eu2 64.16(4) 5_566 7_565
As1 As1 Eu2 64.16(4) 5_566 7_566
As1 As1 Eu1 136.06(2) 5_566 .
As1 As1 Eu1 136.06(2) 5_566 1_556
As1 As1 In 116.10(8) 5_566 7_565
Eu3 As2 Eu3 87.49(4) . 1_556
Eu3 As2 Eu2 75.15(2) 1_556 1_556
Eu3 As2 Eu2 75.15(2) . .
Eu3 As2 Eu2 133.22(5) . 1_556
Eu3 As2 Eu2 133.22(5) 1_556 .
Eu3 As2 Eu1 70.48(2) . .
Eu3 As2 Eu1 70.48(2) 1_556 1_556
Eu3 As2 Eu1 128.45(5) . 1_556
Eu3 As2 Eu1 128.45(5) 1_556 .
Eu2 As2 Eu2 85.77(4) 1_556 .
Eu1 As2 Eu2 151.26(5) 1_556 .
Eu1 As2 Eu2 151.26(5) . 1_556
Eu1 As2 Eu2 86.33(2) . .
Eu1 As2 Eu2 86.33(2) 1_556 1_556
Eu1 As2 Eu1 87.47(4) . 1_556
In As2 Eu3 136.249(19) . 1_556
In As2 Eu3 136.249(19) . .
In As2 Eu2 73.42(4) . .
In As2 Eu2 73.42(4) . 1_556
In As2 Eu1 77.85(4) . .
In As2 Eu1 77.84(4) . 1_556
loop_
_geom_bond_atom_site_label_1
_geom_bond_atom_site_label_2
_geom_bond_distance
_geom_bond_site_symmetry_2
Eu3 Eu3 4.3467(7) 1_554
Eu3 Eu3 4.3467(7) 1_556
Eu3 Eu2 3.8644(9) 5
Eu3 Eu2 3.8645(9) .
Eu3 Eu1 3.6277(9) .
Eu3 Eu1 3.6278(9) 5
Eu3 As3 3.0988(15) 3_545
Eu3 As3 3.0988(15) 7_565
Eu3 As2 3.1433(10) 1_554
Eu3 As2 3.1433(10) 5
Eu3 As2 3.1433(10) 5_556
Eu3 As2 3.1433(10) .
Eu2 Eu2 4.1761(15) 5_655
Eu2 Eu1 3.7714(12) 3_545
Eu2 In 3.5153(10) 1_554
Eu2 In 3.5152(10) .
Eu2 As3 3.2526(16) 3_545
Eu2 As1 3.1879(12) 3_545
Eu2 As1 3.1879(12) 3_546
Eu2 As1 3.3414(12) 7_665
Eu2 As1 3.3414(12) 7_664
Eu2 As2 3.1937(12) .
Eu2 As2 3.1937(12) 1_554
Eu1 In 3.6550(11) .
Eu1 In 3.7624(11) 7_564
Eu1 In 3.7624(11) 7_565
Eu1 In 3.6550(11) 1_554
Eu1 As3 3.1418(18) 7_565
Eu1 As3 3.1414(18) .
Eu1 As1 3.1662(12) 1_554
Eu1 As1 3.1662(12) .
Eu1 As2 3.1438(12) .
Eu1 As2 3.1438(12) 1_554
In As3 2.6407(10) 1_556
In As3 2.6407(10) .
In As1 2.8674(17) 7_665
In As2 2.6402(17) .
As1 As1 2.514(3) 5_566
