#------------------------------------------------------------------------------
#$Date: 2021-04-16 11:20:33 +0300 (Fri, 16 Apr 2021) $
#$Revision: 264238 $
#$URL: file:///home/coder/svn-repositories/cod/cif/1/56/18/1561847.cif $
#------------------------------------------------------------------------------
#
# This file is available in the Crystallography Open Database (COD),
# http://www.crystallography.net/
#
# All data on this site have been placed in the public domain by the
# contributors.
#
data_1561847
loop_
_publ_author_name
'Iyer, Abishek K.'
'Rudyk, Brent W.'
'Lin, Xinsong'
'Singh, Harpreet'
'Sharma, Arzoo Z.'
'Wiebe, Christopher R.'
'Mar, Arthur'
_publ_section_title
;
 Noncentrosymmetric rare-earth copper gallium chalcogenides RE3CuGaCh7
 (RE=La--Nd; Ch=S, Se): An unexpected combination
;
_journal_name_full               'Journal of Solid State Chemistry'
_journal_page_first              150
_journal_page_last               159
_journal_paper_doi               10.1016/j.jssc.2015.05.016
_journal_volume                  229
_journal_year                    2015
_chemical_formula_structural     'Pr3 Cu Ga Se7'
_chemical_formula_sum            'Cu Ga Pr3 Se7'
_chemical_formula_weight         1108.71
_chemical_name_common
'praseodymium copper gallium selenide (3/1/1/7)'
_chemical_name_systematic
'praseodymium copper gallium selenide (3/1/1/7)'
_space_group_crystal_system      hexagonal
_space_group_IT_number           173
_space_group_name_Hall           'P 6c'
_space_group_name_H-M_alt        'P 63'
_atom_sites_solution_hydrogens   .
_atom_sites_solution_primary     direct
_atom_sites_solution_secondary   difmap
_audit_creation_method           SHELXL-2013
_cell_angle_alpha                90
_cell_angle_beta                 90
_cell_angle_gamma                120
_cell_formula_units_Z            2
_cell_length_a                   10.4181(8)
_cell_length_b                   10.4181(8)
_cell_length_c                   6.3743(5)
_cell_measurement_reflns_used    6199
_cell_measurement_temperature    296(2)
_cell_measurement_theta_max      29.47
_cell_measurement_theta_min      3.91
_cell_volume                     599.16(8)
_computing_cell_refinement       'Bruker SAINT 8.34A (Bruker, 2013)'
_computing_data_collection       'Bruker APEX 2 (Bruker, 2008)'
_computing_data_reduction        'Bruker SAINT 8.34A'
_computing_molecular_graphics    'ATOMS 5.1 (Dowty, 1999)'
_computing_publication_material  'Bruker SHELXTL'
_computing_structure_refinement  'Bruker SHELXTL'
_computing_structure_solution    'Bruker SHELXTL'
_diffrn_ambient_temperature      296(2)
_diffrn_measured_fraction_theta_full 1.000
_diffrn_measured_fraction_theta_max 1.000
_diffrn_measurement_device_type  'Bruker PLATFORM/SMART APEX II CCD'
_diffrn_measurement_method       '\w and \f scans'
_diffrn_radiation_type           MoK\a
_diffrn_radiation_wavelength     0.71073
_diffrn_reflns_av_R_equivalents  0.0492
_diffrn_reflns_av_unetI/netI     0.0314
_diffrn_reflns_Laue_measured_fraction_full 1.000
_diffrn_reflns_Laue_measured_fraction_max 1.000
_diffrn_reflns_limit_h_max       16
_diffrn_reflns_limit_h_min       -15
_diffrn_reflns_limit_k_max       16
_diffrn_reflns_limit_k_min       -16
_diffrn_reflns_limit_l_max       9
_diffrn_reflns_limit_l_min       -9
_diffrn_reflns_number            8787
_diffrn_reflns_point_group_measured_fraction_full 1.000
_diffrn_reflns_point_group_measured_fraction_max 1.000
_diffrn_reflns_theta_full        25.242
_diffrn_reflns_theta_max         33.098
_diffrn_reflns_theta_min         2.257
_diffrn_source                   'fine-focus sealed tube'
_exptl_absorpt_coefficient_mu    37.136
_exptl_absorpt_correction_T_max  0.3755
_exptl_absorpt_correction_T_min  0.1624
_exptl_absorpt_correction_type   numerical
_exptl_absorpt_process_details   'Bruker SHELXTL (Sheldrick, 2013)'
_exptl_crystal_colour            grey
_exptl_crystal_density_diffrn    6.145
_exptl_crystal_density_method    'not measured'
_exptl_crystal_description       irregular
_exptl_crystal_F_000             950
_exptl_crystal_size_max          0.068
_exptl_crystal_size_mid          0.045
_exptl_crystal_size_min          0.043
_refine_diff_density_max         1.278
_refine_diff_density_min         -1.203
_refine_diff_density_rms         0.217
_refine_ls_abs_structure_details
;
 Flack x determined using 658 quotients [(I+)-(I-)]/[(I+)+(I-)]
 (Parsons and Flack (2004), Acta Cryst. A60, s61).
;
_refine_ls_abs_structure_Flack   -0.06(4)
_refine_ls_extinction_coef       0.0025(4)
_refine_ls_extinction_expression Fc^*^=kFc[1+0.001xFc^2^\l^3^/sin(2\q)]^-1/4^
_refine_ls_extinction_method     SHELXL
_refine_ls_goodness_of_fit_ref   1.110
_refine_ls_hydrogen_treatment    undef
_refine_ls_matrix_type           full
_refine_ls_number_parameters     41
_refine_ls_number_reflns         1526
_refine_ls_number_restraints     1
_refine_ls_restrained_S_all      1.110
_refine_ls_R_factor_all          0.0318
_refine_ls_R_factor_gt           0.0298
_refine_ls_shift/su_max          0.000
_refine_ls_shift/su_mean         0.000
_refine_ls_structure_factor_coef Fsqd
_refine_ls_weighting_details
'w=1/[\s^2^(Fo^2^)+(0.0304P)^2^+4.4029P] where P=(Fo^2^+2Fc^2^)/3'
_refine_ls_weighting_scheme      calc
_refine_ls_wR_factor_gt          0.0685
_refine_ls_wR_factor_ref         0.0694
_reflns_Friedel_coverage         0.860
_reflns_Friedel_fraction_full    1.000
_reflns_Friedel_fraction_max     1.000
_reflns_number_gt                1474
_reflns_number_total             1526
_reflns_threshold_expression     'I > 2\s(I)'
_cod_data_source_file            JSSC-2015-229-150.cif
_cod_data_source_block           Pr3CuGaSe7
_cod_original_cell_volume        599.16(10)
_cod_database_code               1561847
_shelx_space_group_comment
;
The symmetry employed for this shelxl refinement is uniquely defined
by the following loop, which should always be used as a source of
symmetry information in preference to the above space-group names.
They are only intended as comments.
;
_shelx_estimated_absorpt_t_min   0.187
_shelx_estimated_absorpt_t_max   0.298
_shelxl_version_number           2013-4
_shelx_res_file
;
TITL Pr3CuGaSe7 P6(3) lsf final refinement
CELL 0.71073  10.41810  10.41810   6.37430  90.0000  90.0000 120.0000
ZERR    2.00   0.00080   0.00080   0.00050   0.0000   0.0000   0.0000
LATT -1
SYMM -Y, X-Y, Z
SYMM -X+Y, -X, Z
SYMM -X, -Y, 0.5+Z
SYMM Y, -X+Y, 0.5+Z
SYMM X-Y, X, 0.5+Z
SFAC CU GA SE PR
UNIT 2 2 14 6
TEMP 23
SIZE 0.043 0.045 0.068

L.S. 4
ACTA

TWIN 0 1 0 1 0 0 0 0 -1 2
EADP CU1A CU1B
WGHT    0.030400    4.402900
EXTI    0.002466
BASF   0.26423
FVAR       0.08216   0.64671
PR    4    0.150989    0.373058    0.072578    11.00000    0.01767    0.01360 =
         0.02721    0.00305    0.00293    0.00797
CU1A  1    0.000000    0.000000    0.000000    20.33333    0.01102    0.01102 =
         0.04534    0.00000    0.00000    0.00551
CU1B  1    0.000000    0.000000   -0.100521   -20.33333    0.01102    0.01102 =
         0.04534    0.00000    0.00000    0.00551
GA    2    0.333333    0.666667    0.657464    10.33333    0.01711    0.01711 =
         0.01128    0.00000    0.00000    0.00856
SE1   3    0.256247    0.149694    0.025913    11.00000    0.01515    0.01323 =
         0.02454    0.00509    0.00354    0.00811
SE2   3    0.521134    0.089473    0.306301    11.00000    0.01395    0.01375 =
         0.01388    0.00070   -0.00086    0.00431
SE3   3    0.333333    0.666667    0.285054    10.33333    0.01502    0.01502 =
         0.01084    0.00000    0.00000    0.00751
HKLF 4

REM  Pr3CuGaSe7 P6(3) lsf final refinement
REM R1 =  0.0298 for    1474 Fo > 4sig(Fo)  and  0.0318 for all    1526 data
REM     41 parameters refined using      1 restraints

END

WGHT      0.0304      4.4182

REM Highest difference peak  1.278,  deepest hole -1.203,  1-sigma level  0.217
Q1    1   0.4686  0.1123 -0.0456  11.00000  0.05    1.28
Q2    1   0.2222  0.3975  0.0690  11.00000  0.05    1.04
Q3    1   0.2277  0.1175  0.2323  11.00000  0.05    0.97
Q4    1   0.5378  0.0354  0.2676  11.00000  0.05    0.86
Q5    1   0.5142  0.0493  0.0478  11.00000  0.05    0.81
Q6    1   0.4886  0.1260  0.1873  11.00000  0.05    0.79
Q7    1   0.1588  0.3115  0.2104  11.00000  0.05    0.75
Q8    1   0.2591  0.0804  0.1168  11.00000  0.05    0.70
Q9    1   0.2537  0.0390  0.0379  11.00000  0.05    0.70
Q10   1   0.0753  0.3987  0.1341  11.00000  0.05    0.68
Q11   1   0.3505  0.0913  0.3547  11.00000  0.05    0.67
Q12   1   0.1743  0.1808  0.0828  11.00000  0.05    0.66
Q13   1   0.3699  0.1988 -0.0456  11.00000  0.05    0.66
Q14   1   0.1149  0.3437 -0.0996  11.00000  0.05    0.63
Q15   1   0.2630  0.3207 -0.0228  11.00000  0.05    0.62
Q16   1   0.1455  0.0332  0.2212  11.00000  0.05    0.62
Q17   1   0.3711  0.1685 -0.1610  11.00000  0.05    0.61
Q18   1   0.4231  0.7205  0.2952  11.00000  0.05    0.61
Q19   1   0.3717  0.6536  0.5270  11.00000  0.05    0.60
Q20   1   0.4982  0.8443  0.1965  11.00000  0.05    0.59
;
_shelx_res_checksum              83251
_shelx_hkl_file
;
   3  -6  -9    4.87    2.38
   0  -5  -9   16.29    4.17
   1  -5  -9    6.92    2.64
   2  -5  -9    0.52    1.14
   3  -5  -9    0.03    1.02
   4  -5  -9    9.35    2.04
  -1  -4  -9   13.23    3.45
   0  -4  -9   -1.12    1.01
   1  -4  -9    2.40    1.44
   2  -4  -9    2.13    1.35
   3  -4  -9    1.85    1.29
   4  -4  -9   -0.56    0.99
   5  -4  -9    4.36    1.54
   6  -4  -9    0.88    1.81
  -2  -3  -9    0.42    1.20
  -1  -3  -9    1.15    1.23
   0  -3  -9    6.09    1.83
   1  -3  -9   18.83    2.77
   2  -3  -9   16.17    2.46
   3  -3  -9    7.45    1.83
   4  -3  -9    1.35    1.00
   5  -3  -9    1.76    1.02
   6  -3  -9    2.73    1.50
  -3  -2  -9    1.97    1.47
  -2  -2  -9    1.87    1.28
  -1  -2  -9   22.39    3.01
   0  -2  -9   13.16    2.35
   1  -2  -9    3.36    1.41
   2  -2  -9   12.55    1.85
   3  -2  -9   14.30    1.98
   4  -2  -9    2.22    1.01
   5  -2  -9    0.42    0.91
   6  -2  -9   -0.08    1.63
  -4  -1  -9    3.11    2.56
  -3  -1  -9    0.15    1.14
  -2  -1  -9   18.86    2.82
  -1  -1  -9    4.30    1.55
   0  -1  -9    2.20    1.32
   1  -1  -9    1.25    0.99
   2  -1  -9    4.22    1.22
   3  -1  -9   18.58    2.17
   4  -1  -9    0.73    1.06
   5  -1  -9   10.64    3.10
  -4   0  -9   -0.48    1.15
  -3   0  -9    7.61    1.86
  -2   0  -9   14.43    2.40
  -1   0  -9    1.15    1.16
   0   0  -9   -0.17    0.74
   1   0  -9    1.90    0.97
   2   0  -9   14.74    1.93
   3   0  -9    3.24    1.35
   4   0  -9    0.33    1.11
  -5   1  -9   10.43    3.12
  -4   1  -9    1.55    1.33
  -3   1  -9   16.47    2.58
  -2   1  -9    2.62    1.35
  -1   1  -9    2.49    1.06
   0   1  -9    0.92    0.85
   1   1  -9    4.32    1.48
   2   1  -9    9.58    2.08
   3   1  -9    1.63    1.23
   4   1  -9    2.49    2.07
  -5   2  -9    1.04    1.30
  -4   2  -9    1.41    1.27
  -3   2  -9   16.95    2.68
  -2   2  -9   13.39    1.87
  -1   2  -9    3.46    1.31
   0   2  -9   12.78    2.14
   1   2  -9   14.43    2.45
   2   2  -9    1.00    1.14
   3   2  -9    1.94    1.27
  -6   3  -9    2.82    2.03
  -5   3  -9    2.70    1.44
  -4   3  -9    1.84    1.32
  -3   3  -9    6.68    1.82
  -2   3  -9   18.94    3.91
  -1   3  -9   15.20    2.45
   0   3  -9    4.22    1.57
   1   3  -9    0.74    0.98
   2   3  -9    0.60    1.08
  -6   4  -9    3.65    2.32
  -5   4  -9    2.71    1.93
  -4   4  -9    1.04    1.20
  -3   4  -9    0.68    1.15
  -2   4  -9    0.76    1.02
  -1   4  -9    4.59    1.60
   0   4  -9    0.15    1.03
   1   4  -9   10.78    3.01
   2   4  -9   -0.91    1.60
  -5   5  -9   14.69    3.58
  -4   5  -9   10.17    2.02
  -3   5  -9    0.23    0.98
  -2   5  -9    0.66    1.09
  -1   5  -9    2.26    1.41
   0   5  -9   14.72    3.55
  -4   6  -9    1.44    1.71
   3  -9  -8    7.13    2.28
   1  -8  -8   24.10    3.63
   2  -8  -8    5.61    1.48
   3  -8  -8    0.76    1.79
   4  -8  -8    2.61    2.08
   5  -8  -8   13.35    3.25
   6  -8  -8    1.79    1.88
  -1  -7  -8   16.84    3.81
   0  -7  -8    5.18    1.21
   1  -7  -8    2.35    0.90
   2  -7  -8    6.17    1.27
   3  -7  -8    7.91    1.79
   4  -7  -8   16.71    3.61
   5  -7  -8    3.98    1.46
   6  -7  -8    5.62    1.56
   7  -7  -8    4.55    1.66
   8  -7  -8   37.51    5.40
  -2  -6  -8    5.15    1.23
  -1  -6  -8    8.97    1.50
   0  -6  -8    2.19    0.89
   1  -6  -8   26.81    2.37
   2  -6  -8    4.72    1.52
   3  -6  -8   29.31    3.25
   4  -6  -8    5.12    1.49
   5  -6  -8    7.04    1.78
   6  -6  -8    1.39    1.09
   7  -6  -8    2.12    1.21
   8  -6  -8    3.82    1.54
  -3  -5  -8   11.22    2.01
  -2  -5  -8    1.76    0.88
  -1  -5  -8    7.90    1.39
   0  -5  -8   19.44    2.01
   1  -5  -8   13.83    2.35
   2  -5  -8   21.64    2.84
   3  -5  -8   14.52    2.31
   4  -5  -8   29.72    4.57
   5  -5  -8   19.73    2.66
   6  -5  -8   20.98    2.77
   7  -5  -8    5.47    1.55
   8  -5  -8    2.85    1.39
   9  -5  -8    1.93    2.13
  -4  -4  -8    1.53    1.08
  -3  -4  -8   15.90    1.94
  -2  -4  -8    3.53    1.04
  -1  -4  -8   28.82    2.49
   0  -4  -8    3.55    1.32
   1  -4  -8    4.58    1.46
   2  -4  -8   17.73    2.50
   3  -4  -8    9.61    1.85
   4  -4  -8    4.36    1.38
   5  -4  -8   16.04    1.96
   6  -4  -8    6.14    1.30
   7  -4  -8    6.01    1.32
   8  -4  -8    3.22    1.39
   9  -4  -8   10.47    2.95
  -5  -3  -8    2.75    1.22
  -4  -3  -8    5.26    1.27
  -3  -3  -8   32.47    2.70
  -2  -3  -8   18.23    1.96
  -1  -3  -8    8.79    1.83
   0  -3  -8   11.62    2.05
   1  -3  -8   16.44    2.38
   2  -3  -8   18.79    2.55
   3  -3  -8    8.46    1.38
   4  -3  -8    4.48    1.09
   5  -3  -8   21.16    2.21
   6  -3  -8   26.13    2.55
   7  -3  -8   18.63    2.11
   8  -3  -8   10.05    2.06
  -6  -2  -8    4.07    1.35
  -5  -2  -8    4.36    1.41
  -4  -2  -8    5.10    1.18
  -3  -2  -8   18.77    1.99
  -2  -2  -8   23.52    2.20
  -1  -2  -8   17.08    2.50
   0  -2  -8   -0.38    0.77
   1  -2  -8   14.84    2.09
   2  -2  -8    0.61    0.63
   3  -2  -8   12.58    1.69
   4  -2  -8   26.07    2.41
   5  -2  -8   14.99    1.88
   6  -2  -8    4.60    1.21
   7  -2  -8   -0.15    0.97
   8  -2  -8    4.26    1.56
  -7  -1  -8   25.57    4.00
  -6  -1  -8    4.25    1.36
  -5  -1  -8   24.95    2.35
  -4  -1  -8   13.89    1.66
  -3  -1  -8    5.63    1.14
  -2  -1  -8   14.74    2.31
  -1  -1  -8   14.22    2.15
   0  -1  -8    6.00    1.26
   1  -1  -8    6.78    1.24
   2  -1  -8   15.58    1.85
   3  -1  -8   21.54    2.17
   4  -1  -8    9.93    1.47
   5  -1  -8   30.95    2.63
   6  -1  -8    8.93    1.96
   7  -1  -8    9.04    2.00
   8  -1  -8   20.62    4.39
  -7   0  -8    3.65    1.32
  -6   0  -8    1.76    1.06
  -5   0  -8   13.59    1.72
  -4   0  -8    4.15    1.02
  -3   0  -8   10.91    1.82
  -2   0  -8    1.06    1.01
  -1   0  -8    6.22    1.24
   0   0  -8   95.28    6.01
   1   0  -8    5.28    1.15
   2   0  -8    0.76    0.76
   3   0  -8   10.48    1.56
   4   0  -8    3.54    1.28
   5   0  -8   15.27    2.40
   6   0  -8    2.86    1.28
   7   0  -8    5.87    1.75
   8   0  -8    1.27    1.93
  -8   1  -8   17.10    3.42
  -7   1  -8    8.03    1.75
  -6   1  -8    8.28    1.50
  -5   1  -8   28.99    2.47
  -4   1  -8   10.19    1.88
  -3   1  -8   20.55    2.69
  -2   1  -8   18.04    2.02
  -1   1  -8    6.20    1.20
   0   1  -8    5.52    1.15
   1   1  -8   16.69    1.88
   2   1  -8   11.87    2.02
   3   1  -8    3.97    1.30
   4   1  -8   18.98    2.61
   5   1  -8   25.55    3.12
   6   1  -8    1.96    1.28
   7   1  -8   31.06    5.41
  -8   2  -8    4.48    1.48
  -7   2  -8    1.03    0.99
  -6   2  -8    4.28    1.09
  -5   2  -8   18.12    2.63
  -4   2  -8   22.05    2.75
  -3   2  -8   10.00    1.56
  -2   2  -8   -0.12    0.56
  -1   2  -8   16.83    1.86
   0   2  -8    0.26    0.64
   1   2  -8   16.56    2.38
   2   2  -8   18.58    2.60
   3   2  -8   19.33    2.63
   4   2  -8    5.91    1.62
   5   2  -8    7.76    1.86
   6   2  -8    4.49    1.48
  -9   3  -8   12.83    2.87
  -8   3  -8   13.88    2.13
  -7   3  -8   17.23    2.38
  -6   3  -8   22.38    4.23
  -5   3  -8   20.85    2.83
  -4   3  -8    4.74    1.44
  -3   3  -8    8.40    1.41
  -2   3  -8   22.17    2.16
  -1   3  -8   10.03    1.86
   0   3  -8    9.86    1.85
   1   3  -8    9.15    1.75
   2   3  -8   12.05    2.13
   3   3  -8   34.38    3.61
   4   3  -8    8.13    1.90
   5   3  -8    2.29    1.33
  -9   4  -8    5.72    2.06
  -8   4  -8    2.95    1.30
  -7   4  -8    6.64    1.76
  -6   4  -8    6.58    1.77
  -5   4  -8   18.19    2.62
  -4   4  -8    3.72    1.05
  -3   4  -8    8.32    1.81
  -2   4  -8   20.63    2.62
  -1   4  -8    4.74    1.30
   0   4  -8    3.41    1.28
   1   4  -8   33.86    3.42
   2   4  -8    3.66    1.13
   3   4  -8   17.64    2.22
   4   4  -8    3.59    1.42
   5   4  -8    2.11    1.92
  -9   5  -8    1.64    1.16
  -8   5  -8   -0.69    1.58
  -7   5  -8    6.61    1.71
  -6   5  -8   19.78    2.78
  -5   5  -8   14.36    2.18
  -4   5  -8   29.67    3.20
  -3   5  -8   15.10    2.29
  -2   5  -8   15.49    2.34
  -1   5  -8   14.94    1.93
   0   5  -8   15.45    1.98
   1   5  -8    7.66    1.53
   2   5  -8    0.86    0.90
   3   5  -8   10.32    1.77
   4   5  -8    4.95    2.16
  -9   6  -8    9.97    3.37
  -8   6  -8    3.56    2.39
  -7   6  -8    2.67    2.10
  -6   6  -8    1.84    1.66
  -5   6  -8    9.28    1.84
  -4   6  -8    2.55    1.21
  -3   6  -8   32.02    3.41
  -2   6  -8    6.00    1.29
  -1   6  -8   24.75    2.57
   0   6  -8    1.01    0.90
   1   6  -8   11.31    2.29
   2   6  -8    5.70    1.83
  -5   7  -8    1.47    1.65
  -4   7  -8   23.28    4.18
  -3   7  -8    6.65    1.77
  -2   7  -8    3.86    1.51
  -1   7  -8    3.56    1.54
   0   7  -8    3.82    1.62
  -5   8  -8    8.67    1.89
  -4   8  -8    4.36    1.57
  -3   8  -8    4.00    1.52
  -2   8  -8    4.84    1.72
  -1   8  -8   30.56    5.10
  -6   9  -8   11.80    3.38
  -5   9  -8    8.14    3.15
  -4   9  -8    2.58    1.79
  -3   9  -8    5.43    2.49
   5 -11  -7    6.67    2.31
   6 -11  -7    3.87    1.78
   1 -10  -7   10.54    3.05
   2 -10  -7    8.19    1.79
   3 -10  -7    1.16    0.93
   4 -10  -7   18.55    2.38
   5 -10  -7   -0.84    0.83
   6 -10  -7    4.35    1.38
   7 -10  -7    0.06    1.37
   8 -10  -7   16.27    4.17
  -1  -9  -7    3.59    1.95
   0  -9  -7    0.99    1.08
   1  -9  -7   12.04    1.97
   2  -9  -7    2.99    1.22
   3  -9  -7    9.46    1.76
   4  -9  -7   21.28    2.48
   5  -9  -7   23.15    2.61
   6  -9  -7   27.18    4.39
   7  -9  -7    7.20    2.57
   8  -9  -7    2.35    1.88
   9  -9  -7    1.19    1.84
  -2  -8  -7   17.98    2.44
  -1  -8  -7    4.38    1.38
   0  -8  -7    5.40    1.40
   1  -8  -7   21.22    2.53
   2  -8  -7    6.72    1.50
   3  -8  -7    4.96    1.24
   4  -8  -7   -1.00    0.72
   5  -8  -7    3.72    1.25
   6  -8  -7   13.07    3.22
   7  -8  -7    6.10    2.33
   8  -8  -7    3.25    1.84
   9  -8  -7   11.41    3.11
  10  -8  -7    7.73    2.94
  -3  -7  -7    0.40    0.93
  -2  -7  -7    5.31    1.42
  -1  -7  -7    5.44    1.14
   0  -7  -7    2.70    0.91
   1  -7  -7   11.39    1.50
   2  -7  -7    5.17    1.09
   3  -7  -7   12.22    1.52
   4  -7  -7    3.61    0.88
   5  -7  -7    4.15    1.30
   6  -7  -7   11.84    2.03
   7  -7  -7    3.41    1.26
   8  -7  -7   20.56    2.58
   9  -7  -7    3.76    1.41
  10  -7  -7   -0.04    1.03
  11  -7  -7    6.11    2.46
  -5  -6  -7    2.55    2.20
  -4  -6  -7    6.55    1.54
  -3  -6  -7   20.74    2.61
  -2  -6  -7   13.40    1.72
  -1  -6  -7   14.07    1.66
   0  -6  -7   24.55    2.17
   1  -6  -7    3.76    0.90
   2  -6  -7   16.78    1.64
   3  -6  -7   10.89    1.37
   4  -6  -7   10.93    1.85
   5  -6  -7    1.61    0.99
   6  -6  -7   19.03    2.49
   7  -6  -7   16.74    2.34
   8  -6  -7    7.72    1.66
   9  -6  -7    9.86    1.94
  10  -6  -7   21.01    2.96
  11  -6  -7    7.15    2.77
  -5  -5  -7   -0.45    0.92
  -4  -5  -7   23.64    2.75
  -3  -5  -7    5.53    1.40
  -2  -5  -7    2.44    0.85
  -1  -5  -7    1.46    0.69
   0  -5  -7    4.83    1.00
   1  -5  -7    9.70    1.30
   2  -5  -7   48.94    3.12
   3  -5  -7   21.79    2.56
   4  -5  -7   18.53    2.38
   5  -5  -7    3.74    1.18
   6  -5  -7    3.92    1.00
   7  -5  -7    4.90    1.36
   8  -5  -7    3.88    1.39
   9  -5  -7   19.15    2.58
  10  -5  -7    1.07    1.26
  11  -5  -7    1.05    2.10
  -6  -4  -7   15.59    2.36
  -5  -4  -7   21.19    2.65
  -4  -4  -7   -0.12    0.79
  -3  -4  -7    4.16    1.03
  -2  -4  -7   11.57    1.50
  -1  -4  -7   14.92    1.69
   0  -4  -7   23.70    1.98
   1  -4  -7   17.31    1.65
   2  -4  -7   -0.47    0.55
   3  -4  -7    5.34    1.33
   4  -4  -7   19.55    2.01
   5  -4  -7    7.85    1.25
   6  -4  -7   16.18    1.81
   7  -4  -7   13.58    1.71
   8  -4  -7   -0.61    0.83
   9  -4  -7   25.17    4.46
  10  -4  -7    6.97    1.88
  11  -4  -7    1.10    2.07
  -7  -3  -7    0.40    0.87
  -6  -3  -7    7.40    1.69
  -5  -3  -7    3.93    1.32
  -4  -3  -7   13.08    1.61
  -3  -3  -7   11.60    1.55
  -2  -3  -7   16.98    1.74
  -1  -3  -7    5.39    1.00
   0  -3  -7   34.31    2.27
   1  -3  -7    4.83    0.89
   2  -3  -7    5.40    1.07
   3  -3  -7   32.80    2.62
   4  -3  -7   16.62    1.81
   5  -3  -7   53.74    2.97
   6  -3  -7   13.70    1.66
   7  -3  -7    4.99    1.13
   8  -3  -7    3.65    1.08
   9  -3  -7   22.87    2.89
  10  -3  -7    2.42    1.92
  -8  -2  -7    9.09    1.96
  -7  -2  -7    2.62    1.16
  -6  -2  -7    9.04    1.75
  -5  -2  -7    5.64    1.37
  -4  -2  -7   17.24    1.88
  -3  -2  -7   47.76    2.84
  -2  -2  -7   -0.75    0.43
  -1  -2  -7    5.25    0.94
   0  -2  -7   58.89    3.96
   1  -2  -7    4.01    0.95
   2  -2  -7   63.59    3.31
   3  -2  -7    4.86    1.01
   4  -2  -7    0.12    0.52
   5  -2  -7   22.35    2.10
   6  -2  -7    8.54    1.37
   7  -2  -7    3.70    1.02
   8  -2  -7   16.27    1.93
   9  -2  -7    8.44    2.74
  -8  -1  -7   14.84    2.30
  -7  -1  -7   20.57    2.62
  -6  -1  -7    7.63    1.65
  -5  -1  -7    3.91    1.01
  -4  -1  -7    8.51    1.31
  -3  -1  -7   15.25    1.64
  -2  -1  -7    2.48    0.80
  -1  -1  -7    3.56    0.84
   0  -1  -7   28.03    2.31
   1  -1  -7   24.04    2.13
   2  -1  -7    2.63    0.80
   3  -1  -7    3.66    0.92
   4  -1  -7    6.21    1.08
   5  -1  -7   15.49    1.76
   6  -1  -7    1.70    0.75
   7  -1  -7   10.67    2.01
   8  -1  -7    5.06    1.46
   9  -1  -7    4.81    1.58
  -9   0  -7    1.34    1.10
  -8   0  -7    7.43    1.63
  -7   0  -7    3.93    1.24
  -6   0  -7   17.50    2.29
  -5   0  -7    4.28    1.01
  -4   0  -7   20.55    1.96
  -3   0  -7   32.81    2.44
  -2   0  -7   59.06    2.96
  -1   0  -7   22.20    2.07
   0   0  -7    0.45    0.53
   1   0  -7   23.46    2.09
   2   0  -7   62.38    3.26
   3   0  -7   33.55    2.60
   4   0  -7   21.22    2.00
   5   0  -7    5.47    1.13
   6   0  -7   23.52    2.84
   7   0  -7    0.98    0.99
   8   0  -7    5.34    1.60
   9   0  -7    2.54    1.48
  -9   1  -7    3.47    1.35
  -8   1  -7    3.49    1.25
  -7   1  -7   10.01    1.74
  -6   1  -7    1.44    0.79
  -5   1  -7   17.88    1.86
  -4   1  -7    5.48    1.00
  -3   1  -7    5.37    0.96
  -2   1  -7    2.98    0.86
  -1   1  -7   24.64    2.16
   0   1  -7   27.91    2.25
   1   1  -7    2.91    0.80
   2   1  -7    4.27    0.93
   3   1  -7   17.67    1.77
   4   1  -7   12.93    2.00
   5   1  -7    5.06    1.34
   6   1  -7   12.14    2.16
   7   1  -7   17.42    2.61
   8   1  -7   14.77    2.53
   9   1  -7    7.67    2.99
 -10   2  -7   20.68    2.85
  -9   2  -7    6.81    1.60
  -8   2  -7   17.58    2.31
  -7   2  -7    2.79    1.06
  -6   2  -7   10.10    1.42
  -5   2  -7   17.10    1.81
  -4   2  -7    0.34    0.49
  -3   2  -7    3.17    0.85
  -2   2  -7   62.06    3.29
  -1   2  -7    4.00    0.92
   0   2  -7   61.68    3.24
   1   2  -7    6.05    1.06
   2   2  -7    0.74    0.74
   3   2  -7   52.90    3.68
   4   2  -7   19.16    2.49
   5   2  -7    6.33    1.54
   6   2  -7    7.03    1.65
   7   2  -7    3.18    1.34
   8   2  -7    8.06    2.07
 -10   3  -7    0.37    0.90
  -9   3  -7   23.99    2.84
  -8   3  -7    4.81    1.32
  -7   3  -7    5.71    1.38
  -6   3  -7   13.71    1.59
  -5   3  -7   51.60    2.83
  -4   3  -7   14.78    1.72
  -3   3  -7   31.98    2.56
  -2   3  -7    4.90    1.00
  -1   3  -7    4.27    0.98
   0   3  -7   29.57    2.62
   1   3  -7    2.92    0.93
   2   3  -7   16.66    1.99
   3   3  -7   11.02    1.59
   4   3  -7   12.44    1.77
   5   3  -7    4.30    1.20
   6   3  -7   10.24    1.78
   7   3  -7   -0.45    0.96
 -10   4  -7    7.27    1.74
  -9   4  -7   28.57    3.03
  -8   4  -7    1.05    0.87
  -7   4  -7   12.01    1.51
  -6   4  -7   17.53    1.80
  -5   4  -7    8.63    1.35
  -4   4  -7   19.60    1.96
  -3   4  -7    5.80    1.10
  -2   4  -7    0.09    0.59
  -1   4  -7   15.59    1.77
   0   4  -7   19.09    2.01
   1   4  -7   17.13    1.93
   2   4  -7   15.05    1.85
   3   4  -7    2.61    0.94
   4   4  -7    0.42    0.76
   5   4  -7   21.64    2.47
   6   4  -7   18.90    2.37
   7   4  -7    4.75    2.67
 -10   5  -7    0.50    0.99
  -9   5  -7   17.11    2.33
  -8   5  -7    4.12    1.27
  -7   5  -7    7.24    1.20
  -6   5  -7    5.14    1.38
  -5   5  -7    3.93    1.00
  -4   5  -7   14.92    1.53
  -3   5  -7   16.62    1.88
  -2   5  -7   48.61    2.99
  -1   5  -7    7.59    1.31
   0   5  -7    6.39    1.22
   1   5  -7    2.15    0.93
   2   5  -7    3.32    1.06
   3   5  -7    3.90    1.13
   4   5  -7   22.64    2.53
   5   5  -7    0.45    0.83
   6   5  -7    7.27    1.99
 -10   6  -7   17.24    3.13
  -9   6  -7   10.17    1.80
  -8   6  -7    4.80    1.32
  -7   6  -7   13.41    2.15
  -6   6  -7   24.53    2.30
  -5   6  -7    1.44    0.79
  -4   6  -7   15.27    1.78
  -3   6  -7   10.07    1.49
  -2   6  -7   17.08    1.90
  -1   6  -7    4.47    1.03
   0   6  -7   23.67    2.32
   1   6  -7   14.74    1.89
   2   6  -7   14.43    1.94
   3   6  -7   24.43    2.56
   4   6  -7    5.87    1.90
   5   6  -7    0.18    2.04
 -10   7  -7    2.15    1.44
  -9   7  -7    2.52    1.29
  -6   7  -7   17.08    3.15
  -5   7  -7    3.44    1.16
  -4   7  -7    4.83    1.45
  -3   7  -7   14.81    2.33
  -2   7  -7    7.87    1.73
  -1   7  -7   11.71    2.22
   0   7  -7    6.23    1.75
   1   7  -7    3.30    1.50
   2   7  -7    6.12    1.90
   3   7  -7    1.35    1.22
 -10   8  -7    5.02    1.92
  -6   8  -7   19.25    2.76
  -5   8  -7    3.17    1.29
  -4   8  -7    0.57    0.94
  -3   8  -7    4.39    1.46
  -2   8  -7    4.44    1.54
  -1   8  -7   19.67    2.91
   0   8  -7    4.58    1.58
   1   8  -7    4.85    1.77
   2   8  -7   16.00    2.81
  -7   9  -7    6.18    2.95
  -6   9  -7   28.65    3.53
  -5   9  -7   20.69    3.19
  -4   9  -7   18.30    2.74
  -3   9  -7    7.03    1.78
  -2   9  -7    2.44    1.35
  -1   9  -7   11.30    2.36
   0   9  -7   -0.31    1.01
  -7  10  -7    1.42    2.05
  -6  10  -7    6.06    2.06
  -5  10  -7    0.42    1.28
  -4  10  -7   18.14    3.21
  -3  10  -7    0.55    1.10
  -2  10  -7    8.29    2.13
  -1  10  -7    4.78    2.25
  -7  11  -7    3.70    2.87
  -6  11  -7    1.35    1.84
  -5  11  -7    4.16    2.59
   4 -12  -6    9.89    1.92
   5 -12  -6    6.37    1.58
   6 -12  -6   13.58    2.15
   7 -12  -6    3.40    1.26
   8 -12  -6   13.45    2.10
   9 -12  -6   -0.41    1.28
   2 -11  -6    4.71    1.39
   3 -11  -6    2.48    1.21
   4 -11  -6   43.31    3.73
   5 -11  -6    5.94    1.42
   6 -11  -6    7.81    1.59
   7 -11  -6   22.27    2.63
   8 -11  -6    1.70    1.07
   9 -11  -6    2.10    1.12
   0 -10  -6    3.41    1.27
   1 -10  -6    1.78    1.04
   2 -10  -6    7.43    1.61
   3 -10  -6    9.18    1.58
   4 -10  -6   11.82    1.76
   5 -10  -6   12.17    1.90
   6 -10  -6   23.61    2.58
   7 -10  -6    3.80    1.20
   8 -10  -6   24.92    2.76
   9 -10  -6    2.92    1.95
  10 -10  -6    6.03    2.50
  -2  -9  -6    0.62    0.94
  -1  -9  -6    3.04    1.15
   0  -9  -6    9.26    1.69
   1  -9  -6   29.18    2.91
   2  -9  -6    2.72    1.06
   3  -9  -6   19.78    2.33
   4  -9  -6    5.40    1.29
   5  -9  -6    8.54    1.56
   6  -9  -6   16.80    2.14
   7  -9  -6    3.05    1.08
   8  -9  -6   49.76    5.95
   9  -9  -6   12.57    3.10
  10  -9  -6    3.11    1.92
  11  -9  -6    4.01    2.31
  -3  -8  -6    0.65    1.02
  -2  -8  -6   22.83    2.70
  -1  -8  -6   33.85    3.29
   0  -8  -6   23.58    2.63
   1  -8  -6   26.03    2.68
   2  -8  -6    9.45    1.54
   3  -8  -6    9.37    1.29
   4  -8  -6    1.75    0.70
   5  -8  -6    4.31    0.96
   6  -8  -6    4.60    0.94
   7  -8  -6   23.73    2.06
   8  -8  -6   33.22    3.31
   9  -8  -6   26.67    4.39
  10  -8  -6   15.95    3.57
  11  -8  -6   -0.70    1.38
  -5  -7  -6    0.93    1.07
  -4  -7  -6   24.00    2.92
  -3  -7  -6    4.04    1.19
  -2  -7  -6    2.93    1.02
  -1  -7  -6   25.20    2.19
   0  -7  -6   10.31    1.35
   1  -7  -6   10.26    1.30
   2  -7  -6   15.21    1.58
   3  -7  -6   18.21    1.70
   4  -7  -6   61.28    3.06
   5  -7  -6   10.04    1.21
   6  -7  -6    4.62    0.91
   7  -7  -6   12.89    1.93
   8  -7  -6   26.07    2.81
   9  -7  -6    3.89    1.38
  10  -7  -6    9.03    1.93
  11  -7  -6   47.04    4.31
  12  -7  -6    7.07    1.97
  -6  -6  -6   11.59    2.09
  -5  -6  -6    7.27    1.64
  -4  -6  -6   25.47    2.79
  -3  -6  -6   15.36    2.08
  -2  -6  -6    4.70    1.18
  -1  -6  -6    4.73    0.94
   0  -6  -6    2.82    0.80
   1  -6  -6   55.30    2.85
   2  -6  -6    9.82    1.20
   3  -6  -6   60.41    2.97
   4  -6  -6   18.66    1.67
   5  -6  -6   49.43    2.56
   6  -6  -6    4.04    1.11
   7  -6  -6   10.12    1.71
   8  -6  -6   13.59    2.05
   9  -6  -6   23.74    2.82
  10  -6  -6    8.91    1.78
  11  -6  -6    4.02    1.44
  12  -6  -6   16.39    2.74
  -7  -5  -6    8.01    1.81
  -6  -5  -6    2.86    1.25
  -5  -5  -6   13.15    2.02
  -4  -5  -6    9.31    1.64
  -3  -5  -6    6.61    1.38
  -2  -5  -6    6.24    1.07
  -1  -5  -6   47.35    2.64
   0  -5  -6   52.55    2.76
   1  -5  -6   33.46    2.30
   2  -5  -6   37.59    2.18
   3  -5  -6   44.98    2.39
   4  -5  -6   29.18    2.05
   5  -5  -6   50.58    2.86
   6  -5  -6   54.51    3.02
   7  -5  -6   16.42    1.75
   8  -5  -6    9.22    1.75
   9  -5  -6    5.42    1.50
  10  -5  -6   14.17    2.36
  11  -5  -6    6.22    1.66
  12  -5  -6    5.71    1.82
  -8  -4  -6    8.19    2.90
  -7  -4  -6   38.79    3.69
  -6  -4  -6   11.71    1.95
  -5  -4  -6    5.68    1.40
  -4  -4  -6    1.74    0.89
  -3  -4  -6   67.62    3.32
  -2  -4  -6   18.03    1.73
  -1  -4  -6   33.22    2.30
   0  -4  -6    2.80    0.68
   1  -4  -6    4.82    0.83
   2  -4  -6    4.81    0.78
   3  -4  -6    4.12    0.67
   4  -4  -6    2.07    0.71
   5  -4  -6   35.70    2.23
   6  -4  -6    8.46    1.18
   7  -4  -6   19.08    1.89
   8  -4  -6    1.08    0.85
   9  -4  -6   10.22    1.91
  10  -4  -6   27.05    3.24
  11  -4  -6   21.36    3.02
  12  -4  -6   12.96    2.49
  -8  -3  -6    2.04    1.10
  -7  -3  -6    4.63    1.27
  -6  -3  -6   23.03    2.59
  -5  -3  -6   10.45    1.74
  -4  -3  -6   15.78    1.68
  -3  -3  -6   62.64    3.16
  -2  -3  -6   47.49    2.55
  -1  -3  -6    4.09    0.78
   0  -3  -6    8.61    1.04
   1  -3  -6   31.59    1.94
   2  -3  -6   75.82    2.97
   3  -3  -6    7.67    1.13
   4  -3  -6    7.57    1.08
   5  -3  -6   39.58    2.32
   6  -3  -6   60.81    3.23
   7  -3  -6   68.54    3.42
   8  -3  -6    5.33    1.07
   9  -3  -6   14.68    2.28
  10  -3  -6    4.84    1.56
  11  -3  -6    1.58    1.87
  -9  -2  -6    2.19    0.84
  -8  -2  -6    8.81    1.34
  -7  -2  -6    4.40    1.24
  -6  -2  -6   10.99    1.80
  -5  -2  -6   15.43    2.00
  -4  -2  -6    7.37    1.18
  -3  -2  -6   33.99    2.44
  -2  -2  -6    5.13    0.89
  -1  -2  -6   81.51    3.49
   0  -2  -6   57.08    2.70
   1  -2  -6   31.36    1.70
   2  -2  -6   54.75    2.91
   3  -2  -6   26.50    2.15
   4  -2  -6    5.55    0.96
   5  -2  -6   47.03    2.64
   6  -2  -6   19.47    1.83
   7  -2  -6    7.17    1.18
   8  -2  -6    1.92    0.77
   9  -2  -6    1.78    1.04
  10  -2  -6   22.56    4.63
  11  -2  -6    2.90    2.25
 -10  -1  -6   18.63    2.48
  -9  -1  -6    1.46    0.81
  -8  -1  -6   23.61    2.12
  -7  -1  -6   25.46    2.02
  -6  -1  -6   13.45    1.90
  -5  -1  -6   58.84    3.07
  -4  -1  -6   27.47    2.24
  -3  -1  -6    7.99    1.07
  -2  -1  -6   27.49    2.06
  -1  -1  -6   32.86    1.81
   0  -1  -6   42.56    1.89
   1  -1  -6   38.06    1.80
   2  -1  -6   30.80    2.11
   3  -1  -6   78.36    3.67
   4  -1  -6    3.79    0.81
   5  -1  -6   29.99    2.29
   6  -1  -6   45.90    2.74
   7  -1  -6    4.07    0.96
   8  -1  -6   26.08    2.99
   9  -1  -6   49.64    4.41
  10  -1  -6    4.13    2.13
 -10   0  -6    1.99    0.89
  -9   0  -6    9.31    1.35
  -8   0  -6   28.38    2.30
  -7   0  -6   10.82    1.30
  -6   0  -6    1.50    0.61
  -5   0  -6   52.87    2.96
  -4   0  -6    2.19    0.70
  -3   0  -6    7.58    1.06
  -2   0  -6   56.16    2.42
  -1   0  -6   38.29    1.83
   0   0  -6    0.76    0.35
   1   0  -6   42.11    2.34
   2   0  -6   52.78    2.85
   3   0  -6    8.11    1.09
   4   0  -6    5.06    0.91
   5   0  -6   54.01    2.90
   6   0  -6    2.41    0.78
   7   0  -6    7.50    1.66
   8   0  -6   27.37    3.18
   9   0  -6   10.07    2.04
  10   0  -6   -0.08    1.54
 -11   1  -6    7.44    2.08
 -10   1  -6    3.44    0.98
  -9   1  -6   41.84    2.87
  -8   1  -6   20.42    1.89
  -7   1  -6    4.41    0.88
  -6   1  -6   47.75    2.34
  -5   1  -6   30.66    2.28
  -4   1  -6    4.74    0.86
  -3   1  -6   79.60    3.06
  -2   1  -6   32.67    1.77
  -1   1  -6   40.00    1.83
   0   1  -6   39.47    2.29
   1   1  -6   29.94    2.07
   2   1  -6   26.35    1.98
   3   1  -6    6.09    1.00
   4   1  -6   29.63    2.28
   5   1  -6   52.26    3.79
   6   1  -6   13.06    2.05
   7   1  -6   26.98    3.05
   8   1  -6   29.64    3.48
   9   1  -6    1.31    1.20
  10   1  -6   12.56    2.68
 -11   2  -6    2.20    1.04
 -10   2  -6   22.94    2.07
  -9   2  -6    3.71    0.89
  -8   2  -6    3.19    0.82
  -7   2  -6    7.28    1.03
  -6   2  -6   17.55    1.40
  -5   2  -6   47.82    2.77
  -4   2  -6    4.19    0.82
  -3   2  -6   26.54    1.75
  -2   2  -6   54.54    2.33
  -1   2  -6   30.43    2.11
   0   2  -6   56.03    2.88
   1   2  -6   80.37    3.25
   2   2  -6    4.85    0.81
   3   2  -6   36.39    2.74
   4   2  -6    4.77    1.05
   5   2  -6   15.24    1.85
   6   2  -6   11.45    1.70
   7   2  -6    2.60    0.98
   8   2  -6   11.52    2.14
   9   2  -6    3.90    1.52
 -12   3  -6    1.49    1.45
 -11   3  -6    0.75    0.84
 -10   3  -6    5.69    1.12
  -9   3  -6   14.59    1.63
  -8   3  -6    6.97    1.07
  -7   3  -6   65.42    3.01
  -6   3  -6   61.32    2.55
  -5   3  -6   37.32    1.92
  -4   3  -6    7.68    0.89
  -3   3  -6    8.30    0.90
  -2   3  -6   84.08    3.30
  -1   3  -6   26.80    1.87
   0   3  -6    9.26    1.03
   1   3  -6    4.92    0.94
   2   3  -6   50.16    2.82
   3   3  -6   60.77    3.40
   4   3  -6   16.58    1.91
   5   3  -6    7.53    1.32
   6   3  -6   22.35    2.37
   7   3  -6   10.25    1.68
   8   3  -6    0.24    1.14
   9   3  -6    4.10    2.66
 -12   4  -6    7.82    2.23
 -11   4  -6   24.06    3.79
 -10   4  -6   22.48    2.11
  -9   4  -6    7.89    1.18
  -8   4  -6    2.67    0.81
  -7   4  -6   19.95    1.72
  -6   4  -6    9.26    0.98
  -5   4  -6   30.29    1.57
  -4   4  -6    3.87    0.60
  -3   4  -6    3.36    0.69
  -2   4  -6    4.68    0.77
  -1   4  -6    7.74    0.96
   0   4  -6    4.67    0.97
   1   4  -6   29.61    2.41
   2   4  -6   17.94    1.90
   3   4  -6   69.06    3.62
   4   4  -6    3.33    0.98
   5   4  -6    7.14    1.37
   6   4  -6    9.84    1.69
   7   4  -6   42.15    3.52
   8   4  -6    9.64    2.12
 -12   5  -6    1.66    1.00
 -11   5  -6    6.23    1.33
 -10   5  -6   12.79    1.77
  -9   5  -6    6.33    1.12
  -8   5  -6    9.54    1.25
  -7   5  -6   16.50    1.55
  -6   5  -6   56.02    2.15
  -5   5  -6   55.07    1.87
  -4   5  -6   29.26    1.99
  -3   5  -6   50.55    2.36
  -2   5  -6   38.78    2.47
  -1   5  -6   31.59    2.30
   0   5  -6   48.23    3.06
   1   5  -6   48.90    3.02
   2   5  -6    8.07    1.27
   3   5  -6    5.94    1.15
   4   5  -6    9.70    1.57
   5   5  -6   10.89    1.73
   6   5  -6    7.35    1.53
   7   5  -6    6.60    1.92
 -12   6  -6    9.91    1.71
 -11   6  -6    4.61    1.12
 -10   6  -6   10.61    1.62
  -9   6  -6   17.36    2.03
  -8   6  -6   10.98    1.31
  -7   6  -6   10.90    0.95
  -6   6  -6    2.08    0.42
  -5   6  -6   48.27    1.99
  -4   6  -6   20.03    1.68
  -3   6  -6   62.48    2.94
  -2   6  -6    7.43    1.14
  -1   6  -6   55.43    3.12
   0   6  -6    3.07    0.86
   1   6  -6    4.93    1.09
   2   6  -6    2.29    0.85
   3   6  -6   17.71    2.09
   4   6  -6   28.15    2.66
   5   6  -6    5.38    1.36
   6   6  -6   13.27    2.66
 -12   7  -6    6.14    1.46
 -11   7  -6   43.70    3.42
 -10   7  -6   12.18    1.69
  -9   7  -6    4.38    1.12
  -8   7  -6   27.69    2.03
  -7   7  -6   11.42    1.06
  -6   7  -6    4.97    0.71
  -5   7  -6    6.94    1.24
  -4   7  -6   69.62    3.67
  -3   7  -6   16.41    1.97
  -2   7  -6   16.43    2.00
  -1   7  -6   13.35    2.21
   0   7  -6    9.25    1.90
   1   7  -6   23.61    3.14
   2   7  -6    0.69    1.20
   3   7  -6    5.04    1.69
   4   7  -6   22.91    4.61
   5   7  -6    2.50    1.44
 -12   8  -6    9.30    1.72
 -11   8  -6    1.07    0.86
 -10   8  -6   10.49    1.62
  -9   8  -6   26.78    2.62
  -8   8  -6   33.52    2.83
  -7   8  -6   21.43    2.68
  -6   8  -6    3.07    0.98
  -5   8  -6    5.83    1.24
  -4   8  -6    1.76    0.85
  -3   8  -6    8.71    1.44
  -2   8  -6   14.83    1.92
  -1   8  -6   27.48    3.29
   0   8  -6   23.00    3.18
   1   8  -6   46.03    4.59
   2   8  -6   22.53    3.32
   3   8  -6    1.36    1.07
   4   8  -6    7.64    2.91
 -12   9  -6    5.09    1.97
 -11   9  -6    2.36    1.57
 -10   9  -6    1.16    0.96
  -9   9  -6   13.06    1.87
  -8   9  -6   48.13    4.17
  -7   9  -6    3.37    1.01
  -6   9  -6   12.94    2.34
  -5   9  -6   10.79    2.08
  -4   9  -6    4.37    1.21
  -3   9  -6   21.52    2.36
  -2   9  -6    2.00    0.91
  -1   9  -6   23.46    3.32
   0   9  -6    9.02    1.96
   1   9  -6    2.27    1.33
   2   9  -6    0.96    1.35
 -11  10  -6   22.13    2.57
 -10  10  -6    3.40    1.21
  -9  10  -6    1.56    1.54
  -8  10  -6   26.72    3.21
  -7  10  -6    5.62    1.32
  -6  10  -6   29.60    3.71
  -5  10  -6   14.03    2.60
  -4  10  -6    8.99    2.20
  -3  10  -6   10.23    1.70
  -2  10  -6   10.74    1.87
  -1  10  -6   -0.05    1.18
   0  10  -6    2.52    1.41
   1  10  -6    2.44    1.95
 -10  11  -6    4.11    2.05
  -9  11  -6    2.42    1.40
  -8  11  -6    1.45    1.27
  -7  11  -6   26.37    3.57
  -6  11  -6    5.26    1.83
  -5  11  -6    6.40    2.07
  -4  11  -6   40.23    4.72
  -3  11  -6    0.68    1.32
  -2  11  -6    2.80    1.26
  -1  11  -6   13.82    3.42
  -9  12  -6    3.43    1.74
  -8  12  -6   11.16    3.74
  -7  12  -6    0.96    1.36
  -6  12  -6   15.94    2.96
  -5  12  -6    6.76    2.14
  -4  12  -6    4.91    2.92
   5 -13  -5    0.40    1.44
   6 -13  -5    9.13    2.53
   7 -13  -5    2.92    1.15
   8 -13  -5    2.86    1.18
   9 -13  -5   10.14    1.99
  10 -13  -5    0.98    1.16
   2 -12  -5    7.03    2.10
   3 -12  -5    1.80    1.32
   4 -12  -5   20.76    3.39
   5 -12  -5    9.33    1.66
   6 -12  -5   16.61    2.15
   7 -12  -5   11.78    1.86
   8 -12  -5   34.45    3.28
   9 -12  -5    1.04    0.98
  10 -12  -5    4.12    1.33
  11 -12  -5    2.54    1.26
   0 -11  -5   11.96    2.67
   1 -11  -5   16.87    3.01
   2 -11  -5    9.78    2.39
   3 -11  -5   20.33    2.42
   4 -11  -5   14.16    2.01
   5 -11  -5   24.92    2.66
   6 -11  -5   11.50    1.78
   7 -11  -5   17.13    2.24
   8 -11  -5   35.77    3.32
   9 -11  -5    2.52    1.02
  10 -11  -5   15.53    2.24
  11 -11  -5    8.16    2.77
  -2 -10  -5    4.41    1.86
  -1 -10  -5   10.33    2.36
   0 -10  -5   43.22    4.97
   1 -10  -5   39.52    3.33
   2 -10  -5   11.59    1.73
   3 -10  -5   23.71    2.47
   4 -10  -5    9.91    1.65
   5 -10  -5    0.20    0.60
   6 -10  -5    8.77    1.45
   7 -10  -5    7.76    1.52
   8 -10  -5   23.68    2.57
   9 -10  -5   17.05    2.20
  10 -10  -5   59.79    3.98
  11 -10  -5   12.77    3.28
  12 -10  -5    6.88    2.62
  -4  -9  -5    9.44    2.59
  -3  -9  -5    1.66    1.32
  -2  -9  -5    3.13    1.48
  -1  -9  -5   13.93    1.97
   0  -9  -5    0.52    0.65
   1  -9  -5   16.21    2.03
   2  -9  -5   10.37    1.62
   3  -9  -5    8.26    1.39
   4  -9  -5   49.55    3.24
   5  -9  -5   18.06    2.10
   6  -9  -5   20.25    2.27
   7  -9  -5    9.36    1.56
   8  -9  -5   24.42    2.55
   9  -9  -5    0.22    0.73
  10  -9  -5   39.82    5.46
  11  -9  -5    9.00    2.69
  12  -9  -5    4.00    2.22
  -5  -8  -5    3.64    1.66
  -4  -8  -5   40.07    4.68
  -3  -8  -5   44.60    3.56
  -2  -8  -5   21.99    2.43
  -1  -8  -5   19.92    2.28
   0  -8  -5    6.28    1.28
   1  -8  -5   14.24    1.82
   2  -8  -5   61.26    3.63
   3  -8  -5   51.37    3.25
   4  -8  -5   69.48    3.15
   5  -8  -5   17.37    1.59
   6  -8  -5   49.03    2.61
   7  -8  -5    6.13    1.00
   8  -8  -5    3.75    0.81
   9  -8  -5   11.08    1.85
  10  -8  -5    9.21    2.77
  11  -8  -5   16.02    3.62
  12  -8  -5   16.75    3.83
  13  -8  -5    2.07    2.42
  -6  -7  -5    1.81    0.98
  -5  -7  -5   14.76    1.95
  -4  -7  -5   15.90    1.64
  -3  -7  -5    7.73    1.44
  -2  -7  -5    8.29    1.48
  -1  -7  -5    7.53    1.37
   0  -7  -5   21.09    1.78
   1  -7  -5   38.16    2.35
   2  -7  -5   51.52    2.61
   3  -7  -5   14.52    1.38
   4  -7  -5   22.72    1.71
   5  -7  -5   31.29    2.16
   6  -7  -5  116.16    4.55
   7  -7  -5   20.21    1.67
   8  -7  -5   20.83    1.74
   9  -7  -5   12.73    1.88
  10  -7  -5   23.98    2.78
  11  -7  -5   12.62    2.15
  12  -7  -5    5.07    1.66
  13  -7  -5    9.02    2.15
  -7  -6  -5   10.29    1.68
  -6  -6  -5   15.64    1.71
  -5  -6  -5   10.87    1.40
  -4  -6  -5   11.68    1.36
  -3  -6  -5   19.55    1.70
  -2  -6  -5   49.78    3.23
  -1  -6  -5  110.22    4.62
   0  -6  -5    1.14    0.51
   1  -6  -5   26.44    1.95
   2  -6  -5    5.69    0.86
   3  -6  -5   27.40    1.91
   4  -6  -5    2.22    0.59
   5  -6  -5   10.81    1.14
   6  -6  -5    0.94    0.48
   7  -6  -5   38.03    2.20
   8  -6  -5   64.23    3.97
   9  -6  -5    5.62    1.36
  10  -6  -5    9.04    1.66
  11  -6  -5   24.66    3.05
  12  -6  -5   15.75    2.51
  13  -6  -5    0.42    1.25
  -8  -5  -5    0.25    0.72
  -7  -5  -5    7.17    1.22
  -6  -5  -5   24.57    2.10
  -5  -5  -5    0.99    0.61
  -4  -5  -5   19.94    1.72
  -3  -5  -5   18.55    1.60
  -2  -5  -5   32.91    1.81
  -1  -5  -5   11.69    1.28
   0  -5  -5   79.45    3.46
   1  -5  -5   31.64    1.99
   2  -5  -5   78.54    3.44
   3  -5  -5   34.69    1.91
   4  -5  -5   91.93    3.62
   5  -5  -5   78.05    2.94
   6  -5  -5   29.50    1.55
   7  -5  -5   53.75    2.76
   8  -5  -5   57.20    3.68
   9  -5  -5   57.38    3.78
  10  -5  -5    0.27    0.82
  11  -5  -5   12.57    2.24
  12  -5  -5   16.22    2.67
  13  -5  -5    4.33    1.69
  -9  -4  -5   14.20    1.78
  -8  -4  -5   18.38    1.89
  -7  -4  -5   12.67    1.45
  -6  -4  -5   10.76    1.34
  -5  -4  -5   52.37    2.60
  -4  -4  -5   67.41    2.99
  -3  -4  -5   19.18    1.37
  -2  -4  -5    1.96    0.50
  -1  -4  -5   88.05    3.70
   0  -4  -5    0.55    0.45
   1  -4  -5   87.46    3.63
   2  -4  -5    6.94    0.88
   3  -4  -5   38.74    1.73
   4  -4  -5    0.32    0.32
   5  -4  -5   32.75    1.60
   6  -4  -5    6.76    0.98
   7  -4  -5   12.94    1.37
   8  -4  -5   62.63    4.08
   9  -4  -5   16.10    2.28
  10  -4  -5   12.90    2.06
  11  -4  -5   17.62    2.53
  12  -4  -5   45.31    4.34
  13  -4  -5   10.52    2.28
 -10  -3  -5    1.26    1.16
  -9  -3  -5    0.60    0.68
  -8  -3  -5   18.91    1.85
  -7  -3  -5   18.55    1.78
  -6  -3  -5    5.93    0.99
  -5  -3  -5   53.73    2.61
  -4  -3  -5   14.39    1.35
  -3  -3  -5   26.75    1.56
  -2  -3  -5   34.08    1.66
  -1  -3  -5   37.41    2.10
   0  -3  -5   65.22    2.97
   1  -3  -5   90.19    3.63
   2  -3  -5   99.69    3.41
   3  -3  -5   69.96    2.59
   4  -3  -5   90.34    3.14
   5  -3  -5   85.46    3.76
   6  -3  -5   29.31    2.17
   7  -3  -5   20.24    1.78
   8  -3  -5   18.19    1.83
   9  -3  -5   22.57    2.64
  10  -3  -5    7.74    1.71
  11  -3  -5   39.48    3.93
  12  -3  -5   -0.56    1.38
 -10  -2  -5    6.64    1.23
  -9  -2  -5    8.78    1.32
  -8  -2  -5   12.04    1.42
  -7  -2  -5   12.13    1.37
  -6  -2  -5   62.40    2.92
  -5  -2  -5   54.93    2.55
  -4  -2  -5    6.22    0.80
  -3  -2  -5   78.64    2.93
  -2  -2  -5    8.94    0.80
  -1  -2  -5   96.30    3.92
   0  -2  -5   49.56    2.07
   1  -2  -5   21.31    1.25
   2  -2  -5   52.10    2.02
   3  -2  -5   89.82    3.12
   4  -2  -5    9.08    1.08
   5  -2  -5   32.68    2.12
   6  -2  -5    2.17    0.63
   7  -2  -5   33.01    2.28
   8  -2  -5   48.67    2.97
   9  -2  -5    5.31    1.12
  10  -2  -5   17.32    2.49
  11  -2  -5    0.70    1.64
  12  -2  -5    7.78    2.99
 -11  -1  -5    0.16    0.85
 -10  -1  -5   15.13    1.78
  -9  -1  -5   41.30    2.82
  -8  -1  -5   13.84    1.50
  -7  -1  -5   16.64    1.56
  -6  -1  -5   38.20    2.27
  -5  -1  -5   30.81    1.99
  -4  -1  -5   34.46    1.67
  -3  -1  -5   93.22    3.09
  -2  -1  -5   91.73    3.02
  -1  -1  -5   18.06    1.26
   0  -1  -5   57.58    2.26
   1  -1  -5   60.15    2.25
   2  -1  -5   22.44    1.17
   3  -1  -5   99.64    4.17
   4  -1  -5   34.29    2.06
   5  -1  -5   85.26    3.86
   6  -1  -5   13.14    1.40
   7  -1  -5  122.46    5.01
   8  -1  -5    8.45    1.24
   9  -1  -5   26.39    2.32
  10  -1  -5   13.02    3.30
  11  -1  -5   14.95    3.80
 -11   0  -5   10.16    1.74
 -10   0  -5   55.45    3.07
  -9   0  -5    0.06    0.57
  -8   0  -5    4.68    0.93
  -7   0  -5   14.56    1.48
  -6   0  -5    1.19    0.53
  -5   0  -5   76.00    2.91
  -4   0  -5    0.44    0.34
  -3   0  -5   68.37    2.50
  -2   0  -5   52.89    1.76
  -1   0  -5   56.93    2.58
   0   0  -5    0.19    0.25
   1   0  -5   57.10    2.19
   2   0  -5   49.83    2.47
   3   0  -5   66.67    3.17
   4   0  -5    0.71    0.43
   5   0  -5   83.37    3.68
   6   0  -5    1.06    0.52
   7   0  -5   16.43    1.71
   8   0  -5    2.73    1.16
   9   0  -5    0.15    0.85
  10   0  -5   54.83    4.93
  11   0  -5    8.22    2.96
 -12   1  -5    3.75    1.67
 -11   1  -5   12.88    1.84
 -10   1  -5   13.32    1.54
  -9   1  -5   23.70    1.98
  -8   1  -5    8.43    1.13
  -7   1  -5  113.60    4.46
  -6   1  -5   12.83    1.28
  -5   1  -5   86.06    3.10
  -4   1  -5   37.34    1.71
  -3   1  -5   97.50    2.96
  -2   1  -5   22.15    1.05
  -1   1  -5   56.98    2.24
   0   1  -5   58.78    2.20
   1   1  -5   19.70    1.38
   2   1  -5   91.64    3.44
   3   1  -5   93.15    3.46
   4   1  -5   32.25    1.87
   5   1  -5   27.40    1.74
   6   1  -5   31.09    2.65
   7   1  -5   15.96    1.78
   8   1  -5   13.56    2.14
   9   1  -5   44.44    4.27
  10   1  -5   23.36    3.14
 -12   2  -5    3.71    1.16
 -11   2  -5    3.26    1.06
 -10   2  -5   22.49    2.03
  -9   2  -5    8.26    1.14
  -8   2  -5   51.20    2.69
  -7   2  -5   32.24    2.07
  -6   2  -5    1.41    0.48
  -5   2  -5   31.46    1.73
  -4   2  -5    9.86    0.70
  -3   2  -5   88.31    2.76
  -2   2  -5   50.98    1.73
  -1   2  -5   19.31    1.07
   0   2  -5   52.78    2.22
   1   2  -5   99.07    3.65
   2   2  -5    7.70    0.85
   3   2  -5   86.99    3.29
   4   2  -5    5.22    0.97
   5   2  -5   54.75    3.00
   6   2  -5   61.84    3.42
   7   2  -5   13.98    1.74
   8   2  -5   10.02    1.94
   9   2  -5    9.42    2.08
  10   2  -5    4.86    1.77
 -12   3  -5    1.45    0.91
 -11   3  -5   31.49    2.91
 -10   3  -5    8.46    1.25
  -9   3  -5   24.69    2.01
  -8   3  -5   16.86    1.56
  -7   3  -5   18.23    1.58
  -6   3  -5   28.57    1.51
  -5   3  -5   86.13    2.65
  -4   3  -5   95.00    2.55
  -3   3  -5   71.11    2.11
  -2   3  -5   99.67    3.09
  -1   3  -5   90.24    2.85
   0   3  -5   69.08    2.80
   1   3  -5   35.25    1.90
   2   3  -5   33.96    2.29
   3   3  -5   29.27    2.33
   4   3  -5   13.47    1.58
   5   3  -5   56.11    3.14
   6   3  -5    6.79    1.28
   7   3  -5   22.37    2.32
   8   3  -5   19.50    2.79
   9   3  -5    0.79    1.19
  10   3  -5    3.78    2.35
 -13   4  -5    9.95    2.39
 -12   4  -5   31.47    2.91
 -11   4  -5   13.96    1.87
 -10   4  -5    8.62    1.37
  -9   4  -5   20.52    1.85
  -8   4  -5   61.79    2.99
  -7   4  -5   13.25    1.11
  -6   4  -5    7.22    0.66
  -5   4  -5   29.68    1.24
  -4   4  -5    0.69    0.25
  -3   4  -5   35.32    1.30
  -2   4  -5    8.79    0.71
  -1   4  -5   94.89    3.45
   0   4  -5    0.84    0.38
   1   4  -5   88.46    4.07
   2   4  -5    2.97    0.75
   3   4  -5   20.60    1.88
   4   4  -5   63.42    3.50
   5   4  -5   55.00    3.18
   6   4  -5    8.60    1.46
   7   4  -5    9.32    1.62
   8   4  -5   15.49    2.64
   9   4  -5   11.05    2.35
 -13   5  -5    1.83    1.01
 -12   5  -5   14.56    1.97
 -11   5  -5   10.21    1.57
 -10   5  -5    1.78    0.78
  -9   5  -5   50.91    2.34
  -8   5  -5   58.03    2.33
  -7   5  -5   54.29    2.19
  -6   5  -5   30.05    1.21
  -5   5  -5   81.86    2.12
  -4   5  -5   92.12    2.27
  -3   5  -5   31.73    1.39
  -2   5  -5   86.42    2.99
  -1   5  -5   27.07    1.88
   0   5  -5   75.97    3.75
   1   5  -5    9.79    1.29
   2   5  -5   31.44    2.35
   3   5  -5   18.78    1.93
   4   5  -5   18.49    1.99
   5   5  -5    0.30    0.61
   6   5  -5   25.67    2.54
   7   5  -5    7.93    1.86
   8   5  -5    1.24    1.27
 -13   6  -5    2.20    1.06
 -12   6  -5   13.35    2.71
 -11   6  -5   23.04    3.54
 -10   6  -5   11.66    1.37
  -9   6  -5    7.37    1.03
  -8   6  -5   59.91    2.76
  -7   6  -5   34.19    1.64
  -6   6  -5    1.09    0.32
  -5   6  -5   12.31    0.77
  -4   6  -5    1.94    0.44
  -3   6  -5   27.55    1.80
  -2   6  -5    7.15    0.95
  -1   6  -5   30.88    1.91
   0   6  -5    0.58    0.48
   1   6  -5  119.84    5.18
   2   6  -5   55.60    3.05
   3   6  -5   22.76    2.19
   4   6  -5   11.58    1.66
   5   6  -5    7.90    1.48
   6   6  -5   16.73    2.12
   7   6  -5   10.28    2.10
 -13   7  -5    6.97    1.50
 -12   7  -5    5.44    1.31
 -11   7  -5   12.27    1.42
 -10   7  -5   17.91    1.68
  -9   7  -5    9.59    1.19
  -8   7  -5   19.64    1.46
  -7   7  -5   19.18    1.29
  -6   7  -5  119.02    3.37
  -5   7  -5   32.93    1.75
  -4   7  -5   19.80    1.42
  -3   7  -5   13.68    1.35
  -2   7  -5   54.68    3.13
  -1   7  -5   31.38    2.85
   0   7  -5   16.96    1.97
   1   7  -5    6.57    1.60
   2   7  -5    6.59    1.70
   3   7  -5    8.47    2.00
   4   7  -5   12.00    2.37
   5   7  -5   13.61    2.57
   6   7  -5    0.84    1.33
 -13   8  -5    0.20    0.90
 -12   8  -5   22.98    2.05
 -11   8  -5   21.54    1.92
 -10   8  -5   12.72    1.42
  -9   8  -5   10.58    1.61
  -8   8  -5    3.81    0.83
  -7   8  -5    7.38    0.99
  -6   8  -5   52.56    3.12
  -5   8  -5   17.83    1.55
  -4   8  -5   66.72    3.57
  -3   8  -5   58.32    3.27
  -2   8  -5   62.22    3.58
  -1   8  -5   17.17    2.02
   0   8  -5    2.90    0.98
   1   8  -5   27.46    3.34
   2   8  -5   24.89    3.23
   3   8  -5   39.01    4.33
   4   8  -5   31.81    4.07
   5   8  -5    1.45    1.24
 -13   9  -5   10.80    1.80
 -12   9  -5    0.23    0.94
 -11   9  -5    9.14    1.56
 -10   9  -5   39.51    3.32
  -9   9  -5    1.12    0.70
  -8   9  -5   24.35    2.15
  -7   9  -5    8.99    1.40
  -6   9  -5   20.51    2.13
  -5   9  -5   22.99    1.82
  -4   9  -5   55.17    3.35
  -3   9  -5    5.81    1.27
  -2   9  -5   12.24    1.73
  -1   9  -5   13.22    1.83
   0   9  -5    0.24    0.76
   1   9  -5    8.84    2.03
   2   9  -5    3.22    1.54
   3   9  -5    1.23    1.21
   4   9  -5    6.08    3.03
 -13  10  -5    3.49    2.00
 -12  10  -5    4.95    1.39
 -11  10  -5   18.86    2.35
 -10  10  -5   52.96    3.72
  -9  10  -5   15.60    1.80
  -8  10  -5   22.36    2.77
  -7  10  -5    5.60    1.28
  -6  10  -5   13.14    1.80
  -5  10  -5    0.72    0.96
  -4  10  -5    9.56    1.55
  -3  10  -5   21.32    2.32
  -2  10  -5   10.48    1.69
  -1  10  -5   35.52    3.24
   0  10  -5   52.94    3.88
   1  10  -5   13.16    2.44
   2  10  -5    2.76    1.52
 -12  11  -5    2.09    1.19
 -11  11  -5   17.78    2.29
 -10  11  -5   12.81    2.29
  -9  11  -5    1.11    1.15
  -8  11  -5   41.51    3.92
  -7  11  -5   12.71    1.80
  -6  11  -5    6.80    1.86
  -5  11  -5   27.80    3.51
  -4  11  -5   14.17    2.62
  -3  11  -5   19.15    2.29
  -2  11  -5   11.14    1.78
  -1  11  -5   15.97    2.18
   0  11  -5   14.42    2.15
   1  11  -5    1.56    1.23
 -11  12  -5    0.98    1.73
 -10  12  -5    5.71    1.83
  -9  12  -5    1.14    1.19
  -8  12  -5   35.34    3.79
  -7  12  -5   13.60    1.97
  -6  12  -5   19.56    3.06
  -5  12  -5    7.90    2.08
  -4  12  -5   16.90    3.05
  -3  12  -5    2.04    1.47
  -2  12  -5    7.97    1.74
  -1  12  -5    2.38    1.43
 -10  13  -5    4.29    2.51
  -9  13  -5    7.93    1.94
  -8  13  -5    3.06    1.46
  -7  13  -5    1.38    1.40
  -6  13  -5    7.38    2.13
  -5  13  -5    2.59    1.43
  -4  13  -5   14.63    4.44
   6 -14  -4   11.80    2.56
   7 -14  -4    8.73    2.35
   8 -14  -4   31.11    4.22
   9 -14  -4    7.34    2.27
  10 -14  -4    0.42    1.73
   2 -13  -4    4.04    1.74
   3 -13  -4   13.66    2.87
   4 -13  -4   29.24    4.05
   5 -13  -4   15.82    2.94
   6 -13  -4    3.35    1.57
   7 -13  -4   15.23    2.91
   8 -13  -4    4.74    1.34
   9 -13  -4   24.43    2.80
  10 -13  -4    8.22    1.71
  11 -13  -4    5.11    1.47
  12 -13  -4    9.57    2.56
   0 -12  -4    1.67    1.29
   1 -12  -4    2.86    1.41
   2 -12  -4   24.72    3.70
   3 -12  -4    5.83    1.81
   4 -12  -4    0.17    0.94
   5 -12  -4    2.38    1.37
   6 -12  -4   10.33    1.65
   7 -12  -4    5.42    1.25
   8 -12  -4    2.22    1.02
   9 -12  -4    2.71    1.11
  10 -12  -4   92.63    6.53
  11 -12  -4    8.04    1.65
  12 -12  -4    0.51    1.05
  13 -12  -4   10.90    2.77
  -2 -11  -4    8.00    1.52
  -1 -11  -4    6.22    1.29
   0 -11  -4   -0.21    0.67
   1 -11  -4   20.50    3.07
   2 -11  -4   10.03    2.20
   3 -11  -4   40.02    4.33
   4 -11  -4    3.66    1.04
   5 -11  -4   40.87    3.10
   6 -11  -4   50.93    3.34
   7 -11  -4   12.56    1.77
   8 -11  -4   25.88    2.70
   9 -11  -4    7.74    1.51
  10 -11  -4    8.25    1.57
  11 -11  -4   -0.22    0.74
  12 -11  -4    2.17    1.18
  13 -11  -4    1.29    1.75
  -4 -10  -4    2.10    1.61
  -3 -10  -4    4.63    1.25
  -2 -10  -4   69.59    4.06
  -1 -10  -4    8.34    1.44
   0 -10  -4    5.79    1.18
   1 -10  -4   18.87    2.02
   2 -10  -4   16.48    1.97
   3 -10  -4    3.28    0.91
   4 -10  -4   23.96    2.43
   5 -10  -4   13.30    1.72
   6 -10  -4   55.35    3.43
   7 -10  -4    8.49    1.42
   8 -10  -4    9.86    1.63
   9 -10  -4   12.88    1.80
  10 -10  -4    6.77    1.47
  11 -10  -4   22.21    2.56
  12 -10  -4   20.24    2.68
  13 -10  -4   10.81    3.21
  -5  -9  -4    3.73    1.23
  -4  -9  -4   21.96    2.45
  -3  -9  -4    3.35    1.05
  -2  -9  -4    5.14    1.25
  -1  -9  -4   16.18    1.82
   0  -9  -4    2.45    0.68
   1  -9  -4   18.38    1.56
   2  -9  -4   48.85    2.39
   3  -9  -4   45.91    2.89
   4  -9  -4   12.59    1.61
   5  -9  -4   27.49    2.42
   6  -9  -4   28.23    2.50
   7  -9  -4   25.72    2.47
   8  -9  -4   14.38    1.86
   9  -9  -4    1.84    0.81
  10  -9  -4   14.85    2.05
  11  -9  -4   17.31    2.21
  12  -9  -4    3.87    2.05
  13  -9  -4   29.50    5.13
  -6  -8  -4   25.71    2.65
  -5  -8  -4    8.97    1.56
  -4  -8  -4    2.71    0.97
  -3  -8  -4   23.83    2.40
  -2  -8  -4   10.97    1.25
  -1  -8  -4   15.06    1.43
   0  -8  -4   26.68    1.88
   1  -8  -4   50.38    2.35
   2  -8  -4   20.30    1.50
   3  -8  -4   14.81    1.68
   4  -8  -4   25.72    2.26
   5  -8  -4   28.57    2.41
   6  -8  -4   40.07    2.77
   7  -8  -4   69.94    3.87
   8  -8  -4   27.21    2.05
   9  -8  -4   22.19    1.91
  10  -8  -4   21.62    2.34
  11  -8  -4   41.07    5.54
  12  -8  -4    0.30    1.51
  13  -8  -4   18.57    4.15
  14  -8  -4    4.90    2.69
  -7  -7  -4   11.76    1.86
  -6  -7  -4   10.71    1.71
  -5  -7  -4    4.68    1.14
  -4  -7  -4   10.26    1.23
  -3  -7  -4    7.97    1.08
  -2  -7  -4   25.36    1.86
  -1  -7  -4   67.67    2.97
   0  -7  -4   14.54    1.11
   1  -7  -4   28.64    1.59
   2  -7  -4   23.61    1.41
   3  -7  -4   26.00    1.72
   4  -7  -4   58.38    2.56
   5  -7  -4   11.38    1.14
   6  -7  -4   70.54    3.03
   7  -7  -4   16.36    1.45
   8  -7  -4   46.83    2.49
   9  -7  -4   55.15    2.66
  10  -7  -4    7.35    1.50
  11  -7  -4    2.19    0.95
  12  -7  -4    3.77    1.37
  13  -7  -4    4.16    1.56
  14  -7  -4   10.82    2.43
  -8  -6  -4   12.49    1.87
  -7  -6  -4    5.12    1.25
  -6  -6  -4   11.61    1.67
  -5  -6  -4   46.96    2.82
  -4  -6  -4   54.03    2.73
  -3  -6  -4   28.95    1.97
  -2  -6  -4   36.69    2.09
  -1  -6  -4   63.96    2.53
   0  -6  -4    5.89    0.69
   1  -6  -4   67.55    2.41
   2  -6  -4   24.73    1.28
   3  -6  -4   62.21    2.79
   4  -6  -4   13.93    1.21
   5  -6  -4   25.89    1.69
   6  -6  -4    9.04    1.01
   7  -6  -4   30.46    1.95
   8  -6  -4   18.83    1.60
   9  -6  -4   46.77    2.52
  10  -6  -4   23.37    2.76
  11  -6  -4   42.59    3.94
  12  -6  -4   10.59    2.06
  13  -6  -4   13.98    2.47
  14  -6  -4   32.44    3.84
  -9  -5  -4    3.39    1.15
  -8  -5  -4   20.81    2.30
  -7  -5  -4    3.57    0.88
  -6  -5  -4   37.34    2.59
  -5  -5  -4   14.30    1.44
  -4  -5  -4   24.98    1.86
  -3  -5  -4   30.55    1.83
  -2  -5  -4   10.30    1.05
  -1  -5  -4   26.12    1.42
   0  -5  -4   21.06    1.15
   1  -5  -4   36.61    1.47
   2  -5  -4   75.05    2.51
   3  -5  -4   62.42    2.69
   4  -5  -4   51.86    2.35
   5  -5  -4   19.63    1.23
   6  -5  -4   66.71    2.49
   7  -5  -4   26.19    1.49
   8  -5  -4   14.65    1.37
   9  -5  -4   12.10    1.86
  10  -5  -4   14.12    2.08
  11  -5  -4   47.62    4.32
  12  -5  -4    6.20    1.62
  13  -5  -4    5.87    1.81
  14  -5  -4    4.86    1.85
 -10  -4  -4    4.39    2.14
  -9  -4  -4   27.49    2.71
  -8  -4  -4    0.61    0.69
  -7  -4  -4    2.52    0.77
  -6  -4  -4   24.77    1.98
  -5  -4  -4   11.17    1.24
  -4  -4  -4   24.08    1.73
  -3  -4  -4   52.34    2.40
  -2  -4  -4   14.10    1.07
  -1  -4  -4   51.21    2.00
   0  -4  -4   33.13    1.41
   1  -4  -4   49.24    1.77
   2  -4  -4  157.02    4.66
   3  -4  -4   83.77    2.91
   4  -4  -4   33.74    1.49
   5  -4  -4   33.98    1.51
   6  -4  -4   26.41    1.33
   7  -4  -4   24.20    1.40
   8  -4  -4   26.69    1.92
   9  -4  -4   31.11    2.95
  10  -4  -4   56.83    4.00
  11  -4  -4   14.46    2.26
  12  -4  -4    1.14    1.14
  13  -4  -4   25.29    3.41
  14  -4  -4    1.39    2.17
 -10  -3  -4   12.99    1.89
  -9  -3  -4    5.00    1.05
  -8  -3  -4   35.20    2.52
  -7  -3  -4    4.54    0.88
  -6  -3  -4   41.81    2.48
  -5  -3  -4   14.31    1.35
  -4  -3  -4   23.37    1.72
  -3  -3  -4   62.83    2.42
  -2  -3  -4   60.37    2.28
  -1  -3  -4   81.88    2.77
   0  -3  -4   92.67    2.94
   1  -3  -4   18.27    0.89
   2  -3  -4   32.33    1.42
   3  -3  -4   91.72    3.10
   4  -3  -4   48.36    1.87
   5  -3  -4   73.61    2.64
   6  -3  -4   66.07    2.42
   7  -3  -4   59.22    2.79
   8  -3  -4   35.86    2.26
   9  -3  -4   28.53    2.91
  10  -3  -4    9.20    1.79
  11  -3  -4   26.09    3.16
  12  -3  -4    1.10    1.25
  13  -3  -4    2.13    1.46
 -11  -2  -4    1.68    1.07
 -10  -2  -4   28.46    2.74
  -9  -2  -4   13.59    1.60
  -8  -2  -4   15.77    1.61
  -7  -2  -4   46.75    2.60
  -6  -2  -4   19.55    1.65
  -5  -2  -4   24.72    1.72
  -4  -2  -4   26.88    1.76
  -3  -2  -4   74.24    2.66
  -2  -2  -4  156.13    4.80
  -1  -2  -4   35.55    1.37
   0  -2  -4    7.78    0.53
   1  -2  -4   48.28    1.84
   2  -2  -4    6.98    0.62
   3  -2  -4   19.42    1.01
   4  -2  -4  159.28    4.93
   5  -2  -4   61.70    2.27
   6  -2  -4   15.00    1.39
   7  -2  -4    8.52    1.14
   8  -2  -4   39.57    2.48
   9  -2  -4   23.44    2.17
  10  -2  -4    9.49    1.83
  11  -2  -4    6.51    1.56
  12  -2  -4   85.10    7.99
  13  -2  -4   10.68    3.43
 -11  -1  -4    3.51    1.13
 -10  -1  -4   16.52    2.00
  -9  -1  -4   14.50    1.55
  -8  -1  -4   19.16    1.73
  -7  -1  -4   43.67    2.46
  -6  -1  -4   30.99    1.95
  -5  -1  -4   67.33    2.83
  -4  -1  -4   35.05    1.60
  -3  -1  -4   48.06    1.87
  -2  -1  -4   18.69    0.99
  -1  -1  -4   46.31    1.56
   0  -1  -4   14.78    0.70
   1  -1  -4   14.29    0.86
   2  -1  -4   46.79    1.77
   3  -1  -4   34.14    1.35
   4  -1  -4   82.63    2.79
   5  -1  -4   53.36    2.58
   6  -1  -4   24.48    1.80
   7  -1  -4   69.59    3.32
   8  -1  -4   70.41    3.52
   9  -1  -4   14.93    1.67
  10  -1  -4   12.33    1.71
  11  -1  -4   10.33    3.14
  12  -1  -4    5.16    2.65
 -12   0  -4    3.01    1.17
 -11   0  -4   -0.06    0.66
 -10   0  -4    5.97    1.13
  -9   0  -4    2.48    0.74
  -8   0  -4   22.70    1.90
  -7   0  -4   13.25    1.32
  -6   0  -4    6.48    0.87
  -5   0  -4   20.14    1.47
  -4   0  -4   33.51    1.30
  -3   0  -4   90.58    2.63
  -2   0  -4    7.29    0.57
  -1   0  -4   15.09    0.83
   0   0  -4  860.64   21.46
   1   0  -4   15.86    0.86
   2   0  -4    6.54    0.51
   3   0  -4   90.04    3.36
   4   0  -4   33.56    1.63
   5   0  -4   21.71    1.42
   6   0  -4    6.66    0.82
   7   0  -4   16.36    1.36
   8   0  -4   25.31    2.18
   9   0  -4    3.81    1.24
  10   0  -4    4.20    1.38
  11   0  -4    2.77    1.90
  12   0  -4    1.15    1.84
 -12   1  -4    5.77    1.33
 -11   1  -4    8.35    1.48
 -10   1  -4   12.25    1.66
  -9   1  -4   12.92    1.43
  -8   1  -4   67.78    3.14
  -7   1  -4   66.19    2.99
  -6   1  -4   26.71    1.36
  -5   1  -4   56.11    1.86
  -4   1  -4   86.12    2.73
  -3   1  -4   35.98    1.15
  -2   1  -4   46.88    1.57
  -1   1  -4   14.33    0.69
   0   1  -4   14.08    0.78
   1   1  -4   47.00    1.74
   2   1  -4   15.88    1.08
   3   1  -4   44.75    2.01
   4   1  -4   32.56    1.68
   5   1  -4   71.23    2.75
   6   1  -4   27.27    1.76
   7   1  -4   49.71    2.98
   8   1  -4   22.39    2.63
   9   1  -4   19.71    2.66
  10   1  -4   20.07    2.76
  11   1  -4    0.89    1.59
 -13   2  -4    4.83    1.32
 -12   2  -4   72.14    4.21
 -11   2  -4    8.65    1.38
 -10   2  -4   14.01    1.70
  -9   2  -4   23.52    1.97
  -8   2  -4   41.09    1.89
  -7   2  -4    9.63    0.91
  -6   2  -4   14.30    1.04
  -5   2  -4   63.17    2.08
  -4   2  -4  157.32    3.98
  -3   2  -4   17.28    0.83
  -2   2  -4    8.16    0.50
  -1   2  -4   46.88    1.43
   0   2  -4    6.61    0.53
   1   2  -4   35.54    1.20
   2   2  -4  158.08    5.34
   3   2  -4   74.39    2.88
   4   2  -4   26.06    1.54
   5   2  -4   25.15    2.06
   6   2  -4   17.67    1.82
   7   2  -4   51.82    2.98
   8   2  -4   18.54    2.57
   9   2  -4   16.48    2.51
  10   2  -4   22.24    3.18
  11   2  -4    3.40    1.62
 -13   3  -4    4.67    1.25
 -12   3  -4    4.25    1.16
 -11   3  -4   24.82    2.45
 -10   3  -4    6.12    1.17
  -9   3  -4   26.55    1.74
  -8   3  -4   32.41    1.80
  -7   3  -4   58.24    2.19
  -6   3  -4   66.92    2.16
  -5   3  -4   76.44    2.19
  -4   3  -4   45.56    1.34
  -3   3  -4   92.47    2.21
  -2   3  -4   35.88    1.10
  -1   3  -4   17.43    0.82
   0   3  -4   88.28    3.31
   1   3  -4   85.16    3.10
   2   3  -4   61.42    2.49
   3   3  -4   61.07    3.17
   4   3  -4   21.78    1.98
   5   3  -4   11.90    1.47
   6   3  -4   46.28    2.78
   7   3  -4    4.61    1.05
   8   3  -4   37.28    3.78
   9   3  -4    5.01    1.58
  10   3  -4   16.65    2.72
 -13   4  -4   22.40    2.58
 -12   4  -4    3.01    0.99
 -11   4  -4    9.02    1.51
 -10   4  -4   53.46    2.68
  -9   4  -4   22.21    1.73
  -8   4  -4   25.11    1.59
  -7   4  -4   25.98    1.56
  -6   4  -4   26.48    1.28
  -5   4  -4   34.12    1.11
  -4   4  -4   33.78    1.08
  -3   4  -4   86.15    2.07
  -2   4  -4  158.16    4.20
  -1   4  -4   43.53    1.81
   0   4  -4   33.65    1.47
   1   4  -4   55.42    2.73
   2   4  -4   13.03    1.39
   3   4  -4   54.74    2.92
   4   4  -4   23.82    2.09
   5   4  -4   12.84    1.57
   6   4  -4   23.44    2.33
   7   4  -4    2.52    0.93
   8   4  -4    1.03    1.05
   9   4  -4   28.56    3.53
  10   4  -4    2.65    1.47
 -13   5  -4    6.68    1.44
 -12   5  -4    6.15    1.05
 -11   5  -4   53.22    3.55
 -10   5  -4   14.69    1.41
  -9   5  -4   12.82    1.31
  -8   5  -4   15.12    1.35
  -7   5  -4   26.74    1.44
  -6   5  -4   69.67    1.83
  -5   5  -4   20.14    0.91
  -4   5  -4   56.42    1.52
  -3   5  -4   61.21    1.82
  -2   5  -4   77.29    2.63
  -1   5  -4   33.66    1.54
   0   5  -4   20.00    1.47
   1   5  -4   24.81    1.68
   2   5  -4   10.76    1.25
   3   5  -4   29.46    2.33
   4   5  -4   26.56    2.24
   5   5  -4   14.16    1.71
   6   5  -4   36.88    3.13
   7   5  -4    4.24    1.44
   8   5  -4   24.82    3.05
   9   5  -4    3.10    1.48
 -14   6  -4   25.69    3.99
 -13   6  -4   10.90    1.42
 -12   6  -4   10.47    1.68
 -11   6  -4   42.20    2.56
 -10   6  -4   26.86    2.01
  -9   6  -4   44.23    2.27
  -8   6  -4   15.92    1.27
  -7   6  -4   29.14    1.52
  -6   6  -4    7.35    0.60
  -5   6  -4   27.06    1.08
  -4   6  -4   14.49    0.85
  -3   6  -4   66.87    2.16
  -2   6  -4   28.27    1.61
  -1   6  -4   68.42    2.84
   0   6  -4    8.32    0.95
   1   6  -4   70.91    3.03
   2   6  -4   40.63    2.53
   3   6  -4   27.41    2.34
   4   6  -4   58.55    3.32
   5   6  -4   52.18    3.47
   6   6  -4    7.71    1.42
   7   6  -4    4.18    1.46
   8   6  -4   15.46    2.62
 -14   7  -4   11.07    1.57
 -13   7  -4    6.64    1.15
 -12   7  -4    3.47    0.87
 -11   7  -4    3.65    0.87
 -10   7  -4    4.41    0.86
  -9   7  -4   47.15    2.17
  -8   7  -4   48.84    2.20
  -7   7  -4   15.73    1.10
  -6   7  -4   71.90    2.46
  -5   7  -4   10.14    0.80
  -4   7  -4   56.26    2.14
  -3   7  -4   25.47    1.47
  -2   7  -4   24.13    1.58
  -1   7  -4   31.90    1.93
   0   7  -4   15.18    1.38
   1   7  -4   70.75    3.14
   2   7  -4   25.12    2.26
   3   7  -4    8.62    1.88
   4   7  -4   14.07    2.37
   5   7  -4    8.00    1.99
   6   7  -4   12.11    2.40
   7   7  -4    6.61    2.77
 -14   8  -4   11.77    1.54
 -13   8  -4   18.10    2.28
 -12   8  -4    1.37    0.75
 -11   8  -4   29.28    2.25
 -10   8  -4   17.14    1.93
  -9   8  -4   19.83    1.78
  -8   8  -4   24.89    2.00
  -7   8  -4   77.22    2.96
  -6   8  -4   42.39    2.07
  -5   8  -4   29.47    1.83
  -4   8  -4   20.66    1.65
  -3   8  -4   13.17    1.61
  -2   8  -4   13.34    1.70
  -1   8  -4   45.51    3.21
   0   8  -4   23.63    2.38
   1   8  -4   13.33    1.77
   2   8  -4   11.07    2.15
   3   8  -4   23.61    3.26
   4   8  -4    1.48    1.24
   5   8  -4    4.50    1.51
   6   8  -4   33.19    5.92
 -14   9  -4    1.53    1.72
 -13   9  -4   29.62    3.94
 -12   9  -4    4.15    1.13
 -11   9  -4    9.72    1.60
 -10   9  -4   17.41    1.79
  -9   9  -4    0.83    0.60
  -8   9  -4   14.63    1.58
  -7   9  -4   25.59    2.28
  -6   9  -4   27.50    2.35
  -5   9  -4   27.26    1.83
  -4   9  -4   10.22    1.20
  -3   9  -4   45.83    3.07
  -2   9  -4   47.95    3.32
  -1   9  -4   20.16    2.15
   0   9  -4    3.96    1.15
   1   9  -4   14.54    1.94
   2   9  -4    5.66    1.74
   3   9  -4    1.50    1.25
   4   9  -4   18.53    2.99
   5   9  -4    7.32    3.13
 -14  10  -4    4.64    2.31
 -13  10  -4   11.86    1.95
 -12  10  -4   34.18    4.13
 -11  10  -4   18.72    2.16
 -10  10  -4    6.58    1.21
  -9  10  -4   12.57    1.54
  -8  10  -4   12.26    2.05
  -7  10  -4    8.87    1.35
  -6  10  -4   57.04    3.59
  -5  10  -4   14.06    1.78
  -4  10  -4   27.41    2.47
  -3  10  -4    4.39    1.09
  -2  10  -4   19.65    2.21
  -1  10  -4   21.99    2.36
   0  10  -4    5.40    1.24
   1  10  -4    6.00    1.36
   2  10  -4   74.76    5.49
   3  10  -4    4.39    1.67
   4  10  -4    1.60    1.99
 -13  11  -4    2.19    1.12
 -12  11  -4    2.95    1.17
 -11  11  -4    0.14    0.69
 -10  11  -4    6.28    1.20
  -9  11  -4    8.97    1.84
  -8  11  -4   22.31    2.28
  -7  11  -4   11.04    1.60
  -6  11  -4   47.30    3.54
  -5  11  -4   35.70    4.10
  -4  11  -4    2.47    1.36
  -3  11  -4   40.28    3.27
  -2  11  -4   14.90    2.04
  -1  11  -4   16.33    2.20
   0  11  -4    1.44    1.00
   1  11  -4    7.20    1.64
   2  11  -4    6.37    1.94
 -12  12  -4    3.63    1.29
 -11  12  -4    7.77    1.90
 -10  12  -4   75.41    5.09
  -9  12  -4    5.45    1.53
  -8  12  -4    1.04    0.94
  -7  12  -4    7.32    1.40
  -6  12  -4    9.29    1.66
  -5  12  -4    3.60    1.41
  -4  12  -4    2.85    1.47
  -3  12  -4    6.12    1.93
  -2  12  -4   25.76    2.71
  -1  12  -4    4.18    1.30
   0  12  -4    4.03    1.36
   1  12  -4    3.70    1.62
 -12  13  -4    6.88    3.12
 -11  13  -4    7.26    1.84
 -10  13  -4    4.49    1.62
  -9  13  -4   23.32    3.05
  -8  13  -4    8.03    1.58
  -7  13  -4   17.62    2.11
  -6  13  -4    4.42    1.73
  -5  13  -4   19.84    3.18
  -4  13  -4   27.03    3.66
  -3  13  -4   10.12    2.47
  -2  13  -4    1.92    1.53
  -9  14  -4    1.56    2.21
  -8  14  -4   26.80    3.42
  -7  14  -4    7.55    2.14
  -6  14  -4   12.97    2.50
  -5  14  -4    4.77    2.68
   2 -14  -3   15.72    2.94
   3 -14  -3    1.81    1.02
   4 -14  -3   12.89    1.85
   5 -14  -3   13.43    2.84
   6 -14  -3   12.69    2.66
   7 -14  -3   36.34    4.54
   8 -14  -3    5.05    1.81
   9 -14  -3    8.91    2.26
  10 -14  -3   22.68    3.60
  11 -14  -3    1.51    1.13
  12 -14  -3   19.18    3.94
   0 -13  -3    1.34    0.91
   1 -13  -3   27.88    2.76
   2 -13  -3   19.15    2.25
   3 -13  -3   43.52    3.01
   4 -13  -3    7.15    1.37
   5 -13  -3    5.67    1.25
   6 -13  -3   17.91    3.05
   7 -13  -3   55.31    5.36
   8 -13  -3    3.32    1.50
   9 -13  -3    8.55    1.69
  10 -13  -3   20.57    2.44
  11 -13  -3   10.98    1.94
  12 -13  -3   15.89    2.36
  13 -13  -3    0.00    0.99
  -2 -12  -3   16.42    3.24
  -1 -12  -3   16.87    2.13
   0 -12  -3   13.13    1.87
   1 -12  -3   11.10    1.68
   2 -12  -3   13.06    1.71
   3 -12  -3    1.46    0.72
   4 -12  -3   16.77    1.93
   5 -12  -3    7.52    1.29
   6 -12  -3    9.41    1.21
   7 -12  -3   17.18    1.98
   8 -12  -3   17.74    2.12
   9 -12  -3    1.80    0.87
  10 -12  -3    4.52    1.23
  11 -12  -3   38.12    3.45
  12 -12  -3   15.84    2.24
  13 -12  -3   28.42    3.19
  14 -12  -3    9.41    2.71
  -3 -11  -3    1.99    1.06
  -2 -11  -3   13.59    1.88
  -1 -11  -3   35.40    2.98
   0 -11  -3   14.04    1.84
   1 -11  -3   10.20    1.53
   2 -11  -3   11.36    1.52
   3 -11  -3   78.82    3.97
   4 -11  -3   11.46    1.50
   5 -11  -3   31.25    2.10
   6 -11  -3   10.10    1.19
   7 -11  -3   12.35    1.33
   8 -11  -3   36.12    3.19
   9 -11  -3   39.52    3.26
  10 -11  -3   20.88    2.41
  11 -11  -3   16.84    2.18
  12 -11  -3    5.80    1.50
  13 -11  -3   19.86    2.64
  14 -11  -3    2.68    1.33
  -4 -10  -3   20.90    2.38
  -3 -10  -3   16.01    1.97
  -2 -10  -3    4.14    1.04
  -1 -10  -3   21.47    2.22
   0 -10  -3   17.70    1.94
   1 -10  -3   77.19    4.02
   2 -10  -3   21.02    1.97
   3 -10  -3   26.81    1.84
   4 -10  -3   14.42    1.35
   5 -10  -3    1.96    0.57
   6 -10  -3   21.77    1.68
   7 -10  -3   20.04    1.58
   8 -10  -3   35.25    2.88
   9 -10  -3   62.32    3.85
  10 -10  -3   20.35    2.31
  11 -10  -3    7.98    1.64
  12 -10  -3   11.10    1.89
  13 -10  -3   44.48    3.76
  14 -10  -3    6.13    2.76
  -6  -9  -3    1.35    1.42
  -5  -9  -3    8.34    1.54
  -4  -9  -3    6.93    1.39
  -3  -9  -3    2.83    0.98
  -2  -9  -3   35.26    2.84
  -1  -9  -3   64.39    3.54
   0  -9  -3    1.49    0.73
   1  -9  -3   65.33    2.88
   2  -9  -3   11.10    1.12
   3  -9  -3   24.80    1.71
   4  -9  -3   49.89    2.25
   5  -9  -3   91.58    3.55
   6  -9  -3   55.17    2.51
   7  -9  -3   14.67    1.30
   8  -9  -3   27.06    1.94
   9  -9  -3    3.71    1.02
  10  -9  -3   78.40    4.53
  11  -9  -3    9.45    1.57
  12  -9  -3    0.80    0.85
  13  -9  -3    7.77    1.71
  14  -9  -3   15.02    3.68
  -7  -8  -3    9.22    2.37
  -6  -8  -3    4.11    1.18
  -5  -8  -3    5.28    1.12
  -4  -8  -3   14.49    1.78
  -3  -8  -3   42.28    3.18
  -2  -8  -3   30.49    2.49
  -1  -8  -3   26.44    1.89
   0  -8  -3    1.00    0.46
   1  -8  -3   62.12    2.66
   2  -8  -3   50.78    2.31
   3  -8  -3  112.82    4.23
   4  -8  -3    2.01    0.49
   5  -8  -3   64.73    2.74
   6  -8  -3   19.76    1.43
   7  -8  -3   25.35    1.57
   8  -8  -3    0.99    0.43
   9  -8  -3   72.03    3.91
  10  -8  -3   19.42    2.17
  11  -8  -3   80.83    4.49
  12  -8  -3   16.40    2.24
  13  -8  -3    2.59    1.97
  14  -8  -3   13.35    3.61
  -8  -7  -3    6.97    2.17
  -7  -7  -3   33.88    3.02
  -6  -7  -3   42.80    3.31
  -5  -7  -3   16.77    1.91
  -4  -7  -3   13.22    1.69
  -3  -7  -3   19.95    1.65
  -2  -7  -3   12.70    1.25
  -1  -7  -3   25.85    1.77
   0  -7  -3    7.34    0.86
   1  -7  -3  128.45    4.06
   2  -7  -3   75.96    2.67
   3  -7  -3   97.38    3.15
   4  -7  -3   61.64    2.24
   5  -7  -3   64.27    2.28
   6  -7  -3  179.71    5.29
   7  -7  -3    8.12    0.72
   8  -7  -3   65.40    2.36
   9  -7  -3   11.16    1.22
  10  -7  -3   27.89    2.07
  11  -7  -3   12.71    1.50
  12  -7  -3    4.92    1.38
  13  -7  -3   13.75    2.39
  14  -7  -3   37.20    4.00
  15  -7  -3    5.67    2.61
  -9  -6  -3    9.50    2.54
  -8  -6  -3   12.47    1.85
  -7  -6  -3   14.22    1.86
  -6  -6  -3   12.87    1.67
  -5  -6  -3    8.74    1.14
  -4  -6  -3   19.95    1.68
  -3  -6  -3   58.12    2.63
  -2  -6  -3   19.90    1.49
  -1  -6  -3  163.51    5.99
   0  -6  -3   44.14    1.77
   1  -6  -3   60.85    2.18
   2  -6  -3   44.02    1.67
   3  -6  -3   44.40    1.70
   4  -6  -3   77.09    2.48
   5  -6  -3   44.17    1.62
   6  -6  -3   45.09    1.71
   7  -6  -3  122.22    4.84
   8  -6  -3   56.61    2.55
   9  -6  -3   23.07    1.85
  10  -6  -3   15.01    1.52
  11  -6  -3   32.96    3.25
  12  -6  -3   13.08    2.16
  13  -6  -3   50.27    4.49
  14  -6  -3    0.61    1.18
  15  -6  -3    1.10    1.85
  -9  -5  -3   12.45    1.91
  -8  -5  -3    3.83    1.13
  -7  -5  -3    8.21    1.39
  -6  -5  -3   30.12    2.14
  -5  -5  -3    1.33    0.55
  -4  -5  -3   90.17    3.63
  -3  -5  -3   65.42    2.82
  -2  -5  -3   64.15    2.68
  -1  -5  -3   40.80    1.68
   0  -5  -3   99.54    3.25
   1  -5  -3   67.63    1.96
   2  -5  -3  115.68    3.49
   3  -5  -3   39.91    1.49
   4  -5  -3  139.89    4.14
   5  -5  -3  101.96    2.89
   6  -5  -3   64.60    2.30
   7  -5  -3   77.55    2.79
   8  -5  -3  122.12    4.59
   9  -5  -3   46.91    2.44
  10  -5  -3    1.81    0.67
  11  -5  -3    9.46    1.81
  12  -5  -3   23.57    2.90
  13  -5  -3    3.54    1.35
  14  -5  -3    8.34    2.05
 -10  -4  -3   11.65    1.80
  -9  -4  -3    5.91    1.26
  -8  -4  -3   14.73    1.59
  -7  -4  -3   12.32    1.39
  -6  -4  -3   18.24    1.58
  -5  -4  -3   40.69    2.29
  -4  -4  -3    1.81    0.52
  -3  -4  -3   62.46    2.66
  -2  -4  -3   72.10    2.88
  -1  -4  -3  136.46    4.24
   0  -4  -3  132.52    4.02
   1  -4  -3  108.70    3.43
   2  -4  -3    2.31    0.32
   3  -4  -3   70.53    2.08
   4  -4  -3  133.65    3.59
   5  -4  -3   64.12    2.37
   6  -4  -3   41.69    1.73
   7  -4  -3   99.54    3.33
   8  -4  -3    1.68    0.51
   9  -4  -3  100.68    3.92
  10  -4  -3   20.26    2.54
  11  -4  -3   13.99    2.17
  12  -4  -3   13.05    2.23
  13  -4  -3    3.20    1.40
  14  -4  -3   21.90    3.17
 -11  -3  -3    1.23    0.93
 -10  -3  -3   38.56    3.21
  -9  -3  -3    0.55    0.69
  -8  -3  -3   79.82    3.53
  -7  -3  -3   24.65    1.95
  -6  -3  -3   27.61    1.89
  -5  -3  -3  112.17    4.37
  -4  -3  -3   84.54    3.60
  -3  -3  -3   49.82    2.10
  -2  -3  -3   41.02    1.60
  -1  -3  -3   70.62    2.37
   0  -3  -3  259.84    7.48
   1  -3  -3   73.19    2.31
   2  -3  -3  113.90    3.09
   3  -3  -3  258.81    6.76
   4  -3  -3  118.73    3.63
   5  -3  -3  119.11    3.67
   6  -3  -3   47.98    1.83
   7  -3  -3   60.90    2.38
   8  -3  -3   60.78    2.52
   9  -3  -3   63.78    3.93
  10  -3  -3   16.53    2.32
  11  -3  -3   35.45    3.78
  12  -3  -3    4.27    1.45
  13  -3  -3   15.13    2.61
  14  -3  -3    2.25    2.00
 -12  -2  -3   12.63    2.85
 -11  -2  -3   17.46    2.18
 -10  -2  -3   10.99    1.64
  -9  -2  -3   10.46    1.55
  -8  -2  -3   17.79    1.62
  -7  -2  -3   10.50    1.24
  -6  -2  -3   52.41    2.48
  -5  -2  -3   77.18    2.67
  -4  -2  -3   42.34    1.63
  -3  -2  -3  117.34    3.16
  -2  -2  -3    1.93    0.35
  -1  -2  -3  113.10    3.47
   0  -2  -3  245.24    6.89
   1  -2  -3   12.20    0.56
   2  -2  -3  244.40    7.24
   3  -2  -3   73.97    2.44
   4  -2  -3    1.57    0.30
   5  -2  -3   35.31    1.53
   6  -2  -3   75.05    2.60
   7  -2  -3   60.64    2.40
   8  -2  -3   15.10    1.57
   9  -2  -3   12.32    1.45
  10  -2  -3   30.09    3.17
  11  -2  -3   39.04    3.82
  12  -2  -3    4.81    1.53
  13  -2  -3   12.53    3.48
 -12  -1  -3   28.60    2.83
 -11  -1  -3   13.32    1.89
 -10  -1  -3   12.11    1.66
  -9  -1  -3   76.47    3.58
  -8  -1  -3   67.78    3.10
  -7  -1  -3   65.95    2.46
  -6  -1  -3  121.53    4.01
  -5  -1  -3   61.06    2.17
  -4  -1  -3   66.99    2.25
  -3  -1  -3  112.08    3.10
  -2  -1  -3   72.52    2.06
  -1  -1  -3   12.73    0.69
   0  -1  -3   28.09    0.94
   1  -1  -3   28.23    1.12
   2  -1  -3   11.96    0.68
   3  -1  -3  113.63    3.55
   4  -1  -3   68.27    2.37
   5  -1  -3  140.96    4.34
   6  -1  -3   37.32    1.64
   7  -1  -3  182.37    6.95
   8  -1  -3   21.09    1.91
   9  -1  -3   20.62    2.03
  10  -1  -3   64.10    3.55
  11  -1  -3   30.47    3.27
  12  -1  -3   35.99    5.86
  13  -1  -3    9.56    3.23
 -13   0  -3    0.69    1.34
 -12   0  -3   13.07    1.84
 -11   0  -3   15.10    1.92
 -10   0  -3   15.47    1.90
  -9   0  -3    2.74    0.75
  -8   0  -3    0.57    0.37
  -7   0  -3    6.97    0.78
  -6   0  -3   46.43    1.81
  -5   0  -3  100.43    3.23
  -4   0  -3  129.03    3.62
  -3   0  -3  258.13    6.70
  -2   0  -3  249.67    6.17
  -1   0  -3   27.99    0.97
   0   0  -3    0.07    0.11
   1   0  -3   27.35    1.00
   2   0  -3  246.26    6.57
   3   0  -3  257.11    7.08
   4   0  -3  131.72    3.73
   5   0  -3  100.19    3.65
   6   0  -3   44.71    2.01
   7   0  -3    8.01    0.91
   8   0  -3    0.56    0.52
   9   0  -3    1.55    0.74
  10   0  -3   18.56    2.62
  11   0  -3   17.74    4.01
  12   0  -3   12.80    3.45
 -13   1  -3   14.15    2.03
 -12   1  -3   34.19    3.01
 -11   1  -3   19.30    2.14
 -10   1  -3   59.43    2.97
  -9   1  -3   31.83    1.99
  -8   1  -3   25.59    1.58
  -7   1  -3  175.06    5.33
  -6   1  -3   39.19    1.69
  -5   1  -3  136.46    4.18
  -4   1  -3   69.12    2.42
  -3   1  -3  115.36    3.38
  -2   1  -3   12.66    0.57
  -1   1  -3   27.79    0.90
   0   1  -3   27.60    1.00
   1   1  -3   12.53    0.60
   2   1  -3   70.70    2.63
   3   1  -3  114.28    3.90
   4   1  -3   63.45    2.55
   5   1  -3   63.89    2.51
   6   1  -3  119.74    4.55
   7   1  -3   66.29    2.74
   8   1  -3   77.25    4.63
   9   1  -3   75.42    5.13
  10   1  -3   10.71    2.12
  11   1  -3    7.27    1.84
  12   1  -3   24.35    4.68
 -14   2  -3   16.36    3.53
 -13   2  -3   14.16    2.01
 -12   2  -3    2.17    0.97
 -11   2  -3   27.82    2.09
 -10   2  -3   31.21    2.10
  -9   2  -3   10.64    1.13
  -8   2  -3   18.91    1.31
  -7   2  -3   64.59    2.40
  -6   2  -3   77.08    2.31
  -5   2  -3   35.91    1.38
  -4   2  -3    1.62    0.27
  -3   2  -3   69.48    1.74
  -2   2  -3  248.07    5.13
  -1   2  -3   12.19    0.53
   0   2  -3  253.28    6.09
   1   2  -3  113.51    3.85
   2   2  -3    2.19    0.36
   3   2  -3  119.99    3.97
   4   2  -3   38.41    1.84
   5   2  -3   79.52    3.06
   6   2  -3   55.62    2.92
   7   2  -3    8.98    1.31
   8   2  -3   20.45    2.63
   9   2  -3    4.40    1.43
  10   2  -3   14.10    2.38
  11   2  -3   23.01    3.21
 -14   3  -3    1.45    0.94
 -13   3  -3   16.86    2.18
 -12   3  -3    2.29    0.75
 -11   3  -3   40.69    2.32
 -10   3  -3   17.93    1.55
  -9   3  -3   58.95    2.59
  -8   3  -3   62.68    2.50
  -7   3  -3   55.62    2.06
  -6   3  -3   47.55    1.66
  -5   3  -3  118.88    2.82
  -4   3  -3  114.00    2.60
  -3   3  -3  266.15    5.56
  -2   3  -3  117.02    2.56
  -1   3  -3   69.56    2.05
   0   3  -3  258.63    7.52
   1   3  -3   69.79    2.35
   2   3  -3   39.37    1.66
   3   3  -3   46.53    1.94
   4   3  -3   95.66    4.32
   5   3  -3  121.38    5.21
   6   3  -3   23.46    2.10
   7   3  -3   24.97    2.24
   8   3  -3   74.23    5.06
   9   3  -3    1.30    1.10
  10   3  -3   45.67    4.36
  11   3  -3    1.80    1.38
 -14   4  -3   18.39    2.36
 -13   4  -3    7.75    1.21
 -12   4  -3   11.00    1.38
 -11   4  -3   11.59    1.29
 -10   4  -3   20.61    1.68
  -9   4  -3   96.81    3.63
  -8   4  -3    0.95    0.46
  -7   4  -3   98.41    2.97
  -6   4  -3   40.98    1.45
  -5   4  -3   60.22    1.70
  -4   4  -3  134.03    3.00
  -3   4  -3   66.77    1.74
  -2   4  -3    1.83    0.25
  -1   4  -3  118.46    3.52
   0   4  -3  128.36    4.01
   1   4  -3  140.50    4.22
   2   4  -3   74.64    3.43
   3   4  -3   56.00    3.07
   4   4  -3    2.07    0.68
   5   4  -3   40.26    2.75
   6   4  -3   16.51    1.83
   7   4  -3   15.52    2.26
   8   4  -3   12.90    2.32
   9   4  -3    7.36    1.86
  10   4  -3   10.48    2.24
 -14   5  -3    4.65    1.05
 -13   5  -3    2.21    0.78
 -12   5  -3   13.99    1.51
 -11   5  -3   11.07    1.26
 -10   5  -3    1.74    0.56
  -9   5  -3   44.85    2.25
  -8   5  -3  117.39    3.84
  -7   5  -3   77.66    2.49
  -6   5  -3   63.12    1.88
  -5   5  -3  101.80    2.44
  -4   5  -3  141.22    3.15
  -3   5  -3   37.52    1.35
  -2   5  -3  120.91    3.21
  -1   5  -3   60.66    2.25
   0   5  -3   99.28    3.76
   1   5  -3   41.71    1.99
   2   5  -3   59.93    2.73
   3   5  -3   57.10    3.24
   4   5  -3   95.38    4.38
   5   5  -3    0.94    0.63
   6   5  -3   28.58    2.60
   7   5  -3    5.73    1.61
   8   5  -3    1.32    1.14
   9   5  -3   17.23    2.72
 -15   6  -3    6.25    2.16
 -14   6  -3    5.37    1.10
 -13   6  -3   45.89    3.57
 -12   6  -3    8.54    1.12
 -11   6  -3   28.72    2.10
 -10   6  -3   16.34    1.49
  -9   6  -3   25.70    1.66
  -8   6  -3   53.22    2.17
  -7   6  -3  120.85    3.74
  -6   6  -3   45.09    1.51
  -5   6  -3   40.02    1.45
  -4   6  -3   77.47    2.25
  -3   6  -3   47.11    1.78
  -2   6  -3   41.13    1.69
  -1   6  -3   62.36    2.55
   0   6  -3   45.62    2.09
   1   6  -3  170.62    6.14
   2   6  -3   18.63    1.50
   3   6  -3   63.96    3.19
   4   6  -3   20.25    2.01
   5   6  -3   10.11    1.44
   6   6  -3    8.69    1.47
   7   6  -3   15.18    2.26
   8   6  -3   14.22    2.46
   9   6  -3    8.70    2.88
 -15   7  -3    6.53    2.34
 -14   7  -3   37.22    3.42
 -13   7  -3   13.28    1.58
 -12   7  -3    5.87    1.05
 -11   7  -3   12.89    1.38
 -10   7  -3   21.78    1.78
  -9   7  -3   10.29    1.07
  -8   7  -3   62.78    2.47
  -7   7  -3    7.13    0.80
  -6   7  -3  177.00    5.11
  -5   7  -3   62.90    2.05
  -4   7  -3   63.16    2.30
  -3   7  -3   99.15    3.21
  -2   7  -3   76.93    3.10
  -1   7  -3  121.93    4.64
   0   7  -3    7.97    0.88
   1   7  -3   26.30    1.69
   2   7  -3   10.62    1.19
   3   7  -3   16.60    1.77
   4   7  -3   13.98    1.71
   5   7  -3   16.62    2.70
   6   7  -3   40.35    4.22
   7   7  -3   32.58    5.94
 -15   8  -3    7.13    2.48
 -14   8  -3   11.46    1.80
 -13   8  -3    2.76    1.01
 -12   8  -3   12.47    1.81
 -11   8  -3   71.74    4.11
 -10   8  -3   21.76    1.86
  -9   8  -3   68.69    3.96
  -8   8  -3    1.46    0.60
  -7   8  -3   24.14    1.62
  -6   8  -3   15.84    1.34
  -5   8  -3   63.11    2.76
  -4   8  -3    1.83    0.53
  -3   8  -3  114.86    4.34
  -2   8  -3   51.86    2.96
  -1   8  -3   66.95    3.49
   0   8  -3    0.99    0.61
   1   8  -3   21.37    2.29
   2   8  -3   33.43    2.82
   3   8  -3   36.64    4.07
   4   8  -3   12.39    2.44
   5   8  -3    3.44    1.51
   6   8  -3    3.89    2.31
 -15   9  -3    9.28    3.05
 -14   9  -3   12.92    2.02
 -13   9  -3    5.28    1.28
 -12   9  -3    1.34    0.83
 -11   9  -3   11.53    1.48
 -10   9  -3   79.23    4.59
  -9   9  -3    1.97    0.74
  -8   9  -3   27.01    1.83
  -7   9  -3   12.81    1.21
  -6   9  -3   58.74    3.11
  -5   9  -3   91.37    3.62
  -4   9  -3   42.96    2.37
  -3   9  -3   20.51    1.98
  -2   9  -3    9.72    1.38
  -1   9  -3   69.61    3.76
   0   9  -3    2.48    0.89
   1   9  -3   64.02    3.95
   2   9  -3   34.95    3.07
   3   9  -3    1.75    1.10
   4   9  -3    3.03    1.41
   5   9  -3    7.38    2.00
 -14  10  -3   11.81    1.93
 -13  10  -3   37.31    3.31
 -12  10  -3   11.77    1.72
 -11  10  -3   11.02    1.46
 -10  10  -3   16.83    1.77
  -9  10  -3   61.36    3.24
  -8  10  -3   32.63    2.08
  -7  10  -3   16.33    1.79
  -6  10  -3   22.57    2.13
  -5  10  -3    1.47    0.70
  -4  10  -3   14.43    1.38
  -3  10  -3   21.76    2.17
  -2  10  -3   20.61    2.14
  -1  10  -3   76.96    4.31
   0  10  -3   17.87    2.11
   1  10  -3   23.28    2.50
   2  10  -3    4.75    1.30
   3  10  -3   15.50    2.65
   4  10  -3   18.36    2.99
 -14  11  -3    1.49    1.16
 -13  11  -3   16.07    2.21
 -12  11  -3   14.54    1.71
 -11  11  -3   12.63    1.65
 -10  11  -3   20.82    2.03
  -9  11  -3   30.52    3.22
  -8  11  -3   36.39    2.97
  -7  11  -3   11.92    1.64
  -6  11  -3    5.98    1.21
  -5  11  -3   32.64    2.72
  -4  11  -3   11.90    2.18
  -3  11  -3   73.24    4.10
  -2  11  -3   11.30    1.64
  -1  11  -3   12.21    1.78
   0  11  -3   14.79    1.93
   1  11  -3   38.01    3.27
   2  11  -3   10.58    1.84
   3  11  -3    1.13    1.35
 -13  12  -3   23.26    3.75
 -12  12  -3   11.14    1.59
 -11  12  -3   30.34    3.23
 -10  12  -3    3.62    1.34
  -9  12  -3    1.70    1.02
  -8  12  -3    9.33    1.51
  -7  12  -3   17.31    2.00
  -6  12  -3    6.70    1.33
  -5  12  -3    6.17    1.75
  -4  12  -3   13.76    2.56
  -3  12  -3    1.95    1.23
  -2  12  -3   11.20    1.76
  -1  12  -3   11.12    1.78
   0  12  -3   13.31    1.89
   1  12  -3   16.03    2.25
 -13  13  -3   -0.35    1.92
 -12  13  -3   12.08    2.18
 -11  13  -3   10.49    2.02
 -10  13  -3   17.62    2.63
  -9  13  -3    3.57    1.31
  -8  13  -3    3.12    1.04
  -7  13  -3   41.13    3.35
  -6  13  -3   18.50    2.16
  -5  13  -3    4.02    1.54
  -4  13  -3    5.44    1.74
  -3  13  -3   39.41    4.27
  -2  13  -3   17.76    2.87
  -1  13  -3   18.71    2.44
   0  13  -3   -0.10    1.12
 -12  14  -3   17.32    4.50
 -11  14  -3    1.84    1.33
 -10  14  -3   18.31    2.70
  -9  14  -3    8.73    1.95
  -8  14  -3    7.61    1.50
  -7  14  -3   37.32    3.30
  -6  14  -3   10.24    2.27
  -5  14  -3   11.90    2.47
  -4  14  -3   10.91    2.26
  -3  14  -3    2.78    1.49
  -8  15  -3    7.17    2.74
  -7  15  -3    6.86    2.83
   4 -15  -2    6.76    2.14
   5 -15  -2    5.25    1.38
   6 -15  -2   19.09    2.28
   7 -15  -2   11.09    1.78
   8 -15  -2    9.54    1.67
   9 -15  -2   14.39    2.05
   1 -14  -2    5.01    1.98
   2 -14  -2    5.70    1.34
   3 -14  -2    6.99    1.44
   4 -14  -2   23.50    2.43
   5 -14  -2   14.13    1.90
   6 -14  -2    7.69    1.39
   7 -14  -2    4.53    1.15
   8 -14  -2   22.57    2.44
   9 -14  -2   33.60    3.00
  10 -14  -2   63.19    3.95
  11 -14  -2    6.91    2.15
  12 -14  -2   17.08    2.40
  13 -14  -2    3.88    2.21
  -1 -13  -2    2.18    1.70
   0 -13  -2   26.36    2.71
   1 -13  -2    6.93    1.39
   2 -13  -2   33.53    2.89
   3 -13  -2   11.33    1.66
   4 -13  -2    7.23    1.38
   5 -13  -2   50.04    3.40
   6 -13  -2   10.13    1.48
   7 -13  -2    6.50    1.29
   8 -13  -2   23.29    2.37
   9 -13  -2    5.31    1.17
  10 -13  -2   12.15    1.48
  11 -13  -2   11.94    1.93
  12 -13  -2   13.94    2.09
  13 -13  -2   20.46    2.70
  -2 -12  -2   19.01    2.26
  -1 -12  -2   13.11    1.87
   0 -12  -2   14.39    1.88
   1 -12  -2   10.54    1.57
   2 -12  -2   27.25    2.49
   3 -12  -2    1.32    0.77
   4 -12  -2   39.37    3.06
   5 -12  -2   11.62    1.60
   6 -12  -2   29.66    2.57
   7 -12  -2   10.45    1.24
   8 -12  -2   49.65    2.56
   9 -12  -2    3.47    0.81
  10 -12  -2   38.54    2.62
  11 -12  -2   29.26    2.26
  12 -12  -2   13.54    2.07
  13 -12  -2    3.48    1.30
  14 -12  -2    2.88    1.27
  -3 -11  -2    4.86    1.17
  -2 -11  -2   18.35    2.15
  -1 -11  -2   25.20    2.51
   0 -11  -2    4.49    1.06
   1 -11  -2   37.68    2.89
   2 -11  -2    5.46    1.04
   3 -11  -2   13.78    1.64
   4 -11  -2  123.18    5.63
   5 -11  -2   26.00    2.25
   6 -11  -2   55.49    2.67
   7 -11  -2  107.55    4.33
   8 -11  -2   11.38    1.25
   9 -11  -2    3.42    0.79
  10 -11  -2   13.34    1.44
  11 -11  -2    8.35    1.20
  12 -11  -2    9.71    1.37
  13 -11  -2   39.96    3.63
  14 -11  -2    9.63    1.85
  15 -11  -2    9.40    2.56
  -5 -10  -2    6.44    2.24
  -4 -10  -2   51.68    3.61
  -3 -10  -2   12.30    1.77
  -2 -10  -2   39.45    3.07
  -1 -10  -2   16.93    1.87
   0 -10  -2   22.63    2.13
   1 -10  -2   13.56    1.59
   2 -10  -2   28.83    2.33
   3 -10  -2   13.78    1.20
   4 -10  -2   58.22    2.62
   5 -10  -2    0.92    0.46
   6 -10  -2  156.86    5.54
   7 -10  -2   11.22    1.18
   8 -10  -2   65.36    2.84
   9 -10  -2   28.28    1.94
  10 -10  -2   24.51    1.89
  11 -10  -2   37.05    2.46
  12 -10  -2   24.60    2.65
  13 -10  -2   17.35    2.34
  14 -10  -2   14.72    2.28
  15 -10  -2    4.32    1.95
  -6  -9  -2    9.93    2.57
  -5  -9  -2   32.59    2.92
  -4  -9  -2    6.97    1.35
  -3  -9  -2    2.60    0.84
  -2  -9  -2    3.02    0.86
  -1  -9  -2   27.75    2.30
   0  -9  -2    9.81    1.33
   1  -9  -2   54.04    2.93
   2  -9  -2   33.07    1.54
   3  -9  -2   64.42    2.65
   4  -9  -2   38.52    1.86
   5  -9  -2   28.44    1.59
   6  -9  -2   31.63    1.68
   7  -9  -2   16.84    1.37
   8  -9  -2   98.65    3.74
   9  -9  -2   10.98    1.17
  10  -9  -2   10.96    1.69
  11  -9  -2    4.62    1.18
  12  -9  -2    0.28    0.76
  13  -9  -2   10.95    1.90
  14  -9  -2   14.31    2.16
  15  -9  -2   14.65    3.81
  -7  -8  -2   10.83    2.55
  -6  -8  -2   20.73    2.34
  -5  -8  -2   23.28    2.30
  -4  -8  -2   50.21    3.04
  -3  -8  -2    9.28    1.33
  -2  -8  -2   65.17    3.37
  -1  -8  -2   94.91    4.40
   0  -8  -2  169.77    5.92
   1  -8  -2   11.69    0.87
   2  -8  -2   50.77    1.90
   3  -8  -2   66.16    2.59
   4  -8  -2    7.02    0.78
   5  -8  -2   37.94    1.85
   6  -8  -2   33.19    1.74
   7  -8  -2   12.87    1.12
   8  -8  -2  169.47    5.96
   9  -8  -2   50.36    3.19
  10  -8  -2   23.44    2.39
  11  -8  -2   12.89    1.82
  12  -8  -2   31.76    3.09
  13  -8  -2   55.27    3.89
  14  -8  -2    4.39    2.33
  15  -8  -2    5.02    2.52
  -8  -7  -2    7.81    2.05
  -7  -7  -2    4.62    1.13
  -6  -7  -2    5.47    1.18
  -5  -7  -2    9.10    1.36
  -4  -7  -2  109.64    5.15
  -3  -7  -2   11.45    1.42
  -2  -7  -2   16.77    1.36
  -1  -7  -2   13.50    0.93
   0  -7  -2   29.73    1.27
   1  -7  -2   45.46    1.67
   2  -7  -2   49.64    1.78
   3  -7  -2   90.95    3.00
   4  -7  -2  231.90    6.49
   5  -7  -2   27.47    1.25
   6  -7  -2   43.48    1.63
   7  -7  -2   28.78    1.70
   8  -7  -2   12.95    1.19
   9  -7  -2   33.16    1.94
  10  -7  -2   14.73    1.42
  11  -7  -2  126.01    5.18
  12  -7  -2   12.20    1.48
  13  -7  -2   10.13    1.47
  14  -7  -2    5.32    1.61
  15  -7  -2    9.83    2.08
  -9  -6  -2    8.77    2.37
  -8  -6  -2   12.15    1.71
  -7  -6  -2    9.16    1.49
  -6  -6  -2   28.02    2.54
  -5  -6  -2   54.75    3.17
  -4  -6  -2  156.88    5.60
  -3  -6  -2   32.54    1.84
  -2  -6  -2   34.92    1.47
  -1  -6  -2   40.54    1.57
   0  -6  -2   13.46    0.84
   1  -6  -2  129.71    3.53
   2  -6  -2   47.22    1.71
   3  -6  -2   29.69    1.20
   4  -6  -2   99.17    3.02
   5  -6  -2  167.33    4.96
   6  -6  -2   11.53    1.02
   7  -6  -2   43.80    2.09
   8  -6  -2   54.42    2.46
   9  -6  -2   67.76    2.95
  10  -6  -2   44.84    2.82
  11  -6  -2   21.43    1.95
  12  -6  -2   27.89    2.32
  13  -6  -2    4.46    1.35
  14  -6  -2   29.57    3.53
  15  -6  -2   17.23    2.81
  -9  -5  -2   14.67    1.98
  -8  -5  -2   53.70    3.33
  -7  -5  -2   12.12    1.63
  -6  -5  -2   31.75    2.48
  -5  -5  -2    0.13    0.39
  -4  -5  -2   26.31    1.41
  -3  -5  -2   37.58    1.58
  -2  -5  -2   29.65    1.23
  -1  -5  -2  162.72    4.83
   0  -5  -2  113.20    3.09
   1  -5  -2   31.63    1.25
   2  -5  -2  103.85    3.13
   3  -5  -2  146.72    4.23
   4  -5  -2   18.05    0.84
   5  -5  -2  113.89    4.17
   6  -5  -2  130.04    4.16
   7  -5  -2   48.40    2.20
   8  -5  -2   62.52    2.80
   9  -5  -2   40.57    2.19
  10  -5  -2   -0.07    0.41
  11  -5  -2   65.02    3.09
  12  -5  -2    4.36    1.35
  13  -5  -2   15.71    2.58
  14  -5  -2   31.34    3.60
  15  -5  -2    3.41    1.58
 -10  -4  -2   16.82    2.14
  -9  -4  -2    8.45    1.48
  -8  -4  -2   41.03    3.11
  -7  -4  -2  133.01    4.94
  -6  -4  -2   58.19    2.33
  -5  -4  -2   35.68    1.59
  -4  -4  -2    7.10    0.71
  -3  -4  -2  223.48    6.39
  -2  -4  -2   96.24    2.97
  -1  -4  -2   19.80    0.88
   0  -4  -2   64.20    1.84
   1  -4  -2   73.38    2.36
   2  -4  -2  163.18    4.64
   3  -4  -2   64.09    2.04
   4  -4  -2   64.59    2.17
   5  -4  -2   33.82    1.30
   6  -4  -2   43.80    1.77
   7  -4  -2   81.43    3.14
   8  -4  -2    8.92    0.99
   9  -4  -2   27.13    1.93
  10  -4  -2  175.85    6.12
  11  -4  -2   95.92    6.17
  12  -4  -2   51.85    4.55
  13  -4  -2    4.79    1.56
  14  -4  -2   63.58    5.39
  15  -4  -2    4.27    2.55
 -11  -3  -2    8.53    2.28
 -10  -3  -2   13.31    1.84
  -9  -3  -2    2.00    0.82
  -8  -3  -2   16.73    1.88
  -7  -3  -2   12.04    1.04
  -6  -3  -2   63.83    2.33
  -5  -3  -2   58.01    2.21
  -4  -3  -2   94.62    3.01
  -3  -3  -2   28.47    1.19
  -2  -3  -2  144.12    4.15
  -1  -3  -2   63.63    1.83
   0  -3  -2   41.20    1.24
   1  -3  -2   97.06    2.84
   2  -3  -2  249.14    6.88
   3  -3  -2   42.93    1.28
   4  -3  -2   77.71    2.48
   5  -3  -2  103.22    3.29
   6  -3  -2   29.58    1.29
   7  -3  -2  243.04    6.91
   8  -3  -2   34.78    1.78
   9  -3  -2   28.00    1.91
  10  -3  -2    8.83    1.16
  11  -3  -2   13.63    2.23
  12  -3  -2    2.50    1.19
  13  -3  -2   10.25    2.08
  14  -3  -2    4.95    1.79
 -12  -2  -2    5.85    2.08
 -11  -2  -2   31.39    2.91
 -10  -2  -2   24.92    2.43
  -9  -2  -2    5.40    1.06
  -8  -2  -2   26.36    1.73
  -7  -2  -2   32.76    1.68
  -6  -2  -2   53.97    2.03
  -5  -2  -2   44.58    1.76
  -4  -2  -2   47.98    1.73
  -3  -2  -2  107.40    3.12
  -2  -2  -2  159.11    4.16
  -1  -2  -2  242.11    6.96
   0  -2  -2  380.10   10.42
   1  -2  -2   81.01    2.22
   2  -2  -2  382.46    9.48
   3  -2  -2   92.79    2.97
   4  -2  -2  160.51    4.86
   5  -2  -2  151.54    4.48
   6  -2  -2  103.37    3.25
   7  -2  -2   27.45    1.42
   8  -2  -2   29.73    1.61
   9  -2  -2   11.84    1.12
  10  -2  -2   72.93    4.47
  11  -2  -2    5.85    1.50
  12  -2  -2   39.89    3.92
  13  -2  -2    8.74    1.96
  14  -2  -2   12.48    3.44
 -12  -1  -2    3.19    1.08
 -11  -1  -2   11.92    1.75
 -10  -1  -2   34.56    2.31
  -9  -1  -2   10.12    1.12
  -8  -1  -2   52.37    2.40
  -7  -1  -2   12.23    0.99
  -6  -1  -2   42.39    1.75
  -5  -1  -2  128.46    3.99
  -4  -1  -2   32.90    1.28
  -3  -1  -2   74.01    2.35
  -2  -1  -2   97.63    2.56
  -1  -1  -2   82.24    2.49
   0  -1  -2  237.78    6.50
   1  -1  -2  235.55    6.84
   2  -1  -2   79.59    2.54
   3  -1  -2  253.06    7.23
   4  -1  -2   65.17    1.97
   5  -1  -2   17.13    0.82
   6  -1  -2  171.03    4.78
   7  -1  -2   40.94    1.78
   8  -1  -2   15.80    1.18
   9  -1  -2   99.13    4.48
  10  -1  -2   34.05    2.62
  11  -1  -2   10.91    2.06
  12  -1  -2   28.66    3.29
  13  -1  -2   12.53    3.44
 -13   0  -2   29.76    2.93
 -12   0  -2   14.79    1.85
 -11   0  -2    7.99    1.15
 -10   0  -2   23.15    1.81
  -9   0  -2    9.05    1.02
  -8   0  -2  162.54    5.82
  -7   0  -2   28.55    1.46
  -6   0  -2   12.78    0.93
  -5   0  -2  116.09    3.53
  -4   0  -2   63.02    2.10
  -3   0  -2   40.63    1.33
  -2   0  -2  373.83    9.32
  -1   0  -2  237.29    5.83
   0   0  -2  368.07    9.24
   1   0  -2  235.08    6.22
   2   0  -2  374.34    9.93
   3   0  -2   42.34    1.33
   4   0  -2   64.18    1.97
   5   0  -2  117.34    3.35
   6   0  -2   13.24    1.06
   7   0  -2   27.90    1.68
   8   0  -2  176.01    7.03
   9   0  -2    9.89    1.37
  10   0  -2   27.54    2.43
  11   0  -2    6.00    2.37
  12   0  -2   13.68    3.44
  13   0  -2   20.11    4.26
 -13   1  -2    9.73    1.71
 -12   1  -2   24.10    1.98
 -11   1  -2   11.84    1.30
 -10   1  -2   28.90    1.95
  -9   1  -2   92.35    3.69
  -8   1  -2   11.79    1.12
  -7   1  -2   40.94    1.74
  -6   1  -2  167.88    4.51
  -5   1  -2   19.22    0.82
  -4   1  -2   62.85    1.88
  -3   1  -2  258.58    5.79
  -2   1  -2   82.04    1.93
  -1   1  -2  235.66    5.10
   0   1  -2  234.94    5.74
   1   1  -2   80.87    3.15
   2   1  -2   88.45    3.68
   3   1  -2   76.72    2.20
   4   1  -2   33.58    1.46
   5   1  -2  123.06    4.53
   6   1  -2   42.82    2.01
   7   1  -2   12.02    1.11
   8   1  -2   44.58    2.94
   9   1  -2   12.31    1.88
  10   1  -2   40.09    3.88
  11   1  -2    6.18    1.69
  12   1  -2    3.63    2.15
 -14   2  -2   16.31    2.15
 -13   2  -2   15.04    1.63
 -12   2  -2   39.72    2.63
 -11   2  -2    2.59    0.70
 -10   2  -2   60.18    2.76
  -9   2  -2   15.75    1.33
  -8   2  -2   33.05    1.77
  -7   2  -2   27.73    1.30
  -6   2  -2  100.02    2.83
  -5   2  -2  148.86    3.91
  -4   2  -2  158.06    4.23
  -3   2  -2   86.50    2.12
  -2   2  -2  384.82    7.73
  -1   2  -2   80.60    1.82
   0   2  -2  376.02   10.45
   1   2  -2  255.44    6.96
   2   2  -2  161.99    5.21
   3   2  -2   98.82    3.52
   4   2  -2   43.81    1.94
   5   2  -2   47.65    2.05
   6   2  -2   53.55    2.33
   7   2  -2   31.98    1.87
   8   2  -2   23.67    2.83
   9   2  -2    7.32    1.65
  10   2  -2   24.87    3.21
  11   2  -2   37.43    3.96
  12   2  -2    4.66    2.34
 -14   3  -2    6.49    1.18
 -13   3  -2   13.09    1.49
 -12   3  -2    3.45    0.79
 -11   3  -2    9.85    1.21
 -10   3  -2   12.00    1.22
  -9   3  -2   32.56    1.93
  -8   3  -2   38.18    1.89
  -7   3  -2  230.09    6.52
  -6   3  -2   28.17    1.19
  -5   3  -2  100.16    2.68
  -4   3  -2   74.27    1.89
  -3   3  -2   41.09    1.09
  -2   3  -2  258.91    5.15
  -1   3  -2   85.02    2.75
   0   3  -2   42.06    1.44
   1   3  -2   62.47    2.06
   2   3  -2  147.01    4.29
   3   3  -2   29.12    1.35
   4   3  -2   84.34    3.81
   5   3  -2   64.16    2.61
   6   3  -2   68.80    3.36
   7   3  -2   12.60    2.00
   8   3  -2   14.78    2.22
   9   3  -2    0.80    0.92
  10   3  -2   14.71    2.57
  11   3  -2   14.99    2.52
 -15   4  -2    4.14    1.27
 -14   4  -2   52.97    4.14
 -13   4  -2    5.82    1.01
 -12   4  -2   44.94    2.70
 -11   4  -2  109.85    4.35
 -10   4  -2  145.03    5.46
  -9   4  -2   23.93    1.70
  -8   4  -2    8.70    0.80
  -7   4  -2   84.12    3.05
  -6   4  -2   46.02    1.59
  -5   4  -2   35.25    1.21
  -4   4  -2   63.27    1.68
  -3   4  -2   63.45    1.56
  -2   4  -2  156.77    4.18
  -1   4  -2   74.89    2.13
   0   4  -2   64.28    2.46
   1   4  -2   18.51    1.17
   2   4  -2  100.76    3.62
   3   4  -2  237.71    8.79
   4   4  -2    9.06    1.12
   5   4  -2   40.80    2.53
   6   4  -2   48.32    3.19
   7   4  -2  130.16    7.19
   8   4  -2   33.21    3.63
   9   4  -2   10.78    2.07
  10   4  -2   18.28    2.72
  11   4  -2    7.18    2.83
 -15   5  -2    3.05    1.20
 -14   5  -2   25.34    2.25
 -13   5  -2   18.08    1.78
 -12   5  -2    9.54    1.26
 -11   5  -2   59.25    2.79
 -10   5  -2    0.39    0.43
  -9   5  -2   38.09    1.72
  -8   5  -2   60.34    2.33
  -7   5  -2   46.91    1.64
  -6   5  -2  127.15    3.70
  -5   5  -2  113.31    2.99
  -4   5  -2   19.10    0.85
  -3   5  -2  146.77    3.75
  -2   5  -2  102.66    3.15
  -1   5  -2   33.95    1.48
   0   5  -2  110.32    4.05
   1   5  -2  163.55    5.76
   2   5  -2   25.89    1.57
   3   5  -2   37.42    2.01
   4   5  -2   27.11    2.19
   5   5  -2    0.92    0.59
   6   5  -2   25.90    2.39
   7   5  -2   11.94    2.01
   8   5  -2   54.34    4.44
   9   5  -2   14.89    2.53
  10   5  -2    2.56    1.47
 -15   6  -2   11.62    1.48
 -14   6  -2   18.75    1.89
 -13   6  -2    6.51    1.10
 -12   6  -2   28.19    2.15
 -11   6  -2   26.77    1.99
 -10   6  -2   57.52    2.42
  -9   6  -2   61.39    2.43
  -8   6  -2   51.43    2.09
  -7   6  -2   43.74    1.63
  -6   6  -2   12.36    0.76
  -5   6  -2  171.01    4.79
  -4   6  -2  101.71    2.99
  -3   6  -2   30.73    1.26
  -2   6  -2   46.51    1.75
  -1   6  -2  123.59    4.57
   0   6  -2   11.36    0.99
   1   6  -2   39.02    1.92
   2   6  -2   30.84    1.81
   3   6  -2   28.49    1.85
   4   6  -2  154.25    6.63
   5   6  -2   59.78    3.35
   6   6  -2   27.38    2.54
   7   6  -2   12.52    2.16
   8   6  -2    8.57    1.93
   9   6  -2   16.07    2.67
 -15   7  -2    7.28    1.61
 -14   7  -2    4.81    1.30
 -13   7  -2    9.55    1.26
 -12   7  -2   11.68    1.37
 -11   7  -2  121.39    5.95
 -10   7  -2   12.29    1.34
  -9   7  -2   26.59    2.01
  -8   7  -2   11.89    1.22
  -7   7  -2   26.82    1.56
  -6   7  -2   38.69    1.81
  -5   7  -2   28.65    1.32
  -4   7  -2  233.20    7.35
  -3   7  -2   86.95    3.46
  -2   7  -2   46.37    2.13
  -1   7  -2   44.15    1.98
   0   7  -2   30.23    1.63
   1   7  -2   16.36    1.29
   2   7  -2   14.01    1.28
   3   7  -2   11.59    1.22
   4   7  -2  101.30    5.10
   5   7  -2    9.83    1.48
   6   7  -2    6.76    2.58
   7   7  -2    4.24    2.29
   8   7  -2    9.20    3.31
 -15   8  -2    6.52    1.52
 -14   8  -2    8.53    1.50
 -13   8  -2   56.82    5.19
 -12   8  -2   35.15    3.05
 -11   8  -2   17.45    1.66
 -10   8  -2   23.26    1.91
  -9   8  -2   55.84    2.73
  -8   8  -2  168.97    5.58
  -7   8  -2   13.58    1.14
  -6   8  -2   30.03    1.68
  -5   8  -2   37.02    1.88
  -4   8  -2    8.24    0.90
  -3   8  -2   65.26    2.70
  -2   8  -2   52.69    2.92
  -1   8  -2   12.74    1.54
   0   8  -2  170.00    7.35
   1   8  -2   94.47    4.67
   2   8  -2   63.71    3.57
   3   8  -2   10.32    1.54
   4   8  -2   48.52    4.17
   5   8  -2   21.65    2.79
   6   8  -2   28.55    5.24
   7   8  -2    5.72    2.71
 -15   9  -2   11.43    1.93
 -14   9  -2   17.01    2.17
 -13   9  -2    9.31    1.60
 -12   9  -2    0.76    0.64
 -11   9  -2    6.64    1.13
 -10   9  -2   13.80    1.46
  -9   9  -2   10.10    1.23
  -8   9  -2   93.86    4.15
  -7   9  -2   13.91    1.24
  -6   9  -2   29.93    2.35
  -5   9  -2   26.40    2.16
  -4   9  -2   40.41    2.17
  -3   9  -2   62.58    2.77
  -2   9  -2   31.29    2.56
  -1   9  -2   51.79    3.23
   0   9  -2    8.94    1.42
   1   9  -2   27.55    2.54
   2   9  -2    3.35    1.00
   3   9  -2    4.01    1.08
   4   9  -2    5.77    1.72
   5   9  -2   32.93    3.83
   6   9  -2   13.45    3.81
 -15  10  -2    4.64    1.53
 -14  10  -2   22.11    2.49
 -13  10  -2   14.30    1.95
 -12  10  -2   24.70    2.18
 -11  10  -2   34.44    2.52
 -10  10  -2   22.69    1.99
  -9  10  -2   22.91    1.99
  -8  10  -2   60.43    2.68
  -7  10  -2   10.35    1.42
  -6  10  -2  143.38    6.40
  -5  10  -2   -0.32    0.42
  -4  10  -2   57.05    2.72
  -3  10  -2   13.96    1.61
  -2  10  -2   25.84    2.38
  -1  10  -2   10.59    1.51
   0  10  -2   23.44    2.38
   1  10  -2   12.64    1.66
   2  10  -2   42.47    3.44
   3  10  -2   10.03    2.05
   4  10  -2   51.15    5.12
 -14  11  -2    7.25    1.51
 -13  11  -2   30.86    2.52
 -12  11  -2   10.21    1.42
 -11  11  -2    5.30    1.09
 -10  11  -2   11.63    1.47
  -9  11  -2    3.02    1.10
  -8  11  -2   10.52    1.45
  -7  11  -2  116.96    5.21
  -6  11  -2   58.37    3.42
  -5  11  -2   30.22    2.54
  -4  11  -2  117.54    5.64
  -3  11  -2   18.07    1.97
  -2  11  -2    5.44    1.18
  -1  11  -2   33.45    2.96
   0  11  -2    7.74    1.43
   1  11  -2   31.24    2.87
   2  11  -2   11.79    2.33
   3  11  -2    6.46    1.91
   4  11  -2    1.64    1.87
 -14  12  -2    7.89    1.71
 -13  12  -2    2.54    0.93
 -12  12  -2   15.21    1.79
 -11  12  -2   27.41    2.30
 -10  12  -2   36.16    5.79
  -9  12  -2    2.73    1.07
  -8  12  -2   52.70    3.22
  -7  12  -2    8.59    1.44
  -6  12  -2   28.63    2.62
  -5  12  -2   10.68    1.56
  -4  12  -2   36.37    4.07
  -3  12  -2   -0.10    0.86
  -2  12  -2   25.04    2.55
  -1  12  -2   11.39    1.74
   0  12  -2   15.06    2.05
   1  12  -2    9.82    2.15
   2  12  -2   17.82    2.87
 -14  13  -2    1.62    2.01
 -13  13  -2   21.33    2.77
 -12  13  -2    8.29    1.85
 -11  13  -2   16.60    2.44
 -10  13  -2   11.69    2.11
  -9  13  -2    8.71    1.79
  -8  13  -2   22.76    2.32
  -7  13  -2    5.87    1.28
  -6  13  -2    8.70    1.52
  -5  13  -2   50.82    5.00
  -4  13  -2    7.97    2.01
  -3  13  -2   10.75    2.28
  -2  13  -2   26.81    3.53
  -1  13  -2    3.87    1.24
   0  13  -2   26.31    3.47
   1  13  -2    0.39    1.68
 -12  14  -2   11.42    2.14
 -11  14  -2    5.01    1.57
 -10  14  -2   50.76    4.64
  -9  14  -2   23.56    2.99
  -8  14  -2   23.70    2.43
  -7  14  -2    1.06    0.92
  -6  14  -2    8.55    2.20
  -5  14  -2   18.79    2.75
  -4  14  -2   21.94    3.23
  -3  14  -2    7.44    1.94
  -2  14  -2    6.43    1.88
  -1  14  -2    7.32    2.72
 -10  15  -2    4.28    2.04
  -9  15  -2   13.53    2.39
  -8  15  -2    5.87    1.42
  -7  15  -2    9.05    2.19
  -6  15  -2   15.81    2.84
  -5  15  -2    4.17    1.64
   3 -15  -1    6.95    2.02
   4 -15  -1    4.77    1.35
   5 -15  -1   19.59    2.33
   6 -15  -1   20.44    2.33
   7 -15  -1    3.64    1.17
   8 -15  -1    1.55    0.96
   9 -15  -1    4.38    1.17
  10 -15  -1   13.82    1.97
  11 -15  -1    2.39    1.48
  12 -15  -1    7.73    2.21
   1 -14  -1    1.68    1.38
   2 -14  -1   19.92    2.35
   3 -14  -1    1.93    0.93
   4 -14  -1   12.92    1.81
   5 -14  -1   23.37    2.34
   6 -14  -1   15.18    1.87
   7 -14  -1   51.37    3.64
   8 -14  -1    2.74    0.98
   9 -14  -1   18.26    2.12
  10 -14  -1   31.40    2.88
  11 -14  -1    3.02    1.10
  12 -14  -1   18.34    2.29
  13 -14  -1    8.98    1.84
   0 -13  -1    0.20    0.81
   1 -13  -1   47.80    3.59
   2 -13  -1   28.89    2.69
   3 -13  -1   34.80    3.01
   4 -13  -1    7.19    1.34
   5 -13  -1    1.57    0.64
   6 -13  -1   11.43    1.63
   7 -13  -1   13.63    1.74
   8 -13  -1    0.14    0.62
   9 -13  -1   10.39    1.59
  10 -13  -1   25.60    2.48
  11 -13  -1   17.79    1.80
  12 -13  -1   20.02    1.90
  13 -13  -1    1.98    0.93
  14 -13  -1    4.95    1.40
  -2 -12  -1   21.37    3.52
  -1 -12  -1   21.43    2.26
   0 -12  -1   20.36    2.15
   1 -12  -1    6.62    1.31
   2 -12  -1    5.41    1.15
   3 -12  -1    2.18    0.65
   4 -12  -1   11.04    1.25
   5 -12  -1    3.65    0.90
   6 -12  -1    4.89    1.02
   7 -12  -1    9.80    1.44
   8 -12  -1   15.36    1.74
   9 -12  -1    0.30    0.50
  10 -12  -1    3.07    0.75
  11 -12  -1   25.03    2.03
  12 -12  -1   23.45    1.99
  13 -12  -1   52.73    3.27
  14 -12  -1   16.49    1.89
  -3 -11  -1    2.76    1.61
  -2 -11  -1   17.32    2.06
  -1 -11  -1   24.06    2.32
   0 -11  -1   18.94    1.99
   1 -11  -1   31.48    2.57
   2 -11  -1    6.13    0.90
   3 -11  -1  118.67    4.40
   4 -11  -1   12.03    1.47
   5 -11  -1   55.47    3.07
   6 -11  -1   16.97    1.79
   7 -11  -1   22.62    1.70
   8 -11  -1   60.66    2.82
   9 -11  -1    5.29    0.89
  10 -11  -1   29.89    2.17
  11 -11  -1   16.90    1.65
  12 -11  -1    8.83    1.26
  13 -11  -1   26.75    2.87
  14 -11  -1    0.58    0.93
  15 -11  -1    4.48    1.57
  -5 -10  -1    5.40    1.97
  -4 -10  -1   28.72    4.10
  -3 -10  -1   21.23    2.20
  -2 -10  -1    1.27    0.72
  -1 -10  -1   31.90    2.59
   0 -10  -1   32.72    1.93
   1 -10  -1   84.32    3.30
   2 -10  -1   12.75    1.18
   3 -10  -1   22.86    1.61
   4 -10  -1    4.67    0.92
   5 -10  -1    2.57    0.59
   6 -10  -1   10.65    1.08
   7 -10  -1   14.38    1.23
   8 -10  -1    9.97    1.11
   9 -10  -1   95.01    3.90
  10 -10  -1   35.85    2.28
  11 -10  -1   33.53    2.98
  12 -10  -1    6.77    1.41
  13 -10  -1   36.43    3.42
  14 -10  -1    9.30    1.77
  15 -10  -1   17.92    2.62
  -6  -9  -1    6.84    1.95
  -5  -9  -1   19.88    3.27
  -4  -9  -1    7.98    1.38
  -3  -9  -1   -0.09    0.59
  -2  -9  -1    5.19    1.03
  -1  -9  -1   99.39    3.75
   0  -9  -1    1.37    0.50
   1  -9  -1   85.62    3.33
   2  -9  -1   12.53    1.06
   3  -9  -1   20.12    1.41
   4  -9  -1   35.48    1.77
   5  -9  -1   57.96    2.54
   6  -9  -1   43.27    2.03
   7  -9  -1   29.36    1.72
   8  -9  -1   48.38    2.34
   9  -9  -1    2.23    0.81
  10  -9  -1   84.81    4.49
  11  -9  -1    4.37    1.11
  12  -9  -1    1.26    0.88
  13  -9  -1    9.56    1.73
  14  -9  -1   20.82    2.59
  15  -9  -1   14.64    2.38
  -7  -8  -1    1.79    1.45
  -6  -8  -1    4.37    1.68
  -5  -8  -1    0.75    0.65
  -4  -8  -1   14.03    1.72
  -3  -8  -1   64.59    2.75
  -2  -8  -1   10.87    1.08
  -1  -8  -1   47.25    2.20
   0  -8  -1   12.48    1.05
   1  -8  -1   64.33    2.29
   2  -8  -1   61.11    2.14
   3  -8  -1  102.97    3.65
   4  -8  -1   52.30    2.17
   5  -8  -1   32.98    1.71
   6  -8  -1   31.96    1.65
   7  -8  -1   31.35    1.68
   8  -8  -1   11.48    1.39
   9  -8  -1   87.25    4.49
  10  -8  -1   12.46    1.64
  11  -8  -1  126.64    6.04
  12  -8  -1   10.03    1.65
  13  -8  -1    2.96    1.03
  14  -8  -1   14.73    2.27
  15  -8  -1    7.05    1.67
  -8  -7  -1    4.30    1.78
  -7  -7  -1   49.17    5.37
  -6  -7  -1   13.16    1.76
  -5  -7  -1   12.72    1.59
  -4  -7  -1   21.60    1.60
  -3  -7  -1   14.72    1.22
  -2  -7  -1   27.75    1.60
  -1  -7  -1   34.23    1.62
   0  -7  -1    2.95    0.42
   1  -7  -1  165.48    4.88
   2  -7  -1  143.38    4.87
   3  -7  -1  156.79    5.32
   4  -7  -1   63.92    2.60
   5  -7  -1  111.19    3.51
   6  -7  -1  229.64    6.56
   7  -7  -1    3.42    0.57
   8  -7  -1   65.24    2.87
   9  -7  -1   10.55    1.15
  10  -7  -1   26.83    1.96
  11  -7  -1   12.29    1.40
  12  -7  -1    4.07    0.95
  13  -7  -1   12.15    1.63
  14  -7  -1   54.72    3.74
  15  -7  -1    3.89    1.50
  -9  -6  -1   17.55    3.09
  -8  -6  -1   13.39    2.56
  -7  -6  -1   13.21    1.80
  -6  -6  -1    9.51    1.11
  -5  -6  -1   22.08    1.59
  -4  -6  -1    9.46    0.97
  -3  -6  -1   43.49    1.97
  -2  -6  -1   34.30    1.42
  -1  -6  -1  221.69    6.40
   0  -6  -1   13.34    0.83
   1  -6  -1   19.59    0.98
   2  -6  -1   74.95    2.85
   3  -6  -1   62.47    2.02
   4  -6  -1   58.54    1.96
   5  -6  -1   13.30    0.78
   6  -6  -1   11.20    0.94
   7  -6  -1  161.28    5.99
   8  -6  -1   65.12    2.78
   9  -6  -1   16.04    1.44
  10  -6  -1    6.30    0.97
  11  -6  -1   59.39    2.93
  12  -6  -1    9.49    1.29
  13  -6  -1   13.70    1.71
  14  -6  -1    3.21    1.00
  15  -6  -1    2.81    1.49
 -10  -5  -1   20.38    3.48
  -9  -5  -1   14.03    2.71
  -8  -5  -1    1.73    1.13
  -7  -5  -1    3.87    0.77
  -6  -5  -1   55.72    2.49
  -5  -5  -1    1.74    0.51
  -4  -5  -1   60.64    2.22
  -3  -5  -1   38.71    1.52
  -2  -5  -1  115.18    3.50
  -1  -5  -1   14.68    0.83
   0  -5  -1  217.20    6.13
   1  -5  -1  112.86    3.82
   2  -5  -1  141.19    4.19
   3  -5  -1   56.75    1.90
   4  -5  -1  258.54    6.99
   5  -5  -1  222.62    7.47
   6  -5  -1   21.67    1.23
   7  -5  -1  143.99    5.23
   8  -5  -1  109.05    4.04
   9  -5  -1   33.06    2.02
  10  -5  -1    2.47    0.69
  11  -5  -1   12.74    1.54
  12  -5  -1    9.91    1.36
  13  -5  -1    0.87    0.69
  14  -5  -1   12.76    2.34
  15  -5  -1   14.22    2.58
 -10  -4  -1   11.87    2.54
  -9  -4  -1    7.54    1.91
  -8  -4  -1   12.36    1.26
  -7  -4  -1   15.50    1.35
  -6  -4  -1    5.96    0.81
  -5  -4  -1   37.40    1.59
  -4  -4  -1   53.89    1.93
  -3  -4  -1   69.73    2.30
  -2  -4  -1   58.00    1.97
  -1  -4  -1  247.14    6.84
   0  -4  -1  103.20    3.15
   1  -4  -1  143.37    4.14
   2  -4  -1    8.50    0.51
   3  -4  -1   50.48    1.76
   4  -4  -1  106.29    3.85
   5  -4  -1  102.19    3.48
   6  -4  -1   81.93    2.66
   7  -4  -1  168.08    5.01
   8  -4  -1   54.28    2.47
   9  -4  -1   64.66    2.92
  10  -4  -1    9.44    1.20
  11  -4  -1   22.72    1.93
  12  -4  -1   15.29    1.69
  13  -4  -1    8.94    1.90
  14  -4  -1   34.72    3.78
  15  -4  -1    2.08    1.52
 -11  -3  -1    2.95    1.49
 -10  -3  -1   35.63    3.02
  -9  -3  -1    0.72    0.52
  -8  -3  -1  112.80    4.38
  -7  -3  -1   23.93    1.63
  -6  -3  -1   20.21    1.43
  -5  -3  -1   98.27    3.20
  -4  -3  -1  160.68    4.23
  -3  -3  -1   61.50    2.04
  -2  -3  -1   62.15    1.92
  -1  -3  -1   57.95    1.76
   0  -3  -1  430.82   10.34
   1  -3  -1  155.97    4.32
   2  -3  -1  157.06    4.34
   3  -3  -1  430.88   12.14
   4  -3  -1  151.07    4.35
   5  -3  -1  155.00    4.47
   6  -3  -1   58.93    2.18
   7  -3  -1   55.86    2.42
   8  -3  -1   27.73    1.62
   9  -3  -1   45.67    2.35
  10  -3  -1   12.21    1.36
  11  -3  -1   51.62    3.15
  12  -3  -1    0.07    0.81
  13  -3  -1   22.49    3.04
  14  -3  -1    2.60    1.35
  15  -3  -1    4.21    2.33
 -12  -2  -1   17.32    3.06
 -11  -2  -1   25.00    2.56
 -10  -2  -1    4.97    0.90
  -9  -2  -1    6.20    0.91
  -8  -2  -1   14.27    1.26
  -7  -2  -1   13.43    1.13
  -6  -2  -1   61.25    2.24
  -5  -2  -1  143.92    3.86
  -4  -2  -1   78.70    2.26
  -3  -2  -1  138.60    3.77
  -2  -2  -1    9.44    0.57
  -1  -2  -1  152.51    4.26
   0  -2  -1  146.59    3.59
   1  -2  -1   34.64    1.10
   2  -2  -1  144.23    4.22
   3  -2  -1  152.76    4.53
   4  -2  -1    9.44    0.58
   5  -2  -1   49.52    2.03
   6  -2  -1   55.86    2.69
   7  -2  -1  107.39    4.70
   8  -2  -1   29.68    2.15
   9  -2  -1   29.81    2.07
  10  -2  -1   10.82    1.87
  11  -2  -1    7.67    1.68
  12  -2  -1    1.49    1.04
  13  -2  -1   18.03    2.67
  14  -2  -1   23.14    3.12
 -12  -1  -1   43.78    3.51
 -11  -1  -1   10.89    1.30
 -10  -1  -1   31.75    2.17
  -9  -1  -1   79.00    3.32
  -8  -1  -1   82.76    3.37
  -7  -1  -1   62.02    2.66
  -6  -1  -1  165.37    5.57
  -5  -1  -1   20.34    0.90
  -4  -1  -1  114.36    3.03
  -3  -1  -1  140.31    4.11
  -2  -1  -1  154.34    5.00
  -1  -1  -1   34.96    1.00
   0  -1  -1   24.45    0.90
   1  -1  -1   23.85    0.84
   2  -1  -1   35.38    1.15
   3  -1  -1  154.57    4.58
   4  -1  -1   49.35    2.01
   5  -1  -1  267.61    7.94
   6  -1  -1   13.70    0.94
   7  -1  -1  227.13    8.67
   8  -1  -1   25.08    2.18
   9  -1  -1   42.13    2.93
  10  -1  -1  101.12    4.74
  11  -1  -1   36.27    3.60
  12  -1  -1   24.58    3.01
  13  -1  -1   12.54    2.47
 -13   0  -1    1.86    0.96
 -12   0  -1   19.44    1.78
 -11   0  -1   18.68    1.66
 -10   0  -1   30.21    2.04
  -9   0  -1    1.82    0.56
  -8   0  -1   11.56    1.08
  -7   0  -1    3.50    0.57
  -6   0  -1   12.22    0.76
  -5   0  -1  218.87    5.68
  -4   0  -1  105.60    2.94
  -3   0  -1  429.52   11.41
  -2   0  -1  143.56    4.45
  -1   0  -1   23.94    0.72
   0   0  -1   -0.17    0.09
   1   0  -1   24.86    0.91
   2   0  -1  140.71    4.52
   3   0  -1  427.43   13.01
   4   0  -1  106.69    3.71
   5   0  -1  212.04    7.13
   6   0  -1   12.59    1.02
   7   0  -1    2.43    0.68
   8   0  -1   12.00    1.44
   9   0  -1    0.51    0.57
  10   0  -1   27.73    2.47
  11   0  -1   18.34    2.45
  12   0  -1   14.30    3.54
  13   0  -1   -0.92    1.18
 -14   1  -1    5.39    2.02
 -13   1  -1   17.32    2.10
 -12   1  -1   20.94    1.84
 -11   1  -1   30.01    2.12
 -10   1  -1   96.37    3.83
  -9   1  -1   52.14    2.35
  -8   1  -1   31.38    1.70
  -7   1  -1  224.41    6.52
  -6   1  -1   14.25    0.84
  -5   1  -1  252.16    6.95
  -4   1  -1   55.46    1.80
  -3   1  -1  151.07    3.96
  -2   1  -1   34.53    0.89
  -1   1  -1   24.09    0.60
   0   1  -1   23.02    0.69
   1   1  -1   35.42    1.13
   2   1  -1  150.43    4.87
   3   1  -1  155.40    4.77
   4   1  -1   91.38    3.81
   5   1  -1   22.30    1.35
   6   1  -1  157.60    5.75
   7   1  -1   76.95    3.48
   8   1  -1   90.14    4.20
   9   1  -1   82.62    4.12
  10   1  -1   32.04    2.75
  11   1  -1    5.71    1.58
  12   1  -1   44.29    6.18
 -14   2  -1   21.05    2.44
 -13   2  -1   15.13    1.60
 -12   2  -1    2.43    0.72
 -11   2  -1    5.98    0.96
 -10   2  -1    7.98    1.01
  -9   2  -1   28.17    1.80
  -8   2  -1   35.24    1.49
  -7   2  -1  114.15    3.58
  -6   2  -1   57.30    2.03
  -5   2  -1   57.01    1.96
  -4   2  -1   10.47    0.50
  -3   2  -1  150.41    3.66
  -2   2  -1  144.07    3.00
  -1   2  -1   34.79    0.91
   0   2  -1  142.43    4.61
   1   2  -1  150.96    4.38
   2   2  -1   10.12    0.58
   3   2  -1  151.77    4.86
   4   2  -1   84.72    3.02
   5   2  -1  145.60    5.02
   6   2  -1   73.62    2.77
   7   2  -1   11.02    1.37
   8   2  -1   13.55    1.62
   9   2  -1    2.29    1.05
  10   2  -1    3.90    1.33
  11   2  -1   27.25    3.35
  12   2  -1   16.73    3.74
 -15   3  -1    2.22    1.68
 -14   3  -1    2.69    0.91
 -13   3  -1   24.96    2.05
 -12   3  -1    0.61    0.53
 -11   3  -1   59.81    2.81
 -10   3  -1   14.41    1.32
  -9   3  -1   41.03    2.03
  -8   3  -1   42.41    1.65
  -7   3  -1   67.66    2.36
  -6   3  -1   59.79    2.10
  -5   3  -1  143.79    3.86
  -4   3  -1  146.22    4.37
  -3   3  -1  429.85    9.82
  -2   3  -1  153.18    3.82
  -1   3  -1  148.14    4.28
   0   3  -1  417.06   13.19
   1   3  -1   49.86    2.37
   2   3  -1   54.42    1.95
   3   3  -1   61.57    2.14
   4   3  -1  169.16    5.48
   5   3  -1  105.46    3.79
   6   3  -1   17.74    1.44
   7   3  -1   24.27    2.77
   8   3  -1  120.67    6.85
   9   3  -1    1.11    1.01
  10   3  -1   35.63    3.85
  11   3  -1    2.05    1.28
  12   3  -1    4.65    2.41
 -15   4  -1    2.74    1.20
 -14   4  -1   30.30    2.37
 -13   4  -1    7.66    1.11
 -12   4  -1   15.27    1.49
 -11   4  -1   21.10    1.70
 -10   4  -1    9.49    1.04
  -9   4  -1   56.85    2.29
  -8   4  -1   51.86    1.99
  -7   4  -1  156.72    4.76
  -6   4  -1   80.69    2.34
  -5   4  -1  106.52    3.12
  -4   4  -1  106.78    2.77
  -3   4  -1   50.50    1.72
  -2   4  -1   10.33    0.54
  -1   4  -1  145.62    4.14
   0   4  -1  105.37    3.77
   1   4  -1  245.86    8.06
   2   4  -1   58.60    2.03
   3   4  -1   61.78    2.33
   4   4  -1   55.35    2.28
   5   4  -1   33.38    2.45
   6   4  -1    5.79    1.07
   7   4  -1   12.87    1.98
   8   4  -1   10.25    1.92
   9   4  -1   11.85    2.14
  10   4  -1   11.96    2.25
  11   4  -1    6.07    1.74
 -15   5  -1   13.74    1.63
 -14   5  -1   14.99    1.65
 -13   5  -1    0.71    0.58
 -12   5  -1    9.36    1.19
 -11   5  -1   19.34    1.63
 -10   5  -1    2.66    0.58
  -9   5  -1   37.32    1.67
  -8   5  -1   97.19    3.28
  -7   5  -1  144.36    3.98
  -6   5  -1   22.71    1.07
  -5   5  -1  220.27    5.98
  -4   5  -1  257.81    6.70
  -3   5  -1   56.02    2.04
  -2   5  -1  146.68    4.20
  -1   5  -1  108.81    3.37
   0   5  -1  213.53    7.23
   1   5  -1   14.16    1.10
   2   5  -1  114.88    4.22
   3   5  -1   35.66    1.93
   4   5  -1   59.02    3.21
   5   5  -1    1.26    0.70
   6   5  -1   57.68    3.20
   7   5  -1    1.89    1.03
   8   5  -1    1.90    1.07
   9   5  -1   23.60    2.99
  10   5  -1   19.30    2.78
 -15   6  -1    2.39    1.12
 -14   6  -1    4.05    1.16
 -13   6  -1   15.26    1.59
 -12   6  -1    7.24    1.06
 -11   6  -1   50.38    2.27
 -10   6  -1    6.71    0.83
  -9   6  -1   20.14    1.59
  -8   6  -1   62.82    2.75
  -7   6  -1  162.87    5.30
  -6   6  -1   12.34    0.95
  -5   6  -1   14.38    0.77
  -4   6  -1   57.22    1.96
  -3   6  -1   60.35    2.40
  -2   6  -1   79.68    2.97
  -1   6  -1   21.55    1.16
   0   6  -1   11.60    0.91
   1   6  -1  231.27    7.63
   2   6  -1   31.22    1.81
   3   6  -1   43.11    2.13
   4   6  -1    7.30    1.21
   5   6  -1   19.55    1.93
   6   6  -1    8.42    1.64
   7   6  -1   12.21    2.08
   8   6  -1   14.56    2.35
   9   6  -1   16.75    2.65
 -15   7  -1    4.48    1.32
 -14   7  -1   46.43    3.85
 -13   7  -1   13.47    1.91
 -12   7  -1    2.63    0.96
 -11   7  -1   15.35    1.53
 -10   7  -1   21.86    1.78
  -9   7  -1   12.02    1.21
  -8   7  -1   64.60    2.55
  -7   7  -1    3.06    0.53
  -6   7  -1  228.98    7.04
  -5   7  -1  115.32    3.46
  -4   7  -1   66.92    2.65
  -3   7  -1  157.97    5.39
  -2   7  -1  140.32    4.94
  -1   7  -1  165.09    6.98
   0   7  -1    3.69    0.55
   1   7  -1   31.72    1.82
   2   7  -1   26.28    1.71
   3   7  -1   11.99    1.22
   4   7  -1   24.51    2.16
   5   7  -1   10.32    1.48
   6   7  -1   14.41    2.21
   7   7  -1   48.40    6.83
   8   7  -1    6.44    2.60
 -15   8  -1    7.00    1.43
 -14   8  -1   10.30    1.71
 -13   8  -1    1.36    0.85
 -12   8  -1   11.36    1.37
 -11   8  -1  114.97    4.80
 -10   8  -1   12.91    1.37
  -9   8  -1   80.14    3.66
  -8   8  -1   12.60    1.09
  -7   8  -1   33.90    1.69
  -6   8  -1   30.56    1.76
  -5   8  -1   39.30    1.81
  -4   8  -1   53.77    2.26
  -3   8  -1   97.81    3.71
  -2   8  -1   61.26    2.63
  -1   8  -1   70.62    3.53
   0   8  -1   10.86    1.40
   1   8  -1   47.86    3.04
   2   8  -1    9.26    1.36
   3   8  -1   62.56    3.49
   4   8  -1   12.26    2.15
   5   8  -1   -0.03    0.77
   6   8  -1    2.75    1.84
   7   8  -1    2.10    1.93
 -15   9  -1   10.15    1.81
 -14   9  -1   17.80    2.24
 -13   9  -1    6.73    1.26
 -12   9  -1    3.02    0.83
 -11   9  -1    5.19    1.00
 -10   9  -1   82.23    3.68
  -9   9  -1    2.21    0.69
  -8   9  -1   53.10    2.29
  -7   9  -1   28.06    1.76
  -6   9  -1   44.97    2.52
  -5   9  -1   56.35    3.09
  -4   9  -1   36.98    1.94
  -3   9  -1   20.20    1.52
  -2   9  -1   11.58    1.39
  -1   9  -1   86.80    4.33
   0   9  -1    0.70    0.61
   1   9  -1   96.20    4.83
   2   9  -1    7.17    1.32
   3   9  -1    0.76    0.89
   4   9  -1    8.10    1.88
   5   9  -1   14.86    2.55
   6   9  -1    2.03    1.81
 -15  10  -1   21.50    2.50
 -14  10  -1    9.88    1.73
 -13  10  -1   33.27    2.64
 -12  10  -1    4.47    0.96
 -11  10  -1   29.16    2.33
 -10  10  -1   25.06    2.08
  -9  10  -1   99.26    4.23
  -8  10  -1   10.96    1.38
  -7  10  -1   11.55    1.42
  -6  10  -1    9.26    1.35
  -5  10  -1    1.45    0.62
  -4  10  -1    7.55    0.92
  -3  10  -1   23.97    1.76
  -2  10  -1   12.23    1.55
  -1  10  -1   79.10    4.21
   0  10  -1   30.90    2.65
   1  10  -1   32.55    2.85
   2  10  -1    2.18    1.18
   3  10  -1   25.51    3.33
   4  10  -1   26.70    3.48
   5  10  -1   17.78    4.14
 -15  11  -1    4.18    1.75
 -14  11  -1    2.64    1.18
 -13  11  -1   24.56    2.25
 -12  11  -1    9.96    1.40
 -11  11  -1   16.08    1.73
 -10  11  -1   29.92    2.35
  -9  11  -1    6.02    1.40
  -8  11  -1   61.38    3.33
  -7  11  -1   17.34    1.92
  -6  11  -1   20.80    1.97
  -5  11  -1   58.18    3.30
  -4  11  -1   11.72    1.53
  -3  11  -1  119.98    5.56
  -2  11  -1    3.27    0.99
  -1  11  -1   30.88    2.72
   0  11  -1   17.03    2.05
   1  11  -1   25.93    3.24
   2  11  -1   17.96    2.78
   3  11  -1    4.22    1.54
   4  11  -1    2.63    1.40
 -14  12  -1   15.95    2.37
 -13  12  -1   43.45    3.10
 -12  12  -1   21.01    1.99
 -11  12  -1   19.39    2.52
 -10  12  -1    0.31    0.73
  -9  12  -1    1.22    0.72
  -8  12  -1   15.65    1.85
  -7  12  -1    9.55    1.42
  -6  12  -1    9.83    1.45
  -5  12  -1    4.73    1.12
  -4  12  -1   11.87    2.11
  -3  12  -1    1.46    1.13
  -2  12  -1    6.91    1.30
  -1  12  -1    9.26    1.54
   0  12  -1   18.49    2.24
   1  12  -1   20.33    2.98
   2  12  -1   21.50    3.14
   3  12  -1    2.80    2.34
 -14  13  -1    2.79    1.33
 -13  13  -1    1.17    1.14
 -12  13  -1   18.64    2.67
 -11  13  -1   14.47    2.24
 -10  13  -1   25.46    2.96
  -9  13  -1    7.37    1.39
  -8  13  -1    0.60    0.69
  -7  13  -1   12.85    1.73
  -6  13  -1   10.34    1.61
  -5  13  -1    2.04    0.90
  -4  13  -1    7.78    1.88
  -3  13  -1   43.05    4.46
  -2  13  -1   23.64    3.27
  -1  13  -1   44.81    3.61
   0  13  -1    1.65    1.23
   1  13  -1    5.44    1.89
 -13  14  -1    5.39    2.58
 -12  14  -1   17.69    4.24
 -11  14  -1    1.88    1.24
 -10  14  -1   27.81    3.27
  -9  14  -1   18.55    2.13
  -8  14  -1    5.88    1.35
  -7  14  -1   52.96    3.66
  -6  14  -1   13.14    1.91
  -5  14  -1   23.07    3.27
  -4  14  -1   15.16    2.60
  -3  14  -1    2.39    1.51
  -2  14  -1   20.71    3.07
 -11  15  -1    0.33    1.15
 -10  15  -1   13.14    2.31
  -9  15  -1    5.77    1.35
  -8  15  -1    2.10    1.01
  -7  15  -1    3.35    1.19
  -6  15  -1   10.49    2.40
  -5  15  -1   16.84    3.01
  -4  15  -1    8.34    2.99
  -3  15  -1    5.58    2.70
   8 -16   0    4.77    1.96
   4 -15   0   23.92    2.58
   5 -15   0    3.21    1.08
   6 -15   0   25.83    2.17
   7 -15   0    3.51    0.90
   8 -15   0    1.29    0.92
   9 -15   0   59.38    4.02
  10 -15   0    3.47    1.21
  11 -15   0    5.80    1.43
   2 -14   0    9.05    2.20
   3 -14   0   13.74    1.87
   4 -14   0    9.07    1.27
   5 -14   0    2.28    0.77
   6 -14   0   28.93    2.21
   7 -14   0    1.02    0.84
   8 -14   0   64.43    3.76
   9 -14   0    5.13    1.19
  10 -14   0    8.28    1.55
  11 -14   0   13.80    1.98
  12 -14   0    3.01    1.10
  13 -14   0   10.02    2.46
   0 -13   0   22.84    3.56
   1 -13   0   22.24    3.38
   2 -13   0   10.14    1.28
   3 -13   0    5.93    1.00
   4 -13   0   51.11    2.65
   5 -13   0   91.44    3.79
   6 -13   0   10.41    1.58
   7 -13   0   17.13    2.02
   8 -13   0   35.59    3.02
   9 -13   0   49.04    3.59
  10 -13   0    1.08    0.67
  11 -13   0   22.79    2.39
  12 -13   0    8.81    1.29
  13 -13   0   21.71    2.09
  14 -13   0   15.19    2.27
  -2 -12   0    2.57    1.54
  -1 -12   0    6.91    2.07
   0 -12   0   11.62    1.70
   1 -12   0    4.62    0.91
   2 -12   0   58.75    2.73
   3 -12   0    8.86    1.12
   4 -12   0    2.78    0.66
   5 -12   0    1.41    0.68
   6 -12   0   -0.12    0.48
   7 -12   0    3.23    0.89
   8 -12   0    4.44    1.04
   9 -12   0   17.19    1.87
  10 -12   0  144.79    5.57
  11 -12   0    2.48    0.78
  12 -12   0   12.47    1.51
  13 -12   0   25.53    2.18
  14 -12   0    9.78    1.79
  -4 -11   0    3.84    1.83
  -3 -11   0   17.28    3.06
  -2 -11   0   22.34    3.47
  -1 -11   0    1.61    0.86
   0 -11   0    0.16    0.47
   1 -11   0   55.94    2.62
   2 -11   0   17.58    1.53
   3 -11   0   68.89    2.94
   4 -11   0   47.61    2.30
   5 -11   0   82.31    4.04
   6 -11   0  121.53    5.44
   7 -11   0   99.34    4.83
   8 -11   0   53.12    2.57
   9 -11   0   10.56    1.08
  10 -11   0   21.13    1.79
  11 -11   0   -0.03    0.49
  12 -11   0    3.32    1.09
  13 -11   0    9.95    1.83
  14 -11   0   17.25    2.33
  15 -11   0   23.57    2.96
  -5 -10   0    5.57    2.12
  -4 -10   0    7.59    2.07
  -3 -10   0    1.68    0.88
  -2 -10   0  146.91    6.67
  -1 -10   0   24.97    1.77
   0 -10   0   11.50    1.19
   1 -10   0   30.83    1.98
   2 -10   0    0.20    0.35
   3 -10   0    3.02    0.56
   4 -10   0   72.31    3.64
   5 -10   0  114.01    5.17
   6 -10   0  153.46    5.40
   7 -10   0   10.39    1.09
   8 -10   0    0.15    0.38
   9 -10   0   30.63    2.11
  10 -10   0   14.40    1.79
  11 -10   0   54.87    3.53
  12 -10   0   44.63    3.93
  13 -10   0    4.87    1.20
  14 -10   0    8.02    1.70
  15 -10   0    2.78    1.31
  -6  -9   0   52.03    5.75
  -5  -9   0    3.44    1.54
  -4  -9   0   48.21    3.29
  -3  -9   0   16.74    1.89
  -2  -9   0   10.60    1.12
  -1  -9   0   36.87    1.93
   0  -9   0   41.88    2.02
   1  -9   0    5.92    0.80
   2  -9   0  111.42    4.04
   3  -9   0  172.51    6.98
   4  -9   0   22.37    1.37
   5  -9   0   33.45    1.67
   6  -9   0   60.56    2.68
   7  -9   0   53.42    2.51
   8  -9   0   13.75    1.23
   9  -9   0   40.31    2.86
  10  -9   0   36.06    2.93
  11  -9   0   18.61    2.13
  12  -9   0    9.21    1.64
  13  -9   0   53.83    3.87
  14  -9   0    1.31    1.05
  15  -9   0   16.82    2.44
  -7  -8   0   -0.47    1.12
  -6  -8   0   55.61    3.82
  -5  -8   0   41.47    3.18
  -4  -8   0    5.05    1.07
  -3  -8   0   53.81    2.48
  -2  -8   0    0.49    0.37
  -1  -8   0   12.58    1.13
   0  -8   0   89.63    3.31
   1  -8   0  143.87    4.94
   2  -8   0   37.34    1.69
   3  -8   0   32.70    1.53
   4  -8   0   -0.04    0.24
   5  -8   0   43.16    1.90
   6  -8   0   89.78    3.37
   7  -8   0  290.03   11.39
   8  -8   0   85.03    4.38
   9  -8   0    4.18    0.98
  10  -8   0   -0.23    0.44
  11  -8   0   66.84    3.96
  12  -8   0    1.71    0.89
  13  -8   0   88.31    5.08
  14  -8   0   25.49    2.98
  15  -8   0    4.18    1.44
  16  -8   0    3.57    1.91
  -8  -7   0    2.16    1.48
  -7  -7   0    1.02    0.82
  -6  -7   0   24.12    2.33
  -5  -7   0    3.64    0.92
  -4  -7   0  109.12    4.02
  -3  -7   0    9.60    1.00
  -2  -7   0   61.64    2.47
  -1  -7   0  280.54    8.76
   0  -7   0    4.05    0.59
   1  -7   0   55.19    1.90
   2  -7   0   12.63    0.86
   3  -7   0   59.67    2.39
   4  -7   0  123.10    4.31
   5  -7   0   28.39    1.42
   6  -7   0  142.58    4.93
   7  -7   0    3.86    0.60
   8  -7   0  131.12    5.31
   9  -7   0  114.43    4.47
  10  -7   0    1.35    0.59
  11  -7   0   42.01    2.59
  12  -7   0    0.94    0.62
  13  -7   0    7.86    1.31
  14  -7   0    1.99    0.85
  15  -7   0    1.93    1.00
  -9  -6   0   19.26    3.40
  -8  -6   0   29.49    2.77
  -7  -6   0   11.60    1.67
  -6  -6   0    0.68    0.60
  -5  -6   0  121.08    4.44
  -4  -6   0  150.93    5.25
  -3  -6   0   69.01    2.68
  -2  -6   0   84.85    3.20
  -1  -6   0  135.41    4.06
   0  -6   0   27.46    1.11
   1  -6   0   86.89    2.67
   2  -6   0   43.74    1.78
   3  -6   0  397.07   12.48
   4  -6   0   21.52    1.11
   5  -6   0   30.68    1.47
   6  -6   0   27.29    1.39
   7  -6   0   51.25    2.41
   8  -6   0   28.04    1.88
   9  -6   0  178.14    6.42
  10  -6   0   62.08    3.27
  11  -6   0   74.12    3.69
  12  -6   0    0.00    0.54
  13  -6   0   26.71    2.33
  14  -6   0   64.34    3.64
  15  -6   0   61.96    3.81
 -10  -5   0    3.51    1.71
  -9  -5   0    3.51    1.14
  -8  -5   0   88.54    4.63
  -7  -5   0    2.31    0.78
  -6  -5   0   83.83    3.31
  -5  -5   0  118.67    4.27
  -4  -5   0   35.27    1.47
  -3  -5   0   41.78    1.62
  -2  -5   0   28.10    1.18
  -1  -5   0   34.99    1.28
   0  -5   0    0.49    0.18
   1  -5   0  193.97    6.32
   2  -5   0   54.43    2.06
   3  -5   0   31.20    1.32
   4  -5   0   74.45    2.86
   5  -5   0    0.35    0.24
   6  -5   0   91.52    3.40
   7  -5   0    8.78    0.96
   8  -5   0   31.39    1.86
   9  -5   0   19.56    1.70
  10  -5   0  116.65    4.86
  11  -5   0  130.58    5.18
  12  -5   0    6.14    1.12
  13  -5   0   33.51    2.79
  14  -5   0    3.85    1.04
  15  -5   0    3.08    1.53
 -11  -4   0   22.45    2.53
 -10  -4   0   15.40    1.99
  -9  -4   0   52.79    3.33
  -8  -4   0    4.29    1.02
  -7  -4   0   47.62    2.28
  -6  -4   0   79.14    3.05
  -5  -4   0   23.16    1.18
  -4  -4   0    0.31    0.24
  -3  -4   0  127.03    3.75
  -2  -4   0   22.82    0.95
  -1  -4   0   80.23    2.41
   0  -4   0  101.82    3.00
   1  -4   0  135.46    4.35
   2  -4   0  959.23   28.91
   3  -4   0  231.55    7.46
   4  -4   0  102.79    3.69
   5  -4   0  205.78    6.81
   6  -4   0   46.38    1.67
   7  -4   0   56.68    2.24
   8  -4   0   -0.35    0.28
   9  -4   0   32.76    2.98
  10  -4   0  160.50    7.98
  11  -4   0  109.73    4.65
  12  -4   0    5.76    1.09
  13  -4   0   45.85    3.06
  14  -4   0    6.26    1.39
  15  -4   0    7.54    2.03
 -12  -3   0   15.85    3.18
 -11  -3   0   14.06    1.98
 -10  -3   0    3.20    1.04
  -9  -3   0   10.45    1.51
  -8  -3   0   67.57    2.94
  -7  -3   0    5.09    0.75
  -6  -3   0  164.65    5.74
  -5  -3   0   33.54    1.36
  -4  -3   0   68.64    2.14
  -3  -3   0  397.52   10.87
  -2  -3   0   31.78    1.14
  -1  -3   0  225.03    6.18
   0  -3   0   23.86    0.82
   1  -3   0   25.23    0.98
   2  -3   0   40.67    1.95
   3  -3   0   22.45    1.03
   4  -3   0  123.30    4.68
   5  -3   0   59.28    2.41
   6  -3   0  397.86   14.26
   7  -3   0  132.08    5.07
   8  -3   0   44.08    2.30
   9  -3   0   46.43    5.41
  10  -3   0   11.28    1.80
  11  -3   0   51.62    4.17
  12  -3   0   14.75    2.32
  13  -3   0    3.92    1.44
  14  -3   0   18.38    2.90
  15  -3   0   23.97    4.67
 -12  -2   0    8.99    1.60
 -11  -2   0    8.48    1.51
 -10  -2   0   60.91    3.51
  -9  -2   0   20.04    2.00
  -8  -2   0    0.00    0.35
  -7  -2   0  111.54    4.06
  -6  -2   0   37.31    1.46
  -5  -2   0   11.52    0.77
  -4  -2   0   43.65    1.57
  -3  -2   0   55.50    1.66
  -2  -2   0  941.10   25.14
  -1  -2   0   42.78    1.35
   0  -2   0   40.04    1.21
   1  -2   0    2.86    0.37
   2  -2   0   40.62    1.51
   3  -2   0   22.25    1.12
   4  -2   0  974.13   32.80
   5  -2   0   27.17    1.58
   6  -2   0   19.05    1.45
   7  -2   0   32.92    1.94
   8  -2   0   95.16    4.07
   9  -2   0   46.97    3.05
  10  -2   0    0.02    0.68
  11  -2   0    6.94    1.59
  12  -2   0  149.19    8.15
  13  -2   0   21.31    2.98
  14  -2   0    3.54    1.54
 -13  -1   0   13.21    1.97
 -12  -1   0   24.14    2.52
 -11  -1   0    3.00    1.01
 -10  -1   0   54.57    3.28
  -9  -1   0   29.40    2.00
  -8  -1   0    6.57    0.85
  -7  -1   0  152.92    4.46
  -6  -1   0   57.66    1.97
  -5  -1   0   83.53    2.71
  -4  -1   0  193.02    5.57
  -3  -1   0  139.95    3.84
  -2  -1   0   26.83    0.81
  -1  -1   0    3.25    0.28
   0  -1   0    2.67    0.19
   1  -1   0    2.41    0.25
   2  -1   0    3.23    0.42
   3  -1   0   46.00    1.95
   4  -1   0  236.30    8.32
   5  -1   0   62.42    4.07
   6  -1   0   24.71    1.92
   7  -1   0  147.96    5.77
   8  -1   0  290.26   10.55
   9  -1   0   14.72    1.62
  10  -1   0   34.13    2.69
  11  -1   0   15.96    2.36
  12  -1   0    2.92    1.29
  13  -1   0    5.50    1.67
 -13   0   0   21.34    2.36
 -12   0   0   17.77    2.06
 -11   0   0   -0.57    0.51
 -10   0   0   14.56    1.35
  -9   0   0   40.72    2.06
  -8   0   0   86.36    3.35
  -7   0   0    3.34    0.45
  -6   0   0   26.74    1.15
  -5   0   0    0.10    0.16
  -4   0   0  102.96    3.06
  -3   0   0   22.01    0.84
  -2   0   0   42.32    1.25
  -1   0   0    3.65    0.21
   1   0   0    2.76    0.30
   2   0   0   41.21    1.78
   3   0   0   23.81    1.06
   4   0   0  104.69    3.61
   5   0   0    0.55    0.28
   6   0   0   28.26    1.47
   7   0   0    6.38    0.99
   8   0   0   90.51    4.19
   9   0   0   43.03    2.77
  10   0   0   13.84    1.75
  11   0   0   -0.26    0.72
  12   0   0   14.10    2.34
  13   0   0   21.15    4.49
 -14   1   0   10.16    1.76
 -13   1   0   10.19    1.64
 -12   1   0    2.85    0.98
 -11   1   0   26.77    1.93
 -10   1   0   37.22    2.25
  -9   1   0   12.24    1.17
  -8   1   0  270.76    7.87
  -7   1   0  133.88    4.16
  -6   1   0   35.02    1.34
  -5   1   0   80.64    2.47
  -4   1   0  219.52    6.27
  -3   1   0   44.75    1.39
  -2   1   0    3.80    0.31
  -1   1   0    3.53    0.20
   0   1   0    2.39    0.22
   1   1   0    3.63    0.41
   2   1   0   24.80    1.37
   3   1   0  125.50    4.50
   4   1   0  210.65    6.54
   5   1   0   90.77    3.30
   6   1   0   48.47    2.31
   7   1   0  127.91    5.95
   8   1   0    3.11    0.83
   9   1   0   33.84    2.62
  10   1   0   57.40    3.46
  11   1   0    4.92    1.48
  12   1   0   22.67    4.33
 -14   2   0    3.93    1.26
 -13   2   0   21.58    2.36
 -12   2   0  145.82    5.45
 -11   2   0   10.44    1.16
 -10   2   0    0.04    0.37
  -9   2   0   61.01    2.25
  -8   2   0   86.98    2.93
  -7   2   0   27.91    1.25
  -6   2   0   22.56    1.00
  -5   2   0   31.31    1.18
  -4   2   0  941.50   25.38
  -3   2   0   25.95    0.83
  -2   2   0   40.35    1.35
  -1   2   0    3.51    0.37
   0   2   0   40.79    1.31
   1   2   0   45.42    1.73
   2   2   0  954.34   29.21
   3   2   0   59.03    2.27
   4   2   0   45.73    2.00
   5   2   0    9.21    0.96
   6   2   0   30.41    1.89
   7   2   0  115.31    4.99
   8   2   0    0.22    0.53
   9   2   0   21.33    2.08
  10   2   0   43.62    4.40
  11   2   0   12.56    2.27
  12   2   0    7.23    2.64
 -14   3   0   15.68    2.04
 -13   3   0    3.52    1.09
 -12   3   0   14.61    1.48
 -11   3   0   53.79    2.58
 -10   3   0    8.83    1.03
  -9   3   0   64.46    2.40
  -8   3   0   41.71    1.70
  -7   3   0  119.17    3.82
  -6   3   0  401.40   11.02
  -5   3   0   55.76    1.70
  -4   3   0  138.57    4.10
  -3   3   0   22.67    0.95
  -2   3   0   43.45    1.35
  -1   3   0   25.61    1.09
   0   3   0   24.33    1.10
   1   3   0  229.56    7.36
   2   3   0   29.76    1.44
   3   3   0  406.22   11.26
   4   3   0   60.66    2.60
   5   3   0   36.63    1.84
   6   3   0  173.64    6.03
   7   3   0    4.14    0.91
   8   3   0   62.23    4.43
   9   3   0    7.44    1.69
  10   3   0    5.17    1.52
  11   3   0   14.99    2.58
  12   3   0   17.37    4.04
 -15   4   0    7.41    1.38
 -14   4   0    5.86    1.29
 -13   4   0   43.78    2.84
 -12   4   0    4.94    0.85
 -11   4   0  101.31    4.09
 -10   4   0  150.78    4.81
  -9   4   0   33.53    1.59
  -8   4   0    0.31    0.25
  -7   4   0   64.83    1.97
  -6   4   0   45.95    1.70
  -5   4   0  189.63    7.17
  -4   4   0  104.29    3.31
  -3   4   0  221.65    6.03
  -2   4   0  952.12   28.35
  -1   4   0  138.49    4.22
   0   4   0  105.03    3.65
   1   4   0   81.35    2.98
   2   4   0   23.50    1.33
   3   4   0  126.28    3.93
   4   4   0    0.34    0.34
   5   4   0   23.53    1.67
   6   4   0   72.87    3.76
   7   4   0   43.43    3.68
   8   4   0    1.50    0.97
   9   4   0   54.92    4.42
  10   4   0    9.99    1.95
  11   4   0   28.57    3.61
 -15   5   0    5.05    1.33
 -14   5   0    3.66    1.16
 -13   5   0   39.86    3.24
 -12   5   0    4.33    1.04
 -11   5   0  114.60    4.03
 -10   5   0  117.49    3.91
  -9   5   0   22.31    1.62
  -8   5   0   31.87    1.70
  -7   5   0   11.53    0.85
  -6   5   0   90.15    2.97
  -5   5   0    0.05    0.19
  -4   5   0   84.00    2.39
  -3   5   0   32.03    1.35
  -2   5   0   54.43    2.15
  -1   5   0  192.89    5.61
   0   5   0    0.73    0.29
   1   5   0   36.75    1.67
   2   5   0   29.95    1.64
   3   5   0   41.68    1.76
   4   5   0   33.37    1.96
   5   5   0  113.61    5.30
   6   5   0   73.38    4.90
   7   5   0    0.87    0.86
   8   5   0   89.43    5.70
   9   5   0    3.26    1.31
  10   5   0    3.62    1.40
 -15   6   0   61.02    3.91
 -14   6   0   58.64    3.77
 -13   6   0   20.72    2.28
 -12   6   0    0.29    0.60
 -11   6   0   87.46    3.63
 -10   6   0   81.37    3.34
  -9   6   0  165.37    6.19
  -8   6   0   36.16    1.85
  -7   6   0   57.55    2.18
  -6   6   0   25.92    1.31
  -5   6   0   36.78    1.51
  -4   6   0   23.98    1.18
  -3   6   0  396.73   12.34
  -2   6   0   43.40    1.89
  -1   6   0   82.85    2.75
   0   6   0   30.78    1.45
   1   6   0  134.02    4.91
   2   6   0   89.03    3.48
   3   6   0   69.41    2.86
   4   6   0  150.65    6.53
   5   6   0  119.46    5.50
   6   6   0   -0.39    0.68
   7   6   0    7.25    1.61
   8   6   0   28.44    3.38
   9   6   0   25.15    3.25
 -15   7   0    0.78    1.03
 -14   7   0    0.72    0.85
 -13   7   0    9.30    1.58
 -12   7   0    2.49    0.73
 -11   7   0   47.31    2.50
 -10   7   0    4.62    0.76
  -9   7   0  112.81    4.42
  -8   7   0  144.16    4.76
  -7   7   0    4.33    0.61
  -6   7   0  131.65    4.49
  -5   7   0   30.12    1.43
  -4   7   0  120.41    4.30
  -3   7   0   65.55    2.53
  -2   7   0   11.80    1.02
  -1   7   0   60.61    2.32
   0   7   0    3.90    0.56
   1   7   0  266.83    9.13
   2   7   0   64.23    2.70
   3   7   0   10.10    1.35
   4   7   0   99.30    4.91
   5   7   0    5.52    1.13
   6   7   0   27.52    3.08
   7   7   0    2.02    1.14
   8   7   0    3.53    2.22
 -15   8   0    2.41    1.19
 -14   8   0   31.11    2.92
 -13   8   0   87.32    4.06
 -12   8   0    4.61    0.86
 -11   8   0   69.92    3.23
 -10   8   0   -0.12    0.40
  -9   8   0    4.82    0.82
  -8   8   0   84.08    3.21
  -7   8   0  260.09    8.41
  -6   8   0   80.96    3.87
  -5   8   0   40.92    1.86
  -4   8   0   -0.24    0.24
  -3   8   0   31.40    1.70
  -2   8   0   37.23    1.83
  -1   8   0  160.04    6.37
   0   8   0   87.11    4.27
   1   8   0   12.37    1.51
   2   8   0   -0.24    0.46
   3   8   0   49.62    3.96
   4   8   0    4.56    1.37
   5   8   0   45.85    4.38
   6   8   0   48.99    7.03
   7   8   0    2.18    1.92
 -15   9   0   25.45    2.74
 -14   9   0    2.07    1.00
 -13   9   0   56.70    3.00
 -12   9   0    6.84    1.08
 -11   9   0   14.79    1.54
 -10   9   0   37.72    2.43
  -9   9   0   43.89    2.38
  -8   9   0   12.63    1.17
  -7   9   0   64.26    3.10
  -6   9   0   71.85    3.34
  -5   9   0   34.74    2.30
  -4   9   0   21.78    1.45
  -3   9   0  165.35    5.89
  -2   9   0  101.05    5.03
  -1   9   0    5.82    1.07
   0   9   0   43.51    2.79
   1   9   0   31.85    2.69
   2   9   0   10.04    1.92
   3   9   0   16.27    2.52
   4   9   0   45.92    4.57
   5   9   0    5.07    2.32
   6   9   0   56.25    7.70
 -15  10   0    4.05    1.30
 -14  10   0   10.46    1.48
 -13  10   0    4.52    1.02
 -12  10   0   59.84    3.09
 -11  10   0   56.72    3.03
 -10  10   0   10.46    1.32
  -9  10   0   36.52    2.07
  -8  10   0    0.15    0.51
  -7  10   0    7.76    1.22
  -6  10   0  142.75    6.26
  -5  10   0  117.88    5.16
  -4  10   0   77.90    3.15
  -3  10   0    3.79    0.72
  -2  10   0    0.34    0.51
  -1  10   0   29.73    2.63
   0  10   0   11.90    1.62
   1  10   0   21.59    2.94
   2  10   0  140.20    8.43
   3  10   0    1.79    1.16
   4  10   0    7.54    1.99
   5  10   0    8.22    2.98
 -15  11   0   25.20    2.82
 -14  11   0   18.47    1.96
 -13  11   0   12.01    1.53
 -12  11   0    3.88    0.97
 -11  11   0    0.25    0.55
 -10  11   0   23.12    1.97
  -9  11   0   10.87    1.42
  -8  11   0   55.98    3.09
  -7  11   0  103.54    4.84
  -6  11   0  112.36    5.29
  -5  11   0   84.43    4.09
  -4  11   0   54.65    2.96
  -3  11   0   70.05    3.74
  -2  11   0   19.59    2.08
  -1  11   0   58.19    3.57
   0  11   0    1.13    0.76
   1  11   0    3.52    1.28
   2  11   0   23.19    3.28
   3  11   0   15.62    2.74
   4  11   0    8.40    2.08
 -15  12   0   16.77    2.50
 -14  12   0    8.87    1.47
 -13  12   0   18.79    1.98
 -12  12   0   14.54    1.70
 -11  12   0    2.77    1.12
 -10  12   0  118.59   11.48
  -9  12   0   13.05    1.67
  -8  12   0    6.31    1.15
  -7  12   0    3.16    0.94
  -6  12   0    0.97    0.68
  -5  12   0    1.97    0.85
  -4  12   0    4.86    1.56
  -3  12   0   12.22    2.16
  -2  12   0   61.56    3.55
  -1  12   0    3.67    1.11
   0  12   0   13.71    2.42
   1  12   0   12.98    2.43
   2  12   0    2.41    1.31
   3  12   0   12.39    3.70
 -14  13   0   12.95    1.81
 -13  13   0   23.23    4.78
 -12  13   0    9.17    1.89
 -11  13   0   21.29    2.72
 -10  13   0    4.12    1.26
  -9  13   0   52.46    3.22
  -8  13   0   42.25    3.22
  -7  13   0   24.00    2.41
  -6  13   0   10.58    1.60
  -5  13   0   84.00    4.46
  -4  13   0   49.65    4.83
  -3  13   0    2.01    1.23
  -2  13   0    9.26    2.12
  -1  13   0   25.25    3.35
   0  13   0   24.82    3.39
   1  13   0    9.66    2.21
 -13  14   0    9.96    2.10
 -12  14   0    3.74    1.41
 -11  14   0   11.63    2.17
 -10  14   0    3.61    1.34
  -9  14   0    4.15    1.19
  -8  14   0   62.32    3.81
  -7  14   0    1.78    0.94
  -6  14   0   29.44    2.71
  -5  14   0    2.39    1.31
  -4  14   0   11.37    2.32
  -3  14   0   19.64    2.99
  -2  14   0    5.58    2.73
  -1  14   0   13.76    4.12
 -11  15   0    8.99    2.01
 -10  15   0    4.93    1.57
  -9  15   0   54.83    4.01
  -8  15   0    2.67    1.05
  -7  15   0    2.34    1.04
  -6  15   0   33.29    3.96
  -5  15   0    3.47    1.62
  -4  15   0   19.61    3.32
  -8  16   0    5.60    2.19
   3 -15   1    6.74    2.11
   4 -15   1    4.59    1.99
   5 -15   1   12.98    2.04
   6 -15   1   12.66    1.51
   7 -15   1    6.40    1.17
   8 -15   1    5.00    1.32
   9 -15   1    6.51    1.43
  10 -15   1   12.59    1.88
  11 -15   1    1.69    1.10
   1 -14   1    3.24    1.70
   2 -14   1   18.80    2.34
   3 -14   1    1.39    0.88
   4 -14   1    9.95    1.34
   5 -14   1   17.71    1.70
   6 -14   1   10.46    1.31
   7 -14   1   59.89    3.82
   8 -14   1    6.44    1.34
   9 -14   1   16.47    2.02
  10 -14   1   27.96    2.77
  11 -14   1    3.35    1.17
  12 -14   1   14.75    2.12
  13 -14   1    4.92    2.11
  -1 -13   1    9.51    2.69
   0 -13   1    0.89    0.90
   1 -13   1   42.36    3.50
   2 -13   1   23.16    2.53
   3 -13   1   40.98    2.41
   4 -13   1    7.28    1.07
   5 -13   1    1.39    0.64
   6 -13   1   13.90    1.76
   7 -13   1   19.91    2.11
   8 -13   1    0.74    0.73
   9 -13   1    4.90    1.07
  10 -13   1   19.68    2.23
  11 -13   1   10.87    1.68
  12 -13   1   17.36    2.14
  13 -13   1    0.56    0.75
  14 -13   1    2.52    1.31
  -2 -12   1   19.45    2.37
  -1 -12   1   19.70    2.27
   0 -12   1   19.61    2.23
   1 -12   1   12.15    1.71
   2 -12   1    4.49    0.81
   3 -12   1    2.20    0.69
   4 -12   1   10.60    1.22
   5 -12   1    4.37    0.82
   6 -12   1    6.28    1.13
   7 -12   1   10.62    1.44
   8 -12   1   15.33    1.79
   9 -12   1   -0.47    0.55
  10 -12   1    2.38    0.78
  11 -12   1   25.16    2.04
  12 -12   1   19.42    1.87
  13 -12   1   53.97    4.22
  14 -12   1   18.36    2.45
  -4 -11   1    6.76    2.23
  -3 -11   1    4.54    1.24
  -2 -11   1   13.12    1.86
  -1 -11   1   21.81    2.26
   0 -11   1   20.19    2.09
   1 -11   1   27.54    1.99
   2 -11   1    5.20    0.88
   3 -11   1  116.38    4.42
   4 -11   1   10.57    1.17
   5 -11   1   54.32    3.03
   6 -11   1   16.04    1.70
   7 -11   1   19.80    1.90
   8 -11   1   56.61    3.30
   9 -11   1    5.90    0.92
  10 -11   1   32.19    2.29
  11 -11   1   14.93    1.89
  12 -11   1    8.18    1.46
  13 -11   1   27.23    2.85
  14 -11   1    1.96    1.09
  15 -11   1    2.26    1.17
  -5 -10   1   11.64    1.88
  -4 -10   1   29.16    2.83
  -3 -10   1   28.00    2.66
  -2 -10   1    0.93    0.73
  -1 -10   1   32.57    2.68
   0 -10   1   22.88    1.78
   1 -10   1   79.93    3.28
   2 -10   1   13.79    1.25
   3 -10   1   24.10    1.66
   4 -10   1    6.62    1.05
   5 -10   1    1.38    0.53
   6 -10   1    9.03    1.19
   7 -10   1   13.28    1.21
   8 -10   1    7.67    0.96
   9 -10   1  103.60    3.99
  10 -10   1   28.87    2.61
  11 -10   1   28.65    2.79
  12 -10   1    6.14    1.37
  13 -10   1   39.96    3.57
  14 -10   1   10.59    1.92
  15 -10   1   11.93    2.18
  -6  -9   1    4.24    1.23
  -5  -9   1   14.68    1.98
  -4  -9   1    5.18    1.22
  -3  -9   1   -0.04    0.63
  -2  -9   1    7.07    1.23
  -1  -9   1   94.50    3.75
   0  -9   1    1.44    0.47
   1  -9   1   89.18    3.35
   2  -9   1   12.03    1.09
   3  -9   1   18.72    1.62
   4  -9   1   33.54    2.08
   5  -9   1   63.95    2.54
   6  -9   1   45.75    2.03
   7  -9   1   28.32    1.81
   8  -9   1   49.24    2.99
   9  -9   1    1.11    0.63
  10  -9   1   80.66    4.42
  11  -9   1    5.77    1.24
  12  -9   1    1.71    0.82
  13  -9   1    6.70    1.46
  14  -9   1   18.99    2.53
  15  -9   1   16.35    2.30
  -7  -8   1    3.51    1.22
  -6  -8   1    1.69    0.94
  -5  -8   1    1.30    0.81
  -4  -8   1   14.92    1.83
  -3  -8   1   61.98    3.46
  -2  -8   1    9.20    1.29
  -1  -8   1   54.09    2.28
   0  -8   1   13.61    1.14
   1  -8   1   69.10    2.67
   2  -8   1   58.70    2.46
   3  -8   1   95.91    4.26
   4  -8   1   45.16    2.06
   5  -8   1   35.55    1.71
   6  -8   1   31.28    1.66
   7  -8   1   34.78    2.20
   8  -8   1    9.46    1.29
   9  -8   1   90.13    4.49
  10  -8   1   12.17    1.59
  11  -8   1  120.89    5.97
  12  -8   1   11.05    1.75
  13  -8   1    1.05    0.85
  14  -8   1   12.47    1.94
  15  -8   1    5.35    1.53
  -8  -7   1    9.58    1.65
  -7  -7   1   50.87    3.63
  -6  -7   1   16.55    1.98
  -5  -7   1    9.46    1.49
  -4  -7   1   22.04    1.74
  -3  -7   1   13.21    1.52
  -2  -7   1   25.12    1.53
  -1  -7   1   34.25    1.63
   0  -7   1    2.90    0.50
   1  -7   1  168.04    5.54
   2  -7   1  138.26    4.74
   3  -7   1  156.93    5.25
   4  -7   1   68.07    2.61
   5  -7   1  111.13    4.05
   6  -7   1  226.33    9.37
   7  -7   1    2.66    0.53
   8  -7   1   65.55    2.92
   9  -7   1   10.44    1.18
  10  -7   1   22.98    1.81
  11  -7   1   12.30    1.41
  12  -7   1    3.47    0.87
  13  -7   1   12.41    1.58
  14  -7   1   57.57    3.51
  15  -7   1    3.85    1.41
  -9  -6   1   10.13    1.67
  -8  -6   1   10.05    1.64
  -7  -6   1   13.41    1.80
  -6  -6   1    8.02    1.30
  -5  -6   1   19.47    1.99
  -4  -6   1   10.19    1.10
  -3  -6   1   39.33    1.90
  -2  -6   1   36.28    1.63
  -1  -6   1  218.04    7.19
   0  -6   1   13.52    0.95
   1  -6   1   20.97    1.19
   2  -6   1   77.47    2.77
   3  -6   1   61.20    2.30
   4  -6   1   58.89    1.96
   5  -6   1   12.83    0.97
   6  -6   1   14.16    1.12
   7  -6   1  155.50    6.03
   8  -6   1   59.45    2.78
   9  -6   1   20.17    1.68
  10  -6   1    7.93    1.12
  11  -6   1   54.50    2.90
  12  -6   1    7.23    1.26
  13  -6   1   15.84    1.79
  14  -6   1    5.93    1.26
  15  -6   1    5.68    1.37
 -10  -5   1   13.25    1.94
  -9  -5   1   15.35    2.02
  -8  -5   1    1.72    0.82
  -7  -5   1    3.44    0.99
  -6  -5   1   49.50    3.06
  -5  -5   1    1.83    0.54
  -4  -5   1   64.02    2.24
  -3  -5   1   43.13    1.75
  -2  -5   1  114.98    3.92
  -1  -5   1   15.24    0.92
   0  -5   1  218.86    6.90
   1  -5   1  114.02    3.26
   2  -5   1  144.52    4.70
   3  -5   1   56.08    1.88
   4  -5   1  256.38    8.32
   5  -5   1  215.15    7.53
   6  -5   1   21.96    1.08
   7  -5   1  137.87    5.29
   8  -5   1  106.70    5.43
   9  -5   1   30.63    3.01
  10  -5   1    2.23    0.97
  11  -5   1   16.55    2.38
  12  -5   1   13.34    2.08
  13  -5   1    0.26    0.63
  14  -5   1   13.48    1.78
  15  -5   1   12.71    1.86
 -11  -4   1    3.18    1.20
 -10  -4   1   16.11    2.06
  -9  -4   1    7.34    1.36
  -8  -4   1   10.86    1.52
  -7  -4   1   12.59    1.60
  -6  -4   1    6.41    0.86
  -5  -4   1   37.57    1.55
  -4  -4   1   49.08    1.85
  -3  -4   1   75.57    2.33
  -2  -4   1   61.89    2.22
  -1  -4   1  237.95    7.67
   0  -4   1  110.64    3.57
   1  -4   1  142.33    4.60
   2  -4   1   10.55    0.65
   3  -4   1   52.17    2.10
   4  -4   1  114.17    3.95
   5  -4   1  109.80    4.32
   6  -4   1   78.35    3.35
   7  -4   1  160.74    6.22
   8  -4   1   50.86    3.39
   9  -4   1   64.26    4.06
  10  -4   1    7.59    1.43
  11  -4   1   20.84    2.66
  12  -4   1   12.65    2.22
  13  -4   1    3.75    1.39
  14  -4   1   30.35    3.64
  15  -4   1    4.56    1.27
 -11  -3   1    2.16    1.01
 -10  -3   1   42.08    3.30
  -9  -3   1    1.39    0.76
  -8  -3   1  110.06    5.46
  -7  -3   1   21.86    2.02
  -6  -3   1   23.07    1.19
  -5  -3   1   94.93    3.13
  -4  -3   1  151.11    4.62
  -3  -3   1   63.21    2.04
  -2  -3   1   65.31    2.14
  -1  -3   1   62.50    1.99
   0  -3   1  424.16   15.24
   1  -3   1  155.23    4.83
   2  -3   1  155.96    6.16
   3  -3   1  427.44   17.92
   4  -3   1  151.05    5.38
   5  -3   1  150.82    5.56
   6  -3   1   63.30    2.86
   7  -3   1   66.07    3.23
   8  -3   1   37.08    2.31
   9  -3   1   47.47    3.32
  10  -3   1   11.85    1.99
  11  -3   1   51.09    4.68
  12  -3   1    0.50    0.85
  13  -3   1   23.01    3.02
  14  -3   1    1.78    1.32
 -12  -2   1   16.74    2.18
 -11  -2   1   28.41    2.75
 -10  -2   1    4.49    1.06
  -9  -2   1    5.38    1.10
  -8  -2   1   13.22    1.59
  -7  -2   1   13.49    0.98
  -6  -2   1   58.51    2.15
  -5  -2   1  142.34    4.24
  -4  -2   1   77.96    2.49
  -3  -2   1  146.64    4.16
  -2  -2   1    8.93    0.51
  -1  -2   1  155.32    4.76
   0  -2   1  140.64    4.40
   1  -2   1   34.34    1.44
   3  -2   1  152.37    5.58
   4  -2   1   10.70    0.88
   5  -2   1   60.42    2.70
   6  -2   1   57.34    2.83
   7  -2   1  108.54    4.88
   8  -2   1   33.80    2.35
   9  -2   1   27.73    2.28
  10  -2   1   10.00    1.74
  11  -2   1    6.01    1.55
  12  -2   1    0.89    1.04
  13  -2   1   19.23    2.79
  14  -2   1   18.35    2.95
 -13  -1   1    4.38    1.27
 -12  -1   1   43.31    3.52
 -11  -1   1    9.66    1.43
 -10  -1   1   31.39    2.66
  -9  -1   1   83.31    4.19
  -8  -1   1   84.00    2.97
  -7  -1   1   65.99    2.34
  -6  -1   1  178.13    4.99
  -5  -1   1   20.56    1.00
  -4  -1   1  120.37    3.36
  -3  -1   1  138.71    4.08
  -2  -1   1  156.08    4.25
  -1  -1   1   33.15    1.30
   0  -1   1   25.34    1.08
   2  -1   1   34.02    1.78
   3  -1   1  155.59    5.70
   4  -1   1   62.10    2.40
   5  -1   1  236.73    9.19
   6  -1   1   12.56    1.34
   7  -1   1  230.84    8.84
   8  -1   1   34.14    2.40
   9  -1   1   48.63    2.91
  10  -1   1   96.15    4.69
  11  -1   1   28.13    3.32
  12  -1   1   28.34    3.27
  13  -1   1   17.17    2.61
  14  -1   1    6.41    2.69
 -13   0   1    2.85    1.14
 -12   0   1   18.33    2.18
 -11   0   1   15.55    1.96
 -10   0   1   24.67    2.37
  -9   0   1    2.01    0.66
  -8   0   1   12.17    0.93
  -7   0   1    2.43    0.41
  -6   0   1   13.83    0.87
  -5   0   1  225.32    6.22
  -4   0   1  111.79    3.21
  -3   0   1  414.99   11.42
  -2   0   1  142.95    3.95
  -1   0   1   24.21    0.91
   0   0   1   -0.15    0.11
   1   0   1   25.87    1.04
   2   0   1  142.95    5.31
   3   0   1  421.58   15.23
   4   0   1  112.35    4.39
   5   0   1  217.72    7.21
   6   0   1   14.31    0.99
   7   0   1    2.67    0.75
   8   0   1   11.21    1.42
   9   0   1    1.39    0.70
  10   0   1   27.62    2.55
  11   0   1   17.21    2.01
  12   0   1   16.16    2.58
  13   0   1    1.22    1.10
 -14   1   1    3.92    1.26
 -13   1   1   20.06    2.28
 -12   1   1   21.63    2.31
 -11   1   1   29.30    2.63
 -10   1   1   92.62    4.70
  -9   1   1   53.01    2.04
  -8   1   1   34.11    1.46
  -7   1   1  220.71    5.93
  -6   1   1   15.84    0.77
  -5   1   1  238.05    6.33
  -4   1   1   58.71    1.63
  -3   1   1  154.72    4.54
  -2   1   1   34.73    1.14
  -1   1   1   24.17    1.00
   0   1   1   25.31    1.29
   1   1   1   34.18    1.44
   2   1   1  154.61    5.77
   3   1   1  138.14    5.60
   4   1   1  124.61    4.71
   5   1   1   19.18    1.49
   6   1   1  172.66    5.89
   7   1   1   70.58    3.46
   8   1   1   84.76    4.20
   9   1   1   78.14    4.13
  10   1   1   30.85    2.66
  11   1   1    7.17    1.36
  12   1   1   34.44    5.57
 -14   2   1   17.90    2.25
 -13   2   1   17.58    2.16
 -12   2   1    1.91    0.89
 -11   2   1    5.04    1.04
 -10   2   1    9.93    0.95
  -9   2   1   26.39    1.52
  -8   2   1   36.65    1.50
  -7   2   1  112.50    3.21
  -6   2   1   62.14    1.83
  -5   2   1   64.42    1.77
  -4   2   1    9.44    0.58
  -3   2   1  150.84    4.50
  -2   2   1  145.16    4.20
  -1   2   1   34.09    1.21
   0   2   1  144.52    4.42
   1   2   1  158.54    5.00
   2   2   1    9.38    0.64
   3   2   1  136.42    5.75
   4   2   1   70.54    3.54
   5   2   1  135.05    5.93
   6   2   1   61.15    2.69
   7   2   1   13.83    1.58
   8   2   1   12.31    1.58
   9   2   1    6.33    1.21
  10   2   1    3.50    1.00
  11   2   1   27.13    3.30
  12   2   1   21.80    4.28
 -15   3   1    3.25    1.76
 -14   3   1    3.75    1.18
 -13   3   1   25.25    2.59
 -12   3   1   -0.02    0.58
 -11   3   1   63.37    2.81
 -10   3   1   14.29    1.10
  -9   3   1   42.68    1.78
  -8   3   1   38.53    1.58
  -7   3   1   77.54    2.44
  -6   3   1   61.26    2.14
  -5   3   1  140.21    4.40
  -4   3   1  137.90    4.33
  -3   3   1  421.36   10.96
  -2   3   1  155.97    4.81
  -1   3   1  158.68    4.79
   0   3   1  420.00   13.17
   1   3   1   66.48    2.21
   2   3   1   69.60    2.39
   3   3   1   64.07    2.46
   4   3   1  149.18    6.52
   5   3   1   91.84    4.48
   6   3   1   21.09    1.62
   7   3   1   24.98    2.18
   8   3   1  115.76    5.37
   9   3   1    2.78    1.23
  10   3   1   34.67    3.71
  11   3   1    2.05    1.18
  12   3   1    2.78    2.25
 -15   4   1    2.53    1.14
 -14   4   1   27.96    2.79
 -13   4   1    7.85    1.44
 -12   4   1   12.39    1.70
 -11   4   1   21.58    1.76
 -10   4   1   11.63    1.19
  -9   4   1   59.07    2.68
  -8   4   1   48.98    2.27
  -7   4   1  153.65    4.91
  -6   4   1   76.00    2.65
  -5   4   1  119.27    3.57
  -4   4   1  111.64    3.07
  -3   4   1   63.31    1.88
  -2   4   1   10.31    0.71
  -1   4   1  138.66    4.63
   0   4   1  112.55    3.80
   1   4   1  235.12    8.06
   2   4   1   63.82    2.47
   3   4   1   81.20    2.88
   4   4   1   47.57    2.79
   5   4   1   39.86    2.51
   6   4   1    8.71    1.23
   7   4   1   14.85    2.26
   8   4   1   10.11    2.00
   9   4   1    6.67    1.70
  10   4   1   13.40    2.31
  11   4   1    1.78    1.15
 -15   5   1   13.90    2.06
 -14   5   1   14.85    2.03
 -13   5   1    1.46    0.82
 -12   5   1    9.33    1.21
 -11   5   1   20.74    1.64
 -10   5   1    2.06    0.59
  -9   5   1   36.97    1.91
  -8   5   1   94.44    3.34
  -7   5   1  139.15    4.52
  -6   5   1   19.08    1.05
  -5   5   1  219.36    5.93
  -4   5   1  238.32    6.63
  -3   5   1   70.37    2.65
  -2   5   1  139.97    4.72
  -1   5   1  126.93    3.42
   0   5   1  227.37    7.31
   1   5   1   14.93    1.16
   2   5   1  120.56    4.28
   3   5   1   43.39    1.96
   4   5   1   63.85    3.32
   5   5   1    3.00    0.68
   6   5   1   51.55    3.86
   7   5   1    4.60    1.34
   8   5   1    2.09    1.12
   9   5   1   23.78    3.08
  10   5   1   14.43    2.50
 -15   6   1    3.56    1.27
 -14   6   1    5.97    1.31
 -13   6   1   13.28    1.76
 -12   6   1    6.12    0.99
 -11   6   1   52.46    2.64
 -10   6   1    7.91    1.00
  -9   6   1   22.49    1.63
  -8   6   1   59.50    2.34
  -7   6   1  165.88    5.29
  -6   6   1   14.16    0.99
  -5   6   1   15.92    0.82
  -4   6   1   63.18    2.31
  -3   6   1   61.47    2.37
  -2   6   1   79.10    2.53
  -1   6   1   19.61    1.02
   0   6   1   15.09    1.18
   1   6   1  223.15    7.65
   2   6   1   39.66    1.89
   3   6   1   38.67    2.75
   4   6   1    8.21    1.29
   5   6   1   24.92    2.28
   6   6   1    9.33    1.82
   7   6   1   14.49    2.30
   8   6   1   12.86    2.27
   9   6   1   10.39    2.10
 -15   7   1    3.91    1.26
 -14   7   1   51.35    3.66
 -13   7   1   13.86    1.57
 -12   7   1    3.25    0.80
 -11   7   1   12.99    1.38
 -10   7   1   23.70    1.84
  -9   7   1   12.30    1.22
  -8   7   1   65.02    2.55
  -7   7   1    2.71    0.51
  -6   7   1  220.56    6.95
  -5   7   1  116.80    3.99
  -4   7   1   77.73    3.69
  -3   7   1  151.24    4.63
  -2   7   1  140.57    4.28
  -1   7   1  178.41    5.87
   0   7   1    2.23    0.54
   1   7   1   38.69    1.92
   2   7   1   23.57    2.15
   3   7   1   15.25    1.67
   4   7   1   21.96    2.17
   5   7   1   10.92    1.60
   6   7   1   13.85    2.25
   7   7   1   61.60    4.39
   8   7   1    4.17    2.42
 -15   8   1    5.09    1.36
 -14   8   1   14.41    1.99
 -13   8   1    1.17    0.70
 -12   8   1   11.61    1.38
 -11   8   1  113.93    4.73
 -10   8   1   12.00    1.30
  -9   8   1   87.05    3.63
  -8   8   1   10.24    0.99
  -7   8   1   33.86    1.62
  -6   8   1   38.27    2.09
  -5   8   1   44.13    1.81
  -4   8   1   49.04    2.20
  -3   8   1   93.89    3.65
  -2   8   1   54.68    2.51
  -1   8   1   60.79    3.39
   0   8   1   11.77    1.47
   1   8   1   53.54    2.99
   2   8   1    9.20    1.81
   3   8   1   69.21    4.67
   4   8   1   14.05    2.36
   5   8   1   -0.43    1.08
   6   8   1    7.58    2.47
   7   8   1    3.31    2.13
 -15   9   1   14.95    2.08
 -14   9   1   18.90    1.97
 -13   9   1    7.26    1.21
 -12   9   1    1.19    0.63
 -11   9   1    6.13    0.99
 -10   9   1   79.59    3.58
  -9   9   1    2.31    0.55
  -8   9   1   52.41    2.25
  -7   9   1   21.18    1.91
  -6   9   1   41.28    2.47
  -5   9   1   58.18    3.03
  -4   9   1   39.34    1.97
  -3   9   1   24.47    1.62
  -2   9   1   14.62    1.59
  -1   9   1   87.33    4.34
   0   9   1    2.40    0.79
   1   9   1   89.67    6.02
   2   9   1    4.98    1.51
   3   9   1    1.32    0.98
   4   9   1    5.46    1.61
   5   9   1   11.65    3.35
   6   9   1    4.32    2.38
 -15  10   1   16.51    2.23
 -14  10   1   12.47    1.87
 -13  10   1   36.39    2.68
 -12  10   1    5.04    1.03
 -11  10   1   32.53    2.36
 -10  10   1   28.78    2.15
  -9  10   1   93.93    4.46
  -8  10   1    9.88    1.27
  -7  10   1   14.63    1.59
  -6  10   1    9.33    1.24
  -5  10   1    2.57    0.76
  -4  10   1    6.45    0.89
  -3  10   1   22.71    1.70
  -2  10   1   11.30    1.54
  -1  10   1   76.71    4.20
   0  10   1   26.76    3.23
   1  10   1   27.37    3.38
   2  10   1    2.90    1.26
   3  10   1   35.08    3.89
   4  10   1   24.32    3.37
   5  10   1   12.75    3.52
 -15  11   1    2.06    1.31
 -14  11   1    2.26    0.87
 -13  11   1   25.28    2.20
 -12  11   1    9.57    1.33
 -11  11   1   16.65    1.70
 -10  11   1   29.43    2.92
  -9  11   1    6.69    1.16
  -8  11   1   69.50    3.46
  -7  11   1   19.31    1.93
  -6  11   1   24.25    2.12
  -5  11   1   53.55    3.19
  -4  11   1   13.43    1.56
  -3  11   1  109.69    5.47
  -2  11   1    6.23    1.22
  -1  11   1   33.08    2.86
   0  11   1   17.84    2.71
   1  11   1   19.60    2.92
   2  11   1   17.88    2.81
   3  11   1    1.47    1.34
   4  11   1    3.67    2.38
 -15  12   1    2.59    2.11
 -14  12   1   17.28    1.96
 -13  12   1   37.60    2.92
 -12  12   1   16.53    2.41
 -11  12   1   22.01    2.75
 -10  12   1    3.09    1.09
  -9  12   1    1.40    0.79
  -8  12   1   10.51    1.57
  -7  12   1    8.85    1.40
  -6  12   1    7.19    1.23
  -5  12   1    4.61    1.04
  -4  12   1   11.46    2.16
  -3  12   1    0.69    1.02
  -2  12   1    7.26    1.39
  -1  12   1    9.32    1.97
   0  12   1   13.12    2.58
   1  12   1   22.51    3.33
   2  12   1   26.31    3.55
   3  12   1    5.40    2.65
 -14  13   1    1.18    1.10
 -13  13   1    1.22    1.15
 -12  13   1   19.53    2.58
 -11  13   1   16.41    2.37
 -10  13   1   28.22    2.96
  -9  13   1    7.26    1.33
  -8  13   1    0.28    0.70
  -7  13   1   17.46    1.96
  -6  13   1   14.89    1.79
  -5  13   1    2.06    1.29
  -4  13   1    8.11    1.95
  -3  13   1   33.04    3.88
  -2  13   1   22.60    4.82
  -1  13   1   45.32    4.55
   0  13   1    1.17    1.08
   1  13   1    6.39    1.91
 -13  14   1    3.93    1.96
 -12  14   1   17.03    2.63
 -11  14   1    1.20    1.18
 -10  14   1   24.13    3.02
  -9  14   1   18.02    2.12
  -8  14   1    3.76    1.17
  -7  14   1   57.00    4.00
  -6  14   1   10.33    2.31
  -5  14   1   24.79    3.29
  -4  14   1   14.68    2.61
  -3  14   1    2.14    2.10
  -2  14   1   12.71    4.03
 -12  15   1    2.60    1.90
 -11  15   1    2.14    1.81
 -10  15   1   11.58    2.14
  -9  15   1    6.89    2.01
  -8  15   1    3.54    1.52
  -7  15   1    3.25    1.69
  -6  15   1   12.40    2.58
  -5  15   1   18.63    3.05
   5 -15   2    3.04    1.56
   6 -15   2   16.28    2.20
   7 -15   2    6.25    1.19
   8 -15   2    9.83    1.37
   9 -15   2   15.56    2.11
  10 -15   2    3.69    1.83
   2 -14   2    5.39    1.43
   3 -14   2    9.99    1.71
   4 -14   2   19.36    2.26
   5 -14   2   15.88    2.09
   6 -14   2   10.51    1.33
   7 -14   2    4.28    0.97
   8 -14   2   20.44    2.28
   9 -14   2   31.35    2.84
  10 -14   2   48.50    3.80
  11 -14   2    5.39    1.27
  12 -14   2   16.79    2.27
  -1 -13   2    4.25    2.10
   0 -13   2   30.09    2.96
   1 -13   2    4.42    1.29
   2 -13   2   26.77    2.81
   3 -13   2   10.12    1.66
   4 -13   2    5.98    1.35
   5 -13   2   53.21    2.71
   6 -13   2    8.27    1.14
   7 -13   2    7.06    1.25
   8 -13   2   21.79    2.22
   9 -13   2    8.62    1.43
  10 -13   2   11.71    1.71
  11 -13   2   14.36    1.97
  12 -13   2    6.58    1.43
  13 -13   2   25.44    2.73
  -2 -12   2   14.85    2.13
  -1 -12   2    9.34    1.66
   0 -12   2   15.50    2.02
   1 -12   2    8.58    1.52
   2 -12   2   26.78    2.55
   3 -12   2    0.25    0.67
   4 -12   2   38.99    2.33
   5 -12   2   10.13    1.20
   6 -12   2   32.06    2.57
   7 -12   2    9.08    1.36
   8 -12   2   48.10    2.98
   9 -12   2    2.51    0.87
  10 -12   2   37.59    3.05
  11 -12   2   29.08    2.70
  12 -12   2   12.74    1.55
  13 -12   2    3.65    1.29
  14 -12   2    4.99    1.44
  -4 -11   2    6.06    2.13
  -3 -11   2    2.58    1.11
  -2 -11   2   15.95    2.08
  -1 -11   2   27.47    2.67
   0 -11   2    6.54    1.29
   1 -11   2   33.79    2.94
   2 -11   2    7.77    1.33
   3 -11   2   17.32    1.50
   4 -11   2  126.82    4.70
   5 -11   2   26.24    2.23
   6 -11   2   58.08    3.20
   7 -11   2  115.29    5.17
   8 -11   2   12.65    1.58
   9 -11   2    4.84    1.00
  10 -11   2   12.86    1.42
  11 -11   2    7.01    1.41
  12 -11   2    9.66    1.70
  13 -11   2   33.52    3.19
  14 -11   2    5.00    1.38
  -5 -10   2    1.11    1.03
  -4 -10   2   52.12    4.00
  -3 -10   2    9.27    1.62
  -2 -10   2   38.48    3.18
  -1 -10   2   13.33    1.74
   0 -10   2   25.10    2.40
   1 -10   2   12.98    1.61
   2 -10   2   29.57    1.90
   3 -10   2   14.75    1.29
   4 -10   2   61.97    3.14
   5 -10   2    0.59    0.51
   6 -10   2  161.26    6.56
   7 -10   2   10.34    1.29
   8 -10   2   65.84    2.84
   9 -10   2   29.20    2.02
  10 -10   2   27.03    2.55
  11 -10   2   35.40    3.05
  12 -10   2   24.30    2.65
  13 -10   2   15.30    2.21
  14 -10   2   19.00    2.47
  15 -10   2    5.37    2.50
  -6  -9   2   11.25    1.87
  -5  -9   2   25.86    2.70
  -4  -9   2    9.84    1.63
  -3  -9   2    1.80    0.69
  -2  -9   2    3.50    0.96
  -1  -9   2   26.54    2.33
   0  -9   2    9.01    1.32
   1  -9   2   53.21    2.37
   2  -9   2   32.27    1.80
   3  -9   2   60.18    2.58
   4  -9   2   35.11    2.13
   5  -9   2   26.32    2.05
   6  -9   2   30.80    1.69
   7  -9   2   14.30    1.27
   8  -9   2   91.53    4.65
   9  -9   2    8.82    1.31
  10  -9   2   10.07    1.52
  11  -9   2    4.76    1.19
  12  -9   2    0.33    0.65
  13  -9   2    8.47    1.70
  14  -9   2   12.39    2.10
  15  -9   2   13.11    2.20
  -7  -8   2    8.22    1.67
  -6  -8   2   21.71    2.38
  -5  -8   2   25.13    2.45
  -4  -8   2   49.24    2.63
  -3  -8   2   11.29    1.35
  -2  -8   2   53.26    3.28
  -1  -8   2   90.32    4.52
   0  -8   2  168.74    5.73
   1  -8   2    9.23    0.93
   2  -8   2   47.37    2.15
   3  -8   2   63.04    2.98
   4  -8   2    7.42    0.97
   5  -8   2   42.38    1.87
   6  -8   2   28.44    1.75
   7  -8   2   10.95    1.35
   8  -8   2  167.76    7.58
   9  -8   2   49.12    3.16
  10  -8   2   23.66    2.41
  11  -8   2   13.42    1.83
  12  -8   2   40.43    3.36
  13  -8   2   51.88    3.85
  14  -8   2    8.33    1.75
  15  -8   2    7.93    1.71
  -8  -7   2    8.45    1.56
  -7  -7   2    2.57    0.99
  -6  -7   2    6.04    1.32
  -5  -7   2    7.62    1.32
  -4  -7   2  110.90    4.53
  -3  -7   2   11.03    1.25
  -2  -7   2   17.17    1.74
  -1  -7   2    9.31    1.25
   0  -7   2   28.51    1.43
   1  -7   2   46.20    1.92
   2  -7   2   47.14    1.97
   3  -7   2   91.65    3.33
   4  -7   2  220.05    7.30
   5  -7   2   25.13    1.41
   6  -7   2   41.94    2.42
   7  -7   2   28.62    1.71
   8  -7   2   10.03    1.12
   9  -7   2   34.95    2.31
  10  -7   2   13.61    1.48
  11  -7   2  119.16    5.23
  12  -7   2   11.61    1.56
  13  -7   2    8.32    1.36
  14  -7   2    4.90    1.20
  15  -7   2    7.79    1.77
  -9  -6   2   14.77    2.03
  -8  -6   2   13.92    1.94
  -7  -6   2   12.19    1.74
  -6  -6   2   28.31    2.66
  -5  -6   2   57.29    2.79
  -4  -6   2  142.80    5.70
  -3  -6   2   32.97    1.89
  -2  -6   2   34.75    2.12
  -1  -6   2   41.89    1.78
   0  -6   2   12.20    0.92
   1  -6   2  129.38    4.39
   2  -6   2   47.97    1.83
   3  -6   2   31.23    1.37
   4  -6   2   97.78    3.02
   5  -6   2  174.47    5.95
   6  -6   2   13.15    1.14
   7  -6   2   42.75    2.19
   8  -6   2   50.22    2.54
   9  -6   2   60.99    3.00
  10  -6   2   53.45    3.94
  11  -6   2   23.17    2.81
  12  -6   2   28.41    2.39
  13  -6   2    4.27    1.06
  14  -6   2   19.62    2.15
  15  -6   2   14.35    1.90
 -10  -5   2    2.60    1.10
  -9  -5   2   15.65    2.05
  -8  -5   2   53.86    3.41
  -7  -5   2   14.30    1.79
  -6  -5   2   29.41    2.04
  -5  -5   2    0.58    0.43
  -4  -5   2   28.24    1.86
  -3  -5   2   42.93    2.02
  -2  -5   2   29.67    1.35
  -1  -5   2  170.25    5.43
   0  -5   2  110.65    3.81
   1  -5   2   32.01    1.36
   2  -5   2  100.37    3.47
   3  -5   2  141.57    4.79
   4  -5   2   19.10    1.10
   5  -5   2  108.99    4.22
   6  -5   2  138.76    5.19
   7  -5   2   47.45    2.33
   8  -5   2   64.18    3.95
   9  -5   2   32.91    3.20
  10  -5   2    0.35    0.72
  11  -5   2   54.41    4.38
  12  -5   2    9.23    1.86
  13  -5   2   22.94    3.04
  14  -5   2   27.69    3.59
  15  -5   2    3.95    1.20
 -11  -4   2    5.40    2.00
 -10  -4   2   22.07    2.48
  -9  -4   2   10.16    1.58
  -8  -4   2   43.99    2.96
  -7  -4   2  129.44    5.90
  -6  -4   2   69.00    2.86
  -5  -4   2   35.69    1.91
  -4  -4   2    7.08    0.87
  -3  -4   2  210.42    6.36
  -2  -4   2   90.01    3.24
  -1  -4   2   20.47    0.92
   0  -4   2   65.14    2.27
   1  -4   2   76.05    2.27
   2  -4   2  159.57    5.20
   3  -4   2   64.06    2.96
   4  -4   2   63.27    3.34
   5  -4   2   32.43    1.65
   6  -4   2   48.10    2.31
   7  -4   2  101.42    4.11
   8  -4   2    9.16    1.16
   9  -4   2   22.26    2.66
  10  -4   2  152.75    8.16
  11  -4   2  104.11    6.44
  12  -4   2   53.72    4.68
  13  -4   2    3.50    1.39
  14  -4   2   46.16    4.68
 -11  -3   2    9.21    1.66
 -10  -3   2   14.19    1.95
  -9  -3   2    1.67    0.76
  -8  -3   2   12.72    1.63
  -7  -3   2   14.09    1.34
  -6  -3   2   56.69    2.70
  -5  -3   2   61.31    2.66
  -4  -3   2  107.38    3.68
  -3  -3   2   30.40    1.16
  -2  -3   2  136.52    4.14
  -1  -3   2   64.80    2.20
   0  -3   2   42.58    1.53
   1  -3   2   96.80    3.68
   4  -3   2   77.51    3.75
   5  -3   2   99.03    4.12
   6  -3   2   30.95    1.40
   7  -3   2  217.42    8.58
   8  -3   2   43.51    2.52
   9  -3   2   33.64    2.61
  10  -3   2   12.09    2.11
  11  -3   2    7.41    1.71
  12  -3   2    3.13    1.34
  13  -3   2    6.44    1.76
  14  -3   2    5.34    1.72
 -12  -2   2    5.49    1.41
 -11  -2   2   32.12    2.91
 -10  -2   2   22.12    2.33
  -9  -2   2    6.03    1.21
  -8  -2   2   32.82    2.02
  -7  -2   2   28.46    1.84
  -6  -2   2   50.09    2.33
  -5  -2   2   43.33    2.06
  -4  -2   2   51.65    1.68
  -3  -2   2  102.40    3.04
  -2  -2   2  159.11    5.44
  -1  -2   2  234.80    8.08
   0  -2   2  388.35   11.36
   4  -2   2  162.56    6.08
   5  -2   2  142.08    5.55
   6  -2   2   92.19    3.46
   7  -2   2   28.48    2.02
   8  -2   2   35.43    2.39
   9  -2   2   15.70    1.74
  10  -2   2   59.59    4.30
  11  -2   2    1.81    1.12
  12  -2   2   38.79    3.96
  13  -2   2   14.19    2.50
  14  -2   2   13.08    2.42
 -12  -1   2    4.03    1.18
 -11  -1   2   12.14    1.70
 -10  -1   2   34.65    2.85
  -9  -1   2   11.48    1.49
  -8  -1   2   58.52    2.60
  -7  -1   2   10.63    1.07
  -6  -1   2   43.23    2.03
  -5  -1   2  135.92    3.92
  -4  -1   2   31.16    1.16
  -3  -1   2   73.60    2.77
  -2  -1   2  111.72    3.37
  -1  -1   2   81.76    2.84
   0  -1   2  235.09    7.56
   2  -1   2   84.46    5.70
   3  -1   2  244.03   11.19
   4  -1   2   63.99    2.72
   5  -1   2   19.30    1.23
   6  -1   2  160.88    6.54
   7  -1   2   37.43    2.56
   8  -1   2   11.01    1.46
   9  -1   2   93.67    4.61
  10  -1   2   24.75    2.42
  11  -1   2   11.99    2.15
  12  -1   2   27.61    3.33
  13  -1   2    8.07    1.90
  14  -1   2    4.74    2.46
 -13   0   2   25.41    4.02
 -12   0   2   13.07    1.83
 -11   0   2    7.27    1.35
 -10   0   2   26.99    2.35
  -9   0   2    8.85    1.08
  -8   0   2  170.62    6.12
  -7   0   2   26.03    1.66
  -6   0   2   10.87    0.78
  -5   0   2  114.12    3.42
  -4   0   2   63.16    2.44
  -3   0   2   44.34    1.68
  -2   0   2  383.70   12.09
  -1   0   2  232.42    7.51
   0   0   2  377.81   12.72
   1   0   2  236.42   10.57
   2   0   2  380.82   13.70
   3   0   2   41.54    1.58
   4   0   2   63.74    2.81
   5   0   2  115.54    4.71
   6   0   2   11.63    1.15
   7   0   2   29.10    2.33
   8   0   2  170.12    7.22
   9   0   2    9.49    1.42
  10   0   2   21.67    2.26
  11   0   2    6.36    1.39
  12   0   2   13.32    2.23
  13   0   2   19.81    2.87
 -13   1   2    7.52    1.52
 -12   1   2   31.95    2.78
 -11   1   2   17.51    1.94
 -10   1   2   23.02    1.81
  -9   1   2   90.26    3.79
  -8   1   2   11.48    1.13
  -7   1   2   43.25    1.71
  -6   1   2  163.00    5.16
  -5   1   2   18.35    0.92
  -4   1   2   67.04    2.16
  -3   1   2  235.94    7.17
  -2   1   2   84.14    2.50
  -1   1   2  238.20    8.17
   0   1   2  238.14    8.10
   1   1   2   83.65    3.23
   2   1   2  109.35    3.74
   3   1   2   74.40    3.21
   4   1   2   28.89    1.72
   5   1   2  139.42    5.49
   6   1   2   45.75    3.17
   7   1   2   10.54    1.40
   8   1   2   54.29    3.22
   9   1   2   15.62    1.82
  10   1   2   31.01    2.80
  11   1   2   11.03    1.71
  12   1   2    4.61    1.58
 -14   2   2   15.15    2.99
 -13   2   2   16.99    2.10
 -12   2   2   43.38    2.94
 -11   2   2    3.71    0.95
 -10   2   2   56.50    2.81
  -9   2   2   15.31    1.35
  -8   2   2   33.62    1.73
  -7   2   2   29.40    1.30
  -6   2   2   89.26    3.13
  -5   2   2  134.93    4.39
  -4   2   2  162.29    4.82
  -3   2   2  104.18    2.96
  -2   2   2  385.03   13.09
  -1   2   2   84.20    2.67
   0   2   2  384.96   13.79
   1   2   2  235.63    9.12
   2   2   2  160.14    5.28
   3   2   2  105.17    4.32
   4   2   2   53.09    2.56
   5   2   2   43.06    2.50
   6   2   2   47.74    3.59
   7   2   2   27.00    2.40
   8   2   2   31.65    2.71
   9   2   2    5.52    1.17
  10   2   2   29.17    2.71
  11   2   2   31.26    2.93
  12   2   2    5.28    2.21
 -14   3   2    5.49    2.17
 -13   3   2   10.83    1.59
 -12   3   2    3.15    0.97
 -11   3   2   11.73    1.30
 -10   3   2   12.89    1.27
  -9   3   2   33.87    1.79
  -8   3   2   42.75    1.99
  -7   3   2  215.38    6.75
  -6   3   2   29.99    1.25
  -5   3   2  101.30    3.25
  -4   3   2   75.55    2.44
  -3   3   2   43.90    1.47
  -2   3   2  235.50    7.57
  -1   3   2  108.23    3.14
   0   3   2   43.64    1.99
   1   3   2   66.35    2.80
   2   3   2  137.19    4.85
   3   3   2   28.37    1.37
   4   3   2  119.87    4.53
   5   3   2   58.32    3.20
   6   3   2   49.47    3.99
   7   3   2    9.63    1.46
   8   3   2   13.13    1.74
   9   3   2    1.13    0.75
  10   3   2   15.79    2.58
  11   3   2    7.87    1.94
 -14   4   2   57.58    6.22
 -13   4   2    6.43    1.27
 -12   4   2   47.83    2.69
 -11   4   2  115.60    4.55
 -10   4   2  152.05    5.71
  -9   4   2   26.36    1.69
  -8   4   2    8.22    0.75
  -7   4   2  102.51    3.20
  -6   4   2   51.44    1.83
  -5   4   2   29.22    1.26
  -4   4   2   65.22    2.17
  -3   4   2   65.44    2.28
  -2   4   2  167.47    5.12
  -1   4   2   75.41    2.59
   0   4   2   64.31    2.87
   1   4   2   19.39    1.16
   2   4   2   89.75    3.51
   3   4   2  195.92    8.75
   4   4   2    8.52    1.23
   5   4   2   34.62    2.57
   6   4   2   83.65    4.76
   7   4   2  123.60    5.73
   8   4   2   35.10    3.82
   9   4   2    4.90    1.53
  10   4   2   20.65    3.01
  11   4   2    8.55    3.07
 -14   5   2   30.49    4.34
 -13   5   2   25.45    3.78
 -12   5   2    7.23    1.15
 -11   5   2   62.65    2.89
 -10   5   2    0.01    0.38
  -9   5   2   37.15    1.94
  -8   5   2   61.27    2.35
  -7   5   2   45.40    1.85
  -6   5   2  131.13    4.18
  -5   5   2  113.94    3.28
  -4   5   2   19.59    1.00
  -3   5   2  142.01    4.70
  -2   5   2  103.72    3.49
  -1   5   2   28.73    1.34
   0   5   2  115.33    4.08
   1   5   2  165.78    5.77
   2   5   2   31.79    1.60
   3   5   2   49.24    2.64
   4   5   2   27.78    2.36
   5   5   2    0.40    0.62
   6   5   2   29.89    3.25
   7   5   2    8.65    1.88
   8   5   2   53.68    4.49
   9   5   2   13.75    2.42
  10   5   2    3.94    1.54
 -15   6   2   12.71    2.92
 -14   6   2   13.08    3.08
 -13   6   2    8.02    1.51
 -12   6   2   28.30    2.17
 -11   6   2   26.63    2.02
 -10   6   2   69.20    2.89
  -9   6   2   59.37    2.75
  -8   6   2   52.67    2.08
  -7   6   2   43.94    1.81
  -6   6   2   11.91    0.72
  -5   6   2  164.74    5.47
  -4   6   2   89.97    3.35
  -3   6   2   29.82    1.39
  -2   6   2   50.64    1.97
  -1   6   2  136.12    3.98
   0   6   2   11.25    1.00
   1   6   2   43.79    2.02
   2   6   2   37.06    2.46
   3   6   2   36.09    2.78
   4   6   2  140.70    6.72
   5   6   2   50.55    3.41
   6   6   2   33.36    3.53
   7   6   2   11.04    2.12
   8   6   2   10.50    2.11
   9   6   2   16.78    2.71
 -15   7   2    7.57    2.38
 -14   7   2    1.93    1.13
 -13   7   2    9.42    1.70
 -12   7   2   14.76    1.51
 -11   7   2  121.85    4.96
 -10   7   2   11.60    1.24
  -9   7   2   30.76    1.89
  -8   7   2   10.46    0.92
  -7   7   2   28.56    1.44
  -6   7   2   41.25    2.17
  -5   7   2   31.85    1.45
  -4   7   2  212.93    7.20
  -3   7   2  110.26    3.53
  -2   7   2   46.79    1.75
  -1   7   2   44.11    2.05
   0   7   2   28.70    1.70
   1   7   2   10.23    1.08
   2   7   2   18.74    1.88
   3   7   2   11.70    1.60
   4   7   2  109.04    5.34
   5   7   2    8.37    1.48
   6   7   2    8.98    1.87
   7   7   2    2.81    1.33
   8   7   2    9.53    3.01
 -15   8   2    8.45    2.52
 -14   8   2   11.27    2.03
 -13   8   2   49.59    4.31
 -12   8   2   39.72    2.64
 -11   8   2   16.90    1.55
 -10   8   2   28.69    2.03
  -9   8   2   56.49    2.33
  -8   8   2  165.95    5.51
  -7   8   2   10.28    1.22
  -6   8   2   37.02    2.09
  -5   8   2   45.75    1.92
  -4   8   2    7.68    0.84
  -3   8   2   60.71    2.55
  -2   8   2   50.41    2.24
  -1   8   2   12.46    1.51
   0   8   2  166.87    7.29
   1   8   2   88.56    5.86
   2   8   2   56.89    4.44
   3   8   2   12.07    2.13
   4   8   2   42.36    4.44
   5   8   2   25.85    4.66
   6   8   2   16.71    4.02
   7   8   2    6.50    2.83
 -15   9   2   14.38    2.24
 -14   9   2   13.85    2.19
 -13   9   2    8.02    1.72
 -12   9   2    0.65    0.63
 -11   9   2    6.19    1.02
 -10   9   2   13.09    1.36
  -9   9   2   10.39    1.04
  -8   9   2   89.03    4.23
  -7   9   2   17.44    1.64
  -6   9   2   30.89    2.24
  -5   9   2   27.33    1.92
  -4   9   2   34.56    1.93
  -3   9   2   59.07    2.64
  -2   9   2   29.39    2.54
  -1   9   2   63.40    3.34
   0   9   2   12.29    2.06
   1   9   2   25.18    3.19
   2   9   2    4.20    1.36
   3   9   2    1.15    1.15
   4   9   2    5.84    1.69
   5   9   2   28.42    5.23
   6   9   2   10.75    3.28
 -15  10   2    4.34    1.49
 -14  10   2   28.41    3.11
 -13  10   2   13.82    2.18
 -12  10   2   27.57    2.92
 -11  10   2   32.95    2.37
 -10  10   2   21.36    2.47
  -9  10   2   22.25    2.06
  -8  10   2   59.82    3.23
  -7  10   2   12.09    1.45
  -6  10   2  149.11    6.29
  -5  10   2    0.68    0.51
  -4  10   2   77.18    3.32
  -3  10   2   13.23    1.67
  -2  10   2   35.80    2.75
  -1  10   2   15.88    1.85
   0  10   2   22.71    3.04
   1  10   2   17.32    2.68
   2  10   2   34.04    4.00
   3  10   2   13.39    2.42
   4  10   2   54.09    5.23
 -15  11   2    3.56    2.11
 -14  11   2    6.88    1.62
 -13  11   2   30.02    3.28
 -12  11   2   12.82    2.10
 -11  11   2    6.89    1.46
 -10  11   2   13.41    1.97
  -9  11   2    4.02    0.85
  -8  11   2   11.86    1.52
  -7  11   2  116.46    5.11
  -6  11   2   58.90    3.30
  -5  11   2   38.19    3.72
  -4  11   2  114.86    7.29
  -3  11   2   12.59    1.71
  -2  11   2    4.74    1.18
  -1  11   2   29.47    3.62
   0  11   2    5.88    1.67
   1  11   2   23.05    3.22
   2  11   2   21.44    3.09
   3  11   2    3.67    1.52
 -14  12   2    4.62    1.58
 -13  12   2    3.22    1.22
 -12  12   2   13.61    2.12
 -11  12   2   22.79    2.65
 -10  12   2   36.42    3.46
  -9  12   2    3.17    0.94
  -8  12   2   51.49    3.24
  -7  12   2    6.32    1.23
  -6  12   2   29.05    3.45
  -5  12   2   10.75    2.14
  -4  12   2   44.48    4.32
  -3  12   2    1.55    1.07
  -2  12   2   32.03    3.62
  -1  12   2   12.47    2.29
   0  12   2   12.51    2.46
   1  12   2    5.55    1.66
   2  12   2   18.99    3.10
 -13  13   2   24.42    3.07
 -12  13   2    7.69    1.72
 -11  13   2   15.81    3.88
 -10  13   2   13.42    2.15
  -9  13   2    8.33    1.47
  -8  13   2   30.13    3.63
  -7  13   2    4.61    1.56
  -6  13   2    8.84    2.09
  -5  13   2   51.74    4.99
  -4  13   2    6.59    1.83
  -3  13   2    8.38    3.17
  -2  13   2   28.48    5.71
  -1  13   2    3.34    1.54
   0  13   2   22.92    3.35
   1  13   2    1.01    1.85
 -13  14   2    3.67    1.90
 -12  14   2   10.33    2.07
 -11  14   2    6.16    1.64
 -10  14   2   52.94    7.64
  -9  14   2   29.60    3.77
  -8  14   2   24.21    3.37
  -7  14   2    2.63    1.32
  -6  14   2   12.79    2.46
  -5  14   2   17.92    2.93
  -4  14   2   28.17    5.42
  -3  14   2    7.71    3.12
  -2  14   2    5.71    2.72
 -10  15   2    2.53    2.41
  -9  15   2   14.34    2.66
  -8  15   2    6.72    2.05
  -7  15   2    4.43    1.83
  -6  15   2   15.17    2.81
  -5  15   2    6.35    2.97
   9 -15   3    0.58    1.34
   3 -14   3    0.92    0.98
   4 -14   3   13.96    2.02
   5 -14   3   15.23    2.13
   6 -14   3   12.80    1.96
   7 -14   3   35.64    3.32
   8 -14   3    6.58    1.34
   9 -14   3    8.62    1.50
  10 -14   3   22.33    2.48
  11 -14   3    1.61    1.00
   1 -13   3   29.89    2.97
   2 -13   3   17.78    2.21
   3 -13   3   37.63    3.32
   4 -13   3    5.96    1.38
   5 -13   3    2.16    0.96
   6 -13   3    9.97    1.68
   7 -13   3   40.94    3.18
   8 -13   3    5.08    1.19
   9 -13   3    6.84    1.33
  10 -13   3   19.95    2.21
  11 -13   3   13.56    1.86
  12 -13   3   12.90    1.87
  -1 -12   3   16.94    1.89
   0 -12   3   14.97    2.03
   1 -12   3   12.26    1.80
   2 -12   3    9.38    1.59
   3 -12   3    1.10    0.71
   4 -12   3   18.30    2.16
   5 -12   3    5.86    1.32
   6 -12   3    9.54    1.16
   7 -12   3   18.52    2.00
   8 -12   3   14.06    1.73
   9 -12   3    1.61    0.75
  10 -12   3    5.25    1.19
  11 -12   3   27.92    2.72
  12 -12   3   11.90    1.80
  13 -12   3   18.88    3.37
  14 -12   3   22.87    4.37
  -3 -11   3    2.66    1.17
  -2 -11   3   12.42    1.57
  -1 -11   3   27.09    2.78
   0 -11   3   16.86    2.07
   1 -11   3   14.42    1.81
   2 -11   3   10.34    1.55
   3 -11   3   76.03    4.19
   4 -11   3   11.11    1.55
   5 -11   3   26.88    1.95
   6 -11   3   13.64    1.58
   7 -11   3   13.85    1.65
   8 -11   3   40.11    3.01
   9 -11   3   35.99    2.87
  10 -11   3   19.00    2.16
  11 -11   3   18.87    2.99
  12 -11   3   12.20    1.92
  13 -11   3   19.52    2.51
  14 -11   3    1.43    1.14
  -4 -10   3   21.44    2.49
  -3 -10   3   22.67    2.12
  -2 -10   3    6.03    1.10
  -1 -10   3   19.77    2.26
   0 -10   3   22.95    2.21
   1 -10   3   81.66    4.28
   2 -10   3   18.10    1.94
   3 -10   3   20.94    2.17
   4 -10   3   13.36    1.28
   5 -10   3    1.80    0.63
   6 -10   3   18.88    1.82
   7 -10   3   17.60    1.82
   8 -10   3   25.37    2.26
   9 -10   3   65.31    3.00
  10 -10   3   18.75    2.10
  11 -10   3   12.95    1.78
  12 -10   3    8.19    1.51
  13 -10   3   32.59    3.32
  14 -10   3    9.23    1.76
  -6  -9   3    3.23    1.77
  -5  -9   3   10.03    1.70
  -4  -9   3    6.61    1.20
  -3  -9   3    2.70    0.80
  -2  -9   3   32.87    2.44
  -1  -9   3   71.55    3.77
   0  -9   3    1.99    0.77
   1  -9   3   62.58    3.55
   2  -9   3   12.13    1.47
   3  -9   3   21.23    1.53
   4  -9   3   49.97    2.61
   5  -9   3   85.69    4.09
   6  -9   3   53.85    2.95
   7  -9   3   12.37    1.25
   8  -9   3   27.43    2.42
   9  -9   3    2.32    0.84
  10  -9   3   79.94    4.45
  11  -9   3    8.47    1.56
  12  -9   3    2.16    0.95
  13  -9   3    7.34    1.54
  14  -9   3   14.61    2.24
  -7  -8   3    6.33    2.10
  -6  -8   3    4.27    1.21
  -5  -8   3    2.03    0.92
  -4  -8   3   17.57    1.73
  -3  -8   3   47.23    2.60
  -2  -8   3   24.48    2.01
  -1  -8   3   25.59    2.29
   0  -8   3    0.91    0.58
   1  -8   3   57.24    3.24
   2  -8   3   52.18    2.25
   3  -8   3  119.43    4.17
   4  -8   3    2.24    0.56
   5  -8   3   62.30    3.19
   6  -8   3   21.78    1.50
   7  -8   3   24.61    2.16
   8  -8   3    1.59    0.63
   9  -8   3   70.05    3.84
  10  -8   3   19.70    2.12
  11  -8   3   79.36    4.45
  12  -8   3   14.96    2.08
  13  -8   3    4.00    1.25
  14  -8   3   11.41    2.00
  -8  -7   3    9.27    2.34
  -7  -7   3   33.29    3.11
  -6  -7   3   42.40    3.44
  -5  -7   3   16.44    1.66
  -4  -7   3   12.46    1.43
  -3  -7   3   20.90    1.75
  -2  -7   3   12.98    1.33
  -1  -7   3   25.75    2.11
   0  -7   3    6.29    1.05
   1  -7   3  131.29    4.44
   2  -7   3   74.71    2.92
   3  -7   3   96.10    4.12
   4  -7   3   65.20    2.53
   5  -7   3   64.57    2.64
   6  -7   3  178.50    7.59
   7  -7   3    9.23    1.05
   8  -7   3   64.22    2.96
   9  -7   3   10.61    1.32
  10  -7   3   24.57    2.08
  11  -7   3    9.92    1.45
  12  -7   3    9.08    1.37
  13  -7   3   14.51    2.09
  14  -7   3   36.02    3.59
  -8  -6   3   12.50    1.84
  -7  -6   3   18.24    2.10
  -6  -6   3   11.40    1.28
  -5  -6   3   12.29    1.33
  -4  -6   3   24.31    1.86
  -3  -6   3   52.45    2.64
  -2  -6   3   23.82    1.72
  -1  -6   3  172.98    7.34
   0  -6   3   42.29    2.43
   1  -6   3   60.14    2.33
   2  -6   3   45.99    1.85
   3  -6   3   47.14    1.92
   4  -6   3   72.73    2.81
   5  -6   3   41.75    1.98
   6  -6   3   43.36    2.15
   7  -6   3  125.67    6.51
   8  -6   3   54.23    3.53
   9  -6   3   28.92    2.91
  10  -6   3   17.42    2.39
  11  -6   3   26.36    3.11
  12  -6   3   10.29    2.00
  13  -6   3   34.60    3.85
  14  -6   3    3.81    1.47
  15  -6   3    3.05    2.11
  -9  -5   3   16.11    2.12
  -8  -5   3    2.37    0.98
  -7  -5   3    7.40    1.09
  -6  -5   3   28.32    2.11
  -5  -5   3    0.89    0.48
  -4  -5   3   85.37    3.70
  -3  -5   3   74.63    3.01
  -2  -5   3   64.94    2.82
  -1  -5   3   43.19    2.34
   0  -5   3  100.64    3.46
   1  -5   3   71.49    2.48
   2  -5   3  107.81    3.81
   3  -5   3   39.02    1.98
   4  -5   3  137.80    5.95
   5  -5   3  103.25    5.15
   6  -5   3   60.23    2.84
   7  -5   3   78.49    3.54
   8  -5   3  111.88    6.23
   9  -5   3   49.20    3.77
  10  -5   3    0.45    0.83
  11  -5   3   12.16    2.07
  12  -5   3   16.02    2.53
  13  -5   3    1.04    1.23
  14  -5   3   10.31    2.26
 -10  -4   3   10.42    2.70
  -9  -4   3    8.12    1.51
  -8  -4   3   16.52    1.97
  -7  -4   3   12.87    1.35
  -6  -4   3   15.06    1.43
  -5  -4   3   51.37    2.40
  -4  -4   3    1.48    0.50
  -3  -4   3   66.86    2.76
  -2  -4   3   68.95    2.96
  -1  -4   3  136.74    4.47
   0  -4   3  133.52    4.29
   1  -4   3  112.51    3.73
   2  -4   3    1.92    0.40
   5  -4   3   72.97    5.35
   6  -4   3   44.66    2.26
   7  -4   3   97.64    4.24
   8  -4   3    3.60    0.81
   9  -4   3   74.98    5.18
  10  -4   3   15.60    2.39
  11  -4   3   12.89    2.32
  12  -4   3   14.15    2.36
  13  -4   3    5.48    1.70
  14  -4   3   16.27    2.74
 -11  -3   3    3.24    1.74
 -10  -3   3   31.39    4.41
  -9  -3   3    1.98    0.87
  -8  -3   3   71.87    3.40
  -7  -3   3   25.00    1.88
  -6  -3   3   28.22    1.91
  -5  -3   3  115.14    4.44
  -4  -3   3   91.38    3.71
  -3  -3   3   43.31    2.05
  -2  -3   3   46.10    1.88
  -1  -3   3   75.04    2.78
   0  -3   3  271.93    8.10
   1  -3   3   78.38    3.20
   5  -3   3  108.74    4.55
   6  -3   3   48.48    2.28
   7  -3   3   66.55    3.19
   8  -3   3   70.48    3.46
   9  -3   3   54.35    3.16
  10  -3   3   16.61    2.34
  11  -3   3   41.11    4.17
  12  -3   3    0.81    0.99
  13  -3   3   18.43    2.81
  14  -3   3    1.67    1.33
 -11  -2   3   17.92    3.30
 -10  -2   3   10.54    2.53
  -9  -2   3   14.67    1.43
  -8  -2   3   19.87    1.64
  -7  -2   3    9.73    1.12
  -6  -2   3   51.73    2.43
  -5  -2   3   78.25    3.16
  -4  -2   3   47.05    2.01
  -3  -2   3  101.02    4.05
  -2  -2   3    1.80    0.37
  -1  -2   3  110.89    3.98
   0  -2   3  236.56    8.02
   1  -2   3   13.89    1.55
   4  -2   3    2.00    0.50
   5  -2   3   45.17    2.06
   6  -2   3   73.91    3.29
   7  -2   3   64.97    3.97
   8  -2   3   27.39    2.20
   9  -2   3   11.14    1.58
  10  -2   3   22.89    3.02
  11  -2   3   30.00    3.54
  12  -2   3    3.20    1.35
  13  -2   3    9.32    2.20
 -12  -1   3   22.03    3.81
 -11  -1   3   11.22    2.48
 -10  -1   3   10.85    2.44
  -9  -1   3   80.59    3.52
  -8  -1   3   62.97    2.98
  -7  -1   3   57.08    2.72
  -6  -1   3  128.93    4.75
  -5  -1   3   59.60    2.56
  -4  -1   3   72.24    2.69
  -3  -1   3  108.71    3.98
  -2  -1   3   76.89    2.70
  -1  -1   3   12.74    0.70
   0  -1   3   28.56    1.17
   1  -1   3   26.92    1.54
   2  -1   3   11.96    1.15
   3  -1   3  115.70    4.49
   4  -1   3   72.89    2.61
   5  -1   3  135.85    4.67
   6  -1   3   41.27    2.17
   7  -1   3  161.33    8.73
   8  -1   3   30.31    2.45
   9  -1   3   28.59    2.56
  10  -1   3   69.18    3.89
  11  -1   3   21.99    2.99
  12  -1   3   29.38    3.62
  13  -1   3   15.89    2.75
 -12   0   3   11.63    2.59
 -11   0   3   13.15    2.71
 -10   0   3   20.02    2.28
  -9   0   3    1.63    0.62
  -8   0   3    0.90    0.46
  -7   0   3    8.51    0.95
  -6   0   3   41.98    2.04
  -5   0   3  100.27    3.75
  -4   0   3  130.82    4.61
  -3   0   3  279.81    8.66
  -2   0   3  241.63    7.93
  -1   0   3   26.58    1.00
   0   0   3    0.22    0.19
   1   0   3   26.98    1.24
   2   0   3  236.62    9.08
   3   0   3  277.07    9.80
   4   0   3  133.15    4.46
   5   0   3  101.80    4.32
   6   0   3   45.37    3.12
   7   0   3    6.46    1.35
   8   0   3    1.05    0.61
   9   0   3    2.15    0.82
  10   0   3   18.38    2.15
  11   0   3   15.05    2.50
  12   0   3    9.72    2.27
  13   0   3    1.80    1.91
 -13   1   3   15.98    3.14
 -12   1   3   26.76    4.19
 -11   1   3   18.01    2.18
 -10   1   3   65.60    4.00
  -9   1   3   30.54    1.97
  -8   1   3   28.95    1.56
  -7   1   3  173.45    5.51
  -6   1   3   42.77    1.70
  -5   1   3  132.99    4.33
  -4   1   3   76.03    2.41
  -3   1   3  114.51    3.50
  -2   1   3   13.86    0.91
  -1   1   3   27.56    1.30
   0   1   3   27.50    1.22
   1   1   3   12.37    0.89
   2   1   3   74.83    3.05
   3   1   3  111.04    4.43
   4   1   3   75.68    3.20
   5   1   3   57.30    2.97
   6   1   3  130.09    6.92
   7   1   3   52.72    4.00
   8   1   3   56.95    4.69
   9   1   3   81.37    4.38
  10   1   3   14.42    2.02
  11   1   3   10.44    1.75
  12   1   3   27.86    3.52
 -13   2   3   12.70    2.91
 -12   2   3    4.22    1.74
 -11   2   3   25.59    2.79
 -10   2   3   23.33    2.43
  -9   2   3   11.88    1.21
  -8   2   3   23.60    1.32
  -7   2   3   68.24    2.42
  -6   2   3   67.95    2.53
  -5   2   3   43.74    1.57
  -4   2   3    1.93    0.27
  -3   2   3   78.71    2.99
  -2   2   3  237.77    8.64
  -1   2   3   12.65    0.74
   0   2   3  243.48    9.16
   1   2   3  106.21    4.50
   2   2   3    2.54    0.43
   3   2   3  103.58    4.70
   4   2   3   49.74    2.45
   5   2   3   79.45    3.76
   6   2   3   44.95    3.81
   7   2   3   11.23    1.91
   8   2   3   16.12    2.51
   9   2   3   11.28    1.74
  10   2   3   11.13    1.75
  11   2   3   17.02    2.18
 -14   3   3    0.84    1.47
 -13   3   3   23.15    3.72
 -12   3   3    1.67    0.96
 -11   3   3   47.53    3.21
 -10   3   3   19.72    2.20
  -9   3   3   54.21    3.42
  -8   3   3   71.36    2.54
  -7   3   3   69.82    2.39
  -6   3   3   45.35    1.76
  -5   3   3  103.66    3.55
  -4   3   3  110.07    3.51
  -3   3   3  270.87    9.41
  -2   3   3  112.28    3.72
  -1   3   3   78.97    2.51
   0   3   3  268.21    9.91
   1   3   3   76.30    3.14
   2   3   3   48.73    1.83
   3   3   3   45.23    2.47
   4   3   3   92.48    4.37
   5   3   3  106.83    5.16
   6   3   3   30.57    3.13
   7   3   3   20.09    2.80
   8   3   3   69.42    4.09
   9   3   3    1.07    0.87
  10   3   3   33.55    3.15
  11   3   3    2.20    1.39
 -14   4   3   17.90    3.50
 -13   4   3   11.64    2.69
 -12   4   3   13.35    1.98
 -11   4   3   13.36    1.88
 -10   4   3   22.56    2.32
  -9   4   3   84.29    4.77
  -8   4   3    2.11    0.45
  -7   4   3   95.44    3.24
  -6   4   3   46.26    1.71
  -5   4   3   77.89    2.37
  -4   4   3  131.48    5.04
  -3   4   3   76.40    2.57
  -2   4   3    2.15    0.33
  -1   4   3  110.10    3.69
   0   4   3  132.01    5.37
   1   4   3  134.13    5.58
   2   4   3   68.78    3.46
   3   4   3   69.61    3.32
   4   4   3    2.44    0.74
   5   4   3   53.49    2.99
   6   4   3   18.24    2.50
   7   4   3   11.82    2.26
   8   4   3   17.62    2.06
   9   4   3    8.38    1.96
  10   4   3   13.28    2.56
 -14   5   3   10.39    2.72
 -13   5   3    3.93    1.28
 -12   5   3   17.12    2.22
 -11   5   3   13.77    1.88
 -10   5   3    0.54    0.60
  -9   5   3   54.80    3.22
  -8   5   3  116.52    3.91
  -7   5   3   80.17    2.79
  -6   5   3   59.21    2.22
  -5   5   3  102.32    3.54
  -4   5   3  136.67    4.59
  -3   5   3   45.62    1.71
  -2   5   3  104.80    3.78
  -1   5   3   82.95    3.26
   0   5   3  100.34    4.36
   1   5   3   45.52    1.98
   2   5   3   69.37    3.36
   3   5   3   75.19    3.60
   4   5   3   79.59    4.32
   5   5   3    0.91    0.66
   6   5   3   25.08    3.16
   7   5   3    7.03    1.79
   8   5   3    2.02    1.14
   9   5   3   13.15    2.40
 -14   6   3    7.75    1.71
 -13   6   3   35.74    3.61
 -12   6   3    8.19    1.64
 -11   6   3   29.68    2.94
 -10   6   3   14.30    1.94
  -9   6   3   28.74    2.53
  -8   6   3   48.51    2.59
  -7   6   3  133.88    4.22
  -6   6   3   44.28    1.90
  -5   6   3   44.27    1.83
  -4   6   3   70.77    2.73
  -3   6   3   44.43    1.89
  -2   6   3   46.74    1.83
  -1   6   3   55.92    2.98
   0   6   3   43.30    2.05
   1   6   3  169.48    7.19
   2   6   3   24.59    2.12
   3   6   3   51.06    3.14
   4   6   3   18.79    2.13
   5   6   3   16.37    2.45
   6   6   3    8.41    1.89
   7   6   3   20.24    2.89
   8   6   3    4.38    1.53
   9   6   3   12.72    3.42
 -14   7   3   39.05    3.75
 -13   7   3   19.51    2.49
 -12   7   3    8.10    1.56
 -11   7   3   13.05    1.81
 -10   7   3   20.98    2.34
  -9   7   3    9.30    1.17
  -8   7   3   55.28    2.96
  -7   7   3    7.85    1.03
  -6   7   3  172.24    6.76
  -5   7   3   68.59    2.58
  -4   7   3   71.45    2.59
  -3   7   3   95.15    3.47
  -2   7   3   78.19    3.74
  -1   7   3  144.72    4.80
   0   7   3    6.79    0.89
   1   7   3   35.49    2.37
   2   7   3   12.85    1.64
   3   7   3   20.93    2.18
   4   7   3   15.89    2.01
   5   7   3   15.31    2.52
   6   7   3   29.74    3.62
   7   7   3   37.30    4.10
 -15   8   3    4.31    2.33
 -14   8   3   13.81    2.22
 -13   8   3    2.34    1.03
 -12   8   3   13.39    2.04
 -11   8   3   72.46    4.52
 -10   8   3   18.93    2.23
  -9   8   3   62.57    3.26
  -8   8   3   -0.04    0.41
  -7   8   3   33.92    2.06
  -6   8   3   22.46    1.75
  -5   8   3   76.93    2.79
  -4   8   3    2.84    0.75
  -3   8   3  108.17    5.15
  -2   8   3   46.75    2.84
  -1   8   3   53.38    3.21
   0   8   3    0.53    0.76
   1   8   3   33.65    3.50
   2   8   3   25.37    3.22
   3   8   3   53.97    4.89
   4   8   3   12.14    2.32
   5   8   3    2.46    1.74
   6   8   3    6.43    2.73
 -15   9   3   10.25    3.26
 -14   9   3   17.32    2.53
 -13   9   3    6.96    1.52
 -12   9   3    3.21    1.13
 -11   9   3   15.25    2.05
 -10   9   3   76.76    4.66
  -9   9   3    2.53    0.76
  -8   9   3   34.43    2.40
  -7   9   3   12.64    1.41
  -6   9   3   53.30    2.88
  -5   9   3   78.04    5.33
  -4   9   3   55.63    2.96
  -3   9   3   31.58    2.41
  -2   9   3   13.10    1.58
  -1   9   3   57.73    4.54
   0   9   3    1.90    1.14
   1   9   3   72.64    5.08
   2   9   3   28.82    3.68
   3   9   3    1.45    1.17
   4   9   3    6.23    1.86
   5   9   3    9.93    3.02
 -14  10   3   10.71    2.18
 -13  10   3   33.93    3.47
 -12  10   3   11.99    1.97
 -11  10   3   13.37    1.94
 -10  10   3   21.58    2.44
  -9  10   3   64.89    3.44
  -8  10   3   27.12    2.22
  -7  10   3   21.65    2.00
  -6  10   3   21.99    2.77
  -5  10   3    1.11    0.89
  -4  10   3   15.03    2.24
  -3  10   3   23.79    2.34
  -2  10   3   21.70    2.22
  -1  10   3   82.94    5.62
   0  10   3   23.30    3.22
   1  10   3   18.39    2.86
   2  10   3    8.96    2.12
   3  10   3   22.68    3.29
   4  10   3   22.83    4.64
 -14  11   3    0.73    0.96
 -13  11   3   17.92    2.52
 -12  11   3   11.48    1.88
 -11  11   3   16.07    2.22
 -10  11   3   17.12    2.28
  -9  11   3   31.08    2.61
  -8  11   3   54.51    4.30
  -7  11   3   13.29    2.34
  -6  11   3   13.17    2.26
  -5  11   3   26.86    3.30
  -4  11   3   10.12    2.04
  -3  11   3   71.42    4.16
  -2  11   3   18.87    2.69
  -1  11   3   15.39    2.56
   0  11   3   12.10    2.39
   1  11   3   23.95    3.51
   2  11   3   12.80    2.44
   3  11   3    2.87    1.53
 -14  12   3   17.99    3.55
 -13  12   3   27.78    3.20
 -12  12   3   11.16    2.01
 -11  12   3   28.05    3.14
 -10  12   3    6.69    2.60
  -9  12   3    1.82    1.20
  -8  12   3   15.64    2.61
  -7  12   3   12.11    2.35
  -6  12   3   10.58    2.10
  -5  12   3   11.23    2.29
  -4  12   3   16.72    2.64
  -3  12   3    0.94    1.57
  -2  12   3   12.78    2.41
  -1  12   3   14.02    2.55
   0  12   3   12.16    2.43
   1  12   3   19.40    2.98
   2  12   3   10.01    3.70
 -12  13   3   11.83    3.57
 -11  13   3    6.05    2.79
 -10  13   3   25.40    4.89
  -9  13   3    9.17    2.10
  -8  13   3    1.23    1.18
  -7  13   3   35.61    4.20
  -6  13   3   29.34    3.57
  -5  13   3    1.79    1.24
  -4  13   3    8.78    3.15
  -3  13   3   23.00    5.27
  -2  13   3   13.91    3.96
  -1  13   3   22.61    4.99
   0  13   3    0.70    1.56
 -11  14   3    2.22    2.07
 -10  14   3   12.92    3.73
  -9  14   3   12.28    2.46
  -8  14   3    6.05    1.93
  -7  14   3   37.12    4.32
  -6  14   3   16.70    2.87
  -5  14   3   14.48    4.42
  -4  14   3   11.99    3.87
  -3  14   3    0.62    1.87
  -9  15   3    6.12    3.20
  -8  15   3    7.39    2.17
  -7  15   3    6.10    2.63
  -6  15   3    7.15    2.97
   5 -14   4    2.07    1.43
   6 -14   4   17.55    2.33
   7 -14   4    9.88    1.80
   8 -14   4   30.45    3.11
   9 -14   4    4.88    1.87
  10 -14   4    1.73    1.46
   1 -13   4   10.07    2.71
   2 -13   4    2.76    1.21
   3 -13   4   10.24    1.80
   4 -13   4   27.96    2.85
   5 -13   4   20.85    2.42
   6 -13   4    6.94    1.43
   7 -13   4   13.03    1.91
   8 -13   4    8.23    2.16
   9 -13   4   24.26    2.51
  10 -13   4    4.42    1.22
  11 -13   4    4.58    1.17
  -1 -12   4    9.82    1.89
   0 -12   4    2.33    1.02
   1 -12   4    3.82    1.19
   2 -12   4   27.46    2.76
   3 -12   4    3.86    1.20
   4 -12   4    1.43    0.87
   5 -12   4    2.92    1.03
   6 -12   4    9.04    1.61
   7 -12   4    6.40    1.75
   8 -12   4    4.57    1.09
   9 -12   4    3.19    1.05
  10 -12   4   76.53    4.15
  11 -12   4    7.16    1.39
  12 -12   4    1.19    0.83
  -2 -11   4    4.58    1.17
  -1 -11   4    6.11    1.22
   0 -11   4   -0.32    0.69
   1 -11   4   16.68    2.11
   2 -11   4   11.21    1.69
   3 -11   4   33.49    3.05
   4 -11   4    3.71    1.04
   5 -11   4   45.54    3.08
   6 -11   4   54.50    3.34
   7 -11   4   10.42    1.34
   8 -11   4   25.31    2.38
   9 -11   4    8.01    1.32
  10 -11   4   12.00    1.62
  11 -11   4    0.00    0.59
  12 -11   4    2.30    1.39
  13 -11   4    2.55    1.14
  -4 -10   4    3.49    1.62
  -3 -10   4    6.39    1.26
  -2 -10   4   72.45    3.70
  -1 -10   4    7.92    1.26
   0 -10   4    6.54    1.32
   1 -10   4   17.27    2.06
   2 -10   4   16.97    2.01
   3 -10   4    2.54    0.83
   4 -10   4   33.91    2.80
   5 -10   4   11.39    1.60
   6 -10   4   59.00    3.12
   7 -10   4    8.72    1.29
   8 -10   4   12.35    1.53
   9 -10   4   15.28    1.74
  10 -10   4    2.10    1.14
  11 -10   4   16.50    2.17
  12 -10   4   29.45    2.96
  13 -10   4   10.64    1.90
  14 -10   4    4.05    2.14
  -4  -9   4   29.57    2.44
  -3  -9   4    1.95    0.80
  -2  -9   4    7.26    1.22
  -1  -9   4   16.03    1.66
   0  -9   4    1.72    0.78
   1  -9   4   18.07    1.99
   2  -9   4   50.62    3.03
   3  -9   4   41.44    2.74
   4  -9   4   12.21    1.52
   5  -9   4   25.41    2.07
   6  -9   4   30.45    2.34
   7  -9   4   27.93    2.26
   8  -9   4   14.40    1.65
   9  -9   4    1.53    0.75
  10  -9   4   15.13    2.02
  11  -9   4   10.28    1.74
  12  -9   4    3.22    1.08
  13  -9   4   28.11    3.09
  14  -9   4    2.30    1.91
  -6  -8   4   22.89    4.00
  -5  -8   4    9.19    1.36
  -4  -8   4    2.03    0.83
  -3  -8   4   27.29    2.26
  -2  -8   4   11.73    1.43
  -1  -8   4   13.87    1.53
   0  -8   4   26.92    2.35
   1  -8   4   49.22    2.91
   2  -8   4   20.20    1.96
   3  -8   4   17.30    1.77
   4  -8   4   23.50    1.60
   5  -8   4   29.61    1.99
   6  -8   4   41.12    2.38
   7  -8   4   71.21    3.79
   8  -8   4   26.68    2.38
   9  -8   4   15.44    1.93
  10  -8   4   16.92    2.11
  11  -8   4   35.89    3.24
  12  -8   4    0.04    0.73
  13  -8   4   19.49    2.48
  14  -8   4   13.58    2.16
  -7  -7   4   14.01    3.01
  -6  -7   4   12.19    2.05
  -5  -7   4    7.96    1.23
  -4  -7   4   13.79    1.50
  -3  -7   4    7.48    1.09
  -2  -7   4   30.05    2.15
  -1  -7   4   69.03    3.21
   0  -7   4   13.52    1.57
   1  -7   4   36.16    2.36
   2  -7   4   23.04    1.99
   3  -7   4   31.71    1.58
   4  -7   4   52.12    2.65
   5  -7   4   10.91    1.05
   6  -7   4   68.98    3.59
   7  -7   4   13.98    1.63
   8  -7   4   50.33    2.68
   9  -7   4   47.92    2.78
  10  -7   4    1.44    1.45
  11  -7   4    5.46    1.98
  12  -7   4    4.16    2.08
  13  -7   4    8.39    1.68
  14  -7   4   15.84    2.24
  -8  -6   4   14.68    3.29
  -7  -6   4    5.67    2.04
  -6  -6   4   10.61    1.85
  -5  -6   4   55.51    2.81
  -4  -6   4   58.15    2.86
  -3  -6   4   27.91    2.05
  -2  -6   4   39.33    2.22
  -1  -6   4   68.66    3.04
   0  -6   4    7.93    1.11
   1  -6   4   62.01    3.28
   2  -6   4   27.88    1.41
   3  -6   4   65.21    2.56
   4  -6   4   16.10    1.18
   5  -6   4   29.13    1.90
   6  -6   4    7.34    1.27
   7  -6   4   35.71    2.79
   8  -6   4   25.74    2.65
   9  -6   4   39.51    3.78
  10  -6   4   35.00    3.41
  11  -6   4   37.83    3.85
  12  -6   4    9.35    1.99
  13  -6   4    8.82    2.08
  14  -6   4   29.97    3.70
  -8  -5   4   22.63    3.62
  -7  -5   4    2.62    1.06
  -6  -5   4   42.94    3.66
  -5  -5   4   12.63    1.38
  -4  -5   4   22.79    1.82
  -3  -5   4   26.70    1.96
  -2  -5   4   12.59    1.18
  -1  -5   4   30.47    1.70
   0  -5   4   16.89    1.57
   1  -5   4   31.31    1.97
   2  -5   4   74.45    2.74
   3  -5   4   65.34    2.87
   6  -5   4   60.51    3.69
   7  -5   4   22.22    1.74
   8  -5   4   15.41    2.11
   9  -5   4   15.35    2.28
  10  -5   4   11.81    2.06
  11  -5   4   54.59    4.37
  12  -5   4    4.64    1.61
  13  -5   4    5.17    1.78
  14  -5   4    2.77    2.51
  -9  -4   4   28.33    4.13
  -8  -4   4    1.44    0.91
  -7  -4   4    4.04    1.18
  -6  -4   4   33.53    3.00
  -5  -4   4   15.33    1.41
  -4  -4   4   23.68    1.74
  -3  -4   4   47.40    2.40
  -2  -4   4   15.02    1.24
  -1  -4   4   52.19    2.35
   0  -4   4   36.78    1.75
   1  -4   4   53.41    1.91
   2  -4   4  153.67    6.39
   6  -4   4   26.60    1.68
   7  -4   4   29.70    2.38
   8  -4   4   25.97    2.17
   9  -4   4   22.25    2.78
  10  -4   4   49.22    4.53
  11  -4   4   10.07    1.94
  12  -4   4    0.85    1.14
  13  -4   4   22.65    3.10
  14  -4   4    0.17    1.94
 -10  -3   4   11.54    2.73
  -9  -3   4    2.64    1.08
  -8  -3   4   31.87    3.15
  -7  -3   4    4.87    1.11
  -6  -3   4   41.34    3.02
  -5  -3   4   15.94    1.36
  -4  -3   4   34.46    1.74
  -3  -3   4   64.86    2.74
  -2  -3   4   67.27    2.66
  -1  -3   4   79.22    3.18
   0  -3   4   92.55    2.83
   1  -3   4   18.35    1.13
   2  -3   4   30.17    2.65
   5  -3   4   78.78    4.10
   6  -3   4   62.20    3.03
   7  -3   4   50.44    3.43
   8  -3   4   31.18    2.98
   9  -3   4   26.94    2.42
  10  -3   4    6.83    1.74
  11  -3   4   23.54    3.16
  12  -3   4    1.96    1.34
  13  -3   4    5.12    1.78
 -11  -2   4    3.97    1.87
 -10  -2   4   36.78    4.47
  -9  -2   4   13.68    1.97
  -8  -2   4   16.99    2.22
  -7  -2   4   46.09    3.24
  -6  -2   4   26.87    2.44
  -5  -2   4   23.94    2.31
  -4  -2   4   24.46    1.52
  -3  -2   4   71.43    2.94
  -2  -2   4  158.80    5.48
  -1  -2   4   29.47    1.47
   0  -2   4    7.64    0.69
   1  -2   4   48.24    1.95
   2  -2   4    7.52    0.97
   3  -2   4   17.98    1.68
   4  -2   4  160.76    6.21
   5  -2   4   62.94    2.50
   6  -2   4   18.29    1.48
   7  -2   4   11.35    1.66
   8  -2   4   36.99    3.22
   9  -2   4   26.38    2.43
  10  -2   4    9.28    1.95
  11  -2   4   11.87    2.24
  12  -2   4   62.54    5.75
  13  -2   4    4.49    1.84
 -11  -1   4    3.55    1.66
 -10  -1   4   14.55    2.10
  -9  -1   4   15.15    2.10
  -8  -1   4   13.78    1.90
  -7  -1   4   51.48    3.28
  -6  -1   4   35.21    2.47
  -5  -1   4   60.06    3.65
  -4  -1   4   35.95    2.35
  -3  -1   4   51.83    2.05
  -2  -1   4   18.09    0.99
  -1  -1   4   46.29    1.86
   0  -1   4   14.51    0.78
   1  -1   4   15.68    1.06
   2  -1   4   50.14    2.12
   3  -1   4   32.41    1.73
   4  -1   4   81.46    3.52
   5  -1   4   50.59    2.63
   6  -1   4   32.19    2.60
   7  -1   4   61.05    4.22
   8  -1   4   62.71    4.50
   9  -1   4   13.10    1.73
  10  -1   4   14.64    1.97
  11  -1   4    6.83    1.83
  12  -1   4    5.48    1.76
 -12   0   4    1.90    1.47
 -11   0   4    1.37    0.95
 -10   0   4    6.14    1.36
  -9   0   4    2.89    0.97
  -8   0   4   26.96    2.09
  -7   0   4   16.58    1.58
  -6   0   4    8.34    1.05
  -5   0   4   16.82    1.50
  -4   0   4   33.21    1.87
  -3   0   4   93.07    3.80
  -2   0   4    8.86    0.86
  -1   0   4   15.80    1.06
   0   0   4  882.29   29.54
   1   0   4   16.09    0.95
   2   0   4    8.08    0.63
   3   0   4   89.07    3.81
   4   0   4   33.40    2.31
   5   0   4   15.89    1.52
   6   0   4    6.93    1.40
   7   0   4   12.51    1.90
   8   0   4   25.06    2.99
   9   0   4    0.35    0.72
  10   0   4    4.71    1.27
  11   0   4   -0.94    0.91
  12   0   4    1.04    1.21
 -12   1   4    4.78    2.06
 -11   1   4    8.03    1.60
 -10   1   4   16.93    2.15
  -9   1   4   13.36    1.84
  -8   1   4   64.13    3.28
  -7   1   4   64.36    3.18
  -6   1   4   30.44    1.77
  -5   1   4   51.92    2.57
  -4   1   4   82.72    3.53
  -3   1   4   27.67    1.65
  -2   1   4   46.44    2.15
  -1   1   4   15.82    1.02
   0   1   4   15.09    0.93
   1   1   4   48.06    1.75
   2   1   4   17.17    1.21
   3   1   4   50.65    2.28
   4   1   4   36.95    2.07
   5   1   4   60.84    3.22
   6   1   4   39.50    3.46
   7   1   4   50.27    4.02
   8   1   4   18.75    2.68
   9   1   4   15.99    2.04
  10   1   4   11.72    1.94
  11   1   4    3.38    1.21
  12   1   4    8.74    3.15
 -13   2   4    3.27    1.73
 -12   2   4   66.22    4.56
 -11   2   4    8.77    1.61
 -10   2   4   13.28    1.86
  -9   2   4   31.87    2.79
  -8   2   4   39.03    2.26
  -7   2   4   11.31    1.24
  -6   2   4   17.68    1.47
  -5   2   4   65.78    2.89
  -4   2   4  156.07    5.99
  -3   2   4   18.69    1.21
  -2   2   4    8.94    0.81
  -1   2   4   48.36    2.03
   0   2   4    8.10    0.86
   1   2   4   29.53    1.73
   2   2   4  153.83    6.19
   3   2   4   76.54    4.34
   4   2   4   26.11    1.93
   5   2   4   24.56    2.06
   6   2   4   21.59    2.55
   7   2   4   39.10    4.01
   8   2   4   16.49    2.59
   9   2   4   14.77    2.02
  10   2   4   35.08    3.20
  11   2   4    1.76    1.09
 -13   3   4    6.46    2.17
 -12   3   4    2.94    1.11
 -11   3   4   29.77    2.97
 -10   3   4    6.63    1.37
  -9   3   4   28.85    2.70
  -8   3   4   31.38    2.08
  -7   3   4   49.92    2.63
  -6   3   4   64.32    3.00
  -5   3   4   69.50    3.22
  -4   3   4   51.58    2.31
  -3   3   4   94.53    3.70
  -2   3   4   28.96    1.54
  -1   3   4   17.89    1.32
   0   3   4   91.72    3.95
   1   3   4   79.03    3.61
   2   3   4   58.07    3.78
   3   3   4   64.80    3.26
   4   3   4   30.84    2.17
   5   3   4   17.66    1.80
   6   3   4   44.61    4.21
   7   3   4    1.48    0.96
   8   3   4   30.71    3.78
   9   3   4    3.88    1.25
  10   3   4   10.90    1.89
 -13   4   4   25.33    2.92
 -12   4   4    0.88    0.90
 -11   4   4    9.92    1.66
 -10   4   4   54.32    3.65
  -9   4   4   23.54    2.41
  -8   4   4   23.37    1.84
  -7   4   4   30.22    1.83
  -6   4   4   25.73    1.70
  -5   4   4   35.34    1.85
  -4   4   4   38.87    1.82
  -3   4   4   79.28    2.94
  -2   4   4  156.67    6.35
  -1   4   4   51.44    2.48
   0   4   4   35.16    1.94
   1   4   4   52.36    2.65
   2   4   4   17.93    1.62
   3   4   4   46.76    2.86
   4   4   4   23.75    2.16
   5   4   4   17.94    1.86
   6   4   4   39.74    3.85
   7   4   4    8.88    2.06
   8   4   4    1.40    1.26
   9   4   4   28.87    2.96
  10   4   4    4.71    2.69
 -14   5   4    2.52    1.30
 -13   5   4   10.95    1.84
 -12   5   4    3.92    1.19
 -11   5   4   48.65    3.68
 -10   5   4   15.26    2.02
  -9   5   4   17.16    1.58
  -8   5   4   17.96    1.59
  -7   5   4   22.61    1.79
  -6   5   4   60.96    2.99
  -5   5   4   17.85    1.24
  -4   5   4   49.10    2.11
  -3   5   4   64.65    3.08
  -2   5   4   70.18    3.43
  -1   5   4   38.28    2.09
   0   5   4   16.43    1.49
   1   5   4   31.94    2.64
   2   5   4   13.93    1.55
   3   5   4   25.25    2.32
   4   5   4   23.38    2.31
   5   5   4   13.00    2.22
   6   5   4   46.31    4.41
   7   5   4    4.79    1.70
   8   5   4   14.78    2.72
   9   5   4    4.33    1.68
 -14   6   4   34.44    3.40
 -13   6   4   13.43    2.16
 -12   6   4   12.95    2.08
 -11   6   4   45.98    3.45
 -10   6   4   34.63    3.06
  -9   6   4   45.31    2.61
  -8   6   4   22.81    1.86
  -7   6   4   37.60    2.11
  -6   6   4    7.88    0.84
  -5   6   4   31.15    1.52
  -4   6   4   17.09    1.53
  -3   6   4   63.75    3.19
  -2   6   4   26.72    1.95
  -1   6   4   57.95    3.18
   0   6   4    4.59    1.17
   1   6   4   66.58    3.51
   2   6   4   36.13    2.83
   3   6   4   29.66    2.55
   4   6   4   55.97    3.44
   5   6   4   45.91    4.48
   6   6   4   11.78    2.21
   7   6   4    7.47    2.00
   8   6   4   20.61    3.17
 -14   7   4   15.52    2.33
 -13   7   4    4.54    1.40
 -12   7   4    5.76    1.41
 -11   7   4    3.32    1.13
 -10   7   4    6.09    1.31
  -9   7   4   46.69    2.69
  -8   7   4   50.26    2.70
  -7   7   4   16.34    1.48
  -6   7   4   63.17    2.70
  -5   7   4   14.53    1.44
  -4   7   4   49.95    2.83
  -3   7   4   32.94    2.08
  -2   7   4   20.16    1.88
  -1   7   4   43.46    2.47
   0   7   4   14.94    1.65
   1   7   4   66.52    3.68
   2   7   4   32.45    2.65
   3   7   4    5.84    1.23
   4   7   4   10.35    1.67
   5   7   4    5.18    1.66
   6   7   4   12.25    2.45
   7   7   4    9.67    2.32
 -14   8   4   17.75    2.40
 -13   8   4   16.79    2.53
 -12   8   4    1.80    1.14
 -11   8   4   37.23    3.43
 -10   8   4   12.60    1.89
  -9   8   4   17.46    1.70
  -8   8   4   28.22    2.19
  -7   8   4   64.95    4.50
  -6   8   4   39.79    3.36
  -5   8   4   27.34    2.09
  -4   8   4   23.00    2.04
  -3   8   4   18.88    1.79
  -2   8   4   26.46    2.17
  -1   8   4   53.76    2.97
   0   8   4   30.08    2.46
   1   8   4   14.46    1.81
   2   8   4    9.90    2.07
   3   8   4   36.76    4.05
   4   8   4    3.13    1.47
   5   8   4   11.68    3.64
   6   8   4   23.89    5.24
 -14   9   4    5.29    1.53
 -13   9   4   30.71    3.29
 -12   9   4    5.37    1.48
 -11   9   4   16.54    2.22
 -10   9   4   21.54    2.42
  -9   9   4    3.19    1.16
  -8   9   4   14.85    2.24
  -7   9   4   34.04    3.41
  -6   9   4   33.51    3.35
  -5   9   4   24.97    2.87
  -4   9   4   16.87    1.78
  -3   9   4   40.53    2.83
  -2   9   4   42.59    4.17
  -1   9   4   15.27    2.42
   0   9   4    1.64    1.15
   1   9   4   11.73    2.32
   2   9   4    5.75    1.70
   3   9   4    3.58    1.45
   4   9   4   23.44    5.05
 -14  10   4    3.16    1.87
 -13  10   4    8.59    1.89
 -12  10   4   37.45    3.52
 -11  10   4   10.45    2.97
 -10  10   4    4.14    1.86
  -9  10   4   14.71    2.41
  -8  10   4   14.36    2.35
  -7  10   4    7.41    1.73
  -6  10   4   54.07    4.52
  -5  10   4   14.44    2.32
  -4  10   4   36.66    3.63
  -3  10   4    3.40    0.98
  -2  10   4   16.62    2.56
  -1  10   4   14.50    2.58
   0  10   4    4.11    1.58
   1  10   4    8.98    2.15
   2  10   4   64.30    8.74
   3  10   4    5.76    1.84
 -13  11   4    3.06    2.06
 -12  11   4    3.11    2.04
 -11  11   4   -0.07    1.04
 -10  11   4    6.57    2.48
  -9  11   4    8.96    1.76
  -8  11   4   26.59    3.29
  -7  11   4    7.30    1.85
  -6  11   4   53.58    4.50
  -5  11   4   47.36    4.40
  -4  11   4    6.47    1.65
  -3  11   4   35.16    6.25
  -2  11   4   10.47    2.29
  -1  11   4   16.52    2.84
   0  11   4    3.63    1.64
   1  11   4    2.02    1.37
   2  11   4    4.34    1.79
 -12  12   4    1.36    1.72
 -11  12   4    6.85    2.58
 -10  12   4   49.09    7.31
  -9  12   4    2.44    1.27
  -8  12   4    1.73    1.31
  -7  12   4    4.83    1.58
  -6  12   4   11.33    2.27
  -5  12   4    1.68    1.24
  -4  12   4    0.54    1.80
  -3  12   4    2.38    2.12
  -2  12   4   52.47    7.51
  -1  12   4    6.70    1.88
   0  12   4    2.52    1.56
   1  12   4    8.35    2.29
 -11  13   4    2.91    2.13
 -10  13   4    7.10    2.00
  -9  13   4   20.15    3.28
  -8  13   4   12.04    2.55
  -7  13   4   13.97    2.65
  -6  13   4    7.97    2.13
  -5  13   4   12.81    4.06
  -4  13   4   24.59    5.41
  -3  13   4   13.27    3.98
  -2  13   4    3.66    2.39
 -10  14   4    5.53    2.78
  -9  14   4    4.22    1.84
  -8  14   4   24.72    3.59
  -7  14   4   17.95    3.12
  -6  14   4   18.13    4.82
   3 -13   5    5.32    2.03
   4 -13   5   15.14    3.05
   5 -13   5    0.93    0.97
   6 -13   5    6.44    1.58
   7 -13   5    3.16    1.17
   8 -13   5    1.32    1.01
   9 -13   5   10.88    1.93
   1 -12   5    3.03    1.29
   2 -12   5    6.56    1.55
   3 -12   5    0.06    0.75
   4 -12   5   19.47    2.39
   5 -12   5    5.53    1.36
   6 -12   5   17.38    2.29
   7 -12   5   11.03    1.84
   8 -12   5   37.76    3.38
   9 -12   5    2.70    1.33
  10 -12   5    4.49    1.22
  11 -12   5    2.15    0.97
  -1 -11   5    1.23    1.59
   0 -11   5   12.95    1.78
   1 -11   5   22.34    2.20
   2 -11   5    6.57    1.44
   3 -11   5   24.92    2.56
   4 -11   5   13.39    1.89
   5 -11   5   22.11    2.47
   6 -11   5   11.86    1.75
   7 -11   5   16.48    2.02
   8 -11   5   41.18    4.68
   9 -11   5    3.25    0.96
  10 -11   5   16.47    1.97
  11 -11   5   12.60    1.90
  12 -11   5    1.69    1.32
  -3 -10   5    2.16    1.93
  -2 -10   5    3.85    1.43
  -1 -10   5   14.04    2.20
   0 -10   5   47.56    3.31
   1 -10   5   35.69    3.13
   2 -10   5    9.16    1.54
   3 -10   5   20.14    2.23
   4 -10   5    9.39    1.50
   5 -10   5    0.94    0.71
   6 -10   5    7.36    1.38
   7 -10   5    7.10    1.83
   8 -10   5   21.61    2.11
   9 -10   5   18.90    2.03
  10 -10   5   46.00    3.57
  11 -10   5   15.40    2.79
  12 -10   5    8.63    2.27
  13 -10   5    3.70    2.15
  -4  -9   5   15.16    3.65
  -3  -9   5    1.20    1.02
  -2  -9   5    4.60    1.44
  -1  -9   5   18.56    2.45
   0  -9   5    0.33    0.62
   1  -9   5   18.15    2.02
   2  -9   5   10.81    1.51
   3  -9   5    7.86    1.31
   4  -9   5   45.04    3.18
   5  -9   5   25.07    2.34
   6  -9   5   17.84    2.60
   7  -9   5    6.63    1.10
   8  -9   5   27.17    2.41
   9  -9   5   -0.01    0.73
  10  -9   5   38.31    3.31
  11  -9   5    7.44    1.56
  12  -9   5    2.44    1.10
  13  -9   5   14.04    2.21
  -5  -8   5    2.24    1.20
  -4  -8   5   33.37    3.52
  -3  -8   5   32.07    3.48
  -2  -8   5   18.43    2.45
  -1  -8   5   23.46    2.74
   0  -8   5    3.23    0.86
   1  -8   5   13.88    1.69
   2  -8   5   56.38    3.36
   3  -8   5   50.45    3.04
   4  -8   5   58.04    3.39
   5  -8   5   24.37    2.16
   6  -8   5   53.96    2.88
   7  -8   5   11.31    1.39
   8  -8   5    3.03    0.89
   9  -8   5   14.96    1.93
  10  -8   5    9.20    1.62
  11  -8   5   26.66    2.76
  12  -8   5   22.11    2.61
  13  -8   5    1.18    0.99
  -6  -7   5    3.85    1.41
  -5  -7   5   13.61    2.24
  -4  -7   5   14.01    2.18
  -3  -7   5    8.64    1.66
  -2  -7   5    9.46    1.81
  -1  -7   5   10.17    1.74
   0  -7   5   23.66    1.85
   1  -7   5   51.91    2.47
   2  -7   5   48.06    2.89
   3  -7   5   14.20    1.60
   4  -7   5   21.97    1.97
   5  -7   5   38.97    2.27
   6  -7   5  103.77    4.20
   7  -7   5   17.88    1.97
   8  -7   5   18.27    2.06
   9  -7   5    6.97    2.24
  10  -7   5   17.89    3.62
  11  -7   5   10.19    2.90
  12  -7   5   10.52    2.98
  13  -7   5    5.53    2.52
  -7  -6   5    7.93    1.70
  -6  -6   5   17.46    2.54
  -5  -6   5   15.15    2.22
  -4  -6   5   12.29    1.99
  -3  -6   5   21.58    2.54
  -2  -6   5   49.32    3.53
  -1  -6   5  101.20    5.88
   0  -6   5    0.97    0.47
   1  -6   5   21.18    1.78
   2  -6   5    6.89    1.06
   3  -6   5   28.33    2.03
   4  -6   5    3.17    0.57
   5  -6   5   14.33    1.39
   7  -6   5   53.03    3.32
   8  -6   5   60.80    4.09
   9  -6   5   12.93    2.10
  10  -6   5    9.07    1.79
  11  -6   5   20.85    2.88
  12  -6   5   21.48    3.05
  13  -6   5    1.40    1.32
  -8  -5   5   -0.82    0.84
  -7  -5   5   10.02    1.85
  -6  -5   5   20.09    2.59
  -5  -5   5    2.03    1.02
  -4  -5   5   20.71    2.40
  -3  -5   5   23.61    2.54
  -2  -5   5   29.37    2.86
  -1  -5   5   12.93    1.76
   0  -5   5   75.79    3.32
   1  -5   5   41.06    1.94
   2  -5   5   80.31    3.39
   3  -5   5   39.95    1.72
   4  -5   5   83.29    4.01
   6  -5   5   25.39    1.87
   7  -5   5   49.87    3.38
   8  -5   5   47.70    3.84
   9  -5   5   46.64    4.29
  10  -5   5    1.01    1.01
  11  -5   5   11.18    2.11
  12  -5   5   13.45    2.46
  13  -5   5    2.00    1.46
  -8  -4   5   20.72    2.69
  -7  -4   5    9.84    1.79
  -6  -4   5    9.32    1.66
  -5  -4   5   46.65    3.60
  -4  -4   5   64.41    4.00
  -3  -4   5   17.50    2.16
  -2  -4   5    2.12    0.81
  -1  -4   5   78.80    4.62
   0  -4   5    1.21    0.62
   1  -4   5   87.90    3.50
   2  -4   5    9.72    0.96
   3  -4   5   42.87    1.95
   4  -4   5    0.58    0.83
   5  -4   5   38.98    3.62
   6  -4   5    5.83    0.90
   7  -4   5   14.11    1.85
   8  -4   5   64.22    4.17
   9  -4   5   28.66    3.18
  10  -4   5   10.44    2.05
  11  -4   5   13.07    2.45
  12  -4   5   33.28    3.92
  13  -4   5    9.48    3.44
  -9  -3   5    2.83    1.26
  -8  -3   5   22.48    2.72
  -7  -3   5   19.22    2.45
  -6  -3   5   11.59    1.82
  -5  -3   5   46.59    3.37
  -4  -3   5   17.69    2.00
  -3  -3   5   27.39    2.56
  -2  -3   5   37.79    2.60
  -1  -3   5   44.37    2.69
   0  -3   5   70.10    3.84
   1  -3   5   88.86    3.45
   2  -3   5   97.79    3.68
   3  -3   5   67.49    3.11
   4  -3   5   77.38    4.76
   5  -3   5   79.69    3.71
   6  -3   5   26.58    1.96
   7  -3   5   22.00    2.38
   8  -3   5   23.01    2.57
   9  -3   5   17.15    1.94
  10  -3   5    7.83    1.85
  11  -3   5   33.81    3.91
  12  -3   5    0.90    1.20
 -10  -2   5    4.73    1.50
  -9  -2   5    6.61    1.57
  -8  -2   5   10.59    1.81
  -7  -2   5   13.33    1.96
  -6  -2   5   59.42    3.84
  -5  -2   5   46.38    3.27
  -4  -2   5    5.56    1.14
  -3  -2   5   75.02    4.36
  -2  -2   5    8.82    1.25
  -1  -2   5   95.48    4.87
   0  -2   5   49.65    2.90
   1  -2   5   21.35    1.58
   2  -2   5   48.87    2.38
   3  -2   5   93.50    3.74
   4  -2   5    8.47    1.01
   5  -2   5   40.47    2.64
   6  -2   5    2.25    0.60
   7  -2   5   36.34    3.28
   8  -2   5   51.56    4.02
   9  -2   5    3.62    1.26
  10  -2   5   18.24    2.79
  11  -2   5    6.16    1.83
  12  -2   5    3.16    1.54
 -11  -1   5    2.03    1.80
 -10  -1   5   18.90    2.47
  -9  -1   5   36.04    3.46
  -8  -1   5   17.72    1.80
  -7  -1   5   20.06    1.89
  -6  -1   5   48.63    2.59
  -5  -1   5   22.85    1.99
  -4  -1   5   39.86    2.16
  -3  -1   5   79.68    3.84
  -2  -1   5   86.90    3.86
  -1  -1   5   20.77    1.58
   0  -1   5   56.12    2.65
   1  -1   5   60.42    2.64
   2  -1   5   21.85    1.37
   3  -1   5   94.54    4.18
   4  -1   5   41.34    2.74
   5  -1   5   78.78    4.74
   6  -1   5   14.12    1.88
   7  -1   5   98.35    6.18
   8  -1   5   10.11    1.86
   9  -1   5   21.59    2.92
  10  -1   5   17.32    2.18
  11  -1   5   16.67    2.84
  12  -1   5    2.17    2.06
 -11   0   5   17.22    2.49
 -10   0   5   52.98    4.11
  -9   0   5    0.30    0.71
  -8   0   5    3.91    0.92
  -7   0   5   20.96    1.89
  -6   0   5    1.46    0.61
  -5   0   5   76.89    3.64
  -4   0   5    1.01    0.48
  -3   0   5   70.54    3.19
  -2   0   5   47.90    2.43
  -1   0   5   58.82    2.65
   0   0   5   -0.16    0.26
   1   0   5   56.26    3.44
   2   0   5   47.96    2.50
   3   0   5   70.15    3.20
   4   0   5    1.04    0.57
   5   0   5   73.48    3.73
   6   0   5    1.61    0.85
   7   0   5   16.37    2.35
   8   0   5    3.23    1.27
   9   0   5    0.98    0.99
  10   0   5   46.63    3.83
  11   0   5   16.04    2.79
 -12   1   5    1.13    1.18
 -11   1   5   13.31    2.04
 -10   1   5   20.59    2.51
  -9   1   5   21.60    2.53
  -8   1   5    9.63    1.28
  -7   1   5   97.21    4.73
  -6   1   5   15.62    1.46
  -5   1   5   79.53    3.80
  -4   1   5   46.34    2.24
  -3   1   5   92.20    4.03
  -2   1   5   19.37    1.47
  -1   1   5   60.97    2.61
   0   1   5   60.70    3.54
   1   1   5   20.89    1.64
   2   1   5   85.69    3.92
   3   1   5   81.60    4.92
   4   1   5   41.73    2.73
   5   1   5   26.17    2.05
   6   1   5   53.19    3.60
   7   1   5   13.67    2.21
   8   1   5   14.07    2.44
   9   1   5   35.95    3.98
  10   1   5   18.02    2.30
  11   1   5    1.80    1.48
 -12   2   5    4.28    1.44
 -11   2   5    5.77    1.49
 -10   2   5   19.25    2.41
  -9   2   5    6.40    1.38
  -8   2   5   51.50    2.82
  -7   2   5   36.15    2.24
  -6   2   5    3.26    0.73
  -5   2   5   48.37    2.25
  -4   2   5   10.59    1.09
  -3   2   5   89.42    3.76
  -2   2   5   49.17    3.21
  -1   2   5   18.45    1.92
   0   2   5   47.24    2.52
   1   2   5   91.88    4.21
   2   2   5    8.23    1.30
   3   2   5   82.33    4.81
   4   2   5    4.44    0.91
   5   2   5   48.49    2.93
   6   2   5   59.31    4.30
   7   2   5    8.12    1.89
   8   2   5   11.65    2.18
   9   2   5    5.92    1.74
  10   2   5    4.59    1.42
 -13   3   5    1.02    1.63
 -12   3   5    0.84    1.02
 -11   3   5   29.84    3.21
 -10   3   5    9.51    1.66
  -9   3   5   20.81    2.40
  -8   3   5   24.27    1.96
  -7   3   5   21.21    1.84
  -6   3   5   30.81    2.18
  -5   3   5   79.00    3.62
  -4   3   5   84.64    3.73
  -3   3   5   76.63    4.27
  -2   3   5   91.59    4.29
  -1   3   5   88.11    4.05
   0   3   5   68.31    3.27
   1   3   5   43.76    2.24
   2   3   5   45.41    2.95
   3   3   5   27.58    2.77
   4   3   5   12.24    1.52
   5   3   5   48.47    3.17
   6   3   5    9.82    1.93
   7   3   5   19.30    2.74
   8   3   5   23.33    3.15
   9   3   5    2.17    1.36
  10   3   5    2.46    1.49
 -13   4   5   10.76    2.00
 -12   4   5   30.89    3.31
 -11   4   5   12.63    1.99
 -10   4   5    9.39    1.69
  -9   4   5   30.32    2.23
  -8   4   5   61.88    3.18
  -7   4   5   15.32    1.53
  -6   4   5    7.18    0.99
  -5   4   5   41.03    2.08
  -4   4   5    1.63    0.74
  -3   4   5   44.85    2.32
  -2   4   5    8.34    1.07
  -1   4   5   78.99    3.97
   0   4   5    0.82    0.50
   1   4   5   83.02    5.07
   2   4   5    3.28    0.99
   3   4   5   21.95    2.08
   4   4   5   59.03    3.49
   5   4   5   38.97    4.03
   6   4   5   12.40    2.23
   7   4   5    7.64    1.82
   8   4   5   26.18    3.57
   9   4   5   13.35    2.58
 -13   5   5    2.44    1.23
 -12   5   5   13.08    2.10
 -11   5   5   15.58    2.19
 -10   5   5    0.34    0.69
  -9   5   5   45.63    2.81
  -8   5   5   44.65    2.74
  -7   5   5   46.23    2.63
  -6   5   5   24.38    2.67
  -5   5   5   78.56    3.80
  -4   5   5   76.73    3.97
  -3   5   5   45.60    2.36
  -2   5   5   78.14    3.86
  -1   5   5   39.29    2.20
   0   5   5   76.53    4.84
   1   5   5   15.17    2.05
   2   5   5   30.75    2.56
   3   5   5   28.84    2.42
   4   5   5   29.70    2.60
   5   5   5    1.30    1.09
   6   5   5   17.02    2.74
   7   5   5    8.17    2.07
   8   5   5   -0.51    1.25
 -13   6   5    4.98    1.54
 -12   6   5   18.31    2.49
 -11   6   5   19.96    2.57
 -10   6   5   13.87    1.92
  -9   6   5    8.65    1.27
  -8   6   5   54.79    3.06
  -7   6   5   54.70    3.54
  -6   6   5    1.71    0.64
  -5   6   5   12.60    1.40
  -4   6   5    2.62    0.73
  -3   6   5   25.36    2.13
  -2   6   5    5.42    0.98
  -1   6   5   28.88    2.27
   0   6   5    2.15    0.95
   1   6   5  102.08    5.08
   2   6   5   48.65    3.33
   3   6   5   19.31    2.19
   4   6   5   10.49    1.67
   5   6   5   15.43    2.57
   6   6   5   14.86    2.66
   7   6   5    9.05    2.38
 -13   7   5    4.21    1.51
 -12   7   5    9.32    1.72
 -11   7   5   10.67    1.83
 -10   7   5   19.55    2.37
  -9   7   5   10.68    1.85
  -8   7   5   15.29    2.23
  -7   7   5   21.65    2.65
  -6   7   5  101.00    5.00
  -5   7   5   35.09    2.44
  -4   7   5   17.62    1.82
  -3   7   5   14.88    1.65
  -2   7   5   47.38    2.88
  -1   7   5   56.16    3.65
   0   7   5   18.78    2.57
   1   7   5   10.78    1.56
   2   7   5    9.90    1.56
   3   7   5   13.26    1.85
   4   7   5   15.12    2.10
   5   7   5   11.69    2.45
   6   7   5    4.39    1.80
 -13   8   5    2.28    1.29
 -12   8   5   24.35    3.03
 -11   8   5   18.93    3.97
 -10   8   5    8.72    2.68
  -9   8   5   18.72    2.47
  -8   8   5    3.22    1.19
  -7   8   5   10.23    1.92
  -6   8   5   57.09    4.01
  -5   8   5   26.60    2.26
  -4   8   5   60.96    3.43
  -3   8   5   47.55    3.07
  -2   8   5   58.48    4.30
  -1   8   5   17.82    2.57
   0   8   5    5.44    1.13
   1   8   5   21.68    2.32
   2   8   5   18.53    2.88
   3   8   5   30.85    3.90
   4   8   5   31.74    5.71
   5   8   5    0.05    1.98
 -13   9   5   12.63    3.62
 -12   9   5    1.01    1.86
 -11   9   5    5.93    2.42
 -10   9   5   38.72    5.66
  -9   9   5    1.08    0.91
  -8   9   5   27.98    3.25
  -7   9   5    8.41    1.83
  -6   9   5   17.65    2.49
  -5   9   5   29.48    3.19
  -4   9   5   48.98    3.18
  -3   9   5   10.27    1.52
  -2   9   5   10.64    2.00
  -1   9   5   16.89    2.62
   0   9   5    0.53    0.98
   1   9   5   20.81    3.09
   2   9   5    2.58    1.52
   3   9   5    2.25    1.43
   4   9   5   10.53    4.03
 -12  10   5    2.06    1.99
 -11  10   5   18.04    3.97
 -10  10   5   41.76    6.18
  -9  10   5   21.28    2.89
  -8  10   5   15.12    2.51
  -7  10   5   11.74    2.12
  -6  10   5   13.53    2.32
  -5  10   5    1.12    1.01
  -4  10   5   10.85    2.02
  -3  10   5   15.92    2.64
  -2  10   5    8.78    1.88
  -1  10   5   34.10    3.94
   0  10   5   48.73    4.95
   1  10   5   12.29    2.54
   2  10   5    3.84    1.82
   3  10   5    3.01    2.43
 -11  11   5   12.67    3.42
 -10  11   5   15.03    2.80
  -9  11   5    3.76    1.68
  -8  11   5   34.68    3.96
  -7  11   5   12.65    2.42
  -6  11   5   13.20    2.31
  -5  11   5   22.75    3.13
  -4  11   5    7.78    3.13
  -3  11   5   21.34    4.58
  -2  11   5    7.22    1.96
  -1  11   5   18.14    3.01
   0  11   5    9.97    2.30
   1  11   5    1.82    1.44
 -10  12   5    3.24    1.59
  -9  12   5    0.84    1.16
  -8  12   5   29.87    3.82
  -7  12   5   10.13    2.31
  -6  12   5   10.12    2.23
  -5  12   5    5.48    2.61
  -4  12   5   28.34    5.64
  -3  12   5    3.71    2.32
  -2  12   5    5.19    2.94
  -1  12   5    2.37    1.65
 -10  13   5    3.41    2.55
  -9  13   5   15.48    2.83
  -8  13   5    2.04    1.42
  -7  13   5    5.34    1.95
  -6  13   5    7.36    3.38
  -5  13   5   -0.03    2.16
   4 -12   6    9.60    3.00
   5 -12   6    8.35    2.52
   6 -12   6   14.83    2.14
   7 -12   6    4.18    1.28
   8 -12   6   12.33    1.96
   9 -12   6    3.96    1.40
   1 -11   6    8.89    2.95
   2 -11   6    0.84    1.05
   3 -11   6   -0.16    0.95
   4 -11   6   30.28    4.68
   5 -11   6    5.60    2.15
   6 -11   6    5.41    1.35
   7 -11   6   22.89    2.54
   8 -11   6    1.86    0.99
   9 -11   6    3.27    1.50
  10 -11   6    2.92    1.43
  -1 -10   6    8.75    3.24
   0 -10   6    3.03    1.25
   1 -10   6    3.26    1.32
   2 -10   6   13.42    2.27
   3 -10   6    7.89    1.76
   4 -10   6   14.34    2.97
   5 -10   6   12.43    1.84
   6 -10   6   25.78    2.67
   7 -10   6    3.97    1.12
   8 -10   6   20.75    2.37
   9 -10   6    2.23    1.29
  10 -10   6    3.61    1.20
  11 -10   6   14.43    1.92
  -2  -9   6    2.04    1.09
  -1  -9   6    1.50    1.04
   0  -9   6   11.29    2.10
   1  -9   6   28.65    3.16
   2  -9   6    4.94    1.43
   3  -9   6   17.16    2.51
   4  -9   6    8.69    2.29
   5  -9   6    9.74    1.51
   6  -9   6   14.62    1.87
   7  -9   6    2.64    0.95
   8  -9   6   32.23    4.07
   9  -9   6   10.69    1.59
  10  -9   6    2.67    1.43
  11  -9   6    3.27    1.57
  12  -9   6    3.95    1.36
  -4  -8   6   14.87    3.85
  -3  -8   6    1.81    1.14
  -2  -8   6   21.65    2.81
  -1  -8   6   36.55    3.78
   0  -8   6   29.74    3.26
   1  -8   6   20.44    2.68
   2  -8   6   11.55    1.95
   3  -8   6    8.65    1.73
   4  -8   6    4.72    1.78
   5  -8   6    8.65    1.38
   6  -8   6    2.48    0.88
   7  -8   6   20.88    2.95
   8  -8   6   31.87    2.57
   9  -8   6   25.89    3.46
  10  -8   6   14.92    2.03
  11  -8   6    0.70    0.94
  12  -8   6    7.31    1.59
  -5  -7   6    2.81    1.36
  -4  -7   6   23.63    3.01
  -3  -7   6    5.13    1.51
  -2  -7   6    3.25    1.28
  -1  -7   6   20.36    2.60
   0  -7   6   12.21    1.99
   1  -7   6    9.88    1.77
   2  -7   6   12.86    1.95
   3  -7   6   28.71    2.87
   4  -7   6   60.96    4.05
   5  -7   6    8.62    1.31
   6  -7   6    6.25    1.14
   7  -7   6    8.03    1.41
   8  -7   6   25.22    2.55
   9  -7   6    2.04    1.67
  10  -7   6   10.00    2.78
  11  -7   6   34.26    5.32
  12  -7   6    6.27    2.82
  -6  -6   6   13.63    2.30
  -5  -6   6    7.55    1.78
  -4  -6   6   27.93    3.12
  -3  -6   6   17.20    2.42
  -2  -6   6    6.44    1.48
  -1  -6   6    5.99    1.37
   0  -6   6    4.04    1.23
   1  -6   6   57.64    3.82
   2  -6   6    9.75    1.65
   3  -6   6   58.25    3.86
   4  -6   6   16.28    2.09
   5  -6   6   49.62    2.59
   6  -6   6    4.24    1.19
   7  -6   6   11.78    2.64
   8  -6   6    8.37    1.65
   9  -6   6   23.80    2.91
  10  -6   6    9.89    2.04
  11  -6   6    3.86    1.46
  12  -6   6   16.44    2.77
  -7  -5   6    8.16    1.81
  -6  -5   6    4.38    1.48
  -5  -5   6   12.02    2.12
  -4  -5   6    7.98    1.67
  -3  -5   6    5.35    1.33
  -2  -5   6   10.30    1.70
  -1  -5   6   49.24    3.62
   0  -5   6   52.36    3.58
   1  -5   6   30.73    2.90
   2  -5   6   39.69    2.92
   3  -5   6   44.68    3.14
   4  -5   6   29.66    2.76
   5  -5   6   55.18    2.86
   6  -5   6   56.65    3.65
   7  -5   6   13.95    1.98
   8  -5   6    6.57    2.20
   9  -5   6    5.31    1.53
  10  -5   6   14.74    2.49
  11  -5   6    4.21    1.53
  12  -5   6    0.76    1.28
  -8  -4   6    8.59    2.91
  -7  -4   6   42.29    3.96
  -6  -4   6   14.96    2.26
  -5  -4   6    7.95    1.67
  -4  -4   6    2.28    0.97
  -3  -4   6   51.11    3.84
  -2  -4   6   13.50    1.96
  -1  -4   6   30.92    2.92
   0  -4   6    3.58    1.00
   1  -4   6    7.87    1.37
   2  -4   6    4.35    1.03
   3  -4   6    6.00    0.96
   4  -4   6    5.62    1.23
   5  -4   6   31.44    2.34
   6  -4   6   11.23    1.64
   7  -4   6   27.35    2.77
   8  -4   6    3.93    1.20
   9  -4   6    4.99    1.44
  10  -4   6   17.78    2.67
  11  -4   6   23.09    3.18
  12  -4   6    7.34    3.24
  -9  -3   6    2.14    1.93
  -8  -3   6    2.40    1.19
  -7  -3   6    8.69    1.48
  -6  -3   6   15.25    2.29
  -5  -3   6   11.37    1.78
  -4  -3   6   35.00    3.15
  -3  -3   6   59.88    3.84
  -2  -3   6   47.19    3.23
  -1  -3   6    5.01    1.11
   0  -3   6    9.82    1.42
   1  -3   6   37.31    2.21
   2  -3   6   71.18    3.50
   3  -3   6    8.99    1.45
   4  -3   6    7.33    1.30
   5  -3   6   34.70    2.87
   6  -3   6   62.58    4.05
   7  -3   6   57.54    4.11
   8  -3   6    7.18    1.60
   9  -3   6   15.60    3.53
  10  -3   6    4.63    1.59
  11  -3   6    0.15    1.14
  -9  -2   6    3.83    1.41
  -8  -2   6   13.62    2.14
  -7  -2   6    2.90    0.93
  -6  -2   6   11.91    1.59
  -5  -2   6   17.90    1.88
  -4  -2   6   10.95    1.38
  -3  -2   6   36.82    2.47
  -2  -2   6    4.08    0.89
  -1  -2   6   69.35    3.55
   0  -2   6   57.11    2.85
   1  -2   6   34.63    2.83
   2  -2   6   56.99    3.69
   3  -2   6   37.66    2.57
   4  -2   6    3.82    0.97
   5  -2   6   42.63    3.18
   6  -2   6   18.69    2.31
   7  -2   6    8.87    1.70
   8  -2   6    4.86    1.39
   9  -2   6    2.63    1.21
  10  -2   6   11.89    2.41
  11  -2   6    1.50    1.27
 -10  -1   6   10.40    2.05
  -9  -1   6    4.92    1.47
  -8  -1   6   29.47    2.57
  -7  -1   6   21.38    2.18
  -6  -1   6   11.10    1.52
  -5  -1   6   55.78    3.09
  -4  -1   6   34.41    2.53
  -3  -1   6    7.72    1.12
  -2  -1   6   38.98    2.16
  -1  -1   6   33.82    2.12
   0  -1   6   36.82    2.90
   1  -1   6   44.73    3.00
   2  -1   6   30.96    2.61
   3  -1   6   80.19    3.74
   4  -1   6    5.52    1.22
   5  -1   6   31.48    2.67
   6  -1   6   46.07    3.76
   7  -1   6    3.65    1.19
   8  -1   6   21.78    2.86
   9  -1   6   37.00    4.10
  10  -1   6    2.60    1.16
 -10   0   6    1.33    0.98
  -9   0   6   10.47    1.88
  -8   0   6   35.05    2.77
  -7   0   6   10.76    1.48
  -6   0   6    3.45    0.88
  -5   0   6   57.24    3.00
  -4   0   6    2.09    0.69
  -3   0   6   10.12    1.22
  -2   0   6   54.66    3.77
  -1   0   6   40.49    2.96
   0   0   6    0.41    0.56
   1   0   6   38.70    2.81
   2   0   6   58.63    2.97
   3   0   6   10.25    1.56
   4   0   6    4.24    1.11
   5   0   6   51.03    2.96
   6   0   6    2.35    1.10
   7   0   6    6.78    1.53
   8   0   6   31.28    3.56
   9   0   6   10.74    2.29
  10   0   6    3.25    1.46
 -11   1   6    5.49    1.59
 -10   1   6    3.56    1.37
  -9   1   6   40.30    3.67
  -8   1   6   25.43    2.27
  -7   1   6    5.13    1.02
  -6   1   6   47.46    2.85
  -5   1   6   29.68    2.30
  -4   1   6    5.62    0.94
  -3   1   6   78.12    4.79
  -2   1   6   34.55    3.11
  -1   1   6   37.53    2.87
   0   1   6   43.13    2.93
   1   1   6   31.20    2.07
   2   1   6   37.03    2.69
   3   1   6    6.72    1.32
   4   1   6   33.63    2.85
   5   1   6   57.47    3.20
   6   1   6    8.43    1.73
   7   1   6   21.40    2.97
   8   1   6   25.83    3.41
   9   1   6    2.55    1.40
  10   1   6   12.94    2.52
 -11   2   6    1.69    1.22
 -10   2   6   21.15    2.69
  -9   2   6    2.76    1.24
  -8   2   6    6.86    1.09
  -7   2   6    8.70    1.26
  -6   2   6   16.79    1.72
  -5   2   6   42.76    3.37
  -4   2   6    3.31    1.04
  -3   2   6   36.84    2.97
  -2   2   6   59.09    3.78
  -1   2   6   30.91    2.84
   0   2   6   61.92    3.05
   1   2   6   68.15    4.60
   2   2   6    5.87    1.20
   3   2   6   34.47    3.31
   4   2   6   10.14    1.42
   5   2   6   12.67    2.12
   6   2   6   12.76    2.24
   7   2   6    3.52    1.48
   8   2   6   16.80    2.82
   9   2   6    0.99    1.28
 -12   3   6    3.64    1.91
 -11   3   6    1.54    0.94
 -10   3   6    3.63    1.28
  -9   3   6   15.28    2.22
  -8   3   6    6.62    1.14
  -7   3   6   55.69    3.16
  -6   3   6   59.82    4.19
  -5   3   6   37.74    3.20
  -4   3   6    6.10    1.33
  -3   3   6   10.20    1.61
  -2   3   6   73.65    3.77
  -1   3   6   35.49    2.25
   0   3   6   10.97    1.29
   1   3   6    4.91    1.21
   2   3   6   45.32    3.41
   3   3   6   61.94    4.25
   4   3   6   30.55    2.54
   5   3   6   10.53    1.89
   6   3   6   19.48    2.90
   7   3   6    9.79    2.24
   8   3   6    2.60    1.38
 -12   4   6   11.26    2.04
 -11   4   6   23.26    3.83
 -10   4   6   23.03    2.61
  -9   4   6    7.35    1.23
  -8   4   6    4.42    1.26
  -7   4   6   29.99    3.08
  -6   4   6    9.66    1.75
  -5   4   6   34.55    3.27
  -4   4   6    4.40    1.16
  -3   4   6    5.52    0.97
  -2   4   6    3.94    0.84
  -1   4   6    7.07    1.09
   0   4   6    3.34    1.03
   1   4   6   28.97    3.05
   2   4   6   19.52    2.52
   3   4   6   55.54    3.45
   4   4   6    3.18    0.99
   5   4   6    5.26    1.52
   6   4   6   10.71    2.23
   7   4   6   36.74    4.37
   8   4   6    7.41    2.08
 -12   5   6    3.31    1.45
 -11   5   6    4.43    1.41
 -10   5   6    5.86    2.33
  -9   5   6    7.90    1.71
  -8   5   6   10.65    1.88
  -7   5   6   14.21    2.10
  -6   5   6   51.99    3.91
  -5   5   6   53.45    3.04
  -4   5   6   29.58    2.43
  -3   5   6   46.82    2.77
  -2   5   6   34.80    2.50
  -1   5   6   28.70    3.03
   0   5   6   52.24    3.86
   1   5   6   47.85    3.91
   2   5   6    8.90    1.33
   3   5   6    6.15    1.27
   4   5   6    7.54    1.43
   5   5   6   15.25    2.63
   6   5   6    5.47    1.74
   7   5   6    5.11    1.78
 -12   6   6    8.00    2.95
 -11   6   6    2.10    1.76
 -10   6   6    9.05    2.71
  -9   6   6   17.43    2.50
  -8   6   6   11.02    1.96
  -7   6   6   11.65    1.87
  -6   6   6    2.49    0.82
  -5   6   6   50.49    2.96
  -4   6   6   17.42    1.84
  -3   6   6   60.84    3.34
  -2   6   6   12.62    1.51
  -1   6   6   49.68    4.16
   0   6   6    2.06    1.00
   1   6   6    6.96    1.62
   2   6   6    4.84    1.25
   3   6   6   18.05    2.15
   4   6   6   17.78    2.89
   5   6   6    7.22    1.93
   6   6   6   12.40    2.51
 -12   7   6    4.08    2.33
 -11   7   6   28.00    5.11
 -10   7   6    3.02    1.86
  -9   7   6    3.34    1.23
  -8   7   6   26.38    3.11
  -7   7   6   10.80    1.98
  -6   7   6    5.09    1.35
  -5   7   6    8.71    1.31
  -4   7   6   58.01    3.43
  -3   7   6   31.23    2.48
  -2   7   6   15.59    2.36
  -1   7   6    8.74    1.76
   0   7   6    9.00    1.88
   1   7   6   23.26    2.41
   2   7   6    2.31    1.00
   3   7   6    3.52    1.25
   4   7   6   24.14    3.39
   5   7   6    2.92    1.54
 -11   8   6    0.75    1.80
 -10   8   6    8.56    2.79
  -9   8   6   28.33    3.36
  -8   8   6   30.33    3.50
  -7   8   6   20.03    2.76
  -6   8   6    3.93    1.30
  -5   8   6    6.27    1.22
  -4   8   6    2.20    0.84
  -3   8   6    7.11    1.59
  -2   8   6   11.82    2.11
  -1   8   6   18.66    2.83
   0   8   6   34.56    2.94
   1   8   6   34.58    3.25
   2   8   6   16.37    2.84
   3   8   6   -0.10    1.20
 -11   9   6    2.20    2.03
 -10   9   6    0.36    1.56
  -9   9   6    8.88    2.00
  -8   9   6   41.61    4.37
  -7   9   6    1.29    1.15
  -6   9   6   18.58    2.64
  -5   9   6   10.65    2.10
  -4   9   6    6.73    1.29
  -3   9   6   23.82    3.05
  -2   9   6    3.24    1.34
  -1   9   6   31.01    3.71
   0   9   6   10.75    2.26
   1   9   6    2.05    1.36
   2   9   6    1.15    1.34
 -10  10   6    3.04    1.93
  -9  10   6    2.20    1.35
  -8  10   6   18.05    2.83
  -7  10   6    4.93    1.58
  -6  10   6   22.66    3.02
  -5  10   6   12.36    2.31
  -4  10   6    9.24    3.18
  -3  10   6    6.16    1.76
  -2  10   6   13.17    2.48
  -1  10   6    2.59    1.37
   0  10   6    3.68    1.72
   1  10   6    3.88    1.69
 -10  11   6    6.23    2.00
  -9  11   6    0.78    1.21
  -8  11   6    0.91    1.25
  -7  11   6   28.47    3.58
  -6  11   6    3.83    1.60
  -5  11   6    5.56    2.93
  -4  11   6   39.84    6.82
  -3  11   6    1.63    2.28
  -2  11   6    3.99    1.73
  -1  11   6    9.60    2.40
  -9  12   6    1.93    2.26
  -8  12   6    9.43    2.36
  -7  12   6    2.97    1.53
  -6  12   6    9.47    3.65
  -5  12   6    7.02    3.27
   5 -11   7    8.32    2.49
   6 -11   7    2.59    1.49
   7 -11   7    7.59    2.55
   2 -10   7   12.88    2.33
   3 -10   7    0.79    1.21
   4 -10   7   15.11    2.54
   5 -10   7    1.58    1.23
   6 -10   7   12.95    2.30
   7 -10   7    2.17    1.27
   0  -9   7   -0.04    1.08
   1  -9   7   12.37    2.40
   2  -9   7    2.47    1.25
   3  -9   7   12.09    2.18
   4  -9   7   20.05    2.77
   5  -9   7   24.07    3.07
   6  -9   7   23.14    3.03
  -2  -8   7   16.22    2.68
  -1  -8   7    8.24    1.86
   0  -8   7    6.75    1.74
   1  -8   7   14.90    2.44
   2  -8   7    9.47    1.91
   3  -8   7    7.62    1.76
   4  -8   7   -0.09    0.88
   5  -8   7    5.43    1.45
   6  -8   7   10.48    3.19
  10  -8   7   11.06    2.40
  -3  -7   7    2.49    1.19
  -2  -7   7    7.46    1.83
  -1  -7   7    6.90    1.64
   0  -7   7    2.60    1.19
   1  -7   7   11.73    2.02
   2  -7   7    6.63    1.62
   3  -7   7    8.65    1.83
   4  -7   7    6.95    1.54
   5  -7   7    7.49    2.68
   6  -7   7   19.15    3.56
   9  -7   7    3.07    2.03
  10  -7   7    0.44    1.65
  11  -7   7    3.15    2.16
  -4  -6   7    6.36    1.59
  -3  -6   7   18.41    2.72
  -2  -6   7   14.75    2.32
  -1  -6   7   13.90    2.28
   0  -6   7   20.76    2.66
   1  -6   7    3.14    1.16
   2  -6   7   16.70    2.35
   3  -6   7    4.50    2.06
   4  -6   7   16.56    3.42
   5  -6   7    4.11    1.35
   6  -6   7   23.23    2.63
   7  -6   7   15.26    3.19
   8  -6   7    8.03    1.77
   9  -6   7   11.35    2.17
  10  -6   7   13.61    2.46
  -5  -5   7    0.73    1.04
  -4  -5   7   24.45    3.15
  -3  -5   7    3.85    1.36
  -2  -5   7    3.58    1.23
  -1  -5   7    0.69    0.93
   0  -5   7    6.32    1.41
   1  -5   7   11.23    1.80
   2  -5   7   41.19    5.73
   3  -5   7   25.96    2.93
   4  -5   7   15.40    2.29
   5  -5   7    7.97    2.26
   6  -5   7    2.53    1.43
   7  -5   7    7.24    1.63
   8  -5   7    5.06    2.13
   9  -5   7   20.07    2.84
  10  -5   7    0.13    1.07
  11  -5   7    0.49    1.87
  -7  -4   7    3.15    2.37
  -6  -4   7   20.44    2.30
  -5  -4   7   19.41    2.20
  -4  -4   7   -0.54    0.77
  -3  -4   7    6.36    1.50
  -2  -4   7   13.05    2.00
  -1  -4   7   16.02    2.15
   0  -4   7   19.24    1.94
   1  -4   7   11.01    2.01
   2  -4   7    0.65    0.79
   3  -4   7    7.71    1.47
   4  -4   7   23.53    2.66
   5  -4   7   14.84    2.04
   6  -4   7   14.40    2.95
   7  -4   7   11.70    2.01
   8  -4   7    1.18    0.90
   9  -4   7   19.41    4.16
  10  -4   7   11.68    2.28
  -7  -3   7   -0.07    0.82
  -6  -3   7    9.47    1.60
  -5  -3   7    6.75    1.35
  -4  -3   7   10.98    1.63
  -3  -3   7   11.42    1.56
  -2  -3   7   22.74    2.14
  -1  -3   7    8.75    1.71
   0  -3   7   35.47    3.56
   1  -3   7    2.81    1.06
   2  -3   7    4.43    1.23
   3  -3   7   40.43    3.24
   4  -3   7   13.59    2.02
   5  -3   7   42.35    3.62
   6  -3   7   11.97    2.80
   7  -3   7    7.09    1.62
   8  -3   7    4.60    1.46
   9  -3   7   17.98    4.06
  10  -3   7    1.15    1.22
  -8  -2   7   11.27    2.20
  -7  -2   7    4.50    1.19
  -6  -2   7    8.05    1.48
  -5  -2   7    7.45    1.37
  -4  -2   7   16.47    1.86
  -3  -2   7   40.71    2.92
  -2  -2   7    0.41    0.73
  -1  -2   7    4.38    1.32
   0  -2   7   58.86    4.19
   1  -2   7    2.41    1.00
   2  -2   7   54.21    3.93
   3  -2   7    2.51    0.94
   4  -2   7    0.36    0.60
   5  -2   7   20.79    2.51
   6  -2   7   14.22    2.12
   7  -2   7    3.09    1.22
   8  -2   7   11.09    2.19
   9  -2   7    4.83    1.69
  10  -2   7   21.37    4.83
  -9  -1   7    7.69    2.65
  -8  -1   7   11.45    1.78
  -7  -1   7   15.24    1.97
  -6  -1   7   12.82    1.72
  -5  -1   7    2.36    0.87
  -4  -1   7   15.55    2.36
  -3  -1   7   13.65    2.22
  -2  -1   7    4.42    1.27
  -1  -1   7    2.86    0.97
   0  -1   7   22.79    2.67
   1  -1   7   23.35    2.62
   2  -1   7    3.67    0.90
   3  -1   7    4.87    1.29
   4  -1   7    5.45    1.25
   5  -1   7   16.95    2.22
   6  -1   7    3.08    1.16
   7  -1   7   11.58    2.15
   8  -1   7    5.92    1.71
   9  -1   7    5.80    1.73
  -9   0   7    0.39    1.04
  -8   0   7    5.98    1.36
  -7   0   7    3.19    0.99
  -6   0   7   19.57    2.73
  -5   0   7    5.11    1.51
  -4   0   7   19.09    2.64
  -3   0   7   34.60    3.51
  -2   0   7   59.17    4.20
  -1   0   7   26.35    2.89
   0   0   7    0.36    0.66
   1   0   7   27.73    2.28
   2   0   7   58.56    4.07
   3   0   7   40.19    3.33
   4   0   7   20.52    2.53
   5   0   7    6.98    1.26
   6   0   7   19.16    2.73
   7   0   7    3.27    1.37
   8   0   7    6.01    1.86
   9   0   7   -0.14    1.05
 -10   1   7    8.36    2.64
  -9   1   7    6.11    1.57
  -8   1   7    7.00    1.76
  -7   1   7   13.46    2.24
  -6   1   7    3.19    1.31
  -5   1   7   14.58    2.32
  -4   1   7    6.07    1.46
  -3   1   7    6.33    1.48
  -2   1   7    3.30    1.15
  -1   1   7   26.20    2.81
   0   1   7   24.43    2.17
   1   1   7    3.28    1.11
   2   1   7    4.00    1.15
   3   1   7   12.45    2.02
   4   1   7   11.70    1.86
   5   1   7    4.44    1.45
   6   1   7   11.15    2.13
   7   1   7   15.93    2.72
   8   1   7   11.23    2.43
   9   1   7   12.41    3.76
 -10   2   7   10.19    3.37
  -9   2   7    7.99    2.75
  -8   2   7   12.05    2.24
  -7   2   7    4.23    1.42
  -6   2   7   15.00    2.36
  -5   2   7   21.16    2.67
  -4   2   7    0.15    0.62
  -3   2   7    5.10    1.34
  -2   2   7   54.99    4.00
  -1   2   7    3.11    0.88
   0   2   7   56.08    3.23
   1   2   7    5.09    1.30
   2   2   7   -0.09    0.67
   3   2   7   42.39    4.06
   4   2   7   17.23    2.01
   5   2   7    5.35    1.55
   6   2   7    6.73    1.84
   7   2   7    2.92    1.42
   8   2   7   12.03    3.60
 -10   3   7    1.87    1.78
  -9   3   7   25.91    3.22
  -8   3   7    2.63    1.24
  -7   3   7    5.78    1.62
  -6   3   7   10.24    2.01
  -5   3   7   43.65    4.20
  -4   3   7   12.21    2.06
  -3   3   7   39.22    3.64
  -2   3   7    5.36    1.07
  -1   3   7    3.99    0.93
   0   3   7   32.21    3.32
   1   3   7    8.93    1.70
   2   3   7   26.62    2.91
   3   3   7   11.68    2.04
   4   3   7   13.42    1.82
   5   3   7    6.56    1.84
   6   3   7    9.63    2.08
   7   3   7    0.08    1.11
 -10   4   7    6.75    2.49
  -9   4   7   26.83    3.31
  -8   4   7   -0.32    0.79
  -7   4   7   12.79    2.18
  -6   4   7   16.94    2.52
  -5   4   7   12.58    2.08
  -4   4   7   20.94    2.10
  -3   4   7    6.02    1.11
  -2   4   7    0.02    0.46
  -1   4   7   14.59    2.21
   0   4   7   21.36    2.67
   1   4   7   17.26    2.41
   2   4   7    9.20    1.95
   3   4   7    5.19    1.14
   4   4   7   -0.15    0.73
   5   4   7   22.77    3.17
   6   4   7   15.65    2.81
 -10   5   7   -0.39    1.34
  -9   5   7   24.83    4.45
  -8   5   7    6.74    1.75
  -7   5   7    9.18    1.89
  -6   5   7    3.84    1.04
  -5   5   7    5.85    1.18
  -4   5   7   17.50    1.97
  -3   5   7   29.45    2.47
  -2   5   7   45.62    3.88
  -1   5   7   12.71    2.17
   0   5   7    6.98    1.65
   1   5   7    4.09    1.39
   2   5   7    5.70    1.66
   3   5   7    6.42    1.40
   4   5   7   23.79    3.17
   5   5   7   -0.35    1.10
 -10   6   7   14.72    3.65
  -9   6   7    9.81    2.09
  -8   6   7    8.79    1.87
  -7   6   7   13.99    2.31
  -6   6   7   21.25    2.22
  -5   6   7    2.12    0.88
  -4   6   7   12.35    1.68
  -3   6   7   12.39    1.64
  -2   6   7   15.40    2.39
  -1   6   7    3.70    1.38
   0   6   7   22.17    3.04
   1   6   7   13.42    2.43
   2   6   7   13.84    1.93
   3   6   7   17.18    2.28
   4   6   7    5.94    1.84
   5   6   7    4.02    2.22
 -10   7   7    2.03    1.73
  -9   7   7    1.16    1.14
  -8   7   7   17.26    2.68
  -7   7   7    3.31    1.34
  -6   7   7   16.85    2.54
  -5   7   7    4.82    1.17
  -4   7   7    6.71    1.33
  -3   7   7   13.69    2.24
  -2   7   7    5.33    1.59
  -1   7   7   13.46    2.36
   0   7   7    2.76    1.30
   1   7   7    8.44    1.61
   2   7   7    5.83    1.48
   3   7   7    1.39    1.04
   4   7   7    4.85    2.31
 -10   8   7   10.37    3.32
  -9   8   7   11.10    2.21
  -8   8   7    7.00    1.79
  -7   8   7    7.68    1.91
  -6   8   7   13.44    2.33
  -5   8   7    5.37    1.66
  -4   8   7    1.13    1.03
  -3   8   7    5.65    1.62
  -2   8   7   10.83    2.09
  -1   8   7   19.19    2.91
   0   8   7    7.60    1.62
   1   8   7    6.29    1.87
   2   8   7   18.31    3.12
  -9   9   7    0.79    1.34
  -8   9   7    7.45    1.95
  -7   9   7    4.69    1.68
  -6   9   7   17.30    2.81
  -5   9   7   23.85    4.85
  -4   9   7   15.23    3.95
  -3   9   7   13.14    2.55
  -2   9   7    3.64    1.60
  -1   9   7   11.14    2.45
   0   9   7   -0.48    1.14
   1   9   7    7.40    3.32
  -9  10   7    6.61    3.05
  -8  10   7   11.95    2.44
  -7  10   7    0.12    1.25
  -6  10   7   10.01    2.12
  -5  10   7    1.70    1.93
  -4  10   7   15.21    4.10
  -3  10   7   -1.80    1.37
  -2  10   7   14.27    2.76
  -1  10   7    6.98    3.10
  -7  11   7    3.03    2.18
   4  -9   8    6.04    2.74
   5  -9   8    6.44    2.99
   0  -8   8   -0.35    1.43
   1  -8   8   26.56    4.94
   2  -8   8    7.63    3.04
   3  -8   8    7.64    2.94
   4  -8   8    2.05    2.13
   5  -8   8    9.57    2.18
  -1  -7   8   32.12    4.70
   0  -7   8    1.57    1.81
   1  -7   8    4.19    2.44
   2  -7   8    2.72    2.02
   3  -7   8    8.76    2.14
   4  -7   8   17.09    2.76
   5  -7   8    0.25    1.32
  -3  -6   8   14.88    3.47
  -2  -6   8    3.68    1.44
  -1  -6   8    6.80    2.63
   0  -6   8    1.35    1.90
   1  -6   8   25.85    3.48
   2  -6   8    9.62    2.22
   3  -6   8   33.09    3.77
   4  -6   8    5.99    1.59
   5  -6   8   11.23    2.98
   6  -6   8    1.57    1.41
   9  -6   8    9.70    3.02
  -4  -5   8    5.39    2.42
  -3  -5   8    4.97    1.92
  -2  -5   8    3.28    1.56
  -1  -5   8   12.08    2.36
   0  -5   8   16.96    2.80
   1  -5   8   19.98    2.89
   2  -5   8   18.76    2.76
   3  -5   8   16.04    2.50
   4  -5   8   24.11    4.40
   5  -5   8   15.92    2.36
   6  -5   8   19.34    3.88
   7  -5   8    2.90    1.31
   8  -5   8    1.22    1.64
   9  -5   8    3.57    1.57
  -4  -4   8    3.14    1.44
  -3  -4   8   15.07    2.62
  -2  -4   8    4.41    1.62
  -1  -4   8   29.36    3.68
   0  -4   8    2.08    1.21
   1  -4   8    6.31    1.55
   2  -4   8   23.95    3.02
   3  -4   8    6.99    2.37
   4  -4   8    5.31    1.43
   5  -4   8   15.97    2.38
   6  -4   8    2.73    1.73
   7  -4   8    7.06    1.68
   8  -4   8    2.42    1.78
   9  -4   8    3.55    2.54
  -5  -3   8    6.71    1.92
  -4  -3   8   10.03    2.22
  -3  -3   8   31.17    3.77
  -2  -3   8   12.84    2.49
  -1  -3   8    9.07    1.94
   0  -3   8    9.36    1.93
   1  -3   8   12.97    2.24
   2  -3   8   16.99    2.48
   3  -3   8    8.00    1.72
   4  -3   8    4.77    1.40
   5  -3   8   21.09    2.68
   6  -3   8   24.48    3.04
   7  -3   8   14.80    2.46
   8  -3   8    8.88    2.03
  -6  -2   8    7.52    2.12
  -5  -2   8    1.84    1.26
  -4  -2   8    5.69    1.73
  -3  -2   8   20.51    2.92
  -2  -2   8   23.31    3.10
  -1  -2   8   19.00    2.74
   0  -2   8   -0.40    0.73
   1  -2   8   15.64    2.35
   2  -2   8    0.36    1.16
   3  -2   8   14.06    2.22
   4  -2   8   22.78    2.84
   5  -2   8   13.50    3.24
   6  -2   8    4.76    1.49
   7  -2   8    1.26    1.15
   8  -2   8    3.49    1.56
  -7  -1   8   20.99    4.70
  -6  -1   8    1.82    1.28
  -5  -1   8   20.57    3.16
  -4  -1   8   16.07    2.63
  -3  -1   8    7.64    1.76
  -2  -1   8   14.16    2.41
  -1  -1   8   15.90    2.43
   0  -1   8    5.90    1.46
   1  -1   8    5.96    1.49
   2  -1   8   13.88    2.16
   3  -1   8   16.98    2.41
   4  -1   8    9.36    1.86
   5  -1   8   26.24    4.35
   6  -1   8    8.13    1.99
   7  -1   8    7.68    2.00
   8  -1   8   19.83    4.13
  -8   0   8    0.46    1.72
  -7   0   8    3.45    1.57
  -6   0   8    1.15    1.24
  -5   0   8   18.21    2.74
  -4   0   8    4.85    1.64
  -3   0   8   13.44    2.31
  -2   0   8    0.22    0.83
  -1   0   8    7.22    1.69
   0   0   8  111.81    6.45
   1   0   8    7.16    1.64
   2   0   8    0.91    0.89
   3   0   8   11.75    2.00
   4   0   8    3.87    1.28
   5   0   8   15.50    2.51
   6   0   8    0.84    1.14
   7   0   8    3.24    1.53
  -8   1   8   20.73    4.45
  -7   1   8    7.25    1.92
  -6   1   8   10.19    2.10
  -5   1   8   24.45    3.25
  -4   1   8    8.63    1.90
  -3   1   8   20.52    2.78
  -2   1   8   18.20    2.63
  -1   1   8    5.80    1.18
   0   1   8    5.68    1.48
   1   1   8   12.23    2.11
   2   1   8   12.32    2.03
   3   1   8    6.77    1.59
   4   1   8   19.86    2.71
   5   1   8   15.04    2.66
   6   1   8    2.91    1.40
   7   1   8   25.03    5.02
  -8   2   8    7.18    1.94
  -7   2   8    4.50    1.65
  -6   2   8    5.85    1.69
  -5   2   8   15.92    2.54
  -4   2   8   23.78    3.06
  -3   2   8   10.34    2.00
  -2   2   8   -0.18    0.64
  -1   2   8   14.97    1.88
   0   2   8    0.76    0.84
   1   2   8   18.09    2.60
   2   2   8   20.18    2.72
   3   2   8   22.06    2.87
   4   2   8    7.14    1.39
   5   2   8    7.40    1.86
   6   2   8    5.68    1.86
  -8   3   8    8.85    2.13
  -7   3   8   16.05    2.77
  -6   3   8   33.50    3.80
  -5   3   8   18.76    2.87
  -4   3   8    3.63    1.47
  -3   3   8   11.08    1.71
  -2   3   8   17.47    2.11
  -1   3   8   11.18    2.05
   0   3   8   11.41    2.17
   1   3   8    8.37    1.80
   2   3   8   16.84    2.58
   3   3   8   28.10    3.54
   4   3   8    8.48    1.97
   5   3   8    2.49    1.48
  -9   4   8    7.51    2.89
  -8   4   8    2.05    1.27
  -7   4   8    8.72    2.02
  -6   4   8    7.20    1.76
  -5   4   8   22.56    2.31
  -4   4   8    3.62    1.02
  -3   4   8    6.17    1.31
  -2   4   8   22.13    2.92
  -1   4   8    6.09    1.63
   0   4   8    5.58    1.57
   1   4   8   20.08    2.94
   2   4   8    6.37    1.79
   3   4   8   15.07    2.10
   4   4   8    2.00    1.30
  -9   5   8    2.89    2.26
  -8   5   8    4.74    1.69
  -7   5   8    4.17    1.57
  -6   5   8   21.87    2.40
  -5   5   8   17.00    2.09
  -4   5   8   25.10    2.59
  -3   5   8   14.53    2.37
  -2   5   8   24.17    3.11
  -1   5   8   18.74    2.76
   0   5   8   19.54    2.83
   1   5   8   15.50    2.66
   2   5   8    1.72    1.34
   3   5   8    7.80    1.61
  -9   6   8   11.30    3.47
  -8   6   8    4.78    1.71
  -7   6   8    3.48    1.54
  -6   6   8    1.19    1.12
  -5   6   8   12.14    1.79
  -4   6   8    5.39    1.25
  -3   6   8   29.06    3.47
  -2   6   8    9.15    1.98
  -1   6   8   22.53    3.26
   0   6   8    1.67    1.35
   1   6   8    7.42    2.01
   2   6   8    6.87    1.51
   3   6   8   14.70    4.37
  -8   7   8   26.31    3.58
  -7   7   8    3.28    1.48
  -6   7   8   10.43    2.25
  -5   7   8    2.92    1.14
  -4   7   8   13.60    2.50
  -3   7   8   11.50    2.23
  -2   7   8    4.68    1.67
  -1   7   8    3.95    1.58
   0   7   8    3.85    1.53
   1   7   8   20.95    3.08
  -7   8   8   20.70    3.12
  -6   8   8    4.22    1.76
  -5   8   8    5.13    2.90
  -4   8   8    3.59    1.64
  -3   8   8    6.60    1.83
  -2   8   8    6.97    1.97
  -1   8   8   25.34    4.91
  -3   9   8   11.63    3.37
   2  -6   9   -0.66    1.87
   4  -6   9    2.89    1.99
   0  -5   9   14.97    4.00
   1  -5   9    4.71    1.75
   2  -5   9    1.53    1.32
   3  -5   9    1.10    1.62
   4  -5   9    7.06    1.81
   5  -5   9   15.01    3.68
  -1  -4   9   10.72    3.49
   0  -4   9    0.46    0.99
   1  -4   9    2.14    1.34
   2  -4   9    0.90    1.53
   3  -4   9    0.07    0.95
   4  -4   9   -0.38    0.92
   5  -4   9    3.70    1.82
   6  -4   9    1.60    1.25
  -2  -3   9    1.04    1.30
  -1  -3   9    1.62    1.28
   0  -3   9    5.47    1.82
   1  -3   9   17.01    2.77
   2  -3   9    8.67    3.04
   3  -3   9    6.52    1.61
   4  -3   9    3.44    1.34
   5  -3   9    1.77    1.69
   6  -3   9    6.77    2.43
  -3  -2   9    1.97    1.51
  -2  -2   9    0.64    1.13
  -1  -2   9   21.11    3.10
   0  -2   9   13.36    2.50
   1  -2   9    4.07    2.07
   2  -2   9   13.75    2.43
   3  -2   9   19.67    2.67
   4  -2   9    1.40    1.16
   5  -2   9    2.34    1.81
  -4  -1   9    4.83    1.76
  -3  -1   9    3.42    1.48
  -2  -1   9   19.21    2.89
  -1  -1   9    1.72    1.27
   0  -1   9    1.97    1.86
   1  -1   9    3.13    1.27
   2  -1   9    3.28    1.36
   3  -1   9   14.33    2.39
   4  -1   9    1.28    1.09
   5  -1   9    7.13    2.60
  -4   0   9   -0.14    1.07
  -3   0   9    5.49    1.81
  -2   0   9   14.61    2.58
  -1   0   9    2.10    1.29
   0   0   9    0.01    0.87
   1   0   9    3.03    1.27
   2   0   9   18.01    2.78
   3   0   9    6.14    1.78
   4   0   9   -0.41    0.94
  -5   1   9   10.11    2.26
  -4   1   9    0.51    1.06
  -3   1   9   17.53    2.87
  -2   1   9    3.09    1.13
  -1   1   9    2.36    1.31
   0   1   9    3.29    1.42
   1   1   9    3.99    1.45
   2   1   9   16.29    2.62
   3   1   9    2.32    1.41
   4   1   9    2.03    1.99
  -5   2   9    0.70    1.26
  -4   2   9    2.79    1.42
  -3   2   9   18.17    2.26
  -2   2   9   13.25    2.41
  -1   2   9    3.37    1.29
   0   2   9   11.52    2.24
   1   2   9   16.83    2.70
   2   2   9    1.96    1.27
   3   2   9    1.72    1.30
  -5   3   9    2.41    1.14
  -4   3   9    3.01    1.16
  -3   3   9    4.46    1.23
  -2   3   9   17.95    2.82
  -1   3   9   20.95    3.03
   0   3   9    6.37    1.77
   1   3   9    0.13    1.05
   2   3   9    0.18    1.15
   3   3   9    2.89    2.06
  -6   4   9    2.09    1.94
  -5   4   9    4.57    1.32
  -4   4   9    0.49    0.96
  -3   4   9    2.08    1.32
  -2   4   9    1.83    1.25
  -1   4   9    2.52    1.29
   0   4   9    0.55    1.13
   1   4   9   15.68    3.88
   2   4   9    0.62    2.09
  -5   5   9   14.42    2.49
  -4   5   9    9.96    3.06
  -3   5   9    1.32    1.23
  -2   5   9    2.54    1.41
  -1   5   9    3.66    1.58
  -4   6   9    2.10    1.97
  -3   6   9    2.63    1.88
   0   0   0    0.00    0.00
;
_shelx_hkl_checksum              87846
loop_
_space_group_symop_operation_xyz
'x, y, z'
'-y, x-y, z'
'-x+y, -x, z'
'-x, -y, z+1/2'
'y, -x+y, z+1/2'
'x-y, x, z+1/2'
loop_
_atom_site_label
_atom_site_type_symbol
_atom_site_fract_x
_atom_site_fract_y
_atom_site_fract_z
_atom_site_U_iso_or_equiv
_atom_site_adp_type
_atom_site_occupancy
_atom_site_site_symmetry_order
_atom_site_calc_flag
_atom_site_refinement_flags_posn
_atom_site_refinement_flags_adp
_atom_site_refinement_flags_occupancy
_atom_site_disorder_assembly
_atom_site_disorder_group
Pr Pr 0.15099(8) 0.37306(7) 0.07258(14) 0.01943(16) Uani 1 1 d . . . . .
Cu1A Cu 0.0000 0.0000 0.0000(12) 0.0225(12) Uani 0.647(12) 3 d S T P . .
Cu1B Cu 0.0000 0.0000 -0.101(2) 0.0225(12) Uani 0.353(12) 3 d S T P . .
Ga Ga 0.3333 0.6667 0.6575(4) 0.0152(4) Uani 1 3 d S T P . .
Se1 Se 0.25625(14) 0.14969(15) 0.0259(2) 0.0172(3) Uani 1 1 d . . . . .
Se2 Se 0.52113(13) 0.08947(13) 0.3063(2) 0.0150(2) Uani 1 1 d . . . . .
Se3 Se 0.3333 0.6667 0.2851(3) 0.0136(4) Uani 1 3 d S T P . .
loop_
_atom_site_aniso_label
_atom_site_aniso_U_11
_atom_site_aniso_U_22
_atom_site_aniso_U_33
_atom_site_aniso_U_23
_atom_site_aniso_U_13
_atom_site_aniso_U_12
Pr 0.0177(3) 0.0136(3) 0.0272(3) 0.0030(3) 0.0029(3) 0.0080(2)
Cu1A 0.0110(8) 0.0110(8) 0.045(4) 0.000 0.000 0.0055(4)
Cu1B 0.0110(8) 0.0110(8) 0.045(4) 0.000 0.000 0.0055(4)
Ga 0.0171(7) 0.0171(7) 0.0113(9) 0.000 0.000 0.0086(3)
Se1 0.0151(5) 0.0132(5) 0.0245(6) 0.0051(4) 0.0035(4) 0.0081(4)
Se2 0.0139(5) 0.0138(5) 0.0139(5) 0.0007(5) -0.0009(5) 0.0043(4)
Se3 0.0150(6) 0.0150(6) 0.0108(8) 0.000 0.000 0.0075(3)
loop_
_atom_type_symbol
_atom_type_description
_atom_type_scat_dispersion_real
_atom_type_scat_dispersion_imag
_atom_type_scat_source
Cu Cu 0.3201 1.2651 'International Tables Vol C Tables 4.2.6.8 and 6.1.1.4'
Ga Ga 0.2307 1.6083 'International Tables Vol C Tables 4.2.6.8 and 6.1.1.4'
Se Se -0.0929 2.2259 'International Tables Vol C Tables 4.2.6.8 and 6.1.1.4'
Pr Pr -0.2180 2.8214 'International Tables Vol C Tables 4.2.6.8 and 6.1.1.4'
loop_
_geom_angle_atom_site_label_1
_geom_angle_atom_site_label_2
_geom_angle_atom_site_label_3
_geom_angle
_geom_angle_site_symmetry_1
_geom_angle_site_symmetry_3
Se2 Pr Se1 95.46(4) 5_564 2
Se2 Pr Se3 78.58(4) 5_564 .
Se1 Pr Se3 145.98(4) 2 .
Se2 Pr Se1 139.07(5) 5_564 .
Se1 Pr Se1 83.73(5) 2 .
Se3 Pr Se1 122.52(4) . .
Se2 Pr Se2 79.35(5) 5_564 6_554
Se1 Pr Se2 135.22(5) 2 6_554
Se3 Pr Se2 77.12(4) . 6_554
Se1 Pr Se2 73.23(4) . 6_554
Se2 Pr Se1 140.31(4) 5_564 6
Se1 Pr Se1 81.11(4) 2 6
Se3 Pr Se1 82.68(5) . 6
Se1 Pr Se1 80.21(4) . 6
Se2 Pr Se1 129.71(4) 6_554 6
Se2 Pr Se2 71.25(2) 5_564 2
Se1 Pr Se2 70.66(4) 2 2
Se3 Pr Se2 75.76(3) . 2
Se1 Pr Se2 143.24(4) . 2
Se2 Pr Se2 143.18(4) 6_554 2
Se1 Pr Se2 70.35(4) 6 2
Se2 Pr Cu1A 124.76(11) 5_564 .
Se1 Pr Cu1A 41.98(3) 2 .
Se3 Pr Cu1A 156.63(12) . .
Se1 Pr Cu1A 41.75(3) . .
Se2 Pr Cu1A 106.24(9) 6_554 .
Se1 Pr Cu1A 77.58(13) 6 .
Se2 Pr Cu1A 108.57(6) 2 .
Se2 Pr Cu1B 116.35(19) 5_564 .
Se1 Pr Cu1B 43.00(5) 2 .
Se3 Pr Cu1B 164.19(14) . .
Se1 Pr Cu1B 42.82(5) . .
Se2 Pr Cu1B 99.68(15) 6_554 .
Se1 Pr Cu1B 87.8(2) 6 .
Se2 Pr Cu1B 112.88(9) 2 .
Cu1A Pr Cu1B 10.27(17) . .
Cu1B Cu1A Se1 94.07(19) . .
Cu1B Cu1A Se1 94.07(19) . 3
Se1 Cu1A Se1 119.50(5) . 3
Cu1B Cu1A Se1 94.07(19) . 2
Se1 Cu1A Se1 119.50(5) . 2
Se1 Cu1A Se1 119.50(5) 3 2
Cu1B Cu1A Cu1B 180.0 . 4
Se1 Cu1A Cu1B 85.93(19) . 4
Se1 Cu1A Cu1B 85.93(19) 3 4
Se1 Cu1A Cu1B 85.93(19) 2 4
Cu1B Cu1A Pr 97.78(13) . 2
Se1 Cu1A Pr 168.1(3) . 2
Se1 Cu1A Pr 59.03(4) 3 2
Se1 Cu1A Pr 60.47(4) 2 2
Cu1B Cu1A Pr 82.22(13) 4 2
Cu1B Cu1A Pr 97.78(13) . 3
Se1 Cu1A Pr 59.03(4) . 3
Se1 Cu1A Pr 60.47(4) 3 3
Se1 Cu1A Pr 168.1(3) 2 3
Cu1B Cu1A Pr 82.22(13) 4 3
Pr Cu1A Pr 118.20(6) 2 3
Cu1B Cu1A Pr 97.78(13) . .
Se1 Cu1A Pr 60.47(4) . .
Se1 Cu1A Pr 168.1(3) 3 .
Se1 Cu1A Pr 59.03(4) 2 .
Cu1B Cu1A Pr 82.22(13) 4 .
Pr Cu1A Pr 118.20(6) 2 .
Pr Cu1A Pr 118.20(6) 3 .
Cu1A Cu1B Se1 70.9(3) . .
Cu1A Cu1B Se1 70.9(3) . 3
Se1 Cu1B Se1 109.8(3) . 3
Cu1A Cu1B Se1 70.9(3) . 2
Se1 Cu1B Se1 109.8(3) . 2
Se1 Cu1B Se1 109.8(3) 3 2
Cu1A Cu1B Cu1A 180.0 . 4_554
Se1 Cu1B Cu1A 109.1(3) . 4_554
Se1 Cu1B Cu1A 109.1(3) 3 4_554
Se1 Cu1B Cu1A 109.1(3) 2 4_554
Cu1A Cu1B Pr 72.0(2) . 2
Se1 Cu1B Pr 142.8(6) . 2
Se1 Cu1B Pr 55.91(10) 3 2
Se1 Cu1B Pr 57.26(11) 2 2
Cu1A Cu1B Pr 108.0(2) 4_554 2
Cu1A Cu1B Pr 72.0(2) . 3
Se1 Cu1B Pr 55.91(10) . 3
Se1 Cu1B Pr 57.26(11) 3 3
Se1 Cu1B Pr 142.8(6) 2 3
Cu1A Cu1B Pr 108.0(2) 4_554 3
Pr Cu1B Pr 110.9(2) 2 3
Cu1A Cu1B Pr 72.0(2) . .
Se1 Cu1B Pr 57.26(11) . .
Se1 Cu1B Pr 142.8(6) 3 .
Se1 Cu1B Pr 55.91(10) 2 .
Cu1A Cu1B Pr 108.0(2) 4_554 .
Pr Cu1B Pr 110.9(2) 2 .
Pr Cu1B Pr 110.9(2) 3 .
Se3 Ga Se2 113.20(6) . 4_665
Se3 Ga Se2 113.20(6) . 5_565
Se2 Ga Se2 105.50(7) 4_665 5_565
Se3 Ga Se2 113.20(6) . 6
Se2 Ga Se2 105.50(7) 4_665 6
Se2 Ga Se2 105.50(7) 5_565 6
Cu1A Se1 Cu1B 15.1(3) . .
Cu1A Se1 Pr 78.99(5) . 3
Cu1B Se1 Pr 81.09(7) . 3
Cu1A Se1 Pr 77.78(4) . .
Cu1B Se1 Pr 79.92(7) . .
Pr Se1 Pr 153.28(5) 3 .
Cu1A Se1 Pr 106.13(19) . 5_554
Cu1B Se1 Pr 91.1(3) . 5_554
Pr Se1 Pr 100.12(4) 3 5_554
Pr Se1 Pr 98.85(4) . 5_554
Ga Se2 Pr 88.47(5) 4_664 6_655
Ga Se2 Pr 86.31(5) 4_664 5
Pr Se2 Pr 100.97(5) 6_655 5
Ga Se2 Pr 119.44(6) 4_664 3
Pr Se2 Pr 148.44(4) 6_655 3
Pr Se2 Pr 95.62(4) 5 3
Ga Se3 Pr 116.86(4) . .
Ga Se3 Pr 116.86(4) . 3_565
Pr Se3 Pr 101.18(5) . 3_565
Ga Se3 Pr 116.86(4) . 2_665
Pr Se3 Pr 101.18(5) . 2_665
Pr Se3 Pr 101.18(5) 3_565 2_665
loop_
_geom_bond_atom_site_label_1
_geom_bond_atom_site_label_2
_geom_bond_distance
_geom_bond_site_symmetry_2
Pr Se2 2.9554(14) 5_564
Pr Se1 2.9854(14) 2
Pr Se3 2.9981(13) .
Pr Se1 3.0427(14) .
Pr Se2 3.0496(15) 6_554
Pr Se1 3.0793(16) 6
Pr Se2 3.2245(14) 2
Pr Cu1A 3.4176(13) .
Pr Cu1B 3.561(5) .
Cu1A Cu1B 0.641(11) .
Cu1A Se1 2.3287(14) .
Cu1A Se1 2.3287(14) 3
Cu1A Se1 2.3287(14) 2
Cu1A Cu1B 2.546(12) 4
Cu1A Pr 3.4176(13) 2
Cu1A Pr 3.4176(13) 3
Cu1B Se1 2.459(5) .
Cu1B Se1 2.459(5) 3
Cu1B Se1 2.459(5) 2
Cu1B Cu1A 2.546(12) 4_554
Cu1B Pr 3.561(5) 2
Cu1B Pr 3.561(5) 3
Ga Se3 2.374(3) .
Ga Se2 2.4086(16) 4_665
Ga Se2 2.4086(16) 5_565
Ga Se2 2.4086(16) 6
Se1 Pr 2.9854(14) 3
Se1 Pr 3.0793(16) 5_554
Se2 Ga 2.4086(16) 4_664
Se2 Pr 2.9554(14) 6_655
Se2 Pr 3.0496(15) 5
Se2 Pr 3.2245(14) 3
Se3 Pr 2.9982(13) 3_565
Se3 Pr 2.9982(13) 2_665
