#------------------------------------------------------------------------------
#$Date: 2021-03-17 11:35:53 +0200 (Wed, 17 Mar 2021) $
#$Revision: 263083 $
#$URL: file:///home/coder/svn-repositories/cod/cif/1/56/10/1561066.cif $
#------------------------------------------------------------------------------
#
# This file is available in the Crystallography Open Database (COD),
# http://www.crystallography.net/
#
# All data on this site have been placed in the public domain by the
# contributors.
#
data_1561066
loop_
_publ_author_name
'Dolyniuk, Juli-Anna'
'Lee, Shannon'
'Tran, Nhon'
'Wang, Jian'
'Wang, Lin-Lin'
'Kovnir, Kirill'
_publ_section_title
;
 Eu2P7X and Ba2As7X (X&#x202F;=&#x202F;Br, I): Chiral double-Zintl salts
 containing heptapnictotricyclane clusters
;
_journal_name_full               'Journal of Solid State Chemistry'
_journal_page_first              195
_journal_page_last               202
_journal_paper_doi               10.1016/j.jssc.2018.04.026
_journal_volume                  263
_journal_year                    2018
_chemical_formula_sum            'Eu2 I P7'
_chemical_formula_weight         647.61
_space_group_crystal_system      cubic
_space_group_IT_number           198
_space_group_name_Hall           'P 2ac 2ab 3'
_space_group_name_H-M_alt        'P 21 3'
_atom_sites_solution_hydrogens   .
_cell_angle_alpha                90
_cell_angle_beta                 90
_cell_angle_gamma                90
_cell_formula_units_Z            4
_cell_length_a                   9.8268(7)
_cell_length_b                   9.8268(7)
_cell_length_c                   9.8268(7)
_cell_measurement_reflns_used    4265
_cell_measurement_temperature    90(2)
_cell_measurement_theta_max      26.57
_cell_measurement_theta_min      2.93
_cell_volume                     948.93(12)
_computing_structure_refinement  'SHELXL-2016/6 (Sheldrick, 2016)'
_diffrn_ambient_temperature      90(2)
_diffrn_measured_fraction_theta_full 0.956
_diffrn_measured_fraction_theta_max 0.889
_diffrn_measurement_device_type  'Bruker APEX II CCD area-detector'
_diffrn_measurement_method       'profile data from \w scans'
_diffrn_radiation_type           MoK\a
_diffrn_radiation_wavelength     0.71073
_diffrn_reflns_av_R_equivalents  0.0558
_diffrn_reflns_av_unetI/netI     0.0458
_diffrn_reflns_Laue_measured_fraction_full 0.956
_diffrn_reflns_Laue_measured_fraction_max 0.889
_diffrn_reflns_limit_h_max       12
_diffrn_reflns_limit_h_min       -12
_diffrn_reflns_limit_k_max       11
_diffrn_reflns_limit_k_min       -11
_diffrn_reflns_limit_l_max       12
_diffrn_reflns_limit_l_min       -12
_diffrn_reflns_number            4265
_diffrn_reflns_point_group_measured_fraction_full 0.928
_diffrn_reflns_point_group_measured_fraction_max 0.842
_diffrn_reflns_theta_full        25.242
_diffrn_reflns_theta_max         26.571
_diffrn_reflns_theta_min         2.931
_diffrn_source                   'fine-focus sealed tube'
_exptl_absorpt_coefficient_mu    17.451
_exptl_absorpt_correction_T_max  0.67
_exptl_absorpt_correction_T_min  0.44
_exptl_absorpt_correction_type   multi-scan
_exptl_absorpt_process_details   'SADABS v2.03 (Bruker, 2003)'
_exptl_crystal_colour            rark-red
_exptl_crystal_density_diffrn    4.533
_exptl_crystal_description       block
_exptl_crystal_F_000             1136
_exptl_crystal_size_max          0.050
_exptl_crystal_size_mid          0.040
_exptl_crystal_size_min          0.030
_refine_diff_density_max         1.139
_refine_diff_density_min         -1.120
_refine_diff_density_rms         0.275
_refine_ls_abs_structure_details
;
 Flack x determined using 181 quotients [(I+)-(I-)]/[(I+)+(I-)]
 (Parsons, Flack and Wagner, Acta Cryst. B69 (2013) 249-259).
;
_refine_ls_abs_structure_Flack   0.03(2)
_refine_ls_extinction_coef       .
_refine_ls_extinction_method     none
_refine_ls_goodness_of_fit_ref   1.065
_refine_ls_hydrogen_treatment    undef
_refine_ls_matrix_type           full
_refine_ls_number_parameters     31
_refine_ls_number_reflns         571
_refine_ls_number_restraints     0
_refine_ls_restrained_S_all      1.065
_refine_ls_R_factor_all          0.0399
_refine_ls_R_factor_gt           0.0250
_refine_ls_shift/su_max          0.000
_refine_ls_shift/su_mean         0.000
_refine_ls_structure_factor_coef Fsqd
_refine_ls_weighting_details     'w=1/[\s^2^(Fo^2^)] where P=(Fo^2^+2Fc^2^)/3'
_refine_ls_weighting_scheme      calc
_refine_ls_wR_factor_gt          0.0286
_refine_ls_wR_factor_ref         0.0308
_reflns_Friedel_coverage         0.618
_reflns_Friedel_fraction_full    0.888
_reflns_Friedel_fraction_max     0.776
_reflns_number_gt                499
_reflns_number_total             571
_reflns_threshold_expression     'I > 2\s(I)'
_cod_data_source_file            JSSC-2018-263-195.cif
_cod_data_source_block           3
_cod_original_cell_volume        948.9(2)
_cod_database_code               1561066
_shelx_space_group_comment
;
The symmetry employed for this shelxl refinement is uniquely defined
by the following loop, which should always be used as a source of
symmetry information in preference to the above space-group names.
They are only intended as comments.
;
_shelx_estimated_absorpt_t_min   0.476
_shelx_estimated_absorpt_t_max   0.623
_shelx_res_file
;
TITL JD_879_Eu2P7I_multiint in P2(1)3
    shelx.res
    created by SHELXL-2016/6 at 12:44:53 on 23-Jan-2018
CELL 0.71073   9.82680   9.82680   9.82680  90.0000  90.0000  90.0000
ZERR    4.00   0.00070   0.00070   0.00070   0.0000   0.0000   0.0000
LATT -1
SYMM 0.5-X, -Y, 0.5+Z
SYMM -X, 0.5+Y, 0.5-Z
SYMM 0.5+X, 0.5-Y, -Z
SYMM Z, X, Y
SYMM 0.5+Z, 0.5-X, -Y
SYMM 0.5-Z, -X, 0.5+Y
SYMM -Z, 0.5+X, 0.5-Y
SYMM Y, Z, X
SYMM -Y, 0.5+Z, 0.5-X
SYMM 0.5+Y, 0.5-Z, -X
SYMM 0.5-Y, -Z, 0.5+X
SFAC P I EU
UNIT 28 4 8
TEMP -183.160
size 0.05 0.04 0.03
L.S. 24
BOND
FMAP 2
PLAN -20
acta

WGHT    0.000000
FVAR       0.07260
I1    2    0.598321    0.598321    0.598321    10.33333    0.00745    0.00745 =
         0.00745   -0.00132   -0.00132   -0.00132
EU1   3    0.403812    0.403812    0.403812    10.33333    0.00584    0.00584 =
         0.00584    0.00004    0.00004    0.00004
EU2   3    0.151243    0.151243    0.151243    10.33333    0.00793    0.00793 =
         0.00793   -0.00133   -0.00133   -0.00133
P1    1    0.938274    0.393373    0.716019    11.00000    0.00605    0.00687 =
         0.00738    0.00183   -0.00044    0.00136
P2    1    0.891947    0.777358    0.703977    11.00000    0.00602    0.00640 =
         0.00631    0.00073    0.00009    0.00104
P3    1    0.970559    0.970559    0.970559    10.33333    0.00616    0.00616 =
         0.00616   -0.00143   -0.00143   -0.00143
HKLF 4




REM  JD_879_Eu2P7I_multiint in P2(1)3
REM R1 =  0.0250 for     499 Fo > 4sig(Fo)  and  0.0399 for all     571 data
REM     31 parameters refined using      0 restraints

END

WGHT      0.0000      0.0000

REM Highest difference peak  1.139,  deepest hole -1.120,  1-sigma level  0.275
Q1    1   0.1134  0.4051  0.5044  11.00000  0.05    1.14
Q2    1  -0.0372  0.1016  0.2084  11.00000  0.05    1.06
Q3    1   0.4571  0.3012  0.3587  11.00000  0.05    1.05
Q4    1   0.4767  0.3998  0.3013  11.00000  0.05    1.00
Q5    1   0.3978  0.3441  0.2804  11.00000  0.05    0.99
Q6    1   0.6282  0.5815  0.7436  11.00000  0.05    0.96
Q7    1   0.7130  0.3615  0.5517  11.00000  0.05    0.96
Q8    1   0.2217  0.4013  0.1598  11.00000  0.05    0.95
Q9    1   0.3519  0.4631  0.1493  11.00000  0.05    0.94
Q10   1   0.0401  0.0650 -0.0464  11.00000  0.05    0.92
Q11   1   0.4612  0.6301  0.3462  11.00000  0.05    0.90
Q12   1   0.1158  0.3970  0.3987  11.00000  0.05    0.87
Q13   1   0.3786  0.6214  0.1214  10.33333  0.05    0.86
Q14   1   0.4645  0.6398  0.2489  11.00000  0.05    0.85
Q15   1   0.4618  0.5842  0.1600  11.00000  0.05    0.85
Q16   1   0.3037  0.2875  0.5501  11.00000  0.05    0.84
Q17   1   0.4534  0.4395  0.2071  11.00000  0.05    0.82
Q18   1   0.4682  0.7206  0.4116  11.00000  0.05    0.81
Q19   1   0.2018  0.4566  0.3462  11.00000  0.05    0.80
Q20   1   0.3721  0.2214  0.3115  11.00000  0.05    0.80
;
_shelx_res_checksum              78624
_shelx_hkl_file
;
  -1  -1   0    1.10    0.43
  -1   0   1    0.60    0.39
  -1   1   0    0.84    0.32
   0  -1  -1    0.66    0.33
   0  -1   1    0.94    0.44
   0   1   1    1.06    0.39
   1  -1   0    1.22    0.36
   1   0  -1    1.08    0.46
  -1   1   1  105.85    3.72
  -1  -1   1  106.33    3.89
   1  -1  -1   92.93    3.68
  -2   0   0    8.43    1.16
   0  -2   0    6.00    0.45
   0   0  -2    6.89    1.22
   0   2   0    6.66    0.47
   2   0   0    7.52    1.16
   1   0  -2    2.18    0.71
   2  -1   0    1.46    0.64
   2   1   0    2.59    0.77
   0   2  -1    2.65    0.65
   0   2   1    2.85    0.52
   0  -2  -1    3.20    0.54
   0  -2   1    2.35    0.60
  -1   0   2    2.18    0.72
  -1   0  -2    2.81    0.98
  -2   1   0    2.53    0.69
  -2  -1   0    1.96    0.71
   2   0   1   41.99    2.40
   2   0  -1   40.67    2.32
   1   2   0   43.50    1.93
   1  -2   0   40.43    1.74
   0   1   2   43.53    2.34
   0  -1   2   45.26    2.46
   0   1  -2   42.97    2.45
  -1   2   0   44.31    1.76
   0  -1  -2   41.32    2.30
  -2   0  -1   44.11    2.43
  -2   0   1   40.79    2.27
  -1  -2   0   44.37    1.96
  -2  -1  -1  372.83   11.72
   2   1  -1  341.36   11.58
   1   2  -1  353.02   11.30
  -2   1   1  335.37   11.35
   1   1  -2  340.74   11.64
  -1  -1  -2  357.21   11.69
   1  -1   2  370.74   11.83
  -1   2   1  323.12   10.86
  -1   1   2  328.26   11.43
   2  -1   1  356.75   11.64
   1  -2   1  361.11   11.28
   1  -2  -1  305.08   10.86
  -1   1  -2  353.73   11.75
   1  -1  -2  314.78   11.39
  -1  -1   2  337.22   11.61
  -1  -2   1  336.32   11.24
   1   1   2  349.04   11.68
  -2   1  -1  361.96   11.67
   1   2   1  359.30   11.17
   2  -1  -1  320.37   11.37
  -1   2  -1  360.80   11.25
  -2  -1   1  349.37   11.56
   2   1   1  357.30   11.67
  -2  -2   0   50.27    2.64
  -2   0   2   53.46    2.88
  -2   2   0   50.35    2.45
   0  -2  -2   49.63    2.52
   0  -2   2   47.00    2.69
   0   2   2   49.30    2.53
   2  -2   0   50.64    2.48
   2   0  -2   49.99    2.90
  -2  -2  -1   48.74    2.66
   2  -1   2   53.88    3.11
  -2   1   2   45.98    2.65
  -2   2   1   45.90    2.34
  -1  -2  -2   52.81    2.72
  -1   2   2   46.61    2.42
   2  -2   1   50.20    2.64
   1  -2   2   48.42    2.80
   2   1  -2   49.50    2.93
   1   2   2   52.20    2.71
   1  -2  -2   44.77    2.40
   2  -1  -2   43.26    2.69
  -2  -1   2   48.25    2.83
   2  -2  -1   47.41    2.42
   2   1   2   45.83    2.85
   2   1   2   48.17    2.90
   2   2  -2  242.17    8.79
  -2   2   2  223.38    8.29
   2  -2  -2  222.03    8.37
  -2  -2   2  250.68    8.79
   2   2   2  238.02    8.74
  -3   0   0    0.28    0.75
   0   0  -3    0.41    0.95
   0   0   3   -0.60    0.76
   3   0   0   -0.93    0.82
   0   3   1    9.22    0.75
   1   0  -3   10.46    1.68
   3  -1   0   10.16    1.59
   3   1   0    7.59    1.58
   0  -3   1    7.23    1.01
   0   3  -1    8.99    1.12
   0   3   1    8.50    0.68
  -3   1   0    8.55    1.45
  -1   0  -3    7.98    1.77
   2   0  -3  361.94   13.35
   2   0   3  388.51   13.70
   0   3  -2  395.87   12.97
   0   3   2  366.90   12.44
   3  -2   0  385.55   13.04
  -3  -2   0  412.68   13.33
  -3   2   0  402.18   13.10
  -2   0  -3  374.93   13.55
  -2   0   3  387.04   13.44
   0  -3  -2  374.69   12.44
   0  -3   2  375.90   12.80
   3   2   0  375.87   13.18
  -3   0  -1  179.92    7.03
   0  -1  -3  168.04    6.86
   0  -1   3  184.72    7.15
   0   1   3  179.60    7.04
  -3   0   1  173.37    6.83
   1  -3   0  166.11    5.69
   1  -3   0  187.95    5.79
   1   3   0  175.15    6.02
   3   0  -1  166.59    6.86
   3   0   1  188.34    7.16
  -1  -3   0  181.08    6.06
   3   1  -1   41.75    2.78
  -1   3   1   36.36    1.68
  -3   1   1   37.48    2.51
   1   1  -3   39.80    2.84
  -1  -1  -3   45.01    2.89
  -3  -1  -1   38.48    2.70
   1  -1   3   42.59    2.96
   1   3  -1   38.35    2.21
  -1   1   3   39.83    2.70
   1  -3   1   40.03    2.17
   3  -1   1   40.74    2.76
   1   1   3   42.91    2.92
   1  -3  -1   38.23    1.75
  -3   1  -1   47.24    2.84
  -1  -3   1   42.38    2.24
   1  -1  -3   41.44    2.72
  -1   1  -3   46.96    3.09
  -1  -1   3   43.55    2.88
   3  -1  -1   41.04    2.67
   3   1   1   41.52    2.83
  -3  -1   1   45.60    2.77
  -1   3  -1   48.27    2.23
   1   3   1   45.37    2.06
   3  -2   1  620.94   21.04
  -3   2   1  650.33   20.80
  -2  -1  -3  648.65   21.46
   2  -1   3  663.07   21.62
   3   2  -1  647.97   21.16
   1  -3   2  651.91   20.82
   1   3  -2  637.29   20.81
   2   1  -3  644.66   21.37
  -3  -2  -1  682.24   21.27
  -1   3   2  613.33   20.20
  -2   1   3  625.96   21.13
  -2  -1   3  659.73   21.38
   2   1   3  675.26   21.56
   3  -2  -1  624.93   20.82
  -2   1  -3  630.25   21.46
  -3  -2   1  657.54   21.09
   2  -1  -3  643.49   21.21
   1   3   2  668.45   20.55
   1   3   2  653.19   20.62
  -3   2  -1  659.33   21.09
   3   2   1  582.09   20.97
   1  -3  -2  591.28   20.19
  -1  -3   2  657.86   20.82
  -1   3  -2  691.41   20.94
   2   3   0  923.76   29.27
   3   0  -2  901.29   29.90
   0  -2  -3  934.76   29.67
  -2   3   0  930.30   28.97
   0   2  -3  943.29   30.00
   0   2   3  967.06   29.82
   2  -3   0  901.61   28.94
   0  -2   3  957.03   29.99
  -3   0   2  935.65   29.91
  -2  -3   0 1000.00   29.40
   3   0   2  929.00   30.15
   3   1  -2  210.57    8.19
   1  -2   3  223.97    8.38
   3  -1   2  224.62    8.61
  -2  -3  -1  212.58    7.65
  -3   1   2  206.08    7.96
   2  -3   1  218.27    7.57
   2  -3   1  223.44    7.72
   2   3  -1  213.29    7.71
  -1  -2  -3  212.81    8.09
  -1   2   3  210.21    7.88
   3  -1   2  212.96    8.31
   1   2  -3  203.23    8.14
  -2   3   1  208.10    7.19
   2  -3  -1  186.11    7.15
   1   2   3  206.71    8.08
  -2  -3   1  205.97    7.64
  -3  -1   2  208.95    8.13
   2   3   1  208.23    7.56
  -1  -2   3  206.40    8.10
  -1   2  -3  214.57    8.33
   3  -1  -2  199.83    8.01
   1  -2  -3  189.08    7.74
   3   1   2  204.05    8.24
   2   2  -3   68.54    4.06
  -3   2   2   67.84    3.64
   3  -2   2   64.95    4.05
   3   2  -2   64.72    3.93
   2  -2   3   67.56    4.11
  -2   2   3   63.03    3.67
  -2   3   2   61.48    3.17
   3  -2   2   61.68    3.83
   2  -3   2   67.31    3.77
   2  -2  -3   70.87    3.80
   2  -3  -2   67.35    3.35
  -3  -2   2   76.76    3.97
   2   2   3   77.82    4.17
   2   3   2   71.46    3.56
   2   3   2   70.93    3.72
   3  -2  -2   68.47    3.71
  -2   2  -3   69.80    4.12
  -2  -3   2   72.19    3.78
  -2  -2   3   75.54    4.03
   3   2   2   71.24    3.98
  -3  -3   0    2.37    1.31
  -3   0   3    0.32    1.14
  -3   3   0    1.58    0.98
   0  -3  -3    1.67    1.08
   0  -3   3    2.18    1.15
   0   3   3    1.14    1.15
   3  -3   0    2.16    1.05
   3   0  -3   -1.50    1.31
   3   0   3    2.12    1.45
   3   0   3    2.03    1.37
   3   3   0    0.32    1.04
  -3  -3  -1   76.84    4.09
  -1  -3  -3   78.75    4.06
   3  -1   3   81.33    4.74
  -3   1   3   76.34    4.28
  -3   3   1   75.48    3.70
   1  -3   3   78.87    4.35
  -1   3   3   73.22    3.77
   3  -3   1   77.53    4.01
  -3  -3   1   70.26    4.14
   1   3   3   84.56    4.20
   3  -3  -1   77.92    3.79
   1  -3  -3   76.44    3.84
   3  -1  -3   78.12    4.39
  -3  -1   3   75.56    4.40
   3   1   3   77.97    4.53
   3   1   3   75.38    4.65
   3   3   1   81.35    4.10
   3   2  -3   51.72    3.77
  -3   2   3   49.48    3.42
  -3   3   2   50.51    3.08
  -2   3   3   49.20    3.13
   3  -3   2   47.66    3.39
   2  -3   3   53.46    3.83
   3  -2   3   50.14    3.98
   3  -3   2   58.17    3.80
   3  -3  -2   49.20    3.22
   2  -3  -3   53.06    3.28
   2   3   3   54.81    3.67
   3  -2  -3   55.50    3.62
   2   3   3   56.82    3.49
  -3  -3   2   57.19    3.60
   3   2   3   52.47    3.73
   3   2   3   55.45    3.97
  -2  -3   3   51.25    3.55
   3   3   2   55.50    3.73
   3   3  -3  115.48    5.69
  -3   3   3  108.63    5.00
   3  -3   3  114.61    5.55
   3  -3  -3   79.36    4.73
  -3  -3   3   83.84    5.08
   3   3   3   76.32    5.03
  -4   0   0  871.23   28.28
   0   0  -4  856.41   28.38
   0   0   4  879.19   28.56
   4   0   0  888.58   28.40
   0  -4   1  217.41    7.79
   0   4  -1  234.90    7.91
   1   0  -4  224.51    9.19
   1   0   4  236.13    9.46
   4  -1   0  235.12    9.12
   4   1   0  231.59    9.19
  -4   1   0  234.19    9.05
  -1   0  -4  234.54    9.39
  -1   0   4  243.38    9.36
  -4  -1   0  243.79    9.18
   0   4  -2   10.38    1.81
   0   4   2   14.26    1.40
   0  -4   2   11.25    1.71
   2   0   4   13.18    2.60
   4  -2   0   10.78    2.14
  -4   2   0   10.87    1.97
   0  -4  -2   12.26    1.39
   2   0  -4    8.74    1.91
   4   2   0   12.23    2.31
  -4  -2   0   11.48    2.15
   3   0  -4  249.02   10.23
  -4   3   0  255.71    9.62
   4  -3   0  247.03    9.61
   0  -4  -3  248.84    9.10
  -4  -3   0  260.74    9.92
   0  -4   3  254.23    9.61
   0   4  -3  262.57    9.76
   0   4   3  239.35    9.05
  -3   0   4  252.25   10.14
   3   0   4  254.52   10.58
   0  -1   4    6.34    1.53
   0   1   4   12.19    2.24
  -4   0  -1    4.32    1.12
   0  -1  -4   11.24    2.20
   1   4   0    6.92    1.05
   4   0  -1    5.64    1.42
   0   1  -4    8.00    1.88
  -4   0   1    4.99    1.23
  -1  -4   0    8.12    1.14
   4   0   1    5.02    1.42
   1  -4   1   31.23    1.93
   4  -1   1   32.25    2.91
  -4   1   1   32.55    2.69
   4   1  -1   33.16    2.90
  -1   1   4   25.00    2.77
   1   4  -1   28.09    2.00
   1  -1   4   31.23    3.15
  -4  -1  -1   33.90    2.88
  -1   1  -4   30.63    3.05
  -4   1  -1   30.79    2.71
  -4  -1   1   32.95    2.81
   1   4   1   32.63    1.75
   4  -1  -1   31.24    2.75
  -1  -1   4   30.40    2.97
   4   1   1   33.79    3.01
  -1  -4   1   27.90    2.00
   1  -1  -4   30.27    2.84
   1   4  -2    3.07    1.13
   1  -4   2    4.00    1.27
   2   1  -4    4.89    1.80
  -2   1   4    2.13    1.35
  -4   2   1    4.30    1.34
   4  -2   1    6.62    1.71
  -4  -2  -1    1.76    1.10
  -1   4   2    4.26    0.84
  -2  -1  -4    2.73    1.74
   2  -1   4    4.56    1.64
   4   2   1    5.51    1.75
  -4   2  -1    6.34    1.74
   2  -1  -4    3.09    1.30
  -4  -2   1    2.75    1.16
   2   1   4    5.88    1.92
   4  -2  -1    4.87    1.30
   1  -4  -2    4.71    0.98
  -2  -1   4    5.74    1.66
  -2   1  -4    4.70    1.94
   1   4   2    6.42    1.23
  -1  -4   2    3.24    1.19
  -1   4  -2    6.70    1.46
   1   4   2    4.60    1.15
  -4   3   1    5.39    1.64
  -4  -3  -1    9.48    2.17
   1  -4   3    5.68    1.87
  -3   1   4    6.59    1.91
   3  -1   4    9.06    2.36
   4  -3   1    6.83    1.71
   4   3  -1    7.26    1.91
   3   1  -4    7.03    2.23
  -1   4   3    7.20    1.76
   1   4  -3    8.14    1.87
   4  -3  -1   10.08    2.12
  -3   1  -4    7.30    1.94
   3   1   4    9.58    2.20
  -1  -4   3    9.72    2.17
  -4  -3   1   10.56    2.34
  -3  -1   4   12.44    2.57
   1   4   3    9.69    2.21
   1  -4  -3   10.00    1.82
   3  -1  -4    8.97    2.23
  -4   3  -1    9.58    2.08
  -1   4  -3   11.39    2.37
   0  -2  -4    1.24    1.28
   0   2  -4    2.57    1.42
   0   2   4    2.39    1.38
   4   0   2    2.37    1.59
   0  -2   4    2.31    1.54
  -4   0   2    0.06    1.11
  -2  -4   0    1.74    1.01
   4   0  -2    2.17    1.51
  -4   0  -2   -0.90    1.12
   2  -4   0    2.60    0.79
   2   4   0    2.01    0.91
  -2   4   1   98.13    3.89
  -1  -2  -4  101.77    5.28
   2  -4   1  100.33    4.26
   2  -4   1  105.56    4.47
   2   4  -1   95.86    4.50
  -2  -4  -1  101.86    4.43
   4   1  -2  104.01    5.39
  -4  -1  -2  103.64    5.45
  -1   2   4  102.87    5.18
  -4   1   2  101.04    5.05
   1  -2   4  104.55    5.55
   1   2  -4   99.60    5.42
   2   4   1  107.62    4.38
   2  -4  -1   96.01    3.92
  -2  -4   1  103.42    4.54
   4  -1  -2  101.72    5.20
   4   1   2   92.88    5.28
  -1  -2   4  101.42    5.37
  -1   2  -4   99.24    5.48
  -4  -1   2  102.65    5.19
   1  -2  -4  101.80    5.12
   1   2   4  105.97    5.46
   4  -2   2  126.65    6.17
   4   2  -2  129.45    6.22
   2  -2   4  125.80    6.48
  -2  -2  -4  127.43    6.26
  -2   2   4  126.86    6.03
   2   2  -4  128.32    6.28
  -4   2   2  125.84    5.80
   2  -4   2  126.37    5.61
   2   4  -2  127.48    5.66
  -2   4   2  120.63    4.83
   4  -2  -2  118.63    5.88
  -2   2  -4  118.53    6.37
   2  -2  -4  119.28    5.93
   4   2   2  116.60    6.13
  -4  -2   2  123.39    5.98
   2   2   4  125.51    6.34
   2  -4  -2  114.26    4.90
   2   4   2  128.63    5.32
  -2  -4   2  134.24    5.70
   2   4   2  128.73    5.53
  -4  -3  -2   74.52    4.73
  -2   4   3   72.87    3.91
  -4   3   2   76.02    4.36
   3   2  -4   76.38    5.07
   4  -3   2   78.70    5.07
  -3   2   4   73.47    4.69
   2  -4   3   79.81    4.78
   2   4  -3   81.60    4.77
   3  -2   4   81.71    5.33
   4  -3   2   73.09    4.64
  -3   2  -4   69.67    5.17
  -3  -2   4   85.99    5.05
   3   2   4   78.78    5.25
  -2   4  -3   81.87    4.70
  -4  -3   2   97.44    5.03
   2  -4  -3   71.86    3.98
   4  -3  -2   76.06    4.46
  -2  -4   3   82.25    4.56
   3   2   4   80.46    5.05
   2   4   3   78.38    4.54
   3  -2  -4   74.74    4.75
   2   4   3   82.77    4.29
   4   0  -3    6.65    1.66
  -3  -4   0   10.09    1.83
  -3   4   0    8.47    1.61
   0  -3  -4    6.23    1.74
   0  -3   4   10.82    2.46
   0   3  -4    6.05    1.75
   0   3   4    8.76    1.95
   3  -4   0   10.73    1.76
   3   4   0    8.16    1.91
   4   0   3    8.37    2.16
   4   0   3   11.25    2.71
   3  -4   1  237.62    9.01
   4   1  -3  246.83    9.92
  -1  -3  -4  239.00    9.49
   4  -1   3  235.10    9.94
   3   4  -1  234.78    9.14
   1  -3   4  242.61    9.86
  -1   3   4  235.90    9.32
  -4   1   3  239.39    9.63
  -3  -4  -1  240.17    9.10
   1   3  -4  242.56    9.84
  -3   4   1  242.73    8.57
   4  -1   3  241.36   10.22
   3  -4   1  239.01    8.89
  -3  -4   1  231.84    9.09
   4   1   3  232.91    9.91
  -1  -3   4  247.27    9.72
   3   4   1  232.81    8.95
   1   3   4  230.52    9.54
   1  -3  -4  236.41    9.26
   3  -4  -1  224.99    8.54
   4  -1  -3  233.19    9.68
  -4  -1   3  243.28    9.77
   4   2  -3  161.86    7.70
   3  -4   2  157.40    7.14
  -2   3   4  166.37    7.22
   4  -2   3  160.24    7.96
   2  -3   4  166.95    7.76
  -4   2   3  151.30    7.16
   4  -2   3  164.90    7.73
   3   4  -2  170.17    7.29
  -3   4   2  162.66    6.46
   3  -4   2  164.52    7.01
   2   3  -4  169.32    7.64
  -4  -2   3  161.33    7.50
  -2  -3   4  169.42    7.62
  -3  -4   2  172.81    7.22
   4   2   3  167.58    7.98
   2  -3  -4  158.06    7.10
   3   4   2  162.68    6.90
   2   3   4  152.47    7.46
   3  -4  -2  151.17    6.53
   4  -2  -3  162.63    7.45
   4   2   3  160.89    7.62
   3   3  -4    3.25    2.04
  -4   3   3    4.73    1.80
   4  -3   3    2.54    2.02
   4   3  -3    3.90    1.95
  -3   3   4    4.03    1.81
  -3   4   3    3.66    1.51
   3  -3   4    3.29    2.02
   3  -4   3    0.39    1.36
   3  -4   3    1.44    1.59
   4  -3   3   11.07    2.51
   3  -4  -3    2.38    1.48
  -4  -3   3    5.68    2.01
   3  -3  -4    2.88    1.81
   3   4   3    3.62    1.51
   3   4   3    4.73    2.10
   4  -3  -3    1.63    1.71
   3   3   4    2.63    1.93
  -3  -3   4    5.19    2.08
  -3   3  -4    4.34    2.28
   4   3   3    4.17    2.15
   4   3   3    2.87    2.06
  -4  -4   0  366.89   13.62
  -4   0   4  369.55   14.22
  -4   4   0  370.20   13.20
   0  -4  -4  374.39   13.39
   0  -4   4  378.17   13.90
   0   4  -4  387.16   14.04
   0   4   4  356.97   13.35
   4  -4   0  378.91   13.28
   4   0  -4  379.54   14.33
   4   0   4  372.01   14.53
   4   0   4  373.92   14.72
   4   4   0  371.54   13.65
  -4  -4  -1  170.65    7.54
   4  -1   4  174.63    8.61
   4   1  -4  169.51    8.14
  -4   1   4  168.10    7.95
  -4   4   1  168.03    7.08
  -1  -4  -4  167.12    7.38
   1  -4   4  177.65    7.90
   4  -1   4  163.58    8.24
  -1   4   4  168.26    7.19
   4  -4   1  165.69    7.29
  -1  -4   4  164.53    7.63
   1   4   4  159.77    7.51
   4  -4  -1  166.53    7.08
   1  -4  -4  169.25    7.19
   4  -1  -4  169.56    8.05
  -1   4  -4  174.72    7.97
  -4  -4   1  168.59    7.54
  -4  -1   4  169.62    8.06
   4   1   4  166.74    8.22
   4   1   4  173.79    8.56
   4   4   1  168.34    7.47
  -4  -4  -2   18.83    2.80
   4  -2   4   20.38    3.76
  -4   2   4   18.65    3.29
  -4   4   2   22.05    2.83
   4  -2   4   23.59    3.56
   4  -4   2   16.70    3.32
  -2   4   4   22.17    2.93
   4   2  -4   23.27    3.58
   2  -4   4   21.88    3.54
   4  -4   2   21.61    3.02
   2  -4  -4   23.62    3.00
   4  -4  -2   24.23    2.95
   2   4   4   24.44    3.59
  -2   4  -4   20.02    3.44
   4  -2  -4   23.71    3.44
  -2  -4   4   25.03    3.43
  -4  -2   4   22.33    3.50
   2   4   4   22.24    2.92
   4   2   4   22.34    3.48
   4   2   4   18.43    4.00
   4   4   2   22.42    3.01
   4  -4   3  142.16    7.66
   4  -3   4  144.60    7.79
  -4   3   4  155.15    7.78
  -4   4   3  141.33    7.14
   3   4  -4  150.19    7.70
  -3   4   4  134.29    7.12
   4   4  -3  152.17    7.64
   3  -4   4  147.31    7.83
   4   3  -4  148.34    7.82
   4  -3   4  140.95    8.03
  -3  -4   4  166.13    7.72
  -4  -4   3  157.16    7.53
  -4  -3   4  152.04    7.74
   3   4   4  156.45    7.36
   4  -4  -3  142.62    7.10
   4   3   4  140.56    7.55
   4   3   4  159.46    8.24
   3  -4  -4  149.58    7.06
   4   4   3  159.52    7.51
   4   4   3  160.77    8.38
   4   4  -4  276.49   11.82
  -4   4   4  265.77   10.92
   4  -4   4  273.37   11.77
   4  -4  -4  260.41   11.11
  -4  -4   4  285.04   11.76
   4   4   4  269.58   11.92
   0   0  -5    1.39    1.75
   0   0   5    0.96    1.63
   5   0   0    0.81    1.45
   1   0  -5   88.27    5.34
   1   0   5   96.78    5.67
   5  -1   0   81.54    5.11
   5   1   0   88.31    5.28
   0  -5   1   85.13    3.56
   0   5  -1   94.82    3.74
  -5  -1   0   90.66    5.15
  -5   1   0   97.49    5.24
  -1   0  -5   81.15    5.36
  -1   0   5   89.07    5.45
   0   5   2   28.46    1.70
   2   0  -5   27.60    3.43
  -2   0   5   27.29    3.37
   0  -5   2   27.19    2.38
   0   5  -2   28.44    2.53
   0   5   2   30.01    1.61
   5  -2   0   27.13    3.20
   5   2   0   25.29    3.38
   2   0   5   29.68    3.78
  -5  -2   0   30.76    3.17
  -5   2   0   29.92    3.13
  -2   0  -5   26.84    3.62
  -5   3   0   58.66    4.19
   3   0  -5   50.53    4.50
  -5  -3   0   54.01    4.22
   0   5  -3   60.36    3.92
   0   5   3   54.83    3.18
   0  -5   3   51.60    3.68
   3   0   5   54.27    4.79
  -3   0   5   53.00    4.61
  -3   0  -5   54.68    4.82
   5  -3   0   56.53    4.26
   5   3   0   54.70    4.45
   0  -5  -3   51.94    3.18
   4   0   5   18.53    4.16
   0   5   4   18.32    2.94
   0  -5   4   23.23    3.32
   0   5  -4   19.45    3.47
  -4   0   5   17.61    3.62
   4   0  -5   17.38    3.90
   5  -4   0   19.30    3.32
   0  -5  -4   19.10    2.84
  -5  -4   0   20.51    3.38
   5   0  -1   12.73    2.71
  -5   0   1   12.77    2.51
   5   0   1   14.89    2.91
  -1  -5   0   14.66    1.42
   0  -1  -5   20.38    3.04
  -5   0  -1   13.58    2.52
   0   1  -5   16.42    2.97
   0   1   5   16.05    2.98
   1   5   0   12.02    1.37
   0  -1   5   16.71    3.03
  -1  -1  -5  387.50   14.48
  -1   1   5  406.51   14.59
   5  -1   1  378.28   14.32
   5   1  -1  387.35   14.39
   1  -1   5  408.97   14.86
   1   1  -5  384.91   14.49
   1   5  -1  378.10   12.68
   1  -5   1  365.15   12.30
  -5   1   1  376.47   14.02
  -5   1  -1  381.87   14.24
  -1  -5   1  385.25   12.64
  -1  -1   5  385.82   14.51
   1   5   1  383.53   12.18
   1   5   1  387.21   12.32
  -5  -1   1  378.61   14.12
   1  -1  -5  363.67   14.20
   1   1   5  395.35   14.70
   5   1   1  366.06   14.28
  -1   5   2   43.26    2.02
  -2   1   5   46.28    4.03
   5   2  -1   45.70    4.04
   1   5  -2   46.40    3.12
  -5   2   1   41.03    3.59
  -2  -1  -5   47.88    4.23
   1  -5   2   44.68    2.99
   2   1  -5   49.78    4.24
  -5  -2  -1   47.85    3.88
   5  -2   1   45.43    3.94
  -1   5  -2   45.02    3.07
  -5   2  -1   45.72    3.74
   2  -1  -5   47.27    4.11
  -5  -2   1   45.10    3.83
   2   1   5   43.08    4.32
   5  -2  -1   40.50    3.73
   1   5   2   45.33    2.41
  -1  -5   2   44.50    2.96
  -2  -1   5   43.96    4.05
  -2   1  -5   39.46    4.11
   1   5   2   44.79    2.75
   1  -5  -2   41.11    2.15
   5   2   1   40.85    3.90
   1   5  -3    1.28    1.42
  -5   3   1    1.60    1.62
   5  -3   1    0.20    1.67
   3  -1   5    1.16    1.78
   3   1  -5    0.28    1.54
  -5  -3  -1    1.37    1.30
  -3   1   5    1.26    1.88
   1  -5   3    1.29    1.52
  -1   5   3    1.12    1.15
  -3  -1  -5    1.74    2.05
   5   3  -1   -0.12    1.75
  -1  -5   3    0.81    1.41
   1  -5  -3    0.33    1.13
   5  -3  -1    4.21    1.84
  -3  -1   5   -0.12    1.88
  -5  -3   1    0.12    1.78
  -5   3  -1    5.18    1.90
  -1   5  -3    2.89    1.62
   1   5   3    2.79    1.57
   1   5   3    1.38    1.14
   3  -1  -5    2.04    1.85
   3   1   5    1.61    1.73
   5   3   1    2.47    1.78
   1  -5   4   65.95    4.71
  -5   4   1   55.22    4.25
   4  -1   5   62.84    5.52
  -4   1   5   48.94    4.90
   5  -4   1   56.83    4.62
   1   5  -4   58.99    4.68
  -1   5   4   49.47    3.75
   4   1  -5   57.02    5.21
  -5  -4   1   59.83    4.61
   4  -1  -5   57.58    5.03
  -4  -1   5   56.83    4.96
   1  -5  -4   53.56    3.87
   4   1   5   58.31    5.09
   4   1   5   56.34    5.47
   5  -4  -1   55.06    4.24
  -1  -5   4   57.69    4.36
   1   5   4   52.04    4.27
  -1   5  -4   53.22    4.60
   5   0  -2  118.99    6.36
   0  -2   5  126.32    6.63
  -2  -5   0  123.37    5.10
   0   2   5  122.22    6.51
   2  -5   0  114.78    4.37
   2  -5   0  119.06    4.52
   2   5   0  120.87    5.00
   0   2  -5  122.72    6.58
   0  -2  -5  116.08    6.20
  -5   0  -2  121.35    6.40
   1   2  -5   81.17    5.42
  -2  -5  -1   83.93    3.92
   1  -2   5   92.04    5.68
   2   5  -1   86.60    4.16
  -1   2   5   89.34    5.30
  -1  -2  -5   84.43    5.24
   2  -5   1   85.97    3.90
  -5  -1  -2   78.74    5.11
   5  -1   2   83.90    5.32
   5   1  -2   87.06    5.36
  -2   5   1   79.90    3.12
   2  -5   1   85.48    3.72
  -5   1   2   84.82    4.93
   5   1   2   69.67    4.99
  -5   1  -2   72.04    5.04
   5  -1  -2   81.26    5.10
  -5  -1   2   74.84    4.87
   1  -2  -5   76.47    4.98
   2  -5  -1   67.54    3.10
  -1   2  -5   79.04    5.39
   2   5   1   79.28    3.76
  -1  -2   5   82.24    5.32
  -2  -5   1   82.06    4.07
   1   2   5   77.78    5.32
  -5  -2  -2   23.83    3.23
   2  -5   2   22.31    2.42
   2  -5   2   24.44    2.73
  -2   2   5   22.95    3.38
  -2  -2  -5   18.38    3.37
  -2   5   2   23.26    1.85
   5  -2   2   23.82    3.43
  -5   2   2   20.20    3.08
   2   5  -2   22.46    2.60
   5   2  -2   21.20    3.38
   2  -2   5   20.37    3.56
   2   2  -5   20.27    3.42
   2   5   2   24.78    2.29
  -5  -2   2   25.66    3.29
  -2   2  -5   26.56    3.79
   5  -2  -2   24.95    3.27
   5   2   2   22.33    3.44
   2  -5  -2   22.63    1.97
   2   2   5   23.09    3.83
  -2  -5   2   29.83    2.74
   2  -2  -5   20.76    3.30
   2   5   2   21.97    2.69
  -5   2  -2   19.66    3.20
  -5   3   2  682.46   23.19
   2   5  -3  706.95   23.16
   2  -5   3  687.06   23.06
  -5  -3  -2  669.16   23.75
   3  -2   5  646.11   24.16
   5  -3   2  673.29   23.69
  -3   2   5  677.86   23.70
   3   2  -5  706.94   24.16
   5   3  -2  677.57   23.80
  -2   5   3  655.61   21.89
  -2  -5   3  717.22   23.12
   3   2   5  674.85   24.26
   2   5   3  687.63   22.43
   2   5   3  713.69   23.18
   3  -2  -5  692.02   23.76
  -2   5  -3  715.37   23.13
  -3  -2   5  710.99   24.06
   5   3   2  660.81   23.63
   5  -3  -2  703.26   23.49
  -5  -3   2  685.76   23.63
  -3   2  -5  646.17   24.05
   2  -5  -3  685.00   22.13
  -2   5   4  147.57    6.75
   5  -4   2  154.45    7.78
   4  -2   5  150.20    8.64
   4   2  -5  161.35    8.49
   5   4  -2  155.98    7.95
   2  -5   4  159.16    7.96
   2   5  -4  164.72    7.91
   5  -4   2  148.15    8.01
  -5   4   2  151.10    7.37
  -4   2   5  160.83    8.21
  -2  -5   4  163.67    7.69
  -2   5  -4  169.96    7.99
   2  -5  -4  163.09    7.05
   4  -2  -5  161.41    8.32
  -5  -4   2  163.34    7.97
   2   5   4  155.53    7.68
   2   5   4  155.08    7.07
   4   2   5  155.18    8.80
   5  -4  -2  147.20    7.43
   4   2   5  162.47    8.47
   5   0   3   61.88    4.73
   0  -3   5   58.34    4.68
   5   0   3   55.35    5.06
   5   0  -3   66.44    4.88
  -5   0   3   62.86    4.68
  -3  -5   0   64.65    3.88
   0   3   5   55.17    4.62
   3  -5   0   59.49    3.29
   0  -3  -5   67.93    4.59
   3   5   0   66.02    3.83
   0   3  -5   59.64    4.86
   1  -3   5   38.20    4.36
  -3  -5  -1   40.77    3.17
  -1   3   5   41.82    3.99
   3   5  -1   42.62    3.28
   5   1  -3   46.66    4.30
  -1  -3  -5   42.77    4.03
   3  -5   1   40.80    3.21
   5  -1   3   46.93    4.31
   5  -1   3   42.13    4.55
   3  -5   1   40.50    2.94
  -3   5   1   41.85    2.63
   1   3  -5   36.32    4.23
  -5  -1   3   40.55    3.88
   3   5   1   39.43    3.05
   5  -1  -3   34.53    3.97
  -1  -3   5   42.31    4.18
   5   1   3   37.44    4.09
   1   3   5   42.62    4.34
  -3  -5   1   39.40    3.24
   3  -5  -1   38.59    2.66
   1  -3  -5   38.07    3.76
  -1   3  -5   43.59    4.39
  -2   3   5  170.76    8.03
   2  -3   5  165.48    8.50
  -2  -3  -5  171.58    8.22
   5   2  -3  177.56    8.45
   3   5  -2  178.26    7.64
   2   3  -5  177.64    8.42
  -3   5   2  167.99    6.58
   5  -2   3  156.68    8.16
   5  -2   3  166.16    8.54
  -5   2   3  157.57    7.83
   3  -5   2  170.12    7.44
   5   2   3  167.26    8.37
   5  -2  -3  175.43    8.26
  -2   3  -5  153.94    8.36
  -5  -2   3  169.39    8.12
   3  -5  -2  167.03    6.72
   2  -3  -5  170.07    7.92
   3   5   2  172.14    7.14
  -3  -5   2  176.25    7.50
   2   3   5  167.56    8.45
   5  -3   3    4.11    2.36
   5  -3   3    7.80    3.02
   3   3  -5    4.71    2.52
   3  -5   3    7.42    2.17
   3  -3   5    7.85    2.90
   3   5  -3    4.43    2.05
   3  -5   3    5.38    2.23
  -3   5   3    6.39    1.82
   5   3  -3   11.70    2.94
  -5  -3   3    7.24    2.51
   3  -5  -3    7.86    1.87
   3   5   3    5.80    1.78
  -3  -5   3    7.96    2.15
  -3  -3   5    7.74    2.28
  -3   3  -5    7.59    2.73
   3   3   5    5.64    2.51
   3   5   3    7.62    2.46
   5   3   3    7.39    2.65
  -5   4   3   31.87    3.91
   5  -4   3   32.97    4.86
   3   5  -4   39.58    4.56
   3  -5   4   31.75    4.35
   5  -4   3   38.99    4.51
  -3   5   4   32.11    3.53
   4  -3   5   40.26    5.15
   4   3  -5   34.94    4.71
  -4   3   5   32.70    4.40
   5   4  -3   28.75    4.50
  -3  -5   4   35.30    4.27
   3   5   4   34.84    3.58
   4   3   5   36.71    4.56
   3   5   4   32.32    4.44
  -5  -4   3   33.06    4.20
   3  -5  -4   29.73    3.64
   4   3   5   32.10    5.29
   5  -4  -3   35.35    4.22
  -4  -3   5   36.79    4.56
   4  -3  -5   29.47    4.53
   5   0   4   95.96    6.39
   5   0   4  106.87    6.94
   4   5   0   98.09    5.42
  -4   5   0   85.25    4.90
  -5   0   4   96.61    6.14
   5   0  -4   98.66    6.36
   0  -4  -5   96.30    5.88
   0  -4   5  101.30    6.22
  -4  -5   0   95.82    5.38
   4  -5   0   96.42    4.93
  -4   5   1   70.26    4.10
   4   5  -1   73.05    4.81
  -1  -4  -5   63.47    4.95
   5   1  -4   68.28    5.50
   5  -1   4   73.48    5.62
   4  -5   1   69.50    4.35
   4  -5   1   72.75    4.65
  -4  -5  -1   71.38    4.58
   1  -4   5   75.92    5.65
   1   4  -5   69.43    5.46
  -1   4   5   71.96    5.04
  -5   1   4   65.02    5.25
   1  -4  -5   72.48    4.92
   5   1   4   74.12    6.04
   5  -1  -4   82.18    5.70
  -4  -5   1   68.50    4.63
   5   1   4   62.80    5.38
   4   5   1   73.37    4.59
   4  -5  -1   69.76    4.22
  -5  -1   4   75.71    5.44
   1   4   5   69.66    5.52
  -1  -4   5   76.26    5.32
  -4  -5  -2    4.29    2.15
   5  -2   4    5.14    3.01
  -4   5   2    4.17    1.70
   4  -5   2    3.00    1.74
  -5   2   4    1.46    2.01
  -2   4   5    3.96    2.21
   4  -5   2    6.98    2.23
   2  -4   5    5.63    2.62
   2   4  -5    4.41    2.23
   4   5  -2    5.60    2.07
   4  -5  -2    2.65    1.66
  -2  -4   5    3.19    2.36
   2  -4  -5   -0.63    1.88
   2   4   5    4.73    2.63
   4   5   2    3.85    1.88
   5  -2  -4    6.69    2.52
  -4  -5   2    0.86    1.88
   5   2   4    4.32    2.53
   5   2   4   -1.68    2.69
  -5  -2   4    2.55    2.02
   5  -3   4  217.84   10.69
   5   3  -4  226.21   10.38
   4   5  -3  210.98    9.71
   3  -4   5  209.60   10.34
   3   4  -5  224.23   10.21
  -5   3   4  199.09    9.50
  -3   4   5  204.07    9.31
  -4   5   3  209.38    8.72
   4  -5   3  222.86    9.53
   4  -5   3  211.69    9.73
   5  -3   4  184.13   10.51
   4   5   3  212.09    9.19
   4   5   3  206.49    9.60
   5  -3  -4  207.96    9.88
   5   3   4  205.95   10.05
  -5  -3   4  225.31   10.08
   3   4   5  220.19    9.86
  -4  -5   3  222.84    9.66
   4  -5  -3  198.55    8.83
  -3  -4   5  227.08   10.03
   3   4   5  198.39   10.11
   3  -4  -5  206.81    9.48
   4   4  -5   23.55    4.86
  -5   4   4   21.19    3.88
   5  -4   4   21.07    4.17
   5   4  -4   25.81    4.67
  -4   4   5   17.96    3.98
  -4   5   4   23.63    3.61
   4  -4   5   25.29    5.13
   4  -5   4   24.24    4.23
   4  -5   4   25.11    4.90
   5  -4   4   20.69    4.36
   4  -5  -4   22.09    3.96
  -5  -4   4   23.46    4.18
   4  -4  -5   25.07    4.26
   4   5   4   19.27    3.82
   4   5   4   18.68    3.79
   5  -4  -4   13.84    3.18
   4   4   5   21.36    4.70
  -4  -5   4   21.08    4.06
  -4  -4   5   19.04    4.25
   5   4   4   15.79    3.94
  -5  -5   0   -0.47    1.91
  -5   0   5   -0.77    2.30
  -5   5   0   -2.25    1.79
   0  -5  -5    0.03    2.05
   0  -5   5   -0.68    2.15
   0   5  -5   -0.33    2.30
   0   5   5    1.46    2.05
   5  -5   0   -0.77    1.75
   5   0  -5   -1.74    2.26
   5   0   5    1.83    2.73
   5   0   5   -2.86    2.47
   5   5   0   -1.13    1.78
  -5  -5  -1  420.99   15.90
   5  -1   5  412.04   17.18
   5   1  -5  433.68   16.91
  -5   5   1  423.51   15.36
  -1  -5  -5  411.85   15.58
   5   5  -1  428.12   16.04
   1   5  -5  444.20   16.45
  -1   5   5  437.81   15.63
   5  -1   5  433.38   17.13
   1  -5   5  430.50   16.35
   5  -5   1  413.58   15.43
   1  -5  -5  411.25   15.46
   5  -5  -1  411.13   15.24
  -1   5  -5  426.18   16.38
   5  -1  -5  417.00   16.67
   1   5   5  416.48   15.86
  -5  -5   1  419.40   15.90
  -5  -1   5  431.57   16.74
   5   1   5  414.10   16.89
   5   1   5  406.03   17.25
  -1  -5   5  435.03   16.25
   5   5   1  402.81   15.67
  -5  -5  -2    4.65    2.44
   5   2  -5    8.54    3.27
   2  -5   5    5.60    2.94
  -5   2   5    4.54    2.86
   5  -2   5    4.81    3.40
   5  -5   2    4.74    2.45
  -2   5   5    2.98    2.29
   5  -5   2    6.12    2.89
   5  -2   5    1.35    2.63
   2  -5  -5    6.84    2.42
   5  -5  -2    4.14    2.23
  -2   5  -5    4.46    2.88
   2   5   5    2.22    1.99
   5  -2  -5    7.24    3.06
  -5  -2   5    7.51    2.87
  -2  -5   5    8.06    2.80
  -5  -5   2    3.07    2.38
   5   2   5    7.64    3.21
   5   2   5    3.34    3.58
   5   5   2    2.53    2.18
   5  -3   5   26.32    5.30
  -5   5   3   19.35    3.71
   3  -5   5   21.47    5.00
   5  -3   5   25.76    4.77
  -3   5   5   16.07    3.78
   5   3  -5   23.85    4.87
   5  -5   3   17.37    3.43
   5  -5   3   21.32    3.86
  -3  -5   5   20.96    4.23
   5  -5  -3   16.63    3.83
   3   5   5   23.63    5.05
   3   5   5   14.88    3.70
   5  -3  -5   18.88    4.67
  -3   5  -5   24.56    4.87
  -5  -3   5   18.55    4.40
   3  -5  -5   22.94    4.13
   5   3   5   15.85    3.79
   5   3   5   19.80    4.52
  -5  -5   3   22.76    4.25
   5   5   3   16.47    3.98
   5   5   3   25.25    4.52
   4  -5   5   16.93    3.97
   5   5  -4   11.60    3.46
  -5   4   5    8.42    3.10
  -5   5   4   14.79    3.16
   5   4  -5   24.37    4.54
  -4   5   5   11.39    2.99
   5  -4   5   17.23    4.41
   4  -5   5   10.66    2.99
   5  -4   5   11.09    3.73
   4   5  -5   17.44    4.14
   5  -5   4    9.89    3.55
   5  -5   4   12.74    3.40
   5  -5  -4    8.62    3.10
   4   5   5   15.72    4.22
  -4  -5   5   12.68    3.40
   5  -4  -5   12.84    3.40
  -5  -5   4   11.46    2.84
   4  -5  -5   10.40    3.10
   4   5   5    9.52    2.80
   5   4   5    8.99    3.15
   5   4   5   12.72    4.30
  -5  -4   5    9.98    2.88
   5   5   4   22.97    4.62
   5   5   4   11.98    4.04
   5  -5   5  714.84   26.15
  -5   5   5  672.48   24.30
   5   5  -5  737.73   25.95
   5  -5   5  704.21   25.65
  -5  -5   5  695.42   25.39
   5  -5  -5  674.59   24.78
   5   5   5  655.03   24.96
   5   5   5  688.25   25.75
  -6   0   0  192.24    9.05
   0   0  -6  193.73    9.35
   0   0   6  215.67    9.81
   1   0   6   10.79    2.58
  -6  -1   0   13.79    3.14
  -6   1   0   18.44    3.21
  -1   0  -6   16.31    3.57
  -1   0   6   10.34    2.45
   0  -6   1   16.08    1.54
   0   6  -1   15.97    1.77
   1   0  -6   17.49    3.68
   6   1   0   15.86    3.21
   6  -1   0   17.46    3.40
   0   6  -2   32.03    2.78
   0  -6   2   31.85    2.65
  -6   2   0   33.41    3.94
   2   0   6   30.78    4.47
   6  -2   0   33.20    4.02
   6   2   0   37.36    4.23
  -2   0  -6   37.19    4.61
  -2   0   6   32.38    4.40
  -6  -2   0   30.86    3.77
   6   3   0   38.30    4.50
  -3   0   6   34.25    4.73
   0  -6   3   36.12    3.31
   3   0   6   26.41    4.81
  -3   0  -6   38.97    4.88
   0   6   3   30.69    2.17
   3   0  -6   31.28    4.53
  -6  -3   0   31.81    3.91
   0   6  -3   35.58    3.53
   0   6  -4   27.65    3.96
   0   6   4   32.24    3.20
   0  -6   4   32.60    3.90
  -4   0   6   31.65    4.80
   4   0   6   23.63    5.13
   6  -4   0   28.93    4.04
   6   4   0   31.43    4.58
   4   0  -6   32.90    4.85
  -6  -4   0   31.75    4.27
  -6   4   0   29.81    3.94
   0   6   5   24.32    4.05
   5   0   6   29.60    5.69
  -6   5   0   28.64    4.28
  -5   0   6   39.11    5.65
   0  -6   5   27.89    4.51
   0   6  -5   28.17    4.80
   5   0  -6   26.73    5.48
   5   0   6   29.47    5.28
   0  -6  -5   29.64    4.01
   6  -5   0   31.09    4.31
   6   0   1   66.23    5.12
  -1  -6   0   61.91    2.70
   0  -1  -6   64.78    5.03
   1   6   0   60.19    2.75
   0   1  -6   62.75    5.25
  -6   0  -1   63.57    4.85
  -6   0   1   60.70    4.67
   6   0  -1   54.23    4.89
   0  -1   6   58.90    5.25
   1  -6   1  154.01    5.56
   1  -6   1  161.45    5.57
  -1  -1  -6  153.44    8.11
   1  -1   6  159.87    8.47
   1   1  -6  159.03    8.32
  -6  -1  -1  167.17    8.09
   1   6  -1  164.17    6.14
   6   1  -1  161.43    8.22
  -6   1   1  160.89    7.85
  -1   1   6  161.77    8.42
   6  -1  -1  151.30    7.95
  -1  -1   6  163.09    8.39
  -1  -6   1  157.55    6.03
   1   6   1  157.15    5.37
   1   1   6  164.36    8.57
  -6   1  -1  155.95    7.93
  -1   1  -6  154.59    8.31
   1   6   1  158.14    5.51
   6   1   1  157.57    8.10
   2   1  -6  282.00   12.40
   1   6  -2  301.99   10.73
  -2   1   6  297.04   12.55
   6  -2   1  298.80   12.30
  -2  -1  -6  280.74   12.44
   6   2  -1  290.92   12.33
   1  -6   2  287.57   10.36
  -6   2   1  282.24   11.90
  -6  -2  -1  270.89   11.98
   1   6   2  295.76    9.90
   6  -2  -1  291.57   12.16
  -1  -6   2  311.56   10.67
  -6  -2   1  284.78   12.00
   2   1   6  276.64   12.65
   1   6   2  318.30    9.75
   2  -1  -6  291.75   12.35
   6   2   1  295.80   12.33
  -2  -1   6  306.77   12.67
  -2   1  -6  283.88   12.62
  -1   6  -2  320.69   10.60
  -6   2  -1  286.44   12.09
  -6  -3  -1  107.03    6.41
   1   6  -3  102.10    5.70
  -3  -1  -6   90.86    6.66
   1  -6   3   96.98    5.49
   3  -1   6   99.81    7.15
   3   1  -6  103.44    6.95
  -1   6   3   91.91    4.32
  -3   1   6  103.52    7.07
   6   3  -1   99.99    6.58
  -6   3   1   97.55    6.30
  -3   1  -6  118.06    7.34
   3  -1  -6  116.44    7.08
  -6  -3   1  111.89    6.56
  -1  -6   3  116.43    5.62
  -1   6  -3  125.12    5.88
   1   6   3  109.34    5.16
   3   1   6  111.44    7.49
   6  -3  -1  110.89    6.59
   1  -6  -3  115.19    4.60
   1   6   3  115.13    4.72
  -3  -1   6  118.08    7.24
   4  -1   6    0.98    2.61
   4   1  -6    2.63    2.72
   1  -6   4    5.10    2.29
  -6   4   1    3.68    2.44
  -1   6   4    3.51    1.79
  -6  -4  -1    1.63    2.51
   6   4  -1    3.30    2.68
   1   6  -4    7.05    2.28
  -4   1   6    2.97    2.84
   6  -4   1   -1.07    2.17
   6   4   1    8.99    2.89
  -4  -1   6    4.19    2.51
  -6   4  -1    4.88    2.46
  -1  -6   4    8.48    2.48
  -1   6  -4    5.43    2.36
   1   6   4    5.23    1.82
   4   1   6   11.53    4.09
   1  -6  -4    6.49    2.01
  -6  -4   1    9.22    2.72
   6  -4  -1    8.80    2.76
   4  -1  -6    5.66    2.77
   5  -1   6   70.42    6.68
  -5   1   6   65.25    6.55
   6  -5   1   69.20    5.56
   1  -6   5   72.60    5.99
  -1   6   5   63.76    4.89
   1   6  -5   76.47    6.14
   5   1  -6   69.28    6.60
  -6  -5  -1   68.73    5.75
  -6   5   1   64.35    5.26
   5  -1   6   66.25    7.17
  -6  -5   1   65.58    5.90
   1  -6  -5   60.42    4.98
  -1  -6   5   64.48    5.61
   5   1   6   62.81    6.49
   1   6   5   66.08    5.41
   5   1   6   60.53    7.19
   5  -1  -6   64.73    6.64
  -5  -1   6   70.13    6.53
   6  -5  -1   63.59    5.27
  -1   6  -5   64.31    5.71
   6   0  -2   58.27    5.10
  -2  -6   0   65.09    3.40
   6   0   2   59.22    5.27
  -6   0   2   57.72    4.76
   0   2   6   62.78    5.47
   0   2  -6   61.43    5.37
  -6   0  -2   54.93    4.85
   2   6   0   63.99    3.38
   0  -2  -6   66.99    5.20
   0  -2   6   58.97    5.14
   2  -6   1   60.46    3.03
   1  -2   6   64.98    5.56
   2  -6   1   62.17    3.29
  -6   1   2   54.61    4.86
  -1   2   6   64.48    5.41
  -1  -2  -6   62.98    5.28
   2   6  -1   63.27    3.65
   1   2  -6   53.92    5.25
  -6  -1  -2   65.23    5.07
   6  -1   2   62.56    5.20
   6  -1  -2   63.65    5.25
  -2  -6   1   61.51    3.58
   2   6   1   62.65    3.29
  -1   2  -6   62.21    5.41
   6   1   2   62.78    5.35
   1   2   6   49.77    5.45
   1  -2  -6   66.80    5.17
  -1  -2   6   60.25    5.19
  -6  -1   2   57.47    4.80
  -6   1  -2   62.90    5.11
  -6  -2  -2    6.88    2.71
   2   2  -6    6.81    2.82
  -2  -2  -6    5.21    2.47
   2  -6   2    7.39    1.93
  -2   2   6    5.62    2.79
  -2   6   2    6.36    1.26
   2   6  -2    5.08    1.78
   2  -6   2    6.61    1.80
   6  -2   2    6.78    2.64
   6   2  -2    6.56    2.73
  -6   2   2    3.93    2.07
  -2  -6   2    7.66    1.93
  -6   2  -2    4.13    2.70
   2  -2  -6    8.55    2.76
   2   2   6    3.90    2.56
  -2  -2   6    8.33    2.75
   2   6   2    8.07    1.98
  -2   2  -6    8.99    3.05
   2  -6  -2    5.95    1.47
   6   2   2    7.20    2.52
   2   6   2    7.12    1.56
  -6  -2   2    9.88    2.59
   6  -2  -2    7.39    2.71
  -2   6   3   98.57    4.28
   6   3  -2   99.37    6.55
   3   2  -6   98.93    6.78
  -6  -3  -2  104.33    6.46
   2  -6   3  111.77    5.79
   2   6  -3  110.05    5.78
  -6   3   2  102.11    6.22
   3  -2   6   98.50    7.09
   6  -3   2  100.07    6.56
  -3  -2  -6   94.82    6.85
   6  -3  -2   93.19    6.32
   3   2   6   78.87    6.98
   6   3   2   87.46    6.34
  -2  -6   3   92.30    5.46
  -6  -3   2   94.02    6.20
   2   6   3   94.30    4.73
   2   6   3   88.97    5.30
  -3  -2   6   98.15    6.68
   2  -6  -3   88.99    4.49
  -3   2  -6   86.38    6.76
  -6  -4  -2   80.24    6.03
   2  -6   4   75.69    5.81
   2   6  -4   86.34    5.77
  -4   2   6   74.75    6.32
   6   4  -2   76.15    6.28
   6  -4   2   74.26    6.14
   4   2  -6   75.90    6.62
   6  -4   2   83.15    6.70
  -2   6   4   73.10    4.57
   4  -2   6   86.90    7.13
  -2   6  -4   69.28    5.44
   4   2   6   77.83    6.45
  -4  -2   6   73.77    6.23
  -6  -4   2   80.21    6.01
   2   6   4   85.09    4.72
   2   6   4   77.19    5.52
   4  -2  -6   90.77    6.67
   6   4   2   69.74    5.84
  -2  -6   4   79.15    5.51
   2  -6  -4   83.84    4.90
   6  -4  -2   82.71    5.94
   6  -5   2    3.42    3.09
  -6  -5  -2   -0.94    2.35
  -6   5   2    4.25    2.58
   5  -2   6    5.58    3.08
   2  -6   5    4.48    2.97
   6   5  -2    3.21    2.64
  -2   6   5    4.24    2.24
   2   6  -5    3.17    2.97
   5  -2   6    1.83    2.92
   6  -5   2    4.66    2.65
   2   6   5   -1.38    2.08
  -2  -6   5    0.19    2.60
   5  -2  -6    2.51    3.31
  -2   6  -5   -1.28    2.71
  -6  -5   2    1.09    2.62
   5   2   6   -1.06    3.33
   5   2   6    3.89    3.97
   6  -5  -2    2.64    2.61
   2   6   5    3.06    2.87
   2  -6  -5   -0.69    2.46
   0  -3  -6   35.01    4.37
  -3  -6   0   33.65    3.13
   0   3  -6   39.01    4.83
   0  -3   6   36.55    4.48
   3  -6   0   38.05    2.81
   3   6   0   37.51    3.20
   6   0  -3   34.90    4.56
   6   0   3   36.06    4.69
   3  -6   0   35.38    2.54
  -1  -3  -6   69.96    5.67
   6  -1   3   60.33    5.55
   6   1  -3   66.02    5.47
  -1   3   6   69.80    5.76
   1  -3   6   57.89    5.60
   1   3  -6   63.63    5.61
  -3  -6  -1   66.55    4.05
   3  -6   1   66.81    3.68
   3  -6   1   71.26    4.00
  -6   1   3   66.12    5.40
   1   3   6   57.23    6.12
  -1  -3   6   62.23    5.44
  -1   3  -6   65.08    5.64
   6   1   3   59.34    5.53
   3  -6  -1   61.96    3.29
  -6  -1   3   62.68    5.25
   1  -3  -6   57.12    5.09
   3   6   1   63.14    3.97
   6  -1  -3   67.17    5.40
  -2   3   6  469.10   18.42
   2   3  -6  506.12   19.00
   3   6  -2  502.17   17.60
   6  -2   3  493.79   19.02
   6  -2   3  507.90   19.45
   6   2  -3  475.69   18.75
   2  -3   6  483.75   19.08
  -2  -3  -6  464.01   18.51
  -3   6   2  489.94   16.15
   3  -6   2  497.36   17.03
   3  -6   2  492.95   17.22
   3  -6  -2  480.32   16.22
  -6  -2   3  510.31   18.67
   2   3   6  501.11   19.05
   6   2   3  487.62   18.89
   3   6   2  506.43   17.36
   2  -3  -6  506.10   18.55
  -2  -3   6  534.17   19.08
   3   6   2  509.64   17.02
  -3  -6   2  535.87   17.64
  -2   3  -6  484.63   19.07
   3  -3   6   34.62    5.26
   3   6  -3   38.32    4.21
   3   3  -6   38.51    5.12
  -6   3   3   38.91    4.60
   6   3  -3   43.71    5.28
   3  -6   3   36.80    3.88
   6  -3   3   41.54    5.13
   6  -3   3   45.12    5.39
  -3   3   6   34.69    4.96
  -3   6   3   45.94    3.61
   3  -6   3   36.61    4.28
  -3  -6   3   37.18    4.06
   3  -6  -3   33.66    3.29
   6  -3  -3   43.42    4.95
   3   3   6   39.14    5.81
  -6  -3   3   36.35    4.62
  -3  -3   6   34.70    4.78
   3  -3  -6   40.84    4.91
   6   3   3   46.24    5.08
  -3   3  -6   32.29    5.29
   3   6   3   37.60    3.54
  -4   3   6   61.93    6.02
   6   4  -3   68.26    6.29
   3   6  -4   62.97    5.59
  -6   4   3   68.69    5.60
   4  -3   6   68.86    6.76
   4   3  -6   67.33    6.50
   6  -4   3   64.16    6.84
   3  -6   4   73.94    5.94
  -3   6   4   64.57    4.45
   6  -4   3   67.49    6.09
   4   3   6   63.17    6.89
  -6  -4   3   64.30    5.74
   3   6   4   56.51    5.65
   4  -3  -6   61.02    6.04
  -4  -3   6   56.73    5.81
   6  -4  -3   72.25    5.91
  -3  -6   4   66.13    5.50
   3  -6  -4   56.86    4.62
   6   4   3   57.48    5.82
   3   6   4   62.72    4.68
   4   3   6   59.51    5.93
  -5   3   6  113.42    7.99
   6  -5   3  113.65    7.66
   3   6  -5  112.97    7.68
   5  -3   6  103.92    8.57
   6   5  -3  106.94    7.87
   5   3  -6  108.84    8.33
   6  -5   3  108.16    7.98
   3  -6   5  105.51    7.90
  -3   6   5  110.34    6.31
  -6   5   3  106.22    6.79
  -6  -5   3  115.51    7.62
  -3  -6   5  114.23    7.55
   3  -6  -5  103.58    6.49
  -5  -3   6  115.81    8.02
   5  -3  -6   99.95    7.78
   5   3   6  108.46    8.85
   6  -5  -3  104.38    7.21
   3   6   5   90.63    7.40
   3   6   5  101.88    6.45
   5   3   6   96.31    7.72
   4  -6   0   51.55    3.60
   4  -6   0   44.00    3.80
   6   0   4   44.33    5.22
   0   4  -6   52.60    5.53
   0   4   6   48.88    5.25
   4   6   0   49.47    4.15
  -6   0   4   47.79    5.23
   0  -4  -6   47.35    4.85
   0  -4   6   42.98    5.25
  -4  -6   0   48.91    4.09
   6   0  -4   46.29    5.31
   4   6  -1   47.58    4.22
   6  -1   4   45.51    5.78
   4  -6   1   45.75    3.73
   6   1  -4   55.05    5.63
  -1   4   6   49.59    5.33
   6  -1   4   49.01    5.39
   1  -4   6   37.61    5.32
  -1  -4  -6   51.19    5.14
  -4  -6  -1   42.21    4.02
   4  -6   1   48.93    4.16
  -4   6   1   48.76    3.55
   1   4  -6   43.26    5.36
   1  -4  -6   48.92    4.93
   4   6   1   59.94    4.33
   6   1   4   50.62    5.51
  -6  -1   4   51.95    5.26
   1   4   6   53.61    5.72
   4  -6  -1   60.30    3.74
  -1   4  -6   52.93    5.53
  -1  -4   6   57.04    5.50
  -4  -6   1   60.73    4.52
   6  -1  -4   48.26    5.51
   4  -6   2   51.34    4.61
   4  -6   2   48.17    4.22
   6   2  -4   55.45    5.91
  -6   2   4   53.40    5.41
   6  -2   4   56.16    6.24
  -4   6   2   49.25    3.83
  -2  -4  -6   49.40    5.35
   2  -4   6   53.89    6.02
   2   4  -6   59.26    5.84
   4   6  -2   55.45    4.77
   6  -2   4   46.59    5.82
  -6  -2   4   60.52    5.54
  -2  -4   6   65.70    5.62
  -4  -6   2   59.38    4.87
  -2   4  -6   51.17    5.95
   4  -6  -2   54.86    3.97
   4   6   2   61.17    4.48
   6  -2  -4   61.83    6.00
   6   2   4   68.01    6.56
   2  -4  -6   67.27    5.45
   6   2   4   64.53    5.97
   6   3  -4   55.28    6.19
  -3   4   6   44.61    5.32
   6  -3   4   45.51    6.05
   3  -4   6   45.02    6.15
   3   4  -6   48.15    5.68
  -4   6   3   47.95    4.02
  -6   3   4   43.50    5.62
   4  -6   3   47.95    5.21
   4   6  -3   51.03    5.18
   4  -6   3   46.04    4.52
   6  -3   4   50.07    5.62
  -6  -3   4   52.72    5.43
  -4  -6   3   51.57    4.89
   6   3   4   44.49    5.71
   6   3   4   41.82    6.16
  -3   4  -6   37.25    5.81
   6  -3  -4   52.44    5.69
   3  -4  -6   52.16    5.48
   4   6   3   52.55    4.45
   4   6   3   53.11    5.26
  -3  -4   6   54.19    5.46
   4  -6  -3   46.76    4.19
   3   4   6   44.78    6.25
   6  -4   4   27.67    5.85
  -4   6   4   16.67    3.69
   4   4  -6   28.42    5.34
   6   4  -4   23.74    5.43
  -6   4   4   19.93    4.69
   4  -4   6   24.66    5.18
   4  -6   4   23.29    4.27
  -4   4   6   21.40    4.93
   4   6  -4   23.84    4.31
   6  -4   4   20.33    5.01
   4  -6   4   26.31    4.56
   4  -6  -4   18.91    3.88
   4  -4  -6   18.26    4.01
  -4  -6   4   23.69    4.52
   6  -4  -4   11.51    3.60
   4   4   6   19.23    4.60
   4   6   4   23.01    4.00
   4   6   4   23.11    5.26
   6   4   4   16.58    4.51
  -4  -4   6   26.57    4.93
   6   4   4   20.18    4.90
  -6  -4   4   20.05    4.66
  -4   6   5    8.81    3.12
  -6   5   4    5.01    3.14
   6  -5   4    3.54    3.64
  -5   4   6    4.35    3.15
   5  -4   6   12.85    4.09
   4  -6   5   10.47    3.70
   6  -5   4    8.31    3.85
   5  -4   6    6.90    4.23
   6   5  -4    9.06    4.07
   5   4  -6   11.39    4.30
   4  -6   5   12.29    3.97
   4   6   5    3.86    2.81
   5   4   6   10.33    4.95
  -6  -5   4    4.78    3.40
  -5  -4   6    7.90    3.94
   4   6   5    6.20    3.68
   6  -5  -4    9.72    3.63
   6   5   4    3.82    3.62
   5   4   6    8.22    3.81
   5  -4  -6    9.43    3.51
  -4  -6   5    3.62    3.23
   6   0   5    9.39    4.26
   0  -5  -6   11.83    3.12
   5   6   0   10.79    2.64
   6   0  -5    9.48    3.03
   6   0   5   13.26    3.98
   0   5   6    9.90    3.11
  -6   0   5    6.66    2.66
  -5  -6   0    5.98    2.31
   5  -6   0    9.57    2.42
   0  -5   6    9.47    3.41
   1   5  -6    5.89    3.12
   5  -6   1    8.26    2.95
   5  -6   1   16.73    2.91
  -5   6   1   14.38    3.22
   6  -1   5   14.34    3.97
   6  -1   5   22.04    4.81
  -1  -5  -6   16.51    3.57
   6   1  -5   10.59    3.44
  -1   5   6   13.64    3.35
  -6   1   5   10.07    3.03
   5   6  -1   16.25    3.23
  -5  -6  -1   13.58    3.03
   6   1   5   11.87    3.36
  -1  -5   6   15.95    3.66
   5  -6  -1   12.15    2.76
   5   6   1   16.65    3.68
   1  -5  -6   12.90    3.13
  -5  -6   1   13.57    3.06
   1   5   6   16.15    3.80
  -6  -1   5   21.92    4.87
   6   1   5   15.18    4.88
   6  -1  -5   15.48    4.12
   5   6  -2   48.94    5.45
  -5  -6  -2   36.67    4.62
   6  -2   5   38.95    6.55
   6   2  -5   50.00    6.18
   2   5  -6   40.82    5.78
  -5   6   2   44.52    4.17
  -2   5   6   44.45    5.34
   5  -6   2   53.03    4.83
   5  -6   2   47.18    5.16
   6  -2   5   43.60    6.02
   5   6   2   52.42    4.87
   2   5   6   48.35    6.13
  -6  -2   5   54.12    5.87
   5  -6  -2   44.43    4.50
   2  -5  -6   43.47    5.29
   6   2   5   51.46    6.05
   6   2   5   40.11    6.88
  -2  -5   6   47.85    5.61
  -5  -6   2   48.57    5.24
   6  -2  -5   56.06    6.12
   5  -6   3   11.76    3.39
   5  -6   3   12.54    3.47
  -3   5   6    9.94    3.31
   6  -3   5   24.38    5.53
   3   5  -6   13.82    3.75
   6   3  -5   14.37    3.48
   5   6  -3   21.97    4.25
  -6   3   5   21.26    4.46
   6  -3   5   18.73    4.69
  -5   6   3   15.56    3.04
   3   5   6   28.41    5.93
  -6  -3   5   33.93    5.40
   5   6   3   28.47    5.38
   6  -3  -5   19.39    4.17
   3  -5  -6   28.35    5.11
   5   6   3   21.54    4.40
   3   5   6   28.63    4.80
  -3  -5   6   30.82    5.15
   6   3   5   24.75    4.60
   5  -6  -3   17.52    3.98
  -5  -6   3   18.35    3.63
  -4   5   6   31.45    5.30
   6  -4   5   44.60    6.88
  -6   4   5   39.37    5.70
   5  -6   4   39.02    5.50
   5  -6   4   38.74    6.11
  -5   6   4   36.06    4.90
   4  -5   6   31.70    6.70
   4   5  -6   48.18    6.60
   6  -4   5   25.16    6.02
   6   4  -5   38.46    6.48
   4   5   6   38.98    5.88
   6   4   5   41.07    6.29
   6   4   5   57.17    7.72
   4   5   6   58.65    7.37
   5   6   4   48.91    6.59
   6  -4  -5   44.48    6.15
  -4  -5   6   50.14    6.37
  -6  -4   5   54.21    6.33
   4  -5  -6   46.03    5.94
  -5  -6   4   44.23    5.86
   5   6   4   52.64    5.49
   6   5  -5   28.13    6.77
  -6   5   5   43.05    6.08
   5  -5   6   33.63    7.55
   6  -5   5   35.59    6.35
  -5   5   6   35.00    6.04
  -5   6   5   34.96    5.29
   5  -5   6   34.23    6.64
   5   5  -6   27.72    6.81
   5   5   6   39.37    7.68
  -5  -6   5   30.50    6.03
   5   6   5   30.76    5.63
   5   6   5   28.80    5.67
  -5  -5   6   45.53    6.39
  -6  -5   5   30.64    6.05
   6   5   5   31.60    7.57
  -6  -6   0  492.85   18.99
  -6   0   6  526.09   20.36
  -6   6   0  479.05   18.02
   0  -6   6  520.06   19.54
   0   6  -6  501.46   19.53
   0   6   6  467.16   18.28
   6   0  -6  520.16   20.36
   6   0   6  506.74   20.52
   6   0   6  485.58   20.94
   6   6   0  486.66   18.94
  -6  -6  -1   57.16    5.60
   1   6  -6   50.56    6.30
   6   6  -1   56.41    5.93
  -6   1   6   62.17    6.81
  -6   6   1   53.14    5.00
   6  -1   6   55.35    7.39
   6  -1   6   53.92    7.77
  -1   6   6   51.04    5.49
   1  -6   6   61.53    6.59
   6   1  -6   60.46    6.96
   6  -6   1   49.67    5.82
   1   6   6   48.65    5.79
   6  -1  -6   57.04    6.99
  -1  -6   6   48.34    6.10
  -1   6  -6   45.27    6.19
  -6  -6   1   53.47    5.65
   6   1   6   47.64    6.76
  -6  -1   6   59.59    6.95
   6   6   1   50.19    5.71
  -6  -6  -2    8.93    3.45
   6  -6   2   10.00    3.77
   2  -6   6   10.90    3.86
  -6   2   6    8.23    3.87
  -6   6   2    6.45    3.04
   2   6  -6    9.49    3.87
   6  -2   6    6.71    4.40
  -2   6   6    7.81    3.26
   6   2  -6    8.59    4.25
   6   6  -2   16.85    4.18
  -2  -6   6   12.40    3.88
  -6  -2   6    8.87    4.20
  -6  -6   2   13.06    3.77
   6  -2  -6   11.86    4.13
  -2   6  -6    9.70    3.79
   2   6   6   10.35    3.79
   6   2   6    8.72    3.32
   6   2   6   11.90    4.81
   2   6   6   18.41    4.27
   6   6   2    5.13    2.98
   3  -6   6   50.60    7.20
   6  -3   6   32.27    6.95
  -6   3   6   38.79    6.57
  -6   6   3   47.09    5.11
   6  -6   3   48.76    6.58
  -3   6   6   44.36    5.54
   6  -6   3   38.99    5.70
   6  -3   6   52.42    7.87
   6   3  -6   38.31    7.10
  -6  -6   3   42.29    6.36
  -3   6  -6   47.57    6.85
   6  -3  -6   43.06    6.82
  -6  -3   6   41.58    6.40
   3   6   6   44.10    5.46
   3   6   6   55.81    7.17
   6   3   6   43.74    6.60
   6   3   6   42.57    8.09
   6   6   3   38.20    5.73
   6   6   3   44.43    6.88
   6   4  -6  198.98   12.13
  -6   4   6  187.49   10.86
  -6   6   4  182.01    9.71
   6  -4   6  188.68   11.75
  -4   6   6  182.92    9.85
   4  -6   6  191.01   12.47
   6  -4   6  188.56   12.13
  -4  -6   6  230.31   11.63
   4   6   6  209.58   11.81
  -6  -4   6  202.32   11.31
   6   4   6  191.66   11.35
   6   4   6  204.76   12.54
  -6  -6   4  202.56   11.10
   6   6   4  203.27   11.55
   6   6  -5   42.94    7.74
   6   5  -6   36.41    8.00
  -6   5   6   26.84    5.19
  -6   6   5   33.06    6.09
   6  -6   5   28.33    5.98
  -5   6   6   39.37    6.14
   5  -6   6   26.15    5.78
   5   6  -6   40.40    7.57
   6  -5   6   28.31    6.49
   5   6   6   40.87    8.15
  -5  -6   6   33.90    6.93
   5   6   6   27.85    6.27
  -6  -5   6   46.76    7.11
   6   5   6   19.79    5.60
  -6  -6   5   39.15    6.85
   6   6   5   32.92    6.64
   6   6   5   33.89    6.43
   6  -6   6   89.87    9.25
   6   6   6   95.46   10.50
  -7   0   0   -1.16    2.11
   0   0   7    0.58    2.87
   7   0   0    0.97    2.20
   1   0   7   12.59    3.77
   7  -1   0    8.92    3.19
   7   1   0    5.38    2.69
  -1   0   7   10.31    3.14
  -7   1   0    3.81    2.33
  -1   0  -7    8.31    2.94
  -7  -1   0    7.94    2.83
  -2   0  -7   26.52    4.95
   0  -7   2   28.88    2.68
   0   7  -2   25.18    2.93
  -7  -2   0   24.56    4.09
  -2   0   7   25.30    5.31
   2   0   7   29.96    5.67
   7   2   0   24.51    4.74
   2   0  -7   24.03    4.89
   0  -7   3   53.95    4.01
   0   7  -3   52.98    4.33
   3   0   7   45.27    6.44
  -7  -3   0   52.60    5.17
  -7   3   0   41.94    5.01
  -3   0  -7   46.70    5.95
   7   3   0   54.03    5.79
  -3   0   7   52.17    6.38
   7  -3   0   53.68    5.55
   0   7   4   56.13    3.51
   4   0   7   59.55    7.50
  -4   0   7   65.33    6.74
   0   7   4   57.13    3.84
   7  -4   0   60.18    5.92
   7   4   0   62.41    6.11
   0   7  -4   60.81    5.37
   4   0  -7   58.78    6.68
  -7  -4   0   61.99    5.76
  -7   4   0   58.96    5.69
   0  -7   4   58.82    4.96
   7  -5   0    3.87    3.04
   5   0  -7   -0.03    3.89
  -7   5   0    0.64    2.88
   7   5   0   -0.02    2.56
   5   0   7    3.23    3.90
   5   0   7   -3.16    4.54
   0   7  -5    3.23    2.86
   0   7   5   -1.80    2.34
   0  -7   5   -0.07    2.73
  -7  -5   0   -1.37    2.71
  -6   0   7   49.61    7.52
   6   0   7   60.29    9.88
  -7   6   0   55.97    5.85
   0  -7   6   64.44    6.74
   0   7  -6   58.35    6.92
   0  -7  -6   54.67    5.81
   0   7   6   59.26    5.74
   6   0  -7   52.96    8.12
   7   6   0   55.99    6.92
   0  -1  -7  143.28    8.25
   0  -1   7  142.17    8.44
   7   0  -1  136.76    8.18
   0   1   7  135.85    8.63
  -7   0  -1  136.92    7.94
   0   1  -7  148.21    8.47
  -7   0   1  146.12    8.03
   7   0   1  132.51    8.10
   1  -1   7   89.37    7.04
   1   7  -1   87.84    4.09
   7   1  -1   80.38    6.49
   1   1  -7   94.46    6.83
  -7  -1  -1   86.31    6.24
  -1   1   7   91.93    7.13
  -1  -1  -7   87.38    6.73
  -7   1   1   85.61    6.21
   7  -1   1   98.91    6.76
  -1  -1   7   98.28    7.02
   7  -1  -1   73.66    6.29
   1  -1  -7   82.43    6.52
  -7  -1   1   83.29    6.12
   7   1   1   77.63    6.46
   1   1   7   85.61    7.28
  -1  -7   1   87.45    3.90
  -1   1  -7   89.91    6.83
  -7   1  -1   87.63    6.40
  -7   2   1  130.26    7.75
   1  -7   2  121.65    5.40
   2  -1   7  137.62    8.74
   1   7  -2  130.50    5.93
  -2   1   7  140.72    8.66
  -7  -2  -1  117.82    7.40
   7   2  -1  120.97    7.85
   7  -2  -1  132.84    7.90
   2   1   7  127.46    8.60
  -2  -1   7  139.71    8.43
   7   2   1  119.82    7.84
  -1  -7   2  139.61    5.82
  -7  -2   1  127.23    7.56
  -2   1  -7  114.54    8.15
   2  -1  -7  127.43    8.10
   7   3  -1   67.90    6.39
   7  -3   1   76.07    6.28
   3  -1   7   68.17    7.03
  -7   3   1   64.79    5.91
   1   7  -3   79.77    5.20
   1  -7   3   77.55    4.80
  -3  -1  -7   72.86    6.87
  -7  -3  -1   79.32    6.07
   3   1  -7   82.56    6.84
   1   7   3   76.71    3.73
  -7   3  -1   75.67    6.27
  -1  -7   3   81.75    4.96
   7  -3  -1   78.14    6.36
  -3  -1   7   90.97    7.09
  -3   1  -7   74.62    6.92
  -1   7  -3   79.97    5.06
   7   3   1   81.30    6.55
  -7  -3   1   73.59    5.99
  -7   4   1   99.93    6.97
  -1   7   4  101.37    4.87
   4   1  -7  102.79    8.04
  -4   1   7  110.51    8.12
  -7  -4  -1   96.62    7.21
   4  -1   7  101.99    8.74
   7  -4   1  100.76    7.29
   7   4  -1  105.82    7.58
   1   7  -4  111.18    6.70
   1  -7   4  115.10    6.66
   7  -4  -1  110.93    7.36
   1   7   4  109.97    5.12
  -7  -4   1  111.15    7.41
  -4   1  -7   97.03    8.25
   7   4   1  105.14    7.51
   4  -1  -7  101.40    7.97
  -7   4  -1  112.32    7.43
  -4  -1   7  102.98    8.06
   1   7   4  105.85    5.59
  -1  -7   4  112.77    6.36
  -1   7  -4  110.93    6.64
   5   1  -7   25.46    5.42
   1  -7   5   23.25    4.21
   1   7  -5   20.95    3.88
   5  -1   7   16.90    5.10
   7   5  -1   24.76    4.76
  -1   7   5   15.84    3.86
  -7  -5  -1   21.28    4.46
   7  -5   1   18.40    3.89
  -7   5   1   18.88    4.67
   5  -1   7   16.50    4.49
  -1  -7   5   24.34    4.76
   1   7   5   20.05    3.63
   5  -1  -7   20.75    4.69
   1  -7  -5   23.79    3.90
   7   5   1   16.32    4.30
   1   7   5   22.45    4.32
   7  -5  -1   29.55    5.05
  -1   7  -5   23.75    4.29
  -7  -5   1   18.59    3.83
   5   1   7   13.01    4.24
  -1   7   6   45.49    5.54
   6   1  -7   51.38    8.06
  -7   6   1   50.76    5.90
   6  -1   7   51.19    7.96
   1  -7   6   50.24    7.09
  -6   1   7   57.16    7.75
   1   7  -6   47.81    6.68
   6   1   7   47.27    7.57
   1  -7  -6   51.40    5.73
   6   1   7   51.19    8.69
  -1   7  -6   52.06    6.82
   1   7   6   53.45    6.06
   7   6   1   59.97    7.61
   1   7   6   60.93    5.21
  -6  -1   7   51.41    8.23
   6  -1  -7   56.49    7.79
  -7   0   2  534.73   19.75
   0  -2   7  530.41   20.25
  -2  -7   0  525.11   17.10
   0   2   7  507.83   20.71
   2   7   0  548.76   17.24
   7   0  -2  517.35   20.07
   7   0   2  516.95   20.06
   0  -2  -7  525.41   19.99
  -7   0  -2  515.96   19.97
  -7   1   2   11.59    3.21
   7   1  -2    5.38    3.11
  -7  -1  -2    9.98    3.25
   1   2  -7    9.18    3.10
   2  -7   1    6.10    1.29
   2  -7   1    7.94    1.24
  -1  -2  -7    4.43    2.56
   1  -2   7    1.22    2.72
   7  -1   2    6.66    2.91
  -1   2   7   11.58    3.69
   2   7  -1    6.57    1.87
  -1  -2   7    9.17    3.08
  -7   1  -2    6.85    2.86
   2   7   1    7.17    1.83
   7  -1  -2   13.49    3.49
  -2  -7   1   11.11    2.41
  -1   2  -7    7.25    2.36
   7   1   2    1.47    2.72
  -7  -1   2    7.72    2.89
   2   7   1    9.27    2.10
   1   2   7   13.16    4.04
   1  -2  -7    9.35    3.16
  -2  -2  -7   25.64    5.04
   7  -2   2   37.27    5.31
  -7  -2  -2   32.09    4.86
   2   2  -7   27.57    5.25
   2   7  -2   36.24    3.69
   7   2  -2   22.54    4.94
  -2   2   7   26.39    5.54
  -7   2   2   31.41    4.81
   2  -7   2   30.98    3.11
   2  -7   2   34.17    2.87
  -2  -2   7   33.43    5.23
   2   7   2   32.91    2.76
   2   2   7   31.41    5.92
  -2   2  -7   27.07    5.34
  -7   2  -2   24.52    5.02
   2  -2  -7   32.62    5.13
  -2  -7   2   25.80    3.26
  -7  -2   2   31.16    4.59
   7  -2  -2   31.23    4.98
  -3   2   7    0.71    3.14
   7  -3   2    2.81    2.94
  -7  -3  -2    3.36    2.88
   2  -7   3    5.24    2.33
   3   2  -7    8.86    3.52
   7   3  -2    2.02    3.24
   2   7  -3    3.66    2.53
   3  -2   7    1.92    3.46
  -3  -2   7    6.61    3.49
  -7  -3   2    6.19    3.12
   3  -2  -7    6.70    3.20
  -7   3  -2    6.13    3.17
   2   7   3    1.62    1.78
   2   7   3   -0.85    2.01
   3   2   7   -0.98    3.00
   7  -3  -2    2.85    2.85
  -2  -7   3    4.36    2.23
   7   3   2    4.81    3.02
   4  -2   7  158.78   10.37
  -2   7   4  156.22    6.52
   2  -7   4  165.21    8.38
  -7  -4  -2  160.76    9.25
   2   7  -4  159.61    8.49
  -7   4   2  169.28    8.82
   7  -4   2  162.00    9.36
  -4   2   7  148.89    9.61
   7   4  -2  155.90    9.48
   4   2  -7  164.66   10.01
   4   2   7  146.47   10.39
   7  -4  -2  162.34    9.12
  -2   7  -4  167.02    8.44
   4  -2  -7  166.86    9.83
  -2  -7   4  165.44    8.26
   2   7   4  157.97    7.84
  -4   2  -7  149.14   10.16
  -4  -2   7  146.83    9.43
   7   4   2  152.40    9.21
   2   7   4  167.36    7.17
  -7  -4   2  164.71    9.13
   2  -7  -4  156.54    6.86
   7  -5   2   43.16    6.75
  -7  -5  -2   64.52    6.36
  -7   5   2   54.57    5.91
   2   7  -5   64.69    6.38
   7   5  -2   49.93    6.58
  -5   2   7   50.35    7.15
   5  -2   7   56.41    7.95
   5   2  -7   53.36    7.24
  -2   7   5   60.97    4.75
   2  -7   5   65.93    6.20
   7  -5   2   57.00    6.36
   5  -2   7   58.22    7.34
  -2  -7   5   54.45    5.88
  -2   7  -5   53.84    6.11
   5   2   7   58.61    7.01
   7  -5  -2   45.00    6.00
   2  -7  -5   53.66    4.99
   2   7   5   47.36    5.86
   5  -2  -7   68.37    7.54
  -5  -2   7   52.66    7.28
   2   7   5   59.79    4.75
  -7  -5   2   55.25    6.29
  -6   2   7  112.52    9.33
   6  -2   7  112.17    9.74
  -7   6   2  114.68    7.46
  -2   7   6  103.67    6.79
   6   2  -7  108.33    9.77
   6  -2   7  106.24   10.26
  -7  -6  -2   93.75    7.90
   2   7   6  105.90    6.95
   2  -7  -6  100.38    7.25
   2   7   6   99.30    8.11
   6   2   7  103.84   10.57
  -7  -6   2  103.64    8.40
  -6  -2   7  107.45    9.38
  -2  -7   6  110.68    8.35
   6  -2  -7  114.69    9.73
   0   3  -7   65.92    6.51
   7   0   3   69.68    6.38
   3  -7   0   63.63    3.24
   3  -7   0   62.66    3.02
  -3  -7   0   64.70    4.14
   0  -3  -7   54.89    5.92
   3   7   0   62.80    4.24
  -7   0   3   69.29    6.10
   7   0  -3   63.42    6.16
   0   3   7   65.47    6.45
   0  -3   7   59.24    6.14
   7   1  -3   49.85    5.71
   3   7  -1   42.25    3.94
   3  -7   1   45.84    3.01
   3  -7   1   43.61    3.47
   1   3  -7   40.02    5.77
   7  -1   3   46.48    5.85
  -7  -1  -3   41.60    5.37
   1  -3   7   42.12    5.71
  -1  -3  -7   50.83    5.79
  -3  -7   1   41.61    3.85
  -7  -1   3   49.71    5.50
   1   3   7   40.82    6.25
   7   1   3   42.68    5.74
  -1   3  -7   46.67    5.90
   1  -3  -7   44.76    5.54
  -1  -3   7   44.77    5.64
   3   7   1   44.56    3.58
   2  -3   7    2.27    3.23
   3   7  -2    3.16    2.25
   3  -7   2    2.67    1.83
  -7  -2  -3    3.24    2.49
  -2  -3  -7    3.50    2.75
  -2   3   7   -3.05    3.08
   7  -2   3    4.77    3.27
   3  -7   2    3.02    2.16
  -7   2   3    2.78    2.95
   7   2  -3   -3.44    2.98
   2   3  -7   -3.02    3.20
  -3  -7   2   -2.70    1.90
  -2   3  -7    3.54    3.35
  -2  -3   7    5.49    3.16
   7   2   3    3.11    3.12
  -7  -2   3   -2.27    2.59
   2  -3  -7    2.98    2.86
   3  -7  -2    1.22    1.33
   3   7   2    2.18    1.80
   3   7   2   -0.76    2.21
   7  -2  -3   -1.22    2.86
   3  -7   3  107.16    6.20
  -7  -3  -3  119.73    7.87
   3   3  -7  133.88    8.64
  -3   3   7  123.42    8.17
   3  -3   7  113.67    8.71
   7  -3   3  116.35    8.15
  -7   3   3  122.58    7.81
   7  -3   3  114.69    8.45
  -3  -3  -7  109.18    8.31
   3   7  -3  120.44    6.87
  -3   7   3  112.62    4.91
   7   3  -3  124.28    8.40
   3  -7   3  126.07    6.80
  -3   3  -7   97.36    8.08
   3  -7  -3  102.35    5.14
   3   3   7  104.38    8.67
  -3  -7   3  106.80    6.46
   3  -3  -7  102.38    7.65
   3   7   3  105.90    6.52
   3   7   3   97.36    5.62
  -3  -3   7  115.63    8.00
  -7  -3   3   91.95    7.28
   7   3   3  109.64    7.92
   7  -3  -3  102.52    7.53
   7  -4   3   68.02    7.25
   4   3  -7   59.22    7.16
  -7   4   3   58.54    6.28
  -3   7   4   63.71    4.37
   7  -4   3   70.05    6.98
   7   4  -3   64.03    7.19
   3   7  -4   76.27    6.15
  -4   3   7   63.98    6.84
   4  -3   7   60.54    7.53
   3  -7   4   73.70    6.43
   7  -4  -3   66.85    6.62
   7   4   3   52.70    6.60
   4   3   7   57.88    6.61
   3   7   4   61.97    4.90
  -7  -4   3   58.47    6.22
  -4  -3   7   49.20    6.54
   3   7   4   57.76    6.00
   4   3   7   52.47    7.74
   3  -7  -4   58.55    4.71
   4  -3  -7   64.77    7.01
  -4   3  -7   61.11    7.54
  -3  -7   4   73.71    5.91
   7  -5   3   15.07    4.77
   3  -7   5   19.54    4.42
  -7   5   3   23.93    5.30
   5  -3   7   20.50    5.30
   7   5  -3   20.57    5.16
  -3   7   5   24.93    4.28
   3   7  -5   15.40    4.30
   7  -5   3   24.45    6.04
   5  -3   7   22.10    5.65
  -5   3   7   13.70    4.53
   5   3  -7   16.44    4.85
  -7  -5   3   18.43    4.01
   3  -7  -5   17.26    3.46
   7  -5  -3   16.42    4.39
  -3  -7   5   23.93    4.39
   5   3   7   10.66    3.95
  -5  -3   7   23.91    5.01
   5  -3  -7   22.85    5.16
   5   3   7   15.61    4.56
   3   7   5   16.11    4.27
   7   5   3   12.04    4.14
   3   7   5   20.53    4.34
  -3   7   6    6.09    3.27
  -7   6   3   -4.64    3.37
   6  -3   7   -1.85    5.20
   7  -6   3   -5.74    4.10
   6   3  -7   -1.25    4.58
   3  -7   6    4.02    4.32
   6  -3   7   -3.24    3.70
   7   6  -3    8.30    4.53
   3   7  -6    1.41    4.04
  -6   3   7    2.75    3.88
   7   6   3    0.23    3.74
   3   7   6   -2.49    4.19
  -7  -6   3    7.60    4.10
   6  -3  -7   -3.01    4.29
  -3  -7   6    4.74    3.91
   6   3   7   -3.66    4.66
   6   3   7    9.15    4.35
   3  -7  -6    7.12    3.74
  -6  -3   7    7.64    4.76
   4  -7   0   97.35    5.10
  -4  -7   0   96.29    5.68
   7   0   4   94.60    8.23
   0   4   7  101.83    7.63
   4  -7   0   96.90    4.86
   0   4  -7   90.81    7.65
   4   7   0   96.10    5.76
   0  -4   7   95.16    7.58
   7   0   4   92.10    7.69
  -7   0   4   93.48    7.36
   0  -4  -7   97.97    7.34
   7   0  -4   95.60    7.68
  -4  -7  -1   71.38    5.04
   7  -1   4   69.09    7.12
   7  -1   4   78.62    7.44
   4  -7   1   68.41    4.40
  -7   1   4   61.94    6.51
   4   7  -1   81.52    5.63
  -1   4   7   62.85    6.64
   1   4  -7   85.97    7.23
   1  -4   7   63.55    6.86
  -1  -4  -7   72.82    6.75
   4  -7   1   72.74    4.85
   7   1  -4   84.10    7.39
   1   4   7   71.62    7.31
   7  -1  -4   80.54    7.25
   4   7   1   76.73    5.14
   1  -4  -7   76.11    6.58
  -1  -4   7   72.14    6.78
   4  -7  -1   73.60    4.18
  -7  -1   4   69.61    6.70
   7   1   4   65.21    7.07
  -4  -7   1   79.09    5.33
  -1   4  -7   77.93    7.02
  -7   2   4   54.02    6.47
  -2  -4  -7   49.65    6.13
   7  -2   4   54.32    6.79
   7   2  -4   49.10    6.55
   7  -2   4   57.76    6.75
   4  -7   2   45.36    4.79
   4   7  -2   54.12    5.17
  -2   4   7   45.28    6.01
   2   4  -7   55.98    6.53
   4  -7   2   50.06    4.30
   2  -4   7   45.11    6.61
  -4   7   2   49.48    3.52
  -7  -2   4   45.46    5.94
  -2  -4   7   60.74    6.12
   4   7   2   42.83    5.04
   7  -2  -4   51.82    6.20
   4   7   2   45.68    4.50
   2   4   7   39.36    6.90
   2  -4  -7   48.45    5.97
  -4  -7   2   51.64    5.02
   7   2   4   41.71    6.99
   4  -7  -2   41.49    3.66
  -2   4  -7   46.53    6.46
   7  -3   4   29.33    6.21
   3   4  -7   25.75    6.04
   7  -3   4   27.31    6.51
   7   3  -4   27.77    6.19
  -4   7   3   23.19    3.40
   4   7  -3   33.36    4.90
  -3   4   7   21.25    4.42
  -7   3   4   24.62    5.53
   3  -4   7   26.94    6.38
   4  -7   3   24.41    4.85
   4   7   3   21.60    4.99
   7  -3  -4   19.30    4.24
   3   4   7   25.41    5.27
   4   7   3   19.98    3.43
  -3  -4   7   26.95    5.03
  -3   4  -7   16.36    3.88
   7   3   4   18.06    4.58
   7   3   4   12.77    5.32
   4  -7  -3   20.51    3.57
  -4  -7   3   23.03    4.72
   3  -4  -7   17.83    4.05
   4  -7   4   57.66    6.45
   4   4  -7   53.34    7.34
   7   4  -4   61.65    7.67
   7  -4   4   60.00    7.31
  -4   4   7   54.81    6.69
   7  -4   4   48.38    7.74
   4  -4   7   46.94    7.56
   4   7  -4   63.67    6.39
  -4   7   4   52.34    4.70
  -7   4   4   65.92    6.72
  -4  -4   7   53.07    6.67
  -4  -7   4   60.64    6.01
   4  -4  -7   65.47    7.16
   4   7   4   50.98    5.22
   7   4   4   58.32    7.06
   7  -4  -4   48.98    6.89
   4   4   7   42.78    6.94
  -4   4  -7   51.29    7.60
   4   7   4   54.92    6.58
   4   4   7   50.75    6.66
   7   4   4   56.58    7.65
   4  -7  -4   47.65    4.96
  -7  -4   4   44.72    6.53
   4   7  -5   35.18    6.71
   5  -4   7   33.84    7.87
  -7   5   4   29.39    6.07
   7  -5   4   40.58    8.03
   5  -4   7   35.03    7.15
   7   5  -4   30.52    7.26
  -5   4   7   28.29    6.54
   5   4  -7   28.01    5.46
  -4   7   5   23.13    4.67
  -7  -5   4   41.30    6.67
  -4  -7   5   51.62    6.31
   5   4   7   40.89    6.95
   4   7   5   39.76    5.31
   5   4   7   39.79    8.45
  -5  -4   7   36.67    7.00
   7   5   4   37.31    6.77
   7   5   4   33.39    7.68
   4   7   5   45.51    7.07
   4  -7  -5   38.39    5.59
  -7   6   4   96.20    8.05
   6   4  -7  114.89   10.41
   4   7  -6  102.77    9.54
   7  -6   4   98.00    9.50
   7   6  -4  101.27    9.49
   4  -7   6   92.91    8.29
   4  -7   6   94.56    9.47
  -6   4   7  116.70    9.49
   6  -4   7  116.21   10.93
  -4   7   6   97.59    7.40
   7  -6   4   98.34    9.14
   6   4   7  114.67    9.76
  -6  -4   7  114.92    9.70
  -7  -6   4   97.73    9.07
   7   6   4   94.59    9.76
   4   7   6  105.06    7.81
   4   7   6  115.48    9.74
   6   4   7  113.91   11.27
  -4  -7   6  118.76    9.12
   7   6   4  100.80    9.08
   5   7   0   98.64    6.75
  -7   0   5  109.17    8.18
  -5  -7   0  102.04    6.59
   7   0   5  106.19    8.50
   0   5   7  106.97    7.96
   0   5  -7  112.53    8.40
   5  -7   0  105.94    6.20
   0  -5  -7   99.16    7.55
   5  -7   0   97.03    5.72
   7   0   5   96.04    9.17
   0  -5   7  104.24    8.06
   7   0  -5  110.79    8.60
   5  -7   1   53.83    5.16
   7  -1   5   45.63    7.67
   1  -5   7   53.63    6.66
   7  -1   5   45.72    6.91
   1   5  -7   43.86    6.56
  -5  -7  -1   51.39    5.16
  -1  -5  -7   51.22    6.41
   5  -7   1   52.05    4.55
   7   1  -5   57.56    7.14
  -1   5   7   50.60    6.20
   5   7  -1   52.25    5.43
   7  -1  -5   50.49    6.96
  -5  -7   1   50.58    5.22
  -1   5  -7   47.33    6.70
   1  -5  -7   42.72    6.10
  -7  -1   5   37.14    6.45
   5   7   1   50.59    5.07
   7   1   5   50.89    6.86
   1   5   7   47.45    6.76
  -1  -5   7   37.80    6.23
   5  -7  -1   50.02    4.28
  -5   7   2  233.89    9.84
   2  -5   7  239.33   12.92
  -7   2   5  247.51   12.37
   5   7  -2  240.15   11.50
   2   5  -7  271.59   13.12
  -2  -5  -7  251.81   12.44
   7  -2   5  246.57   13.04
   5  -7   2  245.36   11.03
  -2   5   7  231.06   11.82
   7   2  -5  264.61   13.20
   7   2   5  257.26   13.28
  -5  -7   2  270.97   11.64
   5  -7  -2  231.61   10.03
  -2   5  -7  255.49   12.98
   7  -2  -5  256.04   12.99
  -2  -5   7  250.50   12.63
   5   7   2  259.30   11.04
   2  -5  -7  247.66   12.00
   7   2   5  240.49   13.63
  -7  -2   5  254.24   12.82
   2   5   7  246.77   12.93
  -7   3   5   17.61    4.56
  -3   5   7   18.48    4.25
   7  -3   5   29.50    6.44
   3  -5   7   11.60    4.48
   5   7  -3   20.83    4.52
   5  -7   3   24.92    5.64
   3   5  -7   23.39    5.35
   7   3  -5   28.24    5.59
  -5   7   3   18.15    3.99
   7  -3   5   22.45    6.08
   5   7   3   22.41    4.88
   5  -7  -3   11.94    3.10
   7  -3  -5   16.17    4.51
   7   3   5   17.37    5.16
   7   3   5   18.35    5.30
   3   5   7   21.20    5.27
  -5  -7   3   20.45    4.14
  -3  -5   7   10.03    3.57
  -7  -3   5   24.54    5.13
   5   7   3   14.12    3.88
   3   5   7   11.46    3.78
  -3   5  -7   13.57    4.60
   7   4  -5  119.67    9.82
   4   5  -7  111.41    9.56
   4  -5   7  108.20   10.15
   5   7  -4  130.65    9.07
   7  -4   5  101.31    9.84
  -7   4   5  121.77    8.84
   7  -4   5  109.26    9.44
  -5   7   4  112.05    6.82
  -4   5   7  120.83    8.68
   7   4   5  114.01    9.24
  -7  -4   5  124.74    9.08
   4   5   7  109.49   10.01
   5  -7  -4  114.22    7.17
   7   4   5  122.19   10.29
   5   7   4  113.40    8.75
  -5  -7   4  124.38    8.38
   4   5   7  123.86    9.10
   5   7   4  116.44    8.55
  -4  -5   7  138.38    9.35
   5  -5   7   27.82    6.61
   7  -5   5   23.48    5.92
  -5   7   5   25.40    5.25
   5   7  -5   32.26    7.47
   5   5  -7   24.29    5.98
   5  -7   5   31.38    5.80
   5  -7   5   27.51    6.28
  -7   5   5   17.50    4.48
  -5   5   7   21.69    4.70
   7   5  -5   13.35    4.76
  -5  -7   5   24.68    5.18
  -7  -5   5   32.28    7.03
   7  -5  -5   30.33    7.33
   5   5   7   24.01    6.39
   5  -5  -7   17.64    5.29
   5   7   5   32.84    6.05
  -5  -5   7   24.75    5.57
   7   5   5   33.57    7.29
   7   5   5   19.02    6.41
   5   7   5   33.07    5.89
   6  -5   7   75.84    9.85
  -6  -5   7   72.28    8.79
   7   6   5   73.60   10.44
   6   5   7   66.18   10.59
   7   0   6   12.79    5.33
   7   0   6   21.10    5.55
  -6  -7   0   20.76    4.95
   6   7   0   24.29    5.52
  -7   0   6   14.46    4.88
   6  -7   0   20.78    4.04
   0   6   7   15.29    4.24
   7  -1   6   -2.78    3.41
   6  -7   1    2.95    3.39
  -1   6   7    4.79    3.63
   7   1  -6    0.82    3.62
  -7   1   6   -7.91    3.42
  -6  -7  -1    1.24    3.26
  -6   7   1   -0.34    2.64
   7  -1   6    5.89    5.40
   6   7  -1   -1.82    3.39
   6  -7  -1   -1.02    2.82
   1   6   7    1.55    3.89
  -7  -1   6    2.27    3.83
   6   7   1    0.55    2.94
   7  -1  -6    6.43    4.34
  -6  -7   1    3.10    3.29
   7   1   6   -5.36    5.15
  -7   2   6  124.89    9.24
   7   2  -6  100.07    9.35
  -2   6   7  109.37    7.89
   6  -7   2  117.94    8.13
   2  -6   7  103.13    9.23
   7  -2   6  122.53    9.89
  -6   7   2  111.97    6.80
   7  -2   6  120.94   10.76
   7  -2  -6  112.94    9.40
  -2  -6   7  110.19    8.84
  -6  -7   2  118.48    8.30
   2   6   7  119.51    9.47
   7   2   6  107.89    9.38
  -7  -2   6  104.39    9.33
   7   2   6  104.53   10.85
   6  -7  -2   90.26    7.34
  -6   7   3    9.95    3.27
   6   7  -3    7.31    4.23
  -3   6   7    2.42    3.79
   3  -6   7   17.27    5.33
   3   6  -7    4.72    5.00
  -7   3   6    4.06    4.35
   7  -3   6    8.93    4.37
   7   3  -6    8.98    5.19
   6  -7   3    8.22    4.07
   7  -3   6   10.89    5.11
  -6  -7   3    8.53    4.35
   7  -3  -6    6.61    4.26
  -7  -3   6    8.74    3.91
  -3  -6   7    4.58    4.30
   3   6   7    6.82    3.73
   3   6   7   13.86    5.24
   7   3   6    2.87    4.46
   6   7   3    9.60    4.65
   6   7   3   16.12    4.02
   7   3   6   12.57    6.04
  -7   4   6  103.89    9.27
   7   4  -6  116.51   10.41
   4   6  -7  112.27   10.05
  -4   6   7  104.97    8.47
   7  -4   6  112.54   10.75
   6   7  -4  126.33    9.76
   4  -6   7  114.53   10.56
   6  -7   4   96.47    9.26
  -6   7   4  107.17    7.44
   6   7   4  113.97    8.22
   7   4   6  115.03   10.22
   7   4   6   97.03   11.25
   4   6   7  119.06   10.48
  -7  -4   6  111.17    9.47
   6   7   4  106.43    9.39
  -6  -7   4  106.24    8.94
  -4  -6   7  119.36    9.59
   4   6   7  105.86    8.61
   5  -6   7   11.76    4.93
   7  -5   6   18.89    5.83
   7   5   6   19.37    6.50
  -7  -5   6   24.48    6.42
  -7  -7   0    4.27    3.92
  -7   0   7    8.49    5.34
   0  -7   7   -1.64    4.09
   0   7  -7    6.67    4.70
   0   7   7    5.36    3.86
   7   0   7    8.74    4.84
   7   7   0    2.15    3.81
  -7  -7  -1    7.51    4.07
   1   7  -7    6.74    4.88
   7   7  -1   -1.89    3.77
  -7   1   7    6.75    4.49
  -7   7   1   -0.61    3.19
   7  -1   7    7.37    4.19
   7  -1   7    7.57    5.06
  -1   7   7    3.75    4.03
   1  -7   7    4.80    4.58
   7   1  -7    1.60    4.96
   7  -7   1   -0.26    4.05
   1   7   7    7.02    4.31
   7  -1  -7   18.57    5.96
  -1  -7   7    5.19    4.57
  -1   7  -7    8.11    4.69
  -7  -7   1    9.83    3.90
   7   1   7    8.04    5.98
  -7  -1   7    8.26    4.72
   7   7   1    1.85    3.71
  -7  -7  -2   88.10    7.92
   2  -7   7   85.58    9.03
  -7   2   7   72.94    9.19
  -7   7   2   76.24    6.64
   7   2  -7   78.03   11.15
   7  -2   7   84.79    9.87
  -2   7   7   76.61    7.12
   7  -7   2   89.33    8.43
   2   7  -7   96.44    9.53
   7  -2   7   93.24   11.19
   7   7  -2   80.62    8.94
   2   7   7   71.41    7.15
  -2   7  -7   68.27    8.70
  -7  -7   2   76.13    8.04
  -2  -7   7   76.77    8.56
   7   2   7   80.25    9.35
   7   2   7   74.04   10.67
   2   7   7   70.78    8.35
   7   7   2   86.54    8.05
   7   3  -7   27.01    6.17
  -7   3   7   45.36    8.71
   3  -7   7   42.77    9.68
   7  -3   7   54.05   10.22
   7  -7   3   45.44    8.10
   3   7   7   35.75    6.45
  -7  -3   7   43.23    8.70
   7   3   7   41.31    7.80
   7   3   7   35.15    7.66
  -7  -4   7   18.29    5.32
   7   4   7    7.88    5.60
  -8   0   0   32.19    5.30
   0   0  -8   26.18    5.69
   0   0   8   31.77    6.43
   8   0   0   33.58    5.79
   8  -1   0  252.69   12.23
   8   1   0  225.82   11.95
   1   0  -8  234.79   12.00
   1   0   8  236.88   12.72
  -1   0  -8  239.06   12.17
  -8   1   0  237.01   11.92
  -8  -1   0  243.28   11.71
   2   0   8   12.77    4.42
   8  -2   0   11.36    3.52
   8   2   0   13.86    4.04
   2   0  -8   17.96    4.94
   0   8  -2   13.72    2.32
   0  -8   2   12.64    2.43
  -2   0  -8   10.17    4.38
  -2   0   8   12.85    4.62
  -8  -2   0    3.94    3.25
  -8   2   0   10.13    3.37
   0   8  -3  772.70   24.72
  -3   0  -8  700.36   27.53
  -3   0   8  716.55   28.05
  -8  -3   0  774.97   27.28
  -8   3   0  736.82   26.89
   3   0  -8  736.52   27.66
   3   0   8  738.12   28.29
   8  -3   0  755.45   27.22
   8   3   0  746.47   27.48
   0  -8   3  747.09   24.39
  -8  -4   0    7.53    3.52
   0   8  -4    2.11    2.92
   8  -4   0    3.25    3.77
   8   4   0   -1.41    3.06
   0  -8   4    0.70    2.74
   4   0  -8    5.60    4.55
  -8   4   0   -4.95    3.32
  -4   0   8    3.16    4.49
   8   5   0   29.67    6.75
   0  -8   5   43.05    5.97
   5   0   8   57.34    9.40
   0   8   5   34.88    3.80
  -8  -5   0   37.51    6.40
   0   8   5   32.32    4.48
   5   0  -8   38.76    7.78
  -8   5   0   50.85    6.48
   0   8  -5   49.90    6.25
   0   8  -6    1.14    4.28
   8   6   0   -4.70    3.96
   0  -8   6    7.06    4.25
  -6   0   8   -0.29    5.28
   0   8   6    4.35    3.32
   6   0  -8    4.99    5.08
   6   0   8   -5.91    5.93
  -8  -6   0    1.66    4.01
  -8   6   0   -2.44    3.91
   8  -6   0    3.28    3.69
  -7   0   8   94.80   10.68
   7   0   8   98.99   11.48
   7   0   8   80.21   12.93
   7   0  -8   93.33   11.16
   8   0   1   36.17    5.90
   0  -1   8   34.36    6.25
   0   1  -8   39.73    6.13
   0  -1  -8   37.03    5.81
  -8   0  -1   26.41    5.30
   0   1   8   26.36    6.24
   8   0  -1   32.06    5.72
  -8   0   1   29.49    5.30
   8   1  -1   12.26    4.13
   8  -1   1    7.57    3.60
   1   1  -8   12.12    4.25
  -1   1   8    7.37    3.64
   1  -1   8   12.57    4.45
  -8  -1  -1    7.85    3.54
  -1  -1  -8    9.63    3.74
  -8   1   1   10.80    3.52
  -1   1  -8   19.36    4.94
   8  -1  -1   10.71    3.75
   8   1   1   12.23    3.91
  -8  -1   1   10.23    3.52
   1   1   8   17.93    4.97
   1  -1  -8    8.86    4.10
  -1  -1   8   14.53    4.58
  -8  -2  -1   34.09    5.52
   1   8  -2   36.10    3.81
   2   1  -8   40.95    6.38
   1  -8   2   41.15    2.86
  -2   1   8   37.51    6.66
   8   2  -1   35.36    6.02
   2  -1   8   32.83    7.07
   8  -2   1   32.46    6.11
  -1  -8   2   44.59    3.41
   2   1   8   31.47    5.82
  -2   1  -8   28.32    6.32
   8  -2  -1   40.23    6.08
  -8  -2   1   45.05    5.56
   8   2   1   47.57    6.40
   2  -1  -8   45.78    6.58
  -8   2  -1   44.66    5.89
  -2  -1   8   34.45    6.65
   8   3  -1   29.42    6.06
  -8  -3  -1   38.29    5.75
  -3  -1  -8   43.84    6.64
   8  -3   1   37.68    6.13
  -3   1   8   42.99    7.20
   1   8  -3   35.43    4.54
   3  -1   8   31.41    7.26
   3   1  -8   27.30    6.48
   1  -8   3   36.61    3.95
  -8   3   1   36.14    5.85
   8  -3  -1   40.19    6.03
  -1  -8   3   40.44    4.08
  -8   3  -1   39.99    6.00
   3  -1  -8   38.51    6.07
  -3   1  -8   28.03    6.58
  -8  -3   1   30.17    5.28
   8   3   1   39.89    6.45
  -3  -1   8   36.02    7.13
   3   1   8   32.82    7.40
   8  -4   1   27.84    5.16
  -8  -4  -1   27.55    5.11
   4  -1   8   24.21    5.71
   4   1  -8   23.16    5.50
   8   4  -1   32.43    6.46
  -8   4   1   25.50    5.41
   1   8  -4   20.45    4.98
   1  -8   4   19.01    4.50
  -8  -4   1   23.86    5.66
   4   1   8   27.65    6.44
  -4   1  -8   11.61    5.11
   1   8   4   24.84    3.00
  -1   8  -4   22.63    3.87
   8   4   1   31.20    6.35
   1   8   4   17.40    3.30
   8  -4  -1   14.60    3.84
   4  -1  -8   27.78    5.69
  -1  -8   4   26.03    4.59
  -8   4  -1   26.12    5.80
  -4  -1   8   21.10    5.13
   1   8  -5  102.13    7.73
  -1   8   5   94.95    5.28
  -8   5   1   97.69    7.64
   5  -1   8   78.34   10.27
  -8  -5  -1   91.78    8.06
  -5   1   8   82.45    9.04
   1  -8   5   89.62    7.36
   5   1  -8   95.73    9.39
   8   5  -1   86.09    8.57
  -5  -1   8   89.84    9.32
  -1  -8   5   91.19    7.10
  -8  -5   1   96.45    8.17
   5   1   8   78.62    8.82
  -8   5  -1   89.35    7.85
  -1   8  -5   83.80    7.37
   8   5   1  101.52    8.54
   1   8   5   84.49    5.94
   5  -1  -8  107.24    9.44
   8  -6   1   27.46    6.56
  -8   6   1   13.46    4.48
  -1   8   6   21.50    5.02
   1   8  -6   17.47    4.69
  -8  -6  -1   22.78    5.47
   6   1  -8   14.02    5.65
   8   6  -1   23.29    5.65
   1  -8   6   22.95    5.01
   6  -1   8   18.58    6.02
   6  -1   8   37.91    7.81
   1   8   6   28.39    5.67
  -6  -1   8   33.74    6.92
  -8  -6   1   34.09    6.90
  -1  -8   6   30.13    6.52
  -1   8  -6   33.24    6.85
   8  -6  -1   34.68    6.78
   1   8   6   33.64    5.02
   6   1   8   26.62    7.54
   6  -1  -8   19.73    5.34
   6   1   8   42.68    8.42
   7   1  -8  117.00   11.88
   7  -1   8   90.91   12.68
  -7   1   8   96.55   10.91
  -7  -1   8  100.70   11.07
   7   1   8  103.45   12.87
   1   8   7   96.82    7.79
   7   1   8  118.17   11.50
   0  -2   8   13.62    4.40
   2   8   0   10.62    2.50
   8   0   2   11.44    3.89
   0  -2  -8   10.94    4.07
   0   2  -8   10.77    3.72
  -8   0  -2    5.23    3.12
  -8   0   2    6.29    2.86
  -1  -2  -8    3.08    3.59
   8   1  -2    8.68    3.99
  -8   1   2    4.66    3.10
   8  -1   2    7.48    3.62
   1  -2   8    3.05    3.38
   2   8  -1    7.48    2.23
   1   2  -8    7.27    4.11
   1  -2  -8    6.95    3.24
  -8  -1   2    6.64    3.46
   2   8   1    6.43    1.78
   8   1   2    3.29    3.39
  -8   1  -2   11.21    3.69
  -1   2  -8    7.79    3.94
  -2  -8   1    8.89    1.98
  -1  -2   8   -3.61    3.41
   8  -1  -2    8.09    3.29
   2   8  -2   50.75    4.58
  -8  -2  -2   37.46    6.02
   2  -2   8   45.45    7.22
   8   2  -2   53.17    6.80
   2  -8   2   44.38    3.20
  -2   2   8   39.84    6.91
   8  -2   2   52.61    6.84
  -8  -2   2   47.83    5.96
   8  -2  -2   59.80    6.97
  -2  -2   8   44.99    6.81
  -2   2  -8   43.28    6.84
  -2  -8   2   49.49    4.10
   2  -2  -8   57.99    6.91
   2   8   2   48.69    3.44
   8   2   2   47.98    6.62
  -8   2  -2   57.98    6.62
   2   8  -3   43.57    5.00
  -3  -2  -8   27.03    6.65
   2  -8   3   40.00    3.99
  -8  -3  -2   35.79    5.95
  -8   3   2   33.62    5.76
   8  -3   2   44.84    6.79
   2  -8   3   46.97    4.49
   3   2  -8   30.46    6.77
  -3   2   8   43.33    7.41
   8   3  -2   42.64    6.76
   3  -2   8   36.25    7.42
  -3   2  -8   35.52    6.88
  -3  -2   8   48.02    7.37
   3  -2  -8   27.30    6.70
   3   2   8   37.65    7.79
   8  -3  -2   38.75    6.25
  -8   3  -2   42.00    6.22
   2   8   3   39.46    3.94
   8   3   2   49.15    6.75
  -8  -3   2   44.51    5.98
  -2  -8   3   41.71    4.48
   4   2  -8   21.24    5.31
   2  -8   4   19.25    3.84
  -4   2   8   17.12    4.55
   2   8  -4   19.74    4.01
  -8  -4  -2   23.91    5.73
   4  -2   8   14.90    5.27
  -8   4   2   14.13    4.45
   8   4  -2   18.64    5.03
   8  -4   2   20.94    4.95
  -4   2  -8   21.55    5.56
   4   2   8   16.08    5.50
   2   8   4   15.65    3.56
  -2  -8   4   17.37    3.56
   2   8   4   20.58    3.32
   4  -2  -8   19.18    4.92
   8  -4  -2   20.58    4.26
  -8  -4   2   22.76    4.88
  -4  -2   8   15.71    5.06
   8   4   2   20.17    4.57
  -5   2   8   26.72    5.80
  -2   8   5   25.51    3.92
   8   5  -2   35.12    7.27
  -8  -5  -2   27.30    6.46
   8  -5   2   22.34    5.33
   5  -2   8   33.67    7.32
  -8   5   2   42.79    6.12
   5   2   8   15.35    4.15
   8   5   2   26.22    5.38
  -5  -2   8   37.19    7.85
   5  -2  -8   20.70    5.02
   2   8   5   23.60    4.49
  -2  -8   5   44.04    6.16
   2  -8  -5   26.77    4.05
   5   2   8   20.39    5.57
  -8  -5   2   30.87    5.60
   2   8   5   31.98    5.49
  -2   8  -5   37.05    6.36
   8  -6   2   84.65    8.56
   2   8  -6  104.11    9.08
   2  -8   6   99.58    9.05
  -2   8   6   79.57    6.30
  -6   2   8  106.52   10.03
   8  -6   2   76.90    9.02
   6   2  -8   97.05   10.39
  -8   6   2   82.55    7.62
   6  -2   8   85.31   11.58
  -8  -6  -2   63.58    8.51
   8   6  -2   83.73    9.79
  -6  -2   8   87.56    9.97
   2  -8  -6   84.67    6.73
   8  -6  -2   76.81    8.11
   6   2   8   97.15   10.19
   6   2   8   98.47   11.17
   2   8   6   86.14    7.39
   2   8   6   97.89    7.41
  -2  -8   6   96.27    8.41
  -8  -6   2   89.39    8.74
  -2   8  -6   99.14    8.48
  -7   2   8    7.79    5.30
   7  -2   8   11.36    6.90
   7  -2   8    8.78    6.64
   7   2  -8   12.38    7.17
   7   2   8    3.11    7.23
  -7  -2   8    8.33    6.17
   0  -3   8   82.11    7.91
   0   3  -8   84.53    8.13
   3   8   0   94.57    5.38
   0  -3  -8   90.21    7.74
   0   3   8   85.18    8.52
   8   0  -3   96.63    8.55
  -3  -8   0   94.27    5.07
  -1  -3  -8  183.81   10.64
   8   1  -3  186.96   10.87
  -1   3   8  190.31   11.11
   8  -1   3  183.87   11.02
   3   8  -1  193.14    8.30
   3  -8   1  186.92    6.68
  -8   1   3  187.74   10.39
   3  -8   1  181.62    6.50
   1  -3   8  178.13   11.06
   1   3  -8  171.74   10.78
   8  -1  -3  171.54   10.54
  -8  -1   3  187.42   10.55
   1   3   8  178.14   11.27
   3   8   1  181.91    7.70
   8   1   3  179.26   10.93
  -1  -3   8  177.10   10.68
   1  -3  -8  180.03   10.54
  -1   3  -8  185.78   11.05
  -3  -8   1  187.74    8.03
   3  -8   2    2.00    1.88
  -2  -3  -8   -2.67    3.94
   8   2  -3    3.91    4.14
   3   8  -2    1.01    2.52
   2  -3   8    2.45    4.22
  -8  -2  -3    4.90    3.60
   3  -8   2    0.42    2.27
  -8   2   3    0.91    3.32
   2   3  -8    3.88    4.06
   8  -2   3   -5.13    3.65
  -2   3   8   -8.15    3.78
   3   8   2    0.68    2.65
   3   8   2    0.95    2.14
  -2   3  -8    1.33    4.09
   2  -3  -8   -5.67    3.38
   2   3   8    0.68    4.75
  -3  -8   2   -2.31    2.44
   8  -2  -3    2.50    3.29
  -2  -3   8   -1.32    3.43
  -8  -2   3   -2.02    3.57
   8   2   3   -4.35    3.59
   3  -8   3    2.72    2.25
   8   3  -3    7.74    3.67
   3   3  -8    0.31    3.32
  -8   3   3    2.18    3.47
  -3   3   8   -0.65    3.76
   3  -8   3    1.78    2.82
   8  -3   3    2.17    4.07
  -3  -3  -8   -3.67    4.22
   3  -3   8    3.77    4.16
   8  -3   3   -2.61    4.02
   3   8  -3    6.23    3.19
  -8  -3  -3   -0.73    3.03
  -3   3  -8    7.22    4.52
   3  -3  -8   -2.30    3.96
  -8  -3   3    1.94    3.62
  -3  -8   3   -0.14    2.63
  -3  -3   8    1.57    3.58
   8  -3  -3    2.39    3.33
   3   8   3   -1.21    2.87
   3   3   8   -1.68    4.58
   3   8   3    0.67    2.32
   8   3   3   -3.12    3.73
  -4   3   8   32.92    7.16
   8  -4   3   30.91    6.96
   8   4  -3   17.52    4.99
   4  -3   8   37.59    8.42
   4   3  -8   36.02    7.85
   8  -4   3   38.72    7.54
   3  -8   4   34.49    5.81
  -3   8   4   30.79    3.28
  -8   4   3   29.90    6.49
   3   8  -4   27.93    5.92
  -3  -8   4   32.77    5.31
   3   8   4   37.55    5.57
  -4   3  -8   41.29    8.11
  -4  -3   8   39.38    6.50
   4   3   8   25.59    5.41
   3   8   4   35.61    4.73
   3  -8  -4   23.26    3.52
   8   4   3   38.86    6.90
  -8  -4   3   43.67    6.72
   4  -3  -8   35.70    7.48
   8  -5   3  408.08   19.09
  -8   5   3  417.21   17.70
   3   8  -5  450.97   17.93
  -5   3   8  418.76   18.98
   8   5  -3  387.82   18.87
  -3   8   5  407.28   15.00
   5   3  -8  441.18   19.68
   3  -8   5  438.11   17.71
   5  -3   8  404.41   19.96
   3  -8  -5  426.88   15.46
   3   8   5  423.16   16.02
  -3  -8   5  471.67   17.70
   5   3   8  438.38   20.08
   8  -5  -3  436.60   19.55
   5   3   8  438.45   19.36
  -5  -3   8  467.51   19.64
   3   8   5  393.95   16.63
  -8  -5   3  437.52   18.55
   8   5   3  416.48   18.52
   3  -8   6   70.10    8.75
   6  -3   8   59.45   10.99
   6  -3   8   55.48    9.71
  -6   3   8   63.61    9.09
   6   3  -8   61.85    9.85
  -6  -3   8   81.77   10.04
   3   8   6   71.06    6.80
   6   3   8   78.42   11.54
   7   3   8   27.82    7.02
   0  -4  -8   36.41    6.76
   8   0   4   36.22    7.98
  -4  -8   0   35.53    4.25
   8   0  -4   28.86    7.04
   8   0   4   41.91    6.98
   4   8   0   32.02    4.62
   4  -8   0   25.82    2.80
   4  -8   0   31.54    3.29
   0   4  -8   35.44    6.38
   0   4   8   33.77    7.11
   0  -4   8   36.48    6.18
  -8   0   4   29.52    6.43
   4  -8   1  156.26    6.47
   4   8  -1  153.84    7.98
   1  -4   8  125.37    9.81
   1   4  -8  164.13   10.56
   8  -1   4  161.08   10.61
  -1  -4  -8  132.52    9.67
   8  -1   4  151.45   10.90
   8   1  -4  147.86   10.54
  -8   1   4  160.80    9.94
  -1   4   8  157.34   10.02
  -1   4  -8  148.98   10.38
   4   8   1  148.52    7.59
   1   4   8  140.42   10.41
  -4  -8   1  155.64    7.83
   8   1   4  161.55   10.44
   1  -4  -8  134.30    9.59
  -1  -4   8  134.61   10.00
   8  -1  -4  146.66   10.41
   4  -8  -1  144.93    5.68
  -8  -1   4  155.55    9.97
   4  -8   2   21.32    4.52
   2   4  -8   21.77    5.57
   8   2  -4   20.65    5.40
  -2   4   8   21.61    5.01
  -8   2   4   20.43    4.99
   2  -4   8   13.19    4.89
   4   8  -2   20.02    3.74
  -2  -4  -8   17.72    4.88
   8  -2   4   14.90    4.55
   4  -8   2   17.49    3.57
   8  -2   4   17.05    4.44
   8   2   4   22.50    6.44
   2  -4  -8   30.75    6.67
  -8  -2   4   21.05    5.20
  -2   4  -8   23.03    5.77
   2   4   8   25.84    5.79
   4  -8  -2   17.06    2.78
  -4  -8   2   23.36    3.99
   8   2   4   32.34    7.02
   8  -2  -4   10.58    4.31
   4   8   2   18.86    4.24
   4   8   2   18.18    3.62
  -2  -4   8   16.20    4.18
   8   3  -4  217.50   12.69
  -3   4   8  205.25   11.96
   4   8  -3  221.57   10.85
   8  -3   4  208.57   12.52
  -4   8   3  203.66    7.99
   4  -8   3  213.53   10.19
  -8   3   4  220.92   11.87
   4  -8   3  210.87    9.68
   3   4  -8  226.13   12.93
   3  -4   8  196.31   12.85
   8  -3   4  216.06   12.91
   4  -8  -3  213.30    8.38
   8  -3  -4  210.24   12.25
   8   3   4  226.43   12.76
   8   3   4  215.76   13.29
  -3  -4   8  234.45   12.51
   4   8   3  219.95   10.45
  -4  -8   3  219.85   10.49
  -8  -3   4  219.47   12.18
   3   4   8  199.89   12.98
  -3   4  -8  208.04   12.73
   4   8   3  209.95    9.61
  -4   4   8   45.60    7.33
  -4   8   4   46.31    4.29
  -8   4   4   41.27    6.93
   4   8  -4   39.42    6.62
   4   4  -8   45.20    8.39
   8   4  -4   39.26    8.43
   4   4   8   48.64    7.58
   8   4   4   44.82    7.99
   4   8   4   40.48    6.73
  -4  -4   8   43.39    7.74
  -8  -4   4   35.40    7.22
   8   4   4   42.46    7.66
   4   8   4   48.24    5.60
  -4   4  -8   46.00    8.77
  -4  -8   4   51.58    6.20
   4  -8  -4   44.40    4.83
   4   4   8   30.41    6.29
   8  -5   4   35.69    8.69
   8  -5   4   31.76    6.65
   4  -8   5   32.92    5.83
   8   5  -4   28.13    6.69
  -4   8   5   31.32    4.92
   4   8  -5   31.74    7.22
  -5   4   8   34.04    7.97
   5   4  -8   41.38    8.95
   5  -4   8   31.86    6.92
  -8  -5   4   14.05    4.92
   4   8   5   24.37    4.53
   5   4   8   11.72    4.86
   5  -4  -8   21.86    6.05
   5   4   8   29.00    7.17
   8  -5  -4   20.26    5.83
  -4  -8   5   21.05    4.88
   4  -8  -5   25.44    5.54
   8   5   4   26.57    6.84
   6   4   8   18.34    7.42
   7  -4   8   82.18   12.02
   8   0   5   41.82    8.85
   5  -8   0   22.41    3.84
   8   0  -5   38.61    7.86
   5   8   0   24.75    5.38
   0   5  -8   25.89    5.85
   0   5   8   26.48    5.51
  -5  -8   0   32.38    4.93
   0  -5   8   23.43    5.20
   5  -8   1   22.49    4.02
   1   5  -8   31.88    7.58
   5   8  -1   23.85    4.51
  -1   5   8   28.52    7.06
   8   1  -5   17.48    4.82
   5  -8   1   28.61    4.67
  -5  -8  -1   22.05    4.67
  -8   1   5   33.01    7.14
   8  -1   5   21.68    6.70
   1  -5   8   18.94    5.05
   8  -1   5   11.19    4.36
   8   1   5   34.35    7.21
  -8  -1   5   19.40    4.50
   5   8   1   29.83    5.37
   5  -8  -1   25.96    4.13
   5  -8  -1   28.19    3.83
  -1  -5   8   39.39    7.09
  -1   5  -8   30.79    6.39
   8   1   5   19.55    5.79
   1   5   8   23.44    5.61
   8  -1  -5   31.10    7.66
  -5  -8   1   22.87    5.08
   5  -8   2   21.04    4.40
   5  -8   2   24.16    5.40
  -2   5   8   37.00    7.12
   8  -2   5   16.93    5.44
   8   2  -5   24.46    6.28
   2  -5   8   25.89    6.18
   2   5  -8   13.34    4.42
  -8   2   5   33.62    7.20
   8  -2   5   23.18    5.95
   5  -8  -2   27.93    3.99
   8   2   5   23.83    5.48
   8   2   5   18.26    5.64
   8  -2  -5   21.36    5.27
  -8  -2   5   19.27    4.82
  -2  -5   8   29.39    5.94
  -2   5  -8   32.95    7.75
   2   5   8   12.94    5.56
   5   8   2   20.37    4.50
   5   8   2   16.95    3.89
  -8   3   5   84.04    8.82
  -5   8   3   78.88    5.42
   3  -5   8   66.85    9.66
   3   5  -8   82.32    9.48
   8  -3   5   91.89   10.01
   8   3  -5   76.71    9.72
   5   8  -3   79.22    7.66
  -3   5   8   64.53    8.00
   3  -5  -8   78.04    8.86
  -8  -3   5   66.41    8.68
  -5  -8   3   81.41    7.38
   8   3   5   98.35   10.42
  -3   5  -8   77.89    9.26
  -3  -5   8   87.55    8.78
   5   8   3   85.14    7.69
   3   5   8   76.17   10.05
   5  -8  -3   84.14    5.69
   8   3   5   89.28    9.56
  -8   4   5   12.12    4.83
  -4   5   8    7.85    5.07
   5   8  -4   12.18    4.70
   4   5  -8   14.59    6.11
   8   4  -5   12.28    5.26
  -5   8   4   10.80    3.36
   8  -4   5    9.78    5.20
   5  -8   4   12.67    4.64
   4  -5   8    9.23    5.34
   8   4   5    5.74    5.59
   4   5   8   14.00    6.24
  -4  -5   8    8.47    4.46
  -4   5  -8    8.42    6.30
  -5  -8   4   12.59    4.64
   8  -4  -5   16.60    5.35
  -8  -4   5   17.25    5.54
   8   4   5   12.57    5.38
   4  -5  -8   11.48    5.22
   5  -8  -4   12.52    3.68
   5   8   4   15.76    4.06
   5  -5   8    8.68    5.82
   8  -5   5    1.11    5.89
   8   5   5    5.91    6.00
   0  -6  -8   -3.82    4.46
  -8   0   6    1.29    4.15
   8   0   6   -0.89    3.96
   6  -8   0    1.28    2.89
  -6  -8   0    1.43    3.65
   6  -8   0   -2.76    3.57
   6   8   0   -2.66    3.56
   0   6   8    6.69    4.60
   8   0  -6    5.29    4.57
   0  -6   8    0.60    4.47
   8   0   6   -1.08    5.70
   0   6  -8   -0.17    5.10
  -1  -6  -8   -0.68    4.40
   6   8  -1    0.31    3.91
   8  -1   6    8.08    6.79
   6  -8   1   11.21    3.48
  -6  -8  -1    1.75    3.62
   8  -1   6    0.91    5.65
  -1   6   8   10.57    4.81
  -8   1   6    9.38    5.20
   1   6  -8    6.91    4.41
   1  -6   8   -1.01    4.63
   6   8   1    3.01    3.76
   8   1   6    2.06    4.72
   8   1   6   19.06    7.32
  -6  -8   1    4.02    3.74
  -8  -1   6   10.29    5.29
   6  -8  -1    5.64    3.25
  -1   6  -8    2.03    4.76
   1   6   8   -2.11    4.44
   8  -1  -6    0.49    5.02
  -1  -6   8   -2.20    4.51
   6   8  -2   31.87    7.06
  -8   2   6   18.29    4.76
   2  -6   8   23.41    5.54
   2   6  -8   27.01    6.04
   6  -8   2   29.98    5.60
  -2   6   8   29.18    5.78
   8   2  -6   33.19    7.19
   6  -8   2   33.11    6.49
  -6   8   2   22.27    4.72
   8  -2   6   13.55    5.82
   8  -2   6   22.31    5.78
   6  -8  -2   22.91    4.90
   6   8   2   32.46    6.19
  -6  -8   2   32.01    6.47
  -8  -2   6   30.45    6.60
   8   2   6   35.17    7.35
  -2  -6   8   26.16    5.71
   8   2   6   39.56    7.52
   2  -6  -8   34.18    8.23
   2   6   8   34.77    8.57
  -8   3   6  178.15   11.89
   8   3  -6  191.28   13.22
   6  -8   3  159.34   10.39
  -8  -3   6  159.35   11.82
   8   3   6  158.81   12.58
   8   3   6  161.62   13.37
   6   8   3  176.70   10.19
   8  -4   6   -2.64    4.81
   8   4   6   -4.68    5.94
   8   0   7   90.55   10.87
   7  -8   0   92.27    8.23
   8   0  -7   70.70   11.20
  -8   0   7   77.41   10.35
   8   1  -7  216.26   15.02
   7  -8   1  218.35   11.70
   8  -1   7  221.90   14.52
  -8   1   7  195.84   13.55
  -8  -1   7  220.51   14.05
   8   1   7  218.57   15.88
   8  -2   7   32.47    8.92
   8   2  -7   18.42    6.30
   8  -2   7   17.02    6.80
  -8   2   7   12.96    5.68
  -8  -2   7    9.93    5.84
   8   3   7    6.12    6.81
  -8   0   8    9.08    7.40
   8   0  -8   -4.14    6.58
   8   0   8   -1.68    5.01
   8   0   8   -1.80    7.04
   8   1  -8   13.30    7.13
  -8   1   8   14.70    7.08
   8  -1   8   25.21    7.78
   8  -1  -8   21.06    8.59
  -8  -1   8   18.91    7.59
   8   1   8   32.49    9.94
   8   2   8   55.24   10.76
   8  -3   8    7.59    7.21
  -9   0   0    5.05    4.20
   0   0  -9   -1.69    4.16
   0   0   9    3.02    4.26
   9   0   0    1.01    4.38
   9   1   0   36.72    7.29
   9  -1   0   24.17    4.92
  -9  -1   0   34.45    6.44
  -1   0  -9   24.32    5.36
  -1   0   9   36.85    6.60
   1   0  -9   18.41    4.54
   1   0   9   30.79    6.80
  -9  -2   0    3.25    3.90
   2   0   9    6.87    5.02
   9  -2   0   -3.24    4.11
   9   2   0    3.09    4.57
   2   0  -9   -1.91    4.09
  -2   0  -9    4.02    4.61
  -9   2   0    1.94    4.16
   0  -9   3   82.00    4.90
  -9  -3   0   78.82    7.95
  -3   0  -9   72.38    9.06
   9   3   0   74.32    8.74
   9  -3   0   74.00    8.58
   3   0   9   75.21   10.05
  -9   3   0   84.11    7.95
   0   9  -3   82.75    5.68
   3   0  -9   77.20    9.16
   0  -9   4   54.55    5.53
  -9  -4   0   39.54    6.99
   4   0  -9   49.19    8.83
   4   0   9   48.23    9.82
   9   4   0   56.62    8.25
   0   9  -4   59.23    6.24
  -9   4   0   63.06    7.68
  -5   0   9    5.37    5.23
  -9  -5   0   11.08    5.16
   0   9  -5   10.22    4.41
   9  -5   0   11.77    4.89
   9   5   0    0.50    4.38
  -9   5   0    9.63    5.37
   0  -9   5    2.04    3.99
  -6   0   9   10.72    5.64
   6   0   9   -7.30    6.97
   6   0  -9    7.22    6.88
   0   9   6   -1.24    2.71
   6   0   9   -2.26    6.08
   7   0   9   16.91    9.67
   0   9   7    4.60    4.12
  -7   0   9    3.17    7.09
   8   0  -9   29.01    9.37
   0   1  -9   42.16    7.25
   0  -1   9   40.23    7.27
  -9   0   1   28.74    6.34
   9   0   1   29.21    7.13
   0  -1  -9   44.82    7.24
  -1   1   9  115.14    9.95
   9  -1   1  116.81    9.39
   1   1  -9  106.56    9.39
   1  -1   9   98.95   10.12
   9   1  -1   97.41    9.06
  -9  -1  -1  107.58    8.74
   9  -1  -1   99.83    9.08
   1  -1  -9  118.40    9.45
  -1  -1   9  110.10   10.22
   9   1   1  110.32    9.24
  -9  -1   1  105.03    8.80
  -9   1  -1  112.81    9.98
  -9   2   1   34.55    6.55
   2  -1   9   31.53    6.86
   9  -2   1   35.79    7.24
  -9  -2  -1   38.22    6.38
  -2   1   9   17.53    5.27
  -2  -1  -9   29.61    7.20
   9   2  -1   17.28    4.89
   1   9  -2   34.31    3.68
  -1  -9   2   29.77    3.12
  -9   2  -1   27.20    6.73
   9  -2  -1   32.55    7.09
  -2   1  -9   32.21    6.58
   9   2   1   30.32    7.18
   2  -1  -9   37.84    7.56
  -9  -2   1   29.44    6.48
   2   1   9   37.80    8.48
   9  -3   1   35.94    7.48
  -3  -1  -9   37.79    8.12
  -9  -3  -1   37.92    6.83
   9   3  -1   42.90    7.69
   3   1  -9   46.34    8.23
  -9   3   1   43.67    6.87
   1  -9   3   42.77    3.97
   1  -9   3   43.07    3.97
   3  -1   9   39.16    9.43
  -3   1   9   52.73    8.98
   9   3   1   39.61    7.93
  -3  -1   9   36.40    8.49
   3  -1  -9   46.28    8.31
   3   1   9   27.59    5.96
   9  -3  -1   48.12    7.60
  -9   3  -1   45.83    7.11
  -3   1  -9   35.82    8.18
  -9  -3   1   36.97    6.90
  -9   4   1   42.43    7.00
  -4  -1  -9   39.58    8.73
   4   1  -9   53.51    8.81
   1   9  -4   46.56    6.34
  -4   1   9   36.06    8.74
  -9  -4  -1   44.80    7.09
   4   1   9   40.86    7.86
  -1  -9   4   32.89    5.17
  -9   4  -1   34.35    7.03
   9   4   1   41.01    7.86
   4  -1  -9   35.03    8.52
  -9  -4   1   28.72    6.70
  -4  -1   9   25.42    5.76
  -9  -5  -1  110.43    9.51
   9  -5   1  116.27    9.82
   1   9  -5  111.82    8.57
  -9   5   1  116.17    9.37
   5   1  -9   89.66   11.10
  -5   1   9  119.88   10.88
   1  -9   5  109.57    8.32
   5  -1   9  108.48   12.25
   5   1   9   96.94   10.43
   9  -5  -1  101.58    9.61
  -9   5  -1  106.72    9.33
   1   9   5  109.83    5.92
  -5  -1   9   96.41   10.72
  -1  -9   5  111.99    8.08
   5   1   9  108.84   12.17
   5  -1  -9  121.30   11.53
   1   9   5  108.99    5.56
  -1   9  -5  113.12    8.49
  -9  -5   1   83.93    9.07
  -6   1   9   40.59    9.89
   6  -1   9   24.28    7.39
   6   1  -9   31.32    7.49
  -1   9   6   22.56    4.22
   6   1   9   16.06    6.89
   6   1   9   27.34    8.32
   7   1  -9   10.97    8.10
  -7   1   9    5.91    6.66
   7  -1   9    6.83    8.00
   7  -1  -9   13.74    7.49
   7   1   9   -0.09    7.24
  -7  -1   9    6.48    7.43
   8   1   9  141.49   18.72
   0   2   9  313.46   16.25
  -9   0  -2  327.62   15.49
   0  -2  -9  309.39   15.35
   0  -2   9  321.12   16.23
  -9   0   2  309.60   14.87
   0   2  -9  326.89   15.87
   9   0  -2  344.02   16.09
   9   0   2  317.54   15.73
  -1  -2  -9    7.17    4.42
   1  -2   9   -1.26    4.76
   1   2  -9   15.45    5.27
  -1   2   9   -2.37    4.40
  -9  -1  -2    9.96    4.63
   2   9  -1    9.82    2.38
  -9   1   2   10.35    4.44
   9  -1  -2   11.39    4.83
   1   2   9    8.56    5.53
   9   1   2    8.86    4.66
  -1  -2   9    5.91    4.38
  -1   2  -9    9.72    4.79
  -9  -1   2    8.59    3.68
  -2  -9   1    9.28    1.93
   1  -2  -9   -1.18    3.74
   2   2  -9   -1.24    4.90
  -2   2   9   -2.43    4.84
  -9  -2  -2    3.78    4.24
   2  -2   9   -0.18    4.76
  -9   2   2    3.71    4.59
   9   2  -2    6.29    4.21
  -2  -2  -9    2.41    4.59
  -2  -2   9    5.39    4.67
   9   2   2    2.33    4.48
   9  -2  -2    2.92    4.10
   2  -2  -9    4.12    4.01
  -2   2  -9    6.20    4.53
  -9   2  -2   -1.86    4.18
   2   2   9    6.33    5.36
  -9  -2   2   -2.40    3.93
  -3   2   9   39.98    8.46
   9   3  -2   53.03    8.40
   3  -2   9   51.99    9.53
   3   2  -9   56.02    8.61
  -9  -3  -2   49.08    7.40
   2  -9   3   51.00    4.47
   9  -3   2   40.23    7.81
   2   9  -3   59.61    6.15
  -3  -2  -9   39.84    8.07
   2  -9   3   40.20    4.08
  -9   3   2   41.74    7.25
   9   3   2   45.07    8.30
  -3  -2   9   51.59    8.85
   9  -3  -2   45.25    8.01
  -9   3  -2   38.42    7.33
   3   2   9   49.91    9.63
   3  -2  -9   49.98    8.16
  -9  -3   2   49.90    7.47
  -3   2  -9   46.49    8.60
  -2  -9   3   46.95    5.02
  -4   2   9  160.10   11.65
  -9   4   2  156.01   10.30
   9   4  -2  135.77   11.10
  -9  -4  -2  154.19   10.57
   2  -9   4  138.49    7.65
  -4   2  -9  120.31   11.46
   2   9   4  145.44    6.27
  -9  -4   2  134.34   10.17
   4   2   9  129.69   12.42
  -2  -9   4  147.74    8.49
   2   9   4  134.23    6.48
   9   4   2  137.94   11.00
   9  -5   2   15.35    5.11
   5  -2   9    3.82    5.85
  -5   2   9   20.18    6.54
   2  -9   5   17.44    4.74
   5   2  -9    3.67    5.69
   2   9  -5   24.00    5.31
  -2  -9   5   19.37    4.53
  -5  -2   9   19.31    6.57
   5   2   9   10.40    6.32
   2   9   5    9.27    3.48
   5   2   9   21.41    6.27
   6   2  -9   19.78    7.47
  -6   2   9   12.86    6.93
   6  -2   9   13.03    8.79
   6  -2   9   11.46    6.97
   6  -2  -9   11.92    7.07
   6   2   9   -3.59    7.51
   7   2   9  104.42   14.96
   8  -2   9   27.71   10.38
   0  -3   9   16.40    4.85
   9   0   3   26.12    5.42
   9   0  -3   34.40    7.40
   0   3   9   19.65    5.48
   0  -3  -9   30.81    6.30
   3   9   0   30.42    4.19
   0   3  -9   23.19    6.06
   9   1  -3   37.08    7.80
   1  -3   9   47.00    8.22
  -1  -3  -9   52.18    8.18
   1   3  -9   36.36    8.26
  -9   1   3   46.94    7.36
   9  -1   3   37.54    8.23
  -1   3   9   41.79    8.59
   3   9   1   38.34    4.41
   1   3   9   44.99    7.84
   9  -1  -3   49.37    7.81
  -9  -1   3   51.32    7.43
  -1  -3   9   52.44    8.28
   1  -3  -9   32.00    7.53
   3   9   1   45.82    4.14
   2  -3   9   13.56    5.78
  -2   3   9    6.59    5.01
   3   9  -2   19.04    4.02
  -9  -2  -3   10.97    4.47
   2   3  -9    6.12    4.45
  -9   2   3    9.96    4.30
   3  -9   2   13.30    2.62
   9  -2   3   12.15    5.36
   9   2  -3   13.43    5.55
  -2  -3  -9    9.03    5.22
  -2   3  -9   17.34    6.46
   3   9   2    6.98    2.79
  -3  -9   2   11.34    3.21
  -2  -3   9   10.38    5.38
  -9  -2   3   16.67    5.47
   2   3   9   19.56    6.28
   9  -2  -3   15.17    5.12
   2  -3  -9    5.55    4.17
   9   2   3   15.27    5.64
  -9   3   3   79.06    8.61
   3   9  -3   72.85    7.28
   9  -3   3   72.95    9.81
   3   3  -9   70.88    9.73
   3  -3   9   58.80   10.02
   9   3  -3   61.02    9.10
   3  -9   3   74.64    5.80
  -3   3   9   78.88    9.92
   9  -3   3   58.42    9.23
  -9  -3  -3   66.90    8.44
   3  -9   3   75.03    5.24
   3   9   3   79.92    5.76
   9   3   3   97.91    9.65
  -3  -3   9   69.84    9.75
  -3   3  -9   80.69    9.98
  -9  -3   3   81.51    8.70
   3   3   9   63.10   10.28
   4   3  -9   56.35    9.82
  -9   4   3   53.22    8.04
   9  -4   3   81.85    9.64
  -9  -4  -3   66.53    8.47
   9   4  -3   83.09    9.89
   4  -3   9   69.11   11.19
   3  -9   4   71.07    6.14
  -4   3   9   66.62    9.47
   3   9  -4   75.98    7.77
   4   3   9   68.26   10.88
   3   9   4   62.20    6.27
   9   4   3   60.00    9.27
  -3  -9   4   75.10    6.77
   9  -4  -3   62.64    8.97
  -4  -3   9   70.10    9.71
  -9  -4   3   56.38    8.35
   5  -3   9   24.76    7.65
  -5   3   9    9.62    5.62
   3  -9   5   16.59    5.26
   5   3  -9   30.05    7.59
   3   9   5   11.96    3.97
   5   3   9   24.25    7.67
   5  -3  -9   11.37    5.85
  -5  -3   9   15.87    6.77
   6   3   9    3.59    6.60
   7  -3   9   -8.30    7.59
   4   9   0   24.36    5.13
   0  -4   9   14.96    5.01
  -4  -9   0   20.90    3.74
   9   0   4   16.29    5.71
   0   4  -9   33.83    8.20
   0   4   9   25.97    6.27
  -9   0   4   29.89    6.34
   9   0   4   21.97    6.57
   9   0  -4   29.27    6.74
   9  -1   4  110.45   11.05
  -1   4   9  102.85    9.91
   1  -4   9   79.33    9.44
   1   4  -9  110.27   10.33
   9   1  -4   82.94   10.32
  -9   1   4  106.63    9.45
   9  -1   4   84.01   10.05
   4   9  -1  108.57    7.30
   9  -1  -4   97.55   10.31
   9   1   4  103.43   10.33
   1   4   9   90.98   10.34
  -1   4  -9  102.92   10.30
  -1  -4   9   90.12    9.62
   9   1   4   91.60   10.89
  -4  -9   1   92.43    6.28
   2  -4   9   36.77    9.03
   2   4  -9   21.32    5.63
   4  -9   2   28.88    3.85
  -2   4   9   40.49    8.66
   9  -2   4   52.29    9.22
  -9   2   4   41.73    7.89
   9  -2   4   46.97    9.06
   4  -9   2   35.16    4.69
  -2  -4   9   47.25    8.50
   9   2   4   36.97    8.89
   4   9   2   30.16    4.51
   2   4   9   47.55    9.54
   9  -2  -4   28.66    6.44
   9   2   4   22.02    6.24
  -2   4  -9   21.28    5.35
   9  -3   4   71.73   10.13
   3   4  -9   76.00   10.34
   4  -9   3   71.31    5.81
   4   9  -3   76.66    7.77
   3  -4   9   57.49   10.39
  -3   4   9   69.00    9.43
  -9   3   4   84.55    8.86
   4  -9   3   73.25    6.77
   9   3  -4   88.56   10.62
  -3   4  -9   81.33   10.48
   9   3   4   68.76   10.76
  -4  -9   3   71.80    7.13
   4   9   3   80.80    7.10
   3  -4  -9   85.85    9.72
   3   4   9   98.43   11.26
  -3  -4   9   80.24    9.50
  -9  -3   4   96.58    9.74
   4   9   3   92.12    6.65
   9   3   4   79.32   10.10
   9  -4   4    3.82    5.61
  -4   4   9    1.61    5.38
  -9   4   4    1.61    5.36
   9  -4  -4    3.33    5.56
   4  -4  -9   12.30    6.13
  -9  -4   4    8.51    5.25
   4   4   9    7.02    6.85
  -4  -9   4   -2.36    4.09
  -4  -4   9    2.74    5.16
   4   9   4    4.02    3.83
   9   4   4    7.40    6.34
  -5  -9   0   74.13    6.42
   9   0   5   65.99    9.99
   5  -9   0   66.04    4.29
   0   5  -9   62.40    9.93
   9   0   5   65.87   10.93
   5  -9   0   68.00    4.71
   0   5   9   63.44    9.49
   0  -5   9   60.26    9.31
   5   9   0   61.42    7.32
   9   0  -5   62.14   10.10
  -9   0   5   70.51    9.15
   0  -5  -9   70.61    9.51
   9   1  -5   74.69   10.71
   5  -9   1   52.08    4.70
   9  -1   5   54.77    9.74
  -1  -5  -9   56.42    9.24
   5  -9   1   65.11    5.49
  -1   5   9   41.91    8.99
  -9   1   5   68.23    9.06
   1  -5   9   59.03    9.63
   9  -1   5   44.72   10.86
   5   9  -1   71.81    7.25
   9  -1  -5   76.61   10.56
  -1  -5   9   62.53    9.29
   5   9   1   64.04    6.81
  -5  -9   1   55.60    6.35
   1   5   9   69.61    9.80
   9   1   5   68.78   10.60
   1  -5  -9   52.78    9.05
   9   2  -5  102.37   11.59
   5   9  -2  104.41    8.58
   9  -2   5   92.06   11.82
   5  -9   2   99.37    7.62
  -9   2   5  102.04   10.14
   9  -2   5  121.77   11.55
  -2  -5  -9   95.94   10.82
   2   5   9  103.08   11.68
  -5  -9   2  113.30    8.00
   9   2   5   98.83   11.48
   9   2   5  115.56   12.07
   5   9   2  105.72    7.93
  -9   3   5    7.04    5.83
   9   3  -5    1.64    6.48
   5  -9   3   12.99    4.45
   5  -9  -3   10.83    2.73
  -9  -3   5    4.69    5.99
   5   9   3   17.21    4.57
   9  -3  -5    1.44    5.84
   9   3   5   18.88    7.23
   9  -4   5   53.87   10.92
   9   4   5   65.17   11.61
   9   0  -6   51.86   10.26
  -9   0   6   41.54    9.81
   9   0   6   65.72   12.74
   6  -9   1   26.76    6.24
   9  -1   6   32.28    8.29
  -9   1   6   32.67    7.18
   9   1  -6   50.29   10.75
  -9  -1   6   35.26    8.09
   9   1   6   34.55    8.30
   9   2  -6   23.20    6.98
  -9   2   6   28.25    6.05
   9  -2  -6   45.93    8.66
   9   2   6   25.41    7.73
   9  -3   6   31.75    8.89
   9   3   6   26.51    8.20
  -9   0   7    0.37    5.69
   9   0   7   -3.83    7.06
   7  -9   0    1.80    4.88
   9   0   7  -15.80    8.38
   9  -1   7   16.95    8.58
   9   1  -7    5.42    6.69
  -9   1   7   21.29    6.96
   9  -1  -7   16.95    8.16
   9   1   7    0.29    8.86
  -9  -1   7   19.60    7.73
   7  -9  -1   12.74    4.82
   9   2   7   93.04   14.58
  -9   0   8   -6.79    7.66
   9   0  -8    6.76    9.43
   9  -2   8  -15.12    7.67
   9   2   8   14.30   10.29
 -10   0   0  113.37    9.94
   0   0 -10  118.18   10.74
   0   0  10  117.62   11.66
  10   0   0  118.71   11.12
  10  -1   0   22.97    6.66
  10   1   0   23.64    6.75
 -10   1   0   11.29    3.74
  -1   0 -10   24.83    6.69
   1   0 -10    9.34    4.82
   1   0  10   12.78    6.51
  10  -2   0   22.90    6.93
  10   2   0   35.23    7.57
   2   0  10   28.60    6.54
  -2   0 -10   19.63    5.94
   2   0 -10   37.84    9.13
 -10  -2   0   33.45    7.96
 -10   2   0   31.15    7.62
 -10   3   0    0.65    4.83
  10   3   0   -3.32    4.36
   3   0 -10   -1.02    5.50
   3   0  10    2.73    6.93
  -3   0 -10    8.55    5.11
   0 -10   3   -0.49    2.10
  -4   0  10   18.63    6.56
  -4   0 -10   14.14    6.01
   4   0 -10   22.51    7.09
   0 -10   4   13.94    3.47
  10  -4   0    9.90    6.47
 -10   4   0    8.71    5.58
   5   0 -10    4.88    7.23
   0 -10   5   -1.98    3.94
   5   0  10    2.28    7.38
  -5   0  10   -8.88    6.66
   6   0  10  349.57   22.07
  -6   0  10  400.81   21.19
   7   0 -10   -6.82    9.06
  -7   0  10    7.99    8.75
   0   1 -10   23.26    5.35
 -10   0  -1   33.83    7.25
  10   0   1   38.83    8.91
  10   0  -1   37.31    7.36
 -10   0   1   43.81    7.81
   0  -1 -10   32.83    6.96
   0  -1  10   33.67    7.78
  -1  -1 -10   34.38    7.41
 -10   1   1   32.10    7.57
  10   1  -1   22.94    5.65
 -10  -1  -1   18.38    5.08
   1   1 -10   35.88    7.54
   1  -1  10   13.75    5.52
  10  -1   1   39.21    9.01
  -1   1 -10   47.35    8.50
  -1  -1  10   25.71    7.06
   1   1  10   27.88    7.04
  10  -1  -1   32.44    7.05
 -10   1  -1   19.14    5.70
  10   1   1   37.63    9.07
 -10  -1   1   37.89    6.98
  -2  -1 -10  199.49   13.42
  10   2  -1  203.20   13.91
   2   1 -10  219.74   13.96
 -10  -2  -1  203.66   12.74
  -2   1  10  191.18   13.73
  10  -2   1  202.58   13.40
   2  -1  10  192.37   14.40
  10  -2  -1  157.62   12.69
 -10  -2   1  195.40   12.60
   2  -1 -10  203.90   13.61
  -2   1 -10  193.26   13.54
  10   2   1  193.35   13.64
   2   1  10  206.34   14.60
 -10   2  -1  194.04   12.45
 -10   3   1    0.01    4.13
   3   1 -10    6.94    6.43
 -10  -3  -1    2.95    5.28
   1  10  -3    5.68    3.18
  -3   1  10    3.13    6.32
  10   3  -1   13.49    6.32
   1 -10   3    9.10    2.08
   3  -1  10    0.47    6.05
  -3  -1 -10   12.13    6.10
  -1 -10   3    3.76    2.57
  10   3   1   14.19    6.34
 -10  -3   1   -4.89    5.15
   3  -1 -10    8.19    6.29
  -3   1 -10    6.88    7.04
 -10   3  -1    6.68    5.48
  -3  -1  10    1.72    6.03
  -4   1  10   10.82    6.46
  -4  -1 -10    2.08    5.36
  10  -4   1    2.88    6.46
  -1 -10   4    7.87    3.47
 -10   4  -1   -1.46    5.03
  -4   1 -10    4.53    5.86
   4   1  10   10.19    7.60
   4  -1 -10   -4.38    6.41
   1 -10   5   24.14    4.71
   5  -1  10    4.78    6.90
   5   1 -10   13.92    7.35
  -5   1  10   10.06    6.49
   5   1  10   26.42    8.33
  -5  -1  10   25.17    7.55
  -6   1  10   68.35   13.01
   6   1 -10   30.79    8.37
   6   1  10   55.49   10.78
  -6  -1  10   33.15    8.51
   6  -1 -10   24.49    8.47
 -10   0  -2   60.63    8.46
   0   2 -10   50.46    9.41
   0  -2  10   63.29   10.31
  10   0   2   52.81    9.56
  10   0  -2   48.82    9.32
   0  -2 -10   39.51    8.83
   0   2  10   52.79    8.76
  -1   2  10   12.39    6.40
   1  -2  10   -3.21    5.14
 -10   1   2    4.52    4.06
 -10  -1  -2   16.69    6.08
  10  -1   2    6.56    5.90
  -1  -2 -10    3.50    5.15
  10   1   2    9.43    6.22
 -10  -1   2    6.16    5.31
  -1   2 -10   10.14    6.44
   1   2  10   26.89    7.41
  10  -1  -2   11.71    6.21
   1  -2 -10   10.81    5.85
 -10   1  -2   27.72    6.42
  10  -2   2   10.25    5.83
  -2  -2 -10    4.89    4.74
  -2   2  10    3.35    6.40
 -10  -2  -2    6.05    5.61
 -10   2   2    3.48    5.49
   2  10  -2    1.63    2.69
  -2   2 -10    6.92    5.96
  -2 -10   2    4.54    2.25
  -2  -2  10    4.96    5.61
  10  -2  -2    7.95    5.39
   2   2  10    5.96    6.10
  10   2   2   -5.40    4.90
 -10   2  -2    2.24    5.23
   3   2 -10   24.25    7.15
  -3   2  10   53.03   10.71
  10   3  -2   63.18   10.41
 -10  -3  -2   44.41    8.70
 -10   3   2   36.98    8.30
  10   3   2   50.11    8.34
  -3  -2  10   59.47   11.03
 -10   3  -2   34.80    7.31
 -10  -3   2   41.10    7.52
  10  -3  -2   33.78    7.42
   3   2  10   23.70    7.39
   2  10  -4   40.16    7.65
   2 -10   4   38.66    5.57
  -4   2  10   18.39    6.38
   4  -2 -10   22.84    7.64
   4   2  10   45.30    9.24
  -2 -10   4   29.47    5.88
  -4   2 -10   19.46    6.78
  -5   2  10   -4.31    6.20
   5   2 -10   -5.16    7.27
  -5  -2  10    8.57    6.66
   5   2  10    9.81    7.81
   2  10   6   18.71    4.02
   6   2  10   23.05   10.53
   0   3 -10   -1.29    4.56
   3  10   0   -1.32    2.36
  10   0  -3    5.19    6.06
   0   3  10    4.99    5.89
   3  10   0   -2.29    2.32
 -10  -1  -3   27.97    7.15
   1   3 -10   34.49    8.08
  10   1  -3    9.31    5.27
   1  -3  10   16.34    7.23
  -1   3  10   25.59    7.36
  10  -1   3   44.06    9.34
   3  10  -1   26.13    4.82
 -10   1   3   24.08    5.58
  -3 -10   1   23.37    3.83
  -1  -3  10   25.00    7.53
 -10  -1   3   24.72    7.01
   1   3  10   28.85    6.97
  10   1   3   41.93    9.91
  -1   3 -10   21.24    7.42
  10  -1  -3   36.44    8.93
  -2   3  10  318.29   17.12
  10   2  -3  311.12   17.00
   2   3 -10  304.36   17.00
 -10  -2  -3  290.78   16.21
 -10   2   3  288.02   15.42
   2  -3  10  283.69   17.50
  -2   3 -10  289.74   16.97
 -10  -2   3  283.85   15.83
   2   3  10  290.98   17.47
  -2  -3  10  293.61   17.04
   2  -3 -10  288.63   16.65
  10   2   3  304.46   16.83
   3  10  -3   29.08    6.87
   3   3 -10   28.87    8.28
  10   3  -3   28.07    6.57
  -3   3  10   20.38    6.61
  -3  -3 -10   17.54    5.97
   3 -10   3   25.60    4.05
 -10   3   3   27.48    6.54
   3   3  10   29.88    8.28
   3  -3 -10   19.06    6.04
 -10  -3   3   41.23    7.77
  -3  -3  10   17.87    6.91
  10  -3  -3   21.59    5.76
  -3 -10   3   34.28    5.69
   3 -10   4   49.73    6.29
   4   3  10   35.18    8.44
   3  10   4   50.06    4.74
   3  10   5   68.30    6.34
   6  -3  10   -3.18    6.90
  10   0  -4   45.42   10.56
  10   0   4   31.32    8.44
 -10   0   4   25.40    6.41
  10   0   4   24.06    7.18
  10  -1   4   11.30    6.42
 -10   1   4   17.46    6.39
  10   1  -4   25.38    8.06
  10  -1   4   14.54    7.15
  -4 -10   1   25.93    4.90
  10   1   4   18.75    7.49
  10   1   4   32.65    8.76
   4  10   1   28.16    5.38
 -10  -1   4   26.04    6.70
   4  10  -2   54.30    7.66
 -10   2   4   66.06    9.76
  10   2  -4   51.45   11.55
  10  -2  -4   35.54    8.09
  10   2   4   54.58   12.28
  -4 -10   2   64.37    6.27
 -10  -2   4   65.77    9.85
  10  -3   4   31.44    8.17
   4  10   3   22.90    4.06
  10   3   4   29.56    8.21
   4 -10   4   10.42    4.65
   4  10   4    7.89    4.13
  10   4   4   21.52    8.98
 -10   0   5   25.43    7.17
  10   0  -5    4.23    6.87
  10   0   5   18.67    7.37
  10  -1   5   14.48    7.85
  10   1  -5   10.99    7.70
 -10   1   5   17.03    6.33
  10   1   5    7.06    7.70
 -10  -1   5   11.58    6.82
 -10   2   5   56.27   10.62
 -10  -2   5   48.09   10.57
  10   2   5   37.72    9.40
  10  -2  -5   27.73    7.60
   5 -10   3    1.84    4.37
  10   3   5    0.05    7.69
 -10   0   6  385.68   19.97
   6 -10   1   12.69    4.10
  10   1  -6   13.69    7.55
 -10   1   6    4.58    7.56
  10  -1  -6   18.99    7.71
  10   1   6   10.20   10.14
 -10  -1   6   13.40    6.77
  10   2   6    9.14    8.74
  10   0  -7    4.60    8.27
 -10   0   7    6.19    8.02
  10   2   7   69.92   13.52
 -11   0   0   -1.59    4.54
   0   0 -11   13.92    6.56
   0   0  11    7.42    7.34
  11   1   0   70.46   11.85
 -11   1   0   84.36   10.15
  -1   0 -11   73.05   12.02
  -1   0  11   72.52   12.69
   1   0 -11   86.11   12.09
   1   0  11   72.99   12.83
 -11  -1   0   82.77   10.41
  -2   0 -11   13.86    8.00
  -2   0  11   -6.08    6.76
   2   0 -11    4.66    6.58
   2   0  11    4.29    8.44
 -11  -2   0   11.15    5.32
 -11   2   0    3.95    6.47
  -3   0 -11   27.25    7.67
   3   0  11   69.07   14.20
   4   0  11   29.72    8.89
  -4   0  11   30.17    8.58
   0 -11   4   40.86    4.97
   5   0 -11   -5.70    8.89
  -5   0  11    7.29    8.95
  11   0   1   11.62    6.83
 -11   0  -1    2.02    5.98
  11   0  -1    8.18    6.74
   0   1  11    2.90    7.18
   0  -1  11    8.95    7.06
   0   1 -11    3.08    6.07
  11   1  -1  165.88   14.18
   1  -1  11  164.43   15.13
 -11  -1  -1  153.61   12.88
  -1   1  11  156.85   14.63
   1   1 -11  162.37   14.02
   1   1  11  177.35   14.92
  -1   1 -11  161.44   14.10
 -11   1  -1  166.24   12.90
  -1  -1  11  151.38   14.49
  11   1   1  165.50   14.38
 -11  -1   1  151.51   12.52
   2   1 -11    4.64    7.50
  -2   1  11   11.03    7.71
 -11   2   1    4.41    6.73
 -11   2  -1    3.77    5.17
 -11  -2   1    3.95    5.26
  11  -2  -1    8.74    7.17
   2   1  11   -5.45    7.28
  -2  -1  11    4.05    7.86
  -2   1 -11    9.89    7.09
   3   1 -11    9.43    6.81
  -3   1  11    1.61    7.39
   3  -1  11    9.53    8.73
  -3  -1  11   18.74    7.94
   3  -1 -11    7.49    8.29
   3   1  11   19.20    9.39
  -3   1 -11    6.31    6.73
   4   1 -11   16.89    7.42
  -4   1  11   45.67   10.43
   1 -11   4   25.81    4.47
   1  11  -4   32.39    6.59
  -1 -11   4   27.98    5.37
   4  -1 -11   14.01    8.47
   4   1  11   24.55   10.46
  -4  -1  11   56.50   13.27
 -11   0  -2  116.31   11.92
   0  -2 -11   87.55   12.53
  11   0   2  107.52   13.05
   0  -2  11   86.96   14.13
  11   0  -2  127.26   13.59
   0   2  11   98.49   13.63
 -11   0   2   87.24   11.07
 -11   1   2    4.80    5.58
 -11  -1  -2    2.55    4.55
   1   2 -11    7.09    5.95
  -1  -2 -11   12.24    7.48
  11  -1   2    5.40    7.01
  11   1  -2    3.69    6.55
   1  -2  11   -2.42    8.30
  -1   2  11    8.49    7.27
   1   2  11   -0.51    7.60
   1  -2 -11    1.46    6.36
  11   1   2    9.72    7.15
 -11  -1   2    8.00    6.72
 -11   1  -2    7.55    6.33
  -2  -2 -11    9.83    6.35
 -11   2   2    4.14    6.35
  11  -2   2   -1.78    6.78
  -2   2  11   16.82    8.11
  11  -2  -2    7.74    6.67
  -2  -2  11   -4.16    7.02
 -11   2  -2   11.49    6.84
   2   2  11    5.24    8.27
   2  -2 -11   -2.76    7.00
  -3  -2 -11  174.46   14.69
   2  11  -3  165.97    8.48
   3   2  11  135.82   16.25
  -2 -11   3  180.72    7.78
   2 -11   4   44.10    4.77
  11   0  -3   -1.87    6.86
 -11   0   3   -8.94    5.67
  11   0   3    2.50    7.74
  11   1  -3   22.28    8.72
 -11   1   3   46.63   10.26
 -11  -1   3    9.13    6.39
   3  11  -2   20.35    4.15
  11  -2   3   19.87    8.09
  -3 -11   2   21.63    4.50
   3 -11   4   27.49    5.11
 -11   0   4  -13.24    6.52
  11   0   4  -18.68    8.08
 -11   1   4   49.10    9.25
   4  11  -1   45.06    6.93
 -11  -1   4   30.79    7.61
  11  -1  -4   25.67    9.23
  11  -2   4   19.37    8.08
  11   2   4   21.24   10.19
  11   3   4   98.68   15.89
  11   0  -5    1.14    8.44
 -11   0   5    0.93    7.09
 -12   0   0   25.94    8.05
   0   0  12    4.03    9.79
   1   0  12   91.11   16.33
  12  -1   0   71.05   14.38
 -12   1   0   68.33   12.30
  -1   0  12   83.35   15.37
  -2   0  12   -1.48   10.01
 -12   0   1   22.01    8.17
  12  -1   1    1.05    8.84
 -12   1   1   14.07    8.05
  -1  -1 -12   -1.87    7.94
   1   1  12   19.89   10.39
 -12   1  -1   15.81    7.42
 -12   0   2    6.19    7.94
  12  -1   2    6.61    8.60
 -12   1  -2   11.29    7.14
   0   0   0    0.00    0.00
;
_shelx_hkl_checksum              31800
loop_
_space_group_symop_operation_xyz
'x, y, z'
'-x+1/2, -y, z+1/2'
'-x, y+1/2, -z+1/2'
'x+1/2, -y+1/2, -z'
'z, x, y'
'z+1/2, -x+1/2, -y'
'-z+1/2, -x, y+1/2'
'-z, x+1/2, -y+1/2'
'y, z, x'
'-y, z+1/2, -x+1/2'
'y+1/2, -z+1/2, -x'
'-y+1/2, -z, x+1/2'
loop_
_atom_site_label
_atom_site_type_symbol
_atom_site_fract_x
_atom_site_fract_y
_atom_site_fract_z
_atom_site_U_iso_or_equiv
_atom_site_adp_type
_atom_site_occupancy
_atom_site_site_symmetry_order
_atom_site_calc_flag
_atom_site_refinement_flags_posn
_atom_site_refinement_flags_adp
_atom_site_refinement_flags_occupancy
_atom_site_disorder_assembly
_atom_site_disorder_group
I1 I 0.59832(6) 0.59832(6) 0.59832(6) 0.0074(3) Uani 1 3 d S T P . .
Eu1 Eu 0.40381(5) 0.40381(5) 0.40381(5) 0.0058(2) Uani 1 3 d S T P . .
Eu2 Eu 0.15124(5) 0.15124(5) 0.15124(5) 0.0079(2) Uani 1 3 d S T P . .
P1 P 0.9383(2) 0.3934(3) 0.7160(2) 0.0068(6) Uani 1 1 d . . . . .
P2 P 0.8919(3) 0.7774(2) 0.7040(3) 0.0062(6) Uani 1 1 d . . . . .
P3 P 0.9706(2) 0.9706(2) 0.9706(2) 0.0062(10) Uani 1 3 d S T P . .
loop_
_atom_site_aniso_label
_atom_site_aniso_U_11
_atom_site_aniso_U_22
_atom_site_aniso_U_33
_atom_site_aniso_U_23
_atom_site_aniso_U_13
_atom_site_aniso_U_12
I1 0.0074(3) 0.0074(3) 0.0074(3) -0.0013(3) -0.0013(3) -0.0013(3)
Eu1 0.0058(2) 0.0058(2) 0.0058(2) 0.0000(2) 0.0000(2) 0.0000(2)
Eu2 0.0079(2) 0.0079(2) 0.0079(2) -0.0013(2) -0.0013(2) -0.0013(2)
P1 0.0060(14) 0.0069(14) 0.0074(13) 0.0018(12) -0.0004(11) 0.0014(11)
P2 0.0060(14) 0.0064(13) 0.0063(14) 0.0007(11) 0.0001(12) 0.0010(12)
P3 0.0062(10) 0.0062(10) 0.0062(10) -0.0014(12) -0.0014(12) -0.0014(12)
loop_
_atom_type_symbol
_atom_type_description
_atom_type_scat_dispersion_real
_atom_type_scat_dispersion_imag
_atom_type_scat_source
P P 0.1023 0.0942 'International Tables Vol C Tables 4.2.6.8 and 6.1.1.4'
I I -0.4742 1.8119 'International Tables Vol C Tables 4.2.6.8 and 6.1.1.4'
Eu Eu -0.1578 3.6682 'International Tables Vol C Tables 4.2.6.8 and 6.1.1.4'
loop_
_geom_angle_atom_site_label_1
_geom_angle_atom_site_label_2
_geom_angle_atom_site_label_3
_geom_angle
_geom_angle_site_symmetry_1
_geom_angle_site_symmetry_3
Eu1 I1 Eu2 94.984(17) . 4_556
Eu1 I1 Eu2 94.984(17) . 2_565
Eu2 I1 Eu2 119.254(5) 4_556 2_565
Eu1 I1 Eu2 94.984(17) . 3_655
Eu2 I1 Eu2 119.254(5) 4_556 3_655
Eu2 I1 Eu2 119.254(5) 2_565 3_655
P1 Eu1 P1 110.64(4) 10_646 6_466
P1 Eu1 P1 110.64(4) 10_646 2_664
P1 Eu1 P1 110.64(4) 6_466 2_664
P1 Eu1 P1 139.24(5) 10_646 8_645
P1 Eu1 P1 108.37(2) 6_466 8_645
P1 Eu1 P1 64.68(9) 2_664 8_645
P1 Eu1 P1 108.37(2) 10_646 12_564
P1 Eu1 P1 64.68(9) 6_466 12_564
P1 Eu1 P1 139.24(5) 2_664 12_564
P1 Eu1 P1 78.20(7) 8_645 12_564
P1 Eu1 P1 64.68(9) 10_646 4_456
P1 Eu1 P1 139.24(5) 6_466 4_456
P1 Eu1 P1 108.37(2) 2_664 4_456
P1 Eu1 P1 78.20(7) 8_645 4_456
P1 Eu1 P1 78.20(7) 12_564 4_456
P1 Eu1 P2 39.24(7) 10_646 12_664
P1 Eu1 P2 137.71(7) 6_466 12_664
P1 Eu1 P2 73.35(7) 2_664 12_664
P1 Eu1 P2 110.72(6) 8_645 12_664
P1 Eu1 P2 139.27(6) 12_564 12_664
P1 Eu1 P2 65.83(6) 4_456 12_664
P1 Eu1 P2 137.71(7) 10_646 4_466
P1 Eu1 P2 73.35(7) 6_466 4_466
P1 Eu1 P2 39.24(7) 2_664 4_466
P1 Eu1 P2 65.83(6) 8_645 4_466
P1 Eu1 P2 110.72(6) 12_564 4_466
P1 Eu1 P2 139.27(6) 4_456 4_466
P2 Eu1 P2 108.97(4) 12_664 4_466
P1 Eu1 P2 73.35(7) 10_646 8_646
P1 Eu1 P2 39.24(7) 6_466 8_646
P1 Eu1 P2 137.71(7) 2_664 8_646
P1 Eu1 P2 139.27(6) 8_645 8_646
P1 Eu1 P2 65.83(6) 12_564 8_646
P1 Eu1 P2 110.72(6) 4_456 8_646
P2 Eu1 P2 108.97(4) 12_664 8_646
P2 Eu1 P2 108.97(4) 4_466 8_646
P1 Eu1 I1 71.72(5) 10_646 .
P1 Eu1 I1 71.72(5) 6_466 .
P1 Eu1 I1 71.72(5) 2_664 .
P1 Eu1 I1 133.26(4) 8_645 .
P1 Eu1 I1 133.26(4) 12_564 .
P1 Eu1 I1 133.26(4) 4_456 .
P2 Eu1 I1 70.03(4) 12_664 .
P2 Eu1 I1 70.03(4) 4_466 .
P2 Eu1 I1 70.03(4) 8_646 .
P1 Eu1 P2 72.14(7) 10_646 10_646
P1 Eu1 P2 65.95(6) 6_466 10_646
P1 Eu1 P2 176.42(7) 2_664 10_646
P1 Eu1 P2 114.88(7) 8_645 10_646
P1 Eu1 P2 38.93(6) 12_564 10_646
P1 Eu1 P2 74.76(6) 4_456 10_646
P2 Eu1 P2 109.83(3) 12_664 10_646
P2 Eu1 P2 137.18(5) 4_466 10_646
P2 Eu1 P2 40.21(8) 8_646 10_646
I1 Eu1 P2 107.56(4) . 10_646
P1 Eu1 P2 176.42(7) 10_646 6_466
P1 Eu1 P2 72.14(7) 6_466 6_466
P1 Eu1 P2 65.95(6) 2_664 6_466
P1 Eu1 P2 38.93(6) 8_645 6_466
P1 Eu1 P2 74.76(6) 12_564 6_466
P1 Eu1 P2 114.88(7) 4_456 6_466
P2 Eu1 P2 137.18(5) 12_664 6_466
P2 Eu1 P2 40.21(8) 4_466 6_466
P2 Eu1 P2 109.83(3) 8_646 6_466
I1 Eu1 P2 107.56(4) . 6_466
P2 Eu1 P2 111.32(4) 10_646 6_466
P3 Eu2 P1 132.70(5) 1_444 12_564
P3 Eu2 P1 132.70(5) 1_444 8_645
P1 Eu2 P1 79.05(8) 12_564 8_645
P3 Eu2 P1 132.70(5) 1_444 4_456
P1 Eu2 P1 79.05(8) 12_564 4_456
P1 Eu2 P1 79.05(8) 8_645 4_456
P3 Eu2 I1 85.178(14) 1_444 4_456
P1 Eu2 I1 68.89(5) 12_564 4_456
P1 Eu2 I1 141.89(5) 8_645 4_456
P1 Eu2 I1 75.19(5) 4_456 4_456
P3 Eu2 I1 85.178(14) 1_444 2_564
P1 Eu2 I1 75.19(5) 12_564 2_564
P1 Eu2 I1 68.89(5) 8_645 2_564
P1 Eu2 I1 141.89(5) 4_456 2_564
I1 Eu2 I1 119.301(4) 4_456 2_564
P3 Eu2 I1 85.178(14) 1_444 3_645
P1 Eu2 I1 141.89(5) 12_564 3_645
P1 Eu2 I1 75.19(5) 8_645 3_645
P1 Eu2 I1 68.89(5) 4_456 3_645
I1 Eu2 I1 119.301(4) 4_456 3_645
I1 Eu2 I1 119.301(4) 2_564 3_645
P3 Eu2 Eu1 180.00(11) 1_444 .
P1 Eu2 Eu1 47.30(5) 12_564 .
P1 Eu2 Eu1 47.30(5) 8_645 .
P1 Eu2 Eu1 47.30(5) 4_456 .
I1 Eu2 Eu1 94.822(14) 4_456 .
I1 Eu2 Eu1 94.822(14) 2_564 .
I1 Eu2 Eu1 94.822(14) 3_645 .
P2 P1 P3 99.90(15) 3_746 3_746
P2 P1 Eu1 74.89(9) 3_746 2_665
P3 P1 Eu1 94.06(9) 3_746 2_665
P2 P1 Eu2 117.86(11) 3_746 4_556
P3 P1 Eu2 140.22(14) 3_746 4_556
Eu1 P1 Eu2 106.84(8) 2_665 4_556
P2 P1 Eu1 74.47(9) 3_746 4_556
P3 P1 Eu1 92.99(9) 3_746 4_556
Eu1 P1 Eu1 149.30(9) 2_665 4_556
Eu2 P1 Eu1 85.96(7) 4_556 4_556
P1 P2 P2 104.63(9) 3_756 9
P1 P2 P2 104.42(9) 3_756 5
P2 P2 P2 60.0 9 5
P1 P2 Eu1 65.87(9) 3_756 4_566
P2 P2 Eu1 125.17(11) 9 4_566
P2 P2 Eu1 70.26(12) 5 4_566
P1 P2 Eu1 66.60(9) 3_756 2_665
P2 P2 Eu1 69.53(12) 9 2_665
P2 P2 Eu1 124.51(11) 5 2_665
Eu1 P2 Eu1 132.43(8) 4_566 2_665
P1 P3 P1 101.33(14) 11_567 7_675
P1 P3 P1 101.33(14) 11_567 3_756
P1 P3 P1 101.33(14) 7_675 3_756
P1 P3 Eu2 116.73(12) 11_567 1_666
P1 P3 Eu2 116.73(12) 7_675 1_666
P1 P3 Eu2 116.73(12) 3_756 1_666
loop_
_geom_bond_atom_site_label_1
_geom_bond_atom_site_label_2
_geom_bond_distance
_geom_bond_site_symmetry_2
I1 Eu1 3.3106(12) .
I1 Eu2 3.5130(3) 4_556
I1 Eu2 3.5130(3) 2_565
I1 Eu2 3.5130(3) 3_655
Eu1 P1 3.128(3) 10_646
Eu1 P1 3.128(3) 6_466
Eu1 P1 3.128(3) 2_664
Eu1 P1 3.167(3) 8_645
Eu1 P1 3.167(3) 12_564
Eu1 P1 3.167(3) 4_456
Eu1 P2 3.309(3) 12_664
Eu1 P2 3.309(3) 4_466
Eu1 P2 3.309(3) 8_646
Eu1 P2 3.325(3) 10_646
Eu1 P2 3.325(3) 6_466
Eu2 P3 3.075(4) 1_444
Eu2 P1 3.138(2) 12_564
Eu2 P1 3.138(2) 8_645
Eu2 P1 3.138(2) 4_456
P1 P2 2.168(4) 3_746
P1 P3 2.177(3) 3_746
P2 P2 2.280(4) 9
P2 P2 2.280(4) 5
