#------------------------------------------------------------------------------
#$Date: 2021-03-23 12:41:16 +0200 (Tue, 23 Mar 2021) $
#$Revision: 263258 $
#$URL: file:///home/coder/svn-repositories/cod/cif/1/56/12/1561221.cif $
#------------------------------------------------------------------------------
#
# This file is available in the Crystallography Open Database (COD),
# http://www.crystallography.net/
#
# All data on this site have been placed in the public domain by the
# contributors.
#
data_1561221
loop_
_publ_author_name
'Zhai, Chun'
'Yang, Zhan Yong'
'Xu, Duo'
'Wang, Zhi Kang'
'Hao, Xin Yu'
'Shi, Yu Jie'
'Yang, Gao Wen'
'Li, Qiao Yun'
_publ_section_title
;
 pH dependent synthesis of two zinc(II) compounds derived from
 5-aminotetrazole-1-isopropanoic acid for treatment of cancer cells
;
_journal_name_full               'Journal of Solid State Chemistry'
_journal_page_first              156
_journal_page_last               162
_journal_paper_doi               10.1016/j.jssc.2017.10.013
_journal_volume                  258
_journal_year                    2018
_chemical_absolute_configuration s
_chemical_formula_moiety         'C8 H12 N10 O4 Zn'
_chemical_formula_sum            'C8 H12 N10 O4 Zn'
_chemical_formula_weight         377.65
_space_group_crystal_system      orthorhombic
_space_group_IT_number           18
_space_group_name_Hall           'P 2 2ab'
_space_group_name_H-M_alt        'P 21 21 2'
_atom_sites_solution_hydrogens   geom
_cell_angle_alpha                90
_cell_angle_beta                 90
_cell_angle_gamma                90
_cell_formula_units_Z            2
_cell_length_a                   12.534(3)
_cell_length_b                   6.5368(13)
_cell_length_c                   8.5337(17)
_cell_measurement_reflns_used    3235
_cell_measurement_temperature    291(2)
_cell_measurement_theta_max      27.39
_cell_measurement_theta_min      3.27
_cell_volume                     699.2(3)
_computing_molecular_graphics    'SHELXL-2014 (Sheldrick, 2014)'
_computing_publication_material  'SHELXL-2014 (Sheldrick, 2014)'
_computing_structure_refinement  'SHELXL-2014 (Sheldrick, 2014)'
_diffrn_ambient_temperature      291(2)
_diffrn_measured_fraction_theta_full 0.996
_diffrn_measured_fraction_theta_max 0.223
_diffrn_measurement_device_type  'Bruker Apex DUO II'
_diffrn_measurement_method       /w
_diffrn_radiation_type           MoK\a
_diffrn_radiation_wavelength     0.71073
_diffrn_reflns_av_R_equivalents  0.0313
_diffrn_reflns_av_unetI/netI     0.0512
_diffrn_reflns_Laue_measured_fraction_full 0.996
_diffrn_reflns_Laue_measured_fraction_max 0.223
_diffrn_reflns_limit_h_max       16
_diffrn_reflns_limit_h_min       -16
_diffrn_reflns_limit_k_max       8
_diffrn_reflns_limit_k_min       -7
_diffrn_reflns_limit_l_max       11
_diffrn_reflns_limit_l_min       -10
_diffrn_reflns_number            3235
_diffrn_reflns_point_group_measured_fraction_full 0.997
_diffrn_reflns_point_group_measured_fraction_max 0.208
_diffrn_reflns_theta_full        25.242
_diffrn_reflns_theta_max         27.806
_diffrn_reflns_theta_min         1.625
_exptl_absorpt_coefficient_mu    1.798
_exptl_crystal_colour            colourless
_exptl_crystal_density_diffrn    1.794
_exptl_crystal_description       ?block
_exptl_crystal_F_000             384
_exptl_crystal_size_max          0.220
_exptl_crystal_size_mid          0.200
_exptl_crystal_size_min          0.200
_refine_diff_density_max         0.531
_refine_diff_density_min         -0.450
_refine_diff_density_rms         0.082
_refine_ls_abs_structure_details
;
 Refined as an inversion twin.
;
_refine_ls_extinction_coef       .
_refine_ls_extinction_method     none
_refine_ls_goodness_of_fit_ref   1.003
_refine_ls_hydrogen_treatment    constr
_refine_ls_matrix_type           full
_refine_ls_number_parameters     108
_refine_ls_number_reflns         1567
_refine_ls_number_restraints     0
_refine_ls_restrained_S_all      1.003
_refine_ls_R_factor_all          0.0305
_refine_ls_R_factor_gt           0.0297
_refine_ls_shift/su_max          0.065
_refine_ls_shift/su_mean         0.012
_refine_ls_structure_factor_coef Fsqd
_refine_ls_weighting_details
'w=1/[\s^2^(Fo^2^)+(0.0337P)^2^+0.4172P] where P=(Fo^2^+2Fc^2^)/3'
_refine_ls_weighting_scheme      calc
_refine_ls_wR_factor_gt          0.0809
_refine_ls_wR_factor_ref         0.0815
_reflns_Friedel_coverage         0.692
_reflns_Friedel_fraction_full    0.998
_reflns_Friedel_fraction_max     0.190
_reflns_number_gt                1521
_reflns_number_total             1567
_reflns_threshold_expression     'I > 2\s(I)'
_cod_data_source_file            JSSC-2018-258-156.cif
_cod_data_source_block           t
_cod_original_cell_volume        699.2(2)
_cod_database_code               1561221
_shelx_space_group_comment
;
The symmetry employed for this shelxl refinement is uniquely defined
by the following loop, which should always be used as a source of
symmetry information in preference to the above space-group names.
They are only intended as comments.
;
_shelx_estimated_absorpt_t_min   0.693
_shelx_estimated_absorpt_t_max   0.715
_shelxl_version_number           2014-3
_shelx_res_file
;
TITL t in P2(1)2(1)2
CELL 0.71073  12.5339   6.5368   8.5337  90.000  90.000  90.000
ZERR    2   0.0025   0.0013   0.0017   0.000   0.000   0.000
LATT -1
SYMM -X, -Y, Z
SYMM 0.5-X, 0.5+Y, -Z
SYMM 0.5+X, 0.5-Y, -Z
SFAC C H N O ZN
UNIT 16 24 20 8 2

L.S. 4
BOND
FMAP 2
PLAN 20
ACTA
TEMP 18
SIZE 0.22 0.20 0.20
BOND $H

FVAR       0.40882
ZN1   5    0.500000    0.500000    1.030874    10.50000    0.01417    0.04354 =
         0.02636    0.00000    0.00000    0.00231
N1    3    0.383932    0.379773    1.162035    11.00000    0.01536    0.03989 =
         0.02838    0.00098    0.00152    0.00103
N4    3    0.239569    0.316913    1.286417    11.00000    0.01602    0.03122 =
         0.02958    0.00263   -0.00338    0.00009
C1    1    0.285207    0.447862    1.189006    11.00000    0.01605    0.03350 =
         0.01959   -0.00155   -0.00120   -0.00018
N2    3    0.394842    0.202966    1.243414    11.00000    0.02366    0.04709 =
         0.05608    0.01484    0.00194    0.00752
N3    3    0.309830    0.163253    1.317987    11.00000    0.02377    0.04417 =
         0.06110    0.02061    0.00000    0.00594
N5    3    0.241636    0.614257    1.131063    11.00000    0.02502    0.05226 =
         0.05461    0.02464    0.01500    0.01142
AFIX  93
H5A   2    0.177330    0.646596    1.155998    11.00000   -1.20000
H5B   2    0.277417    0.690846    1.068198    11.00000   -1.20000
AFIX   0
C2    1    0.129818    0.317247    1.345646    11.00000    0.01894    0.03173 =
         0.02521   -0.00040    0.00124   -0.00276
AFIX  13
H2A   2    0.110812    0.458600    1.371819    11.00000   -1.20000
AFIX   0
C4    1    0.052173    0.242057    1.219863    11.00000    0.01913    0.02506 =
         0.02566    0.00151   -0.00135    0.00005
C3    1    0.120607    0.190753    1.492949    11.00000    0.03516    0.05421 =
         0.02810    0.00869    0.00119   -0.00794
AFIX  33
H3A   2    0.048173    0.193266    1.529460    11.00000   -1.50000
H3B   2    0.141153    0.052224    1.470937    11.00000   -1.50000
H3C   2    0.166636    0.246298    1.572161    11.00000   -1.50000
AFIX   0
O2    4   -0.042635    0.244332    1.254312    11.00000    0.01718    0.04180 =
         0.04487   -0.00553   -0.00148    0.00108
O1    4    0.090260    0.183411    1.090639    11.00000    0.02402    0.04896 =
         0.02862   -0.00489    0.00214   -0.00829

HKLF 4

REM  t in P2(1)2(1)2
REM R1 =  0.0297 for    1521 Fo > 4sig(Fo)  and  0.0305 for all    1567 data
REM    108 parameters refined using      0 restraints

END

WGHT      0.0461      0.0430

REM Highest difference peak  0.531,  deepest hole -0.450,  1-sigma level  0.082
Q1    1   0.5000  0.6041  0.9653  11.00000  0.05    0.53
Q2    1   0.4982  0.5919  1.1038  11.00000  0.05    0.45
Q3    1   0.1216  0.2487  1.4148  11.00000  0.05    0.34
Q4    1   0.4019  0.4953  1.1189  11.00000  0.05    0.31
Q5    1   0.5001  0.4003  1.2527  11.00000  0.05    0.31
Q6    1   0.3315  0.6524  1.0256  11.00000  0.05    0.25
Q7    1   0.2956  0.6330  1.0049  11.00000  0.05    0.24
Q8    1  -0.0191  0.3658  1.5012  11.00000  0.05    0.24
Q9    1   0.3364  0.3657  1.0215  11.00000  0.05    0.23
Q10   1   0.2852  0.0078  1.3654  11.00000  0.05    0.23
Q11   1   0.2375  0.4998  1.1279  11.00000  0.05    0.22
Q12   1  -0.0018  0.2433  1.0867  11.00000  0.05    0.22
Q13   1   0.0940  0.2456  1.1245  11.00000  0.05    0.21
Q14   1   0.1882  0.6455  1.2568  11.00000  0.05    0.21
Q15   1   0.1222  0.1951  1.3157  11.00000  0.05    0.21
Q16   1   0.1044  0.1271  0.9777  11.00000  0.05    0.21
Q17   1  -0.1057  0.2304  1.3542  11.00000  0.05    0.20
Q18   1   0.5000  0.5000  0.9102  10.50000  0.05    0.20
Q19   1   0.2543  0.3917  1.2351  11.00000  0.05    0.19
Q20   1   0.3993  0.3832  1.2372  11.00000  0.05    0.19
;
_shelx_res_checksum              55817
_shelx_hkl_file
;
   0   1   0   -0.03    0.10
   0   2   0  531.27   35.07
   0   2   0  527.51   34.60
   0   3   0    0.08    0.11
   0   4   0  159.26   10.76
   0   4   0  165.65   10.62
   0   5   0    0.10    0.17
   0   6   0   71.75    4.62
   0   6   0   67.61    4.65
   0   7   0    0.24    0.22
   0   7   0    0.11    0.25
   0   0   1  643.93   42.04
   0   1  -1  430.67   28.20
   0   2   1  561.13   40.00
   0   2   1  621.38   39.50
   0   2  -1  630.81   39.47
   0   3   1   24.44    1.49
   0   3   1   21.31    1.49
   0   3  -1   22.46    1.50
   0   3  -1   20.22    1.47
   0   4   1   63.70    3.90
   0   4   1   54.00    3.93
   0  -4   1   56.25    3.94
   0   4  -1   59.52    3.94
   0   4  -1   61.67    3.88
   0   5   1   11.02    0.83
   0   5  -1   11.21    0.81
   0   6  -1   16.30    1.20
   0   6   1   16.41    1.18
   0   6  -1   17.58    1.20
   0   6   1   16.80    1.21
   0   7   1    3.94    0.48
   0   7   1    2.87    0.51
   0   7  -1    3.22    0.47
   0   0   2  342.29   22.37
   0  -1   2  377.25   24.60
   0   1   2  376.94   24.65
   0   1  -2  376.82   24.60
   0   2   2 1000.00   66.19
   0   3   2   79.47    5.08
   0   3   2   72.73    5.13
   0   3  -2   79.02    5.14
   0   3  -2   77.94    5.06
   0  -4   2   34.08    2.33
   0   4   2   30.23    2.31
   0   4  -2   35.90    2.29
   0   4  -2   34.97    2.33
   0   4   2   37.56    2.31
   0   5  -2   22.03    1.49
   0   5   2   21.60    1.51
   0   6  -2   57.77    3.90
   0   6   2   58.75    3.89
   0   6   2   57.94    3.88
   0   7  -2    9.33    0.78
   0   7   2    8.91    0.82
   0   7   2    9.53    0.77
   0   8   2    3.38    0.60
   0   0   3    7.21    0.54
   0   0   3    7.70    0.57
   0   1   3  101.88    6.98
   0  -1   3  106.69    6.87
   0   1   3  106.63    6.89
   0   2  -3   71.22    4.57
   0   2   3   63.89    4.64
   0  -2   3   74.61    4.65
   0   2   3   69.52    4.59
   0   3   3   60.28    4.23
   0  -3   3   62.60    4.24
   0   3  -3   67.68    4.17
   0   4   3  116.34    7.72
   0   4  -3  125.70    7.82
   0  -4   3  110.68    7.81
   0   5   3    6.95    0.59
   0   5   3    6.51    0.56
   0   5  -3    5.88    0.59
   0   6  -3   80.71    5.36
   0   6   3   81.99    5.36
   0   6   3   78.17    5.32
   0   7   3    3.33    0.55
   0   7  -3    3.63    0.52
   0   7   3    3.57    0.54
   0   8   3   -0.35    0.33
   0   0   4  323.91   20.62
   0   0   4  308.23   20.94
   0   1   4   10.01    0.72
   0   1   4   10.35    0.72
   0  -1   4   10.14    0.68
   0  -1   4    8.37    0.71
   0   2  -4    5.35    0.39
   0  -2   4    5.36    0.45
   0   2   4    4.63    0.44
   0   2   4    5.38    0.44
   0  -2   4    4.89    0.38
   0   3   4   97.12    6.61
   0  -3   4  104.74    6.70
   0   3   4  100.11    6.69
   0   4   4  106.91    7.10
   0   5   4   55.02    3.78
   0   5   4   58.83    3.81
   0   5  -4   56.35    3.82
   0   6   4    1.41    0.28
   0   6  -4    1.62    0.29
   0   6   4    1.41    0.30
   0   7  -4    3.09    0.58
   0   7   4    2.64    0.57
   0  -1   5    8.19    0.62
   0   1   5    8.03    0.62
   0  -1   5    6.60    0.58
   0   1   5    8.38    0.63
   0   2   5  218.64   14.26
   0   2   5  208.39   14.45
   0   2  -5  241.51   14.23
   0  -2   5  188.24   14.45
   0  -2   5  233.22   14.23
   0  -3   5  212.62   13.73
   0   3   5  206.25   13.54
   0   3   5  201.88   13.72
   0  -4   5   70.26    4.45
   0   4   5   63.24    4.43
   0   4   5   64.90    4.39
   0   5   5   25.98    1.79
   0   5   5   25.45    1.80
   0   5  -5   25.77    1.84
   0   6  -5    3.14    0.57
   0   6   5    2.81    0.56
   0   6   5    3.38    0.57
   0   7  -5   10.08    0.91
   0   7   5    9.64    0.93
   0   0   6   34.89    2.36
   0   0   6   34.52    2.32
   0  -1   6  131.35    8.29
   0  -1   6  110.12    8.16
   0   1   6  130.23    8.29
   0   1   6  126.73    8.18
   0  -2   6   93.73    6.68
   0   2   6  103.29    6.61
   0   2   6  103.47    6.68
   0   3   6  108.46    6.61
   0  -3   6   92.25    6.68
   0   3   6   99.30    6.67
   0   4   6   11.02    0.84
   0   4   6    8.76    0.81
   0   5   6   28.18    1.98
   0   5   6   27.88    1.97
   0   6   6   17.76    1.36
   0   6   6   16.64    1.36
   0   6  -6   18.18    1.38
   0   7   6    7.24    0.91
   0   7  -6    8.23    0.88
   0   0   7    1.03    0.25
   0   0   7    1.02    0.23
   0  -1   7  176.32   11.39
   0   1   7  168.81   11.38
   0   1   7  169.10   11.23
   0  -2   7   26.33    1.81
   0   2   7   25.62    1.79
   0   2   7   24.97    1.78
   0   3   7   28.36    1.86
   0   3   7   27.00    1.88
   0  -3   7   24.44    1.88
   0   4   7    6.87    0.66
   0   4   7    5.88    0.73
   0   5   7   40.33    2.70
   0   5   7   37.94    2.72
   0   6   7    0.79    0.37
   0   6   7    0.32    0.39
   0   6  -7    0.17    0.47
   0   0   8    3.27    0.48
   0   1   8  116.48    8.04
   0   1   8  123.68    8.15
   0  -1   8  126.84    8.15
   0  -2   8   13.92    1.10
   0   2   8   13.59    1.08
   0   2   8   15.22    1.07
   0   3   8    3.47    0.60
   0  -3   8    2.70    0.58
   0   3   8    3.66    0.50
   0   4   8    1.55    0.43
   0   4   8    2.42    0.53
   0   5   8   27.74    1.87
   0   5   8   24.22    1.94
   0   0   9    2.38    0.34
   0   1   9   43.33    2.94
   0  -1   9   42.94    2.95
   0  -2   9    4.02    0.60
   0   2   9    3.91    0.59
   0   2   9    5.05    0.58
   0  -3   9    5.57    0.71
   0   3   9    6.95    0.68
   0   3   9    6.06    0.74
   0   4   9   -0.12    0.37
   0   4   9    0.40    0.32
   0   5   9    7.93    1.01
   0   0  10    0.71    0.29
   0  -1  10   13.93    1.12
   0   1  10   14.56    1.11
   0  -2  10    0.82    0.33
   0   2  10    1.41    0.33
   0  -3  10   13.59    1.17
   0   3  10   14.84    1.15
   0   3  10   14.19    1.20
   0   0  11    1.62    0.36
   1   0   0    0.13    0.04
  -1   1   0  959.32   62.58
  -1   2   0   45.87    3.20
   1   2   0   50.11    3.20
  -1   3   0  163.60   10.36
   1   3   0  155.45   10.35
  -1   3   0  150.03   10.21
  -1   4   0   36.23    2.41
   1   4   0   31.98    2.39
   1  -4   0   36.61    2.41
   1   4   0   36.35    2.38
  -1   4   0   37.38    2.38
  -1   5   0   65.24    4.44
  -1   5   0   65.82    4.38
   1   5   0   63.61    4.42
   1   5   0   71.06    4.39
   1   6   0    2.49    0.40
  -1   6   0    2.86    0.44
  -1   6   0    3.00    0.40
  -1   7   0   15.47    1.16
  -1   7   0   16.25    1.19
  -1   8   0    0.55    0.28
  -1   0   1   60.37    4.20
   1   0   1   66.88    4.20
  -1   2   1  333.67   24.53
   1   2  -1  370.81   24.20
  -1   2  -1  380.51   24.21
   1   2   1  396.60   24.25
  -1   3   1  105.83    6.85
   1  -3   1  103.34    6.94
   1   3  -1  112.18    6.84
  -1   3   1  103.55    6.94
   1   3   1  109.22    6.85
   1   3   1   97.37    6.93
  -1   3  -1   99.70    6.94
   1  -4   1   46.32    3.14
   1   4  -1   48.29    3.13
  -1   4   1   48.38    3.11
   1   4  -1   50.80    3.10
  -1   4   1   46.55    3.14
  -1   4  -1   45.12    3.15
  -1   4  -1   46.00    3.10
   1   4   1   43.90    3.12
   1   4   1   46.95    3.11
   1   5  -1  105.76    6.16
  -1   5   1   89.93    6.22
   1  -5   1   90.47    6.24
  -1   5   1   94.73    6.16
   1   5  -1   97.19    6.22
  -1   5  -1   86.92    6.23
   1   5   1   92.36    6.21
   1   5   1   92.91    6.16
  -1   5  -1   92.07    6.15
  -1   6   1   12.48    0.97
  -1   6   1   12.68    0.96
   1   6   1   13.30    0.97
  -1   6  -1   12.70    0.97
  -1   6  -1   12.86    0.94
  -1   7   1   37.50    2.76
  -1   7   1   37.26    2.76
   1   7   1   42.49    2.78
  -1   7  -1   45.68    2.77
  -1   8   1    0.20    0.31
  -1   8   1    0.43    0.29
  -1   8  -1    0.14    0.28
  -1   0   2   66.13    4.27
   1   0   2   63.48    4.28
  -1   1   2  583.37   39.49
   1  -1   2  627.54   39.47
  -1   1  -2  621.29   39.48
   1   1   2  586.16   39.54
  -1   2   2  205.12   13.58
  -1   3   2   31.72    2.06
  -1   3   2   28.75    2.08
   1   3  -2   30.43    2.04
   1  -3   2   29.40    2.08
   1   3   2   32.04    2.07
   1   3   2   33.79    2.07
  -1   4   2    4.56    0.41
   1  -4   2    4.40    0.40
  -1   4   2    5.28    0.43
  -1   4  -2    3.87    0.38
   1   4   2    5.03    0.43
   1   4   2    3.94    0.39
  -1   5   2  163.00   10.93
   1  -5   2  154.83   11.08
  -1   5   2  155.90   11.06
   1   5  -2  168.85   11.06
  -1   5  -2  180.03   10.92
  -1   5  -2  165.50   11.08
   1   5   2  171.61   10.94
   1   5   2  175.31   11.06
  -1   6   2    9.21    0.81
  -1   6   2    8.87    0.82
   1   6  -2   10.39    0.78
  -1   6  -2   11.29    0.83
   1   6   2   11.53    0.84
  -1   7   2   13.42    1.04
  -1   7   2   14.70    1.02
  -1   7  -2   12.78    1.03
   1   7   2   11.83    1.04
  -1   8   2    0.73    0.34
  -1   8   2    1.21    0.31
  -1   8  -2    0.93    0.32
   1   8   2    0.87    0.37
   1   0   3   60.03    4.37
   1   0   3   65.53    4.43
  -1   0   3   74.20    4.37
  -1   1   3   98.02    6.58
  -1   1   3  105.37    6.49
   1  -1   3  110.09    6.58
   1  -1   3  109.97    6.49
  -1   1  -3   84.99    6.48
   1   1   3   86.19    6.50
  -1   2   3   36.25    2.32
  -1   2   3   34.60    2.34
   1  -2   3   38.33    2.35
   1  -2   3   37.01    2.30
   1   2   3   29.85    2.33
  -1   2  -3   33.73    2.30
  -1   3   3  338.74   21.43
   1  -3   3  338.31   21.45
   1   3   3  294.63   21.45
  -1   4   3  156.97   10.76
   1  -4   3  154.71   10.77
   1   4   3  172.55   10.64
   1   4   3  146.66   10.75
  -1   4  -3  180.93   10.62
  -1   5   3   26.04    1.80
   1   5  -3   26.17    1.80
   1  -5   3   27.24    1.82
  -1   5   3   27.16    1.81
  -1   5  -3   26.10    1.83
   1   5   3   25.86    1.81
   1   5   3   24.96    1.79
   1   6  -3    3.45    0.43
  -1   6   3    3.29    0.48
  -1   6   3    3.28    0.48
  -1   6  -3    2.55    0.46
   1   6   3    2.30    0.47
  -1   7   3   12.05    0.98
  -1   7   3   12.06    0.95
  -1   7  -3   11.72    0.97
   1   7   3   11.12    0.98
  -1   8   3   14.84    1.31
  -1   8   3   18.41    1.29
   1   8   3   16.24    1.34
  -1   8  -3   17.33    1.30
  -1   0   4   12.87    0.87
   1   0   4   11.59    0.88
   1   0   4   12.90    0.87
  -1   0   4   12.28    0.89
  -1   1   4  153.28   10.50
   1  -1   4  159.88   10.50
  -1   1   4  157.45   10.35
   1  -1   4  160.33   10.35
  -1  -1   4  148.79   10.34
  -1  -1   4  170.45   10.51
  -1   2   4  117.42    7.97
  -1   2   4  119.52    7.87
   1  -2   4  129.44    7.98
   1  -2   4  119.38    7.86
   1   2   4  121.39    7.98
  -1   2  -4  115.90    7.86
   1   2   4  118.32    7.89
   1  -3   4  141.29    8.98
  -1   3   4  134.51    8.86
  -1   3   4  132.76    8.97
  -1  -3   4  132.38    8.98
  -1   4   4   85.28    5.67
   1  -4   4   85.09    5.69
  -1   5   4   65.08    4.33
  -1   5   4   66.33    4.36
   1   5  -4   70.88    4.37
   1  -5   4   74.29    4.40
   1   5   4   56.96    4.33
  -1   5  -4   60.12    4.39
   1   5   4   62.45    4.36
  -1   6   4    5.59    0.61
   1   6  -4    5.05    0.56
  -1   6   4    5.31    0.61
  -1   6  -4    6.33    0.64
   1   6   4    6.41    0.64
  -1   7   4    9.20    0.83
  -1   7   4    7.33    0.82
   1   7   4    9.73    0.86
  -1   0   5   23.57    1.60
   1   0   5   23.70    1.63
  -1   0   5   23.56    1.63
   1   0   5   24.09    1.61
  -1   1   5   42.86    3.10
   1  -1   5   44.11    3.05
  -1   1   5   45.63    3.06
   1  -1   5   39.82    3.10
   1   1   5   53.25    3.11
  -1  -1   5   48.57    3.11
   1   1   5   52.10    3.08
  -1  -1   5   43.13    3.04
   1  -2   5  226.52   14.53
   1  -2   5  232.96   14.75
  -1   2   5  229.48   14.74
  -1   2   5  227.49   14.54
   1   2   5  209.72   14.55
   1   2   5  208.48   14.74
   1  -3   5   88.86    5.42
  -1   3   5   80.84    5.40
  -1   3   5   82.72    5.34
   1   3   5   79.80    5.35
  -1  -3   5   72.28    5.41
  -1   4   5   37.44    2.40
  -1   4   5   37.53    2.39
   1  -4   5   39.91    2.42
   1   4   5   30.01    2.39
   1   4   5   31.33    2.40
  -1   5   5    2.37    0.44
   1   5  -5    1.81    0.33
  -1   5   5    1.70    0.30
   1   5   5    1.42    0.29
   1   5   5    1.58    0.32
  -1   6   5   43.78    2.73
   1   6  -5   38.68    2.72
  -1   6   5   38.25    2.73
  -1   6  -5   41.09    2.77
   1   6   5   37.55    2.75
  -1   7   5    6.75    0.75
  -1   7   5    4.87    0.70
   1   7  -5    5.82    0.67
  -1   7  -5    5.21    0.73
   1   7   5    4.60    0.74
   1   0   6   99.61    6.67
   1   0   6  104.01    6.77
  -1   0   6  101.86    6.67
  -1   0   6  101.12    6.77
  -1   1   6   29.40    1.99
   1  -1   6   26.76    1.97
   1  -1   6   28.60    2.01
  -1   1   6   27.73    2.01
  -1  -1   6   28.81    1.96
   1   1   6   31.02    2.00
   1   1   6   31.03    1.99
  -1  -1   6   30.35    2.01
  -1   2   6  135.05    8.55
   1  -2   6  114.91    8.67
  -1   2   6  126.36    8.66
   1   2   6  139.46    8.65
   1   2   6  138.37    8.56
  -1  -2   6  127.22    8.66
  -1   3   6   24.87    1.86
  -1   3   6   26.99    1.85
   1  -3   6   26.02    1.87
   1   3   6   30.56    1.84
  -1  -3   6   23.11    1.87
   1   3   6   28.64    1.88
  -1   4   6   33.18    2.20
  -1   4   6   32.93    2.20
   1  -4   6   33.77    2.22
   1   4   6   28.46    2.20
   1   4   6   30.98    2.18
  -1   5   6    7.16    0.74
  -1   5   6    7.14    0.74
   1   5   6    8.40    0.78
  -1   6   6   27.12    1.82
  -1   6   6   24.81    1.81
   1   6  -6   25.34    1.79
   1   6   6   22.64    1.83
  -1   6  -6   24.92    1.87
  -1   7   6    3.02    0.47
  -1   7   6    2.02    0.47
   1   7   6    1.88    0.49
  -1   7  -6    2.27    0.47
   1   0   7  240.52   14.77
  -1   0   7  214.26   14.54
   1   0   7  220.89   14.55
  -1   0   7  214.50   14.76
  -1   1   7    9.96    0.87
   1  -1   7   12.23    0.92
  -1   1   7   10.56    0.89
   1  -1   7   11.31    0.88
   1   1   7   12.76    0.89
  -1  -1   7   11.16    0.88
   1   1   7   12.53    0.89
  -1   2   7   46.50    3.05
   1  -2   7   45.53    3.08
  -1   2   7   46.11    3.07
   1   2   7   44.62    3.03
  -1  -2   7   43.09    3.06
   1   2   7   45.11    3.05
  -1   3   7   12.60    1.12
  -1   3   7   14.13    1.14
   1   3   7   16.04    1.15
   1   3   7   16.45    1.08
   1  -4   7   43.64    3.46
  -1   4   7   49.23    3.43
  -1   4   7   46.50    3.45
   1   4   7   58.28    3.42
   1   4   7   55.92    3.46
  -1   5   7   -0.04    0.34
  -1   5   7    0.00    0.36
   1   5   7    0.44    0.28
   1   5   7   -0.26    0.34
  -1   6   7    8.53    0.86
   1   6  -7    8.34    0.91
  -1   6   7    8.08    0.90
   1   6   7    5.60    0.86
  -1   6  -7    5.48    1.01
   1   0   8  195.67   13.27
   1   0   8  215.40   13.47
  -1   0   8  197.39   13.46
  -1   1   8    3.45    0.47
  -1   1   8    2.27    0.45
   1  -1   8    2.18    0.51
  -1  -1   8    2.68    0.46
   1   1   8    3.69    0.47
   1   1   8    3.77    0.46
   1  -2   8   23.76    1.77
  -1   2   8   22.44    1.73
  -1   2   8   23.15    1.74
  -1  -2   8   29.42    1.75
  -1   3   8    2.03    0.36
  -1   3   8    2.08    0.40
   1  -3   8    1.58    0.39
   1   3   8    2.18    0.38
   1   3   8    2.73    0.45
  -1   4   8   22.80    1.85
  -1   4   8   24.14    1.82
   1   4   8   27.39    1.78
   1   4   8   26.52    1.85
  -1   5   8   -0.07    0.40
  -1   5   8    0.66    0.38
   1   5   8   -0.04    0.38
  -1   0   9   38.29    2.74
   1   0   9   41.94    2.75
  -1   1   9    9.26    0.84
   1  -1   9    9.41    0.86
   1   1   9   10.41    0.82
   1   1   9    9.78    0.82
  -1  -1   9   10.30    0.83
  -1   2   9   33.36    2.54
  -1   2   9   33.45    2.53
   1  -2   9   37.64    2.57
   1   2   9   38.02    2.53
   1   2   9   39.85    2.53
  -1  -2   9   39.32    2.56
  -1   3   9    1.72    0.42
  -1   3   9    2.51    0.56
   1   3   9    2.42    0.41
   1   3   9    2.73    0.51
  -1   4   9   15.09    1.18
  -1   4   9   13.80    1.25
   1  -4   9   12.85    1.21
   1   4   9   14.22    1.21
   1   4   9   15.30    1.13
  -1   5   9    0.67    0.49
   1   0  10   19.64    1.43
  -1   0  10   19.04    1.42
  -1   1  10    1.94    0.37
   1  -1  10    2.42    0.38
  -1  -1  10    3.08    0.52
   1  -2  10   20.06    1.51
  -1   2  10   19.77    1.50
   1   2  10   20.66    1.47
  -1  -2  10   19.67    1.48
   1  -3  10   11.93    1.11
  -1   3  10   13.03    1.09
   1   3  10   12.73    1.11
   1   3  10   13.94    1.06
   1   0  11    9.86    0.89
  -1   0  11    9.35    0.87
  -2   0   0  160.16   10.80
   2   0   0  169.59   10.80
   2   1   0   12.34    0.89
   2   2   0   24.74    1.56
  -2   2   0   21.48    1.55
  -2   3   0   67.10    4.64
  -2   3   0   68.60    4.57
   2  -3   0   73.25    4.64
   2   4   0  575.70   36.57
  -2   4   0  524.02   36.97
  -2   4   0  558.72   36.53
   2  -4   0  576.20   36.99
   2  -5   0    1.27    0.24
  -2   5   0    1.09    0.22
  -2   5   0    1.41    0.26
  -2   6   0    2.93    0.49
   2   6   0    3.17    0.43
  -2   6   0    3.45    0.43
  -2   7   0    7.16    0.69
  -2   7   0    6.64    0.66
  -2   8   0   32.13    2.24
  -2   0   1  518.87   33.87
  -2   1   1  131.84    8.56
   2  -1   1  129.54    8.55
   2   1   1  124.79    8.56
  -2   1  -1  135.52    8.56
   2   2  -1  120.84    9.24
   2  -2   1  151.28    9.37
  -2   2  -1  149.02    9.24
   2   2   1  144.42    9.26
   2   3  -1   88.12    5.81
  -2   3   1   88.03    5.90
   2  -3   1   88.23    5.90
  -2   3   1   89.58    5.82
  -2   3  -1   88.72    5.82
   2   3   1   90.23    5.83
  -2   3  -1   88.31    5.91
   2   4  -1  206.08   14.50
  -2   4   1  213.56   14.51
   2  -4   1  202.93   14.71
  -2   4   1  206.76   14.71
  -2   4  -1  239.14   14.51
   2   4   1  255.20   14.52
  -2   4  -1  230.43   14.71
   2   5  -1    0.72    0.20
  -2   5   1    0.80    0.21
  -2   5   1    1.30    0.25
   2  -5   1    0.96    0.22
  -2   5  -1    1.07    0.21
  -2   5  -1    0.58    0.24
   2   5   1    0.89    0.23
  -2   6   1   70.71    4.50
  -2   6   1   70.01    4.46
  -2   6  -1   63.92    4.51
   2   6   1   66.64    4.47
  -2   6  -1   64.76    4.45
  -2   7   1    8.68    0.80
  -2   7   1    9.51    0.80
  -2   7  -1    9.03    0.79
  -2   7  -1    9.89    0.82
   2   7   1    8.68    0.83
  -2   8   1    4.73    0.66
  -2   8   1    5.46    0.65
  -2   8  -1    4.94    0.67
  -2   0   2  464.61   31.69
   2   0   2  506.15   31.74
  -2   1   2  513.13   34.52
   2  -1   2  525.19   34.51
   2  -1   2  489.89   34.99
  -2   1  -2  584.90   34.53
  -2   2   2  863.68   57.77
   2  -2   2  859.42   58.56
  -2   2   2  887.02   58.55
  -2   2  -2  975.19   57.78
   2   2   2  836.09   57.88
  -2   3   2   91.09    6.05
   2  -3   2   89.30    6.05
  -2   3  -2   84.83    5.96
   2   3   2   98.97    5.99
   2  -4   2   48.87    2.79
  -2   4   2   49.16    2.79
   2   4  -2   40.52    2.74
  -2   4  -2   36.36    2.74
   2   4   2   37.98    2.77
  -2   4  -2   35.70    2.81
  -2   5   2   19.57    1.33
  -2   5   2   19.67    1.32
   2  -5   2   17.66    1.32
   2   5   2   19.38    1.34
  -2   5  -2   17.77    1.35
  -2   5  -2   18.65    1.30
  -2   6   2  111.27    7.37
  -2   6   2  108.45    7.29
  -2   6  -2  106.27    7.38
   2   6   2  113.66    7.31
  -2   6  -2  113.94    7.28
  -2   7   2    3.30    0.55
  -2   7   2    2.78    0.54
  -2   7  -2    4.01    0.59
   2   7   2    4.05    0.59
  -2   8   2   -0.11    0.32
  -2   8   2    0.05    0.32
  -2   8  -2    0.64    0.35
   2   0   3  142.93    9.39
  -2   0   3  144.52    9.38
   2  -1   3   85.47    5.68
  -2   1   3   80.99    5.60
   2  -1   3   86.87    5.61
  -2   1  -3   87.54    5.61
   2   1   3   86.99    5.63
   2  -2   3  574.79   37.12
   2  -2   3  561.33   37.66
  -2   2   3  560.82   37.16
  -2   2   3  576.49   37.63
  -2   3   3   89.41    6.25
  -2   3   3   86.69    6.17
   2   3  -3  105.00    6.25
   2  -3   3   86.68    6.25
  -2   3  -3  102.76    6.17
   2  -4   3  101.20    6.86
  -2   4   3  108.30    6.86
   2   4  -3  113.22    6.85
  -2   4  -3   96.06    6.76
   2   4   3   96.81    6.79
  -2   5   3   52.47    3.50
  -2   5   3   52.25    3.52
   2  -5   3   51.00    3.53
  -2   5  -3   53.19    3.48
   2   5   3   52.28    3.51
  -2   5  -3   53.41    3.55
  -2   6   3    7.61    0.75
  -2   6  -3    9.26    0.77
   2   6   3    9.37    0.79
  -2   7   3    0.76    0.31
  -2   7   3    0.90    0.31
   2   7   3    0.52    0.34
  -2   7  -3    0.49    0.32
  -2   8   3    6.20    0.77
   2   8   3    6.24    0.83
  -2   8  -3    7.26    0.80
   2   0   4  475.61   27.73
   2   0   4  367.81   27.25
  -2   0   4  402.20   27.64
  -2   0   4  425.71   27.26
   2  -1   4  217.66   14.29
  -2   1   4  215.19   14.28
  -2   1   4  202.06   14.48
   2  -1   4  239.77   14.50
   2   1   4  219.34   14.30
  -2   2   4   72.49    4.64
  -2   2   4   70.19    4.70
   2  -2   4   79.79    4.70
   2  -2   4   75.73    4.63
   2   2   4   63.30    4.66
   2   2   4   61.81    4.69
  -2   3   4  135.40    9.47
   2  -3   4  138.05    9.48
  -2   3   4  132.35    9.35
  -2   3  -4  150.25    9.34
   2   3   4  157.73    9.47
   2  -4   4   89.97    5.90
  -2   4   4   88.19    5.89
   2   4  -4   85.51    5.89
   2   4   4   86.14    5.85
  -2   4  -4   92.47    5.81
  -2   5   4   11.75    0.94
   2   5  -4   12.91    0.90
  -2   5   4   12.02    0.94
   2  -5   4   12.66    0.93
   2   5   4   11.89    0.97
  -2   6   4   -0.08    0.28
  -2   6   4    0.20    0.26
   2   6   4    0.56    0.31
  -2   6  -4    0.64    0.33
  -2   7   4   11.11    0.91
   2   7   4    9.04    0.95
  -2   7  -4    9.58    0.91
   2   0   5  137.02    8.63
   2   0   5  126.64    8.75
  -2   0   5  125.03    8.75
  -2   0   5  138.27    8.62
  -2   1   5  188.87   12.61
  -2   1   5  193.27   12.42
   2  -1   5  182.71   12.43
   2  -1   5  207.77   12.61
  -2  -1   5  177.77   12.61
   2   1   5  190.38   12.44
  -2   2   5   10.29    0.72
   2  -2   5   10.85    0.71
  -2   2   5    9.82    0.73
  -2   2  -5    8.51    0.71
   2   2   5    7.96    0.76
   2  -3   5  125.51    7.89
  -2   3   5  119.99    7.79
  -2   3   5  118.48    7.88
   2   3   5  103.39    7.80
  -2   3  -5  114.46    7.77
   2   3   5  129.43    7.87
   2  -4   5   18.75    1.26
  -2   4   5   16.55    1.25
  -2   4   5   16.60    1.24
   2   5  -5    6.19    0.66
  -2   5   5    7.35    0.71
  -2   5   5    7.28    0.68
   2  -5   5    7.47    0.69
   2   5   5    8.96    0.76
  -2   6   5   10.73    0.99
  -2   6   5   12.75    1.02
   2   6   5   11.53    1.05
  -2   6  -5   13.80    1.10
  -2   7   5   18.83    1.38
  -2   7  -5   18.32    1.42
   2   7   5   16.33    1.43
   2   0   6   17.03    1.19
   2   0   6   16.13    1.20
  -2   0   6   17.22    1.16
  -2   0   6   16.57    1.20
   2  -1   6  101.97    7.12
   2  -1   6  100.65    7.22
  -2   1   6  114.42    7.12
  -2   1   6  107.51    7.22
  -2  -1   6  117.46    7.22
   2  -2   6   68.95    4.63
  -2   2   6   70.52    4.64
  -2   2   6   67.50    4.70
   2  -2   6   69.24    4.71
   2   2   6   75.07    4.66
  -2  -2   6   68.58    4.70
  -2   2  -6   71.21    4.63
  -2   3   6   48.62    3.25
   2  -3   6   51.23    3.27
  -2   3   6   50.36    3.21
   2   3   6   41.83    3.22
  -2   4   6    2.35    0.50
   2  -4   6    2.89    0.51
  -2   4   6    2.71    0.48
   2   4   6    2.99    0.55
   2  -5   6   33.49    2.20
  -2   5   6   29.41    2.16
  -2   5   6   31.54    2.17
   2   5  -6   30.17    2.16
   2   5   6   30.55    2.20
  -2   6   6    3.33    0.62
  -2   6   6    4.36    0.69
   2   6   6    3.54    0.69
  -2   6  -6    4.30    0.86
  -2   7   6    9.67    1.00
  -2   7  -6   10.21    1.04
   2   7   6    7.94    1.01
   2   0   7   12.26    0.93
   2   0   7   12.25    0.95
  -2   0   7   12.21    0.94
   2  -1   7  140.13    9.00
   2  -1   7  136.56    8.87
  -2   1   7  135.63    9.00
  -2   1   7  140.61    8.87
  -2  -1   7  122.27    8.99
   2   1   7  133.50    8.87
   2   1   7  137.47    8.99
  -2   2   7   32.11    2.29
  -2   2   7   29.62    2.31
   2   2   7   35.63    2.30
   2   2   7   36.68    2.28
   2  -3   7   19.02    1.60
  -2   3   7   20.50    1.59
  -2   3   7   22.16    1.57
   2   3   7   26.32    1.59
   2  -4   7    8.24    0.81
  -2   4   7    8.11    0.80
  -2   4   7    7.96    0.82
   2   4   7    7.88    0.81
   2  -5   7   26.48    1.93
  -2   5   7   26.81    1.92
  -2   5   7   25.43    1.90
   2   5   7   26.62    1.92
   2   6  -7   -0.04    0.35
  -2   6   7   -0.38    0.34
   2  -6   7   -0.10    0.40
  -2   6   7    0.08    0.43
  -2   6  -7   -0.58    0.48
   2   6   7   -0.28    0.36
   2   0   8   16.67    1.18
  -2   0   8   14.19    1.16
   2   0   8   16.62    1.16
  -2   1   8   53.46    3.84
   2  -1   8   60.24    3.86
   2   1   8   61.60    3.83
  -2  -1   8   52.73    3.83
   2   1   8   56.66    3.80
  -2   2   8    2.16    0.36
   2  -2   8    2.03    0.38
  -2   2   8    2.37    0.38
   2   2   8    2.48    0.48
   2   2   8    2.18    0.42
  -2   3   8   52.05    3.92
  -2   3   8   56.58    3.90
   2  -3   8   52.84    3.94
   2   3   8   63.34    3.89
   2   3   8   63.82    3.88
  -2   4   8    3.58    0.69
  -2   4   8    3.15    0.67
   2  -4   8    2.34    0.45
   2   4   8    3.43    0.62
  -2   5   8   11.75    1.05
  -2   5   8   11.72    1.09
   2  -5   8    9.52    1.06
   2   5   8   10.46    1.02
   2   0   9    0.70    0.29
  -2   0   9    0.78    0.28
  -2   1   9   49.74    3.82
   2  -1   9   59.69    3.84
   2   1   9   55.05    3.78
  -2  -1   9   54.68    3.82
   2   1   9   63.70    3.83
  -2   2   9    7.72    0.78
   2  -2   9    7.17    0.82
   2   2   9    8.84    0.73
   2   2   9    8.13    0.76
  -2   3   9   32.20    2.29
   2  -3   9   31.58    2.30
  -2   3   9   32.37    2.30
   2   3   9   32.41    2.26
   2   3   9   32.75    2.23
  -2   4   9    1.52    0.47
   2  -4   9    0.90    0.42
  -2   4   9    2.30    0.45
   2   4   9    1.37    0.40
  -2   0  10   11.75    1.01
   2   0  10   13.34    1.03
   2  -1  10   37.17    2.61
  -2   1  10   33.24    2.59
   2   1  10   42.02    2.59
  -2  -1  10   37.64    2.59
  -2   2  10    8.73    0.87
   2  -2  10    7.69    0.88
   2   2  10   10.12    0.82
   2   2  10    9.19    0.84
  -2   3  10   13.91    1.10
   2  -3  10   13.50    1.11
   2   3  10   11.90    1.04
   2   3  10   11.31    1.08
   3   0   0    0.14    0.08
  -3   0   0    0.21    0.08
   3   2   0    2.87    0.29
  -3   3   0   50.11    3.49
  -3   3   0   54.38    3.45
  -3   4   0   73.92    4.91
   3   4   0   67.79    4.86
  -3   4   0   79.10    4.85
  -3   5   0  161.89   10.63
   3   5   0  155.79   10.49
  -3   5   0  162.24   10.48
  -3   6   0   54.55    3.69
  -3   6   0   54.61    3.64
  -3   7   0   17.41    1.28
  -3   7   0   16.30    1.24
  -3   8   0    0.45    0.34
  -3   8   0    0.06    0.31
  -3   0   1  330.75   20.21
  -3   0  -1  285.73   20.21
  -3   1   1  354.63   25.04
   3  -1   1  346.51   25.05
   3   1  -1  373.09   25.02
  -3  -1   1  410.57   25.03
  -3   1  -1  376.98   25.08
   3   1   1  437.74   25.13
   3   2  -1  146.92    9.58
   3  -2   1  146.42    9.73
   3  -3   1  317.35   20.33
  -3   3   1  289.47   20.32
  -3   3   1  319.36   20.04
   3   3  -1  291.87   20.04
  -3   3  -1  328.62   20.08
   3   3   1  295.35   20.06
  -3   4   1    8.13    0.59
  -3   4   1    7.60    0.62
   3  -4   1    8.28    0.59
  -3   4  -1    6.92    0.58
  -3   4  -1    7.25    0.63
   3   4   1    6.04    0.64
   3  -5   1   72.88    4.81
  -3   5   1   75.26    4.82
  -3   5   1   76.27    4.76
  -3   5  -1   67.96    4.82
  -3   5  -1   68.99    4.75
   3   5   1   70.69    4.78
   3  -6   1   17.33    1.34
  -3   6   1   17.68    1.34
  -3   6   1   18.37    1.36
   3   6   1   20.11    1.39
  -3   6  -1   19.73    1.34
  -3   6  -1   19.60    1.37
  -3   7   1   18.62    1.29
  -3   7   1   19.38    1.30
  -3   7  -1   15.42    1.27
  -3   7  -1   15.87    1.31
  -3   8   1    0.79    0.35
  -3   8   1    1.39    0.35
  -3   8  -1    1.27    0.37
   3   0   2    2.80    0.26
  -3   0   2    2.62    0.23
   3  -1   2  578.64   36.11
  -3   1   2  571.67   36.10
  -3   1  -2  505.84   36.09
   3  -2   2   30.32    2.05
  -3   2   2   30.43    2.03
   3   2   2   30.90    2.06
   3  -3   2  473.23   32.63
  -3   3   2  476.22   32.59
  -3   3  -2  505.73   32.18
   3   3   2  515.56   32.28
   3  -4   2   14.11    1.04
  -3   4   2   14.42    1.06
   3   4   2   15.72    1.10
  -3   4  -2   14.87    1.03
  -3   4  -2   14.35    1.11
  -3   5   2   30.26    1.88
   3  -5   2   28.90    1.89
   3   5   2   23.11    1.91
   3  -6   2   14.90    1.08
  -3   6   2   15.93    1.10
  -3   6   2   16.69    1.12
  -3   6  -2   14.00    1.12
   3   6   2   12.96    1.14
  -3   6  -2   13.63    1.07
  -3   7   2   19.88    1.37
  -3   7   2   18.70    1.37
  -3   7  -2   17.14    1.39
   3   7   2   17.84    1.43
  -3   8   2    1.08    0.36
  -3   8   2    2.06    0.39
  -3   8  -2    1.73    0.40
   3   0   3  622.84   39.94
  -3   0   3  593.23   39.91
   3   0   3  617.95   40.48
   3  -1   3  767.32   50.55
   3  -1   3  821.07   49.87
  -3   1   3  778.25   49.85
   3   1   3  685.97   49.86
   3  -2   3    4.37    0.36
   3  -2   3    4.09    0.36
  -3   2   3    4.70    0.37
  -3   2   3    4.02    0.38
  -3   3   3   13.95    1.01
   3  -3   3   15.02    1.00
  -3   3   3   13.55    0.99
   3  -4   3   71.32    5.15
  -3   4   3   75.23    5.15
   3   4   3   82.49    5.14
  -3   4  -3   80.21    5.09
  -3   5   3   77.56    5.10
  -3   5   3   76.40    5.05
   3  -5   3   75.27    5.11
   3   5   3   76.98    5.09
  -3   5  -3   75.41    5.04
  -3   5  -3   76.59    5.13
  -3   6   3   25.10    1.58
  -3   6   3   23.61    1.57
   3  -6   3   22.70    1.55
  -3   6  -3   19.36    1.59
   3   6   3   18.94    1.61
  -3   7   3   11.95    1.04
  -3   7   3   12.66    1.06
   3   7   3   13.91    1.13
  -3   7  -3   12.87    1.06
  -3   8   3    3.30    0.64
   3   8   3    3.73    0.75
  -3   8  -3    4.10    0.73
   3   0   4  237.03   15.72
  -3   0   4  259.90   15.70
   3   0   4  224.88   15.96
  -3   1   4  128.68    7.98
  -3   1   4  115.78    8.08
   3  -1   4  129.12    7.99
   3  -1   4  129.21    8.08
  -3   1  -4  121.76    7.99
   3   1   4  106.83    7.99
   3  -2   4  191.72   12.66
  -3   2   4  180.47   12.66
  -3   2   4  185.42   12.49
   3  -2   4  183.90   12.49
  -3   2  -4  214.10   12.50
  -3   3   4   74.28    4.93
   3  -3   4   74.53    4.93
  -3   3   4   71.14    4.87
  -3   3  -4   75.49    4.86
  -3   4   4   66.00    4.24
   3  -4   4   64.23    4.29
  -3   4   4   68.11    4.29
  -3   4  -4   59.83    4.23
   3   4   4   61.73    4.28
  -3   5   4   20.08    1.48
   3  -5   4   19.95    1.47
  -3   5   4   19.55    1.47
   3   5   4   23.62    1.53
  -3   6   4    5.88    0.66
  -3   6   4    6.01    0.69
   3  -6   4    6.11    0.64
  -3   6  -4    6.59    0.76
   3   6   4    6.65    0.74
  -3   7   4   10.20    0.93
  -3   7   4    8.58    0.89
  -3   7  -4   10.76    0.94
   3   7   4    9.95    0.97
  -3   0   5   55.29    3.49
   3   0   5   50.52    3.52
  -3   0   5   53.18    3.55
  -3   1   5   29.15    1.90
  -3   1   5   30.83    1.87
   3  -1   5   30.93    1.89
   3   1   5   24.74    1.88
  -3   1  -5   25.76    1.89
   3   1   5   25.93    1.90
  -3   2   5  239.92   16.56
  -3   2   5  249.08   16.33
   3  -2   5  255.46   16.56
   3  -2   5  245.75   16.33
  -3   2  -5  248.06   16.33
   3   2   5  261.35   16.36
   3  -3   5   41.32    2.85
  -3   3   5   42.78    2.90
  -3   3   5   44.12    2.87
   3  -3   5   47.09    2.91
  -3   3  -5   39.12    2.85
  -3   4   5   36.99    2.58
   3  -4   5   39.66    2.59
  -3   4   5   37.03    2.56
  -3   5   5   23.52    1.67
   3  -5   5   23.91    1.67
  -3   5   5   22.50    1.66
   3   5   5   23.71    1.71
  -3   6   5   22.51    1.68
  -3   6   5   25.47    1.70
   3  -6   5   24.67    1.69
  -3   6  -5   22.62    1.77
   3   6   5   21.00    1.72
  -3   7   5    4.22    0.74
  -3   7   5    2.92    0.63
  -3   7  -5    4.50    0.80
   3   7   5    3.59    0.72
   3   0   6   66.95    4.20
  -3   0   6   64.15    4.17
  -3   0   6   58.68    4.24
   3  -1   6   13.98    0.97
  -3   1   6   12.73    0.92
  -3   1   6   12.35    0.96
   3  -1   6   11.93    0.95
  -3   2   6  129.36    7.92
   3  -2   6  116.75    7.91
   3  -2   6  128.45    8.03
  -3   2   6  121.46    8.02
  -3   2  -6  108.88    7.91
   3   2   6  118.22    7.93
  -3   3   6   32.84    2.28
  -3   3   6   34.57    2.25
   3  -3   6   34.96    2.28
   3   3   6   29.81    2.27
   3  -4   6   48.33    3.13
  -3   4   6   44.96    3.09
  -3   4   6   44.07    3.12
  -3   5   6   10.76    0.96
   3  -5   6   11.99    0.94
  -3   5   6    9.61    0.91
   3   5   6   10.08    0.94
  -3   6   6   22.98    1.65
  -3   6   6   20.05    1.60
   3  -6   6   23.57    1.64
   3   6   6   20.70    1.64
  -3   0   7   71.57    4.89
   3   0   7   79.11    4.84
   3   0   7   68.30    4.89
   3  -1   7    8.56    0.67
   3  -1   7    6.06    0.68
  -3   1   7    6.74    0.64
  -3   1   7    7.18    0.69
   3   1   7    7.90    0.67
  -3   1  -7    7.70    0.68
   3   1   7    6.85    0.63
  -3   2   7   42.41    2.52
  -3   2   7   38.79    2.56
   3  -2   7   36.26    2.55
   3   2   7   34.28    2.51
   3   2   7   33.46    2.50
   3  -3   7    4.12    0.60
  -3   3   7    4.87    0.59
  -3   3   7    4.04    0.63
   3   3   7    4.70    0.60
   3  -4   7   72.58    4.78
  -3   4   7   71.95    4.76
  -3   4   7   69.90    4.70
   3   4   7   67.12    4.71
  -3   5   7    1.66    0.43
   3  -5   7    1.24    0.39
  -3   5   7    1.24    0.39
   3   5   7    1.39    0.38
  -3   6   7    8.67    0.95
  -3   6   7   10.06    1.05
   3  -6   7   10.14    0.99
   3   6   7    9.45    0.96
   3   0   8   37.83    2.54
  -3   0   8   34.78    2.54
   3   0   8   38.55    2.52
   3  -1   8   28.24    2.03
  -3   1   8   26.33    2.02
   3   1   8   29.87    2.00
   3   1   8   31.10    2.00
  -3   2   8   45.36    3.02
   3  -2   8   41.51    3.05
  -3   2   8   40.99    3.06
   3   2   8   47.81    3.01
   3   2   8   46.37    3.01
  -3   3   8   15.44    1.26
   3  -3   8   12.78    1.22
  -3   3   8   16.80    1.23
   3   3   8   16.08    1.20
  -3   4   8   54.48    3.47
  -3   4   8   54.43    3.51
   3  -4   8   46.10    3.50
   3   4   8   47.67    3.44
  -3   5   8    0.43    0.47
  -3   5   8    0.03    0.39
   3  -5   8   -0.19    0.40
   3   5   8    0.27    0.36
   3   0   9   58.07    3.60
  -3   0   9   47.80    3.58
  -3   1   9    1.80    0.35
   3  -1   9    1.60    0.35
   3   1   9    1.53    0.32
   3   1   9    0.94    0.30
   3  -2   9   48.05    3.19
  -3   2   9   46.44    3.18
   3   2   9   43.69    3.13
   3   2   9   46.62    3.13
   3  -3   9   12.41    1.12
  -3   3   9   12.56    1.15
  -3   3   9   14.10    1.16
   3   3   9   12.73    1.08
  -3   4   9   11.26    1.11
   3  -4   9    9.18    1.07
  -3   4   9   10.81    1.11
   3   4   9   12.52    1.02
  -3   0  10   18.43    1.48
   3   0  10   21.60    1.49
   3  -1  10    7.96    0.79
  -3   1  10    8.19    0.79
   3   1  10    6.53    0.74
   3  -2  10   44.57    3.18
  -3   2  10   42.04    3.17
   3   2  10   45.75    3.13
   3   2  10   51.64    3.14
   3  -3  10    0.22    0.39
  -3   3  10    0.82    0.43
   3   3  10    1.04    0.37
   4   0   0  153.07    9.89
  -4   0   0  147.61    9.88
  -4   1   0   38.72    2.67
   4   1   0   41.74    2.66
   4   2   0  642.35   41.98
  -4   3   0   21.91    1.55
  -4   3   0   23.17    1.53
  -4   4   0  175.34   11.63
  -4   4   0  187.98   11.47
   4   4   0  162.29   11.48
   4   5   0    1.19    0.31
  -4   5   0    2.18    0.46
  -4   5   0    1.61    0.36
  -4   6   0    6.53    0.67
  -4   6   0    6.33    0.61
  -4   7   0    1.60    0.36
  -4   7   0    1.50    0.32
  -4   8   0   14.81    1.22
  -4   8   0   16.44    1.26
  -4   0   1  730.75   48.13
  -4   0  -1  742.76   48.17
  -4   1   1  116.01    8.08
   4   1  -1  127.39    8.07
  -4  -1   1  127.12    8.08
   4   2  -1  293.28   20.62
  -4   2   1  313.11   20.62
  -4   2  -1  340.88   20.62
   4   3  -1    3.31    0.30
  -4   3   1    3.30    0.34
  -4   3  -1    3.66    0.35
  -4   4   1  187.53   11.29
   4   4  -1  179.78   11.28
  -4   4   1  181.60   11.44
  -4   4  -1  171.05   11.28
   4   4   1  149.52   11.30
  -4   4  -1  164.55   11.44
  -4   5   1   22.80    1.56
  -4   5   1   23.09    1.59
  -4   5  -1   23.51    1.60
  -4   5  -1   22.92    1.56
   4   5   1   20.24    1.62
  -4   6   1   31.82    2.17
  -4   6   1   33.52    2.20
  -4   6  -1   29.79    2.16
  -4   7   1    0.56    0.33
  -4   7   1    0.08    0.26
  -4   7  -1    0.15    0.33
  -4   7  -1    0.26    0.27
  -4   8   1    4.16    0.68
  -4   8   1    3.42    0.62
  -4   8  -1    4.94    0.73
  -4   0   2   31.66    2.09
   4  -1   2  211.58   13.15
  -4   1   2  209.40   12.96
   4  -1   2  207.30   12.96
  -4   1  -2  186.38   12.96
   4   1   2  177.39   12.97
   4  -2   2  443.32   28.15
  -4   2   2  427.83   27.76
   4  -2   2  429.78   27.76
   4   2   2  392.07   27.76
  -4   2  -2  429.91   27.75
   4  -3   2   42.82    2.73
  -4   3   2   42.57    2.71
  -4   3   2   40.79    2.74
  -4   3  -2   36.38    2.70
   4  -4   2   53.57    3.54
  -4   4   2   52.74    3.54
  -4   4  -2   51.44    3.50
   4   4   2   53.25    3.55
   4  -5   2   21.65    1.58
  -4   5   2   22.80    1.60
  -4   5   2   22.35    1.58
   4   5   2   22.99    1.65
  -4   5  -2   23.74    1.57
  -4   5  -2   22.90    1.62
  -4   6   2   23.63    1.67
   4  -6   2   22.98    1.67
  -4   6   2   25.09    1.70
  -4   6  -2   23.40    1.66
   4   6   2   23.93    1.74
  -4   6  -2   23.81    1.70
  -4   7   2    0.88    0.31
  -4   7   2    1.64    0.35
   4   7   2    0.76    0.40
  -4   7  -2    1.01    0.36
  -4   8   2   10.85    0.94
  -4   8   2    9.08    0.92
  -4   8  -2    9.53    0.99
   4   0   3  356.06   23.04
  -4   0   3  348.96   23.01
   4  -1   3  101.95    6.52
   4  -1   3   98.47    6.45
  -4   1   3   99.09    6.44
  -4   1  -3   94.06    6.45
  -4   2   3   75.42    5.30
  -4   2   3   78.44    5.23
  -4   2   3   75.38    5.30
   4  -2   3   79.14    5.30
   4  -2   3   75.90    5.23
   4   2   3   82.10    5.26
  -4   2  -3   91.50    5.24
  -4   3   3   60.62    4.19
  -4   3   3   60.60    4.14
   4  -3   3   59.61    4.18
   4   3   3   70.30    4.18
  -4   3  -3   62.53    4.14
  -4   4   3   47.02    3.09
   4  -4   3   46.55    3.08
   4   4   3   46.50    3.11
  -4   4  -3   43.21    3.05
   4  -5   3   18.65    1.21
  -4   5   3   19.76    1.22
  -4   5  -3   14.27    1.29
   4   5   3   14.28    1.28
  -4   6   3   31.08    2.26
   4  -6   3   29.72    2.26
  -4   6   3   32.47    2.27
  -4   6  -3   33.57    2.25
   4   6   3   35.38    2.33
  -4   6  -3   35.21    2.31
  -4   7   3    9.30    0.84
  -4   7   3    7.74    0.80
   4  -7   3    8.30    0.76
  -4   7  -3    8.26    0.85
   4   7   3    8.41    0.90
  -4   0   4  215.65   14.12
   4   0   4  217.11   14.15
  -4   1   4  179.71   11.65
  -4   1   4  171.28   11.82
   4  -1   4  187.85   11.67
  -4   1  -4  174.73   11.67
  -4   2   4   77.64    5.22
  -4   2   4   77.82    5.29
   4  -2   4   80.94    5.23
   4  -2   4   81.57    5.29
  -4   3   4   22.75    1.49
   4  -3   4   21.58    1.48
  -4   3   4   22.42    1.48
   4   3   4   18.70    1.50
  -4   4   4   57.93    3.80
  -4   4   4   59.26    3.84
   4  -4   4   57.83    3.83
   4   4   4   57.28    3.84
  -4   4  -4   53.17    3.78
  -4   5   4   21.76    1.47
   4  -5   4   19.52    1.45
  -4   5   4   20.56    1.46
  -4   5  -4   18.57    1.43
   4   5   4   21.95    1.52
  -4   6   4   19.42    1.45
   4  -6   4   18.22    1.41
  -4   6   4   17.71    1.43
  -4   6  -4   20.85    1.51
   4   6   4   21.38    1.50
   4  -7   4    7.71    0.75
  -4   7   4    6.96    0.79
  -4   7   4    9.34    0.85
   4   7   4    7.26    0.86
  -4   7  -4    6.72    0.87
  -4   0   5   67.43    4.38
  -4   0   5   67.97    4.31
   4   0   5   61.41    4.34
  -4   1   5  206.56   12.69
  -4   1   5  186.67   12.87
   4  -1   5  195.73   12.71
   4   1   5  181.59   12.71
  -4   1  -5  200.02   12.71
   4  -2   5   32.62    2.19
   4  -2   5   34.22    2.21
  -4   2   5   33.43    2.19
  -4   2   5   31.75    2.21
  -4   2  -5   32.64    2.20
   4   2   5   30.25    2.22
  -4   3   5    8.44    0.68
   4  -3   5    7.69    0.64
   4  -3   5    6.59    0.63
   4  -4   5   48.15    3.28
  -4   4   5   47.34    3.25
  -4   4   5   46.77    3.28
   4   4   5   52.88    3.29
  -4   4  -5   47.31    3.23
  -4   5   5   78.94    5.30
  -4   5   5   74.63    5.24
   4  -5   5   77.27    5.30
   4   5   5   85.03    5.28
  -4   6   5    6.87    0.75
   4  -6   5    7.89    0.73
  -4   6   5    7.64    0.79
   4   6   5    6.74    0.78
  -4   6  -5    6.16    0.94
   4  -7   5    6.44    0.70
  -4   7   5    5.57    0.73
  -4   7   5    6.73    0.81
  -4   7  -5    4.17    0.88
   4   7   5    4.34    0.76
   4   0   6    0.44    0.25
   4   0   6    0.21    0.17
  -4   1   6   56.22    3.99
  -4   1   6   59.04    3.93
   4  -1   6   50.33    3.95
  -4   1  -6   63.47    3.97
   4   1   6   68.29    3.97
  -4   2   6   45.00    2.95
  -4   2   6   41.35    2.99
   4  -2   6   42.71    2.96
   4  -2   6   46.89    2.99
   4   2   6   45.25    2.99
  -4   2  -6   43.69    2.97
   4  -3   6  154.07    9.78
  -4   3   6  152.72    9.65
   4  -3   6  136.56    9.64
  -4   3   6  145.29    9.77
   4   3   6  154.50    9.67
  -4   3  -6  138.56    9.64
  -4   4   6    9.65    0.92
   4  -4   6   11.56    0.91
  -4   4   6   10.83    0.91
   4   4   6   11.62    0.94
   4  -5   6   16.40    1.24
  -4   5   6   15.52    1.26
  -4   5   6   14.78    1.23
   4   5   6   16.64    1.25
   4  -6   6    4.01    0.65
  -4   6   6    3.70    0.75
  -4   6   6    3.05    0.63
   4   6   6    3.51    0.66
   4   0   7   62.19    4.44
   4   0   7   70.48    4.42
   4  -1   7   67.24    4.25
   4  -1   7   63.93    4.21
  -4   1   7   66.00    4.26
  -4   1  -7   56.56    4.20
   4   1   7   61.98    4.21
   4  -2   7    6.41    0.71
  -4   2   7    7.81    0.75
  -4   2   7    8.44    0.70
   4  -2   7    7.44    0.71
   4   2   7    8.86    0.74
  -4   2  -7    7.50    0.73
  -4   3   7  116.81    7.70
  -4   3   7  111.82    7.81
   4  -3   7  117.21    7.81
   4   3   7  121.60    7.72
   4  -4   7    2.40    0.40
  -4   4   7    2.22    0.41
  -4   4   7    2.54    0.43
   4   4   7    2.28    0.41
   4  -5   7   26.94    1.95
  -4   5   7   24.98    1.91
  -4   5   7   27.82    1.96
   4  -6   7   14.44    1.22
  -4   6   7   12.64    1.18
  -4   6   7   15.22    1.27
   4   6   7   13.13    1.18
   4   0   8    1.47    0.30
   4   0   8    2.50    0.50
   4  -1   8   53.13    3.19
   4  -1   8   44.69    3.20
  -4   1   8   46.72    3.24
  -4   1  -8   46.87    3.19
   4   1   8   41.44    3.17
   4   1   8   49.85    3.18
  -4   2   8    0.82    0.37
   4  -2   8    0.44    0.31
   4   2   8    1.41    0.32
   4  -3   8   25.30    2.07
  -4   3   8   29.03    2.10
  -4   3   8   30.04    2.05
   4   3   8   31.04    2.05
  -4   4   8    4.04    0.71
   4  -4   8    3.22    0.50
   4   4   8    3.84    0.64
  -4   5   8   35.06    2.44
  -4   5   8   38.25    2.50
   4  -5   8   31.42    2.45
   4   5   8   31.92    2.41
   4   0   9    1.67    0.33
   4   0   9    1.66    0.34
   4   1   9   29.80    2.11
   4   1   9   31.19    2.12
  -4   2   9    0.96    0.40
   4  -2   9    0.41    0.34
   4   2   9    1.60    0.34
  -4   3   9   33.00    2.28
   4  -3   9   29.91    2.24
   4   3   9   30.24    2.19
  -4   4   9    7.66    0.94
  -4   4   9    8.72    1.03
   4  -4   9    5.37    0.89
   4   4   9    7.01    0.82
   4  -1  10   22.68    1.84
   4   1  10   27.55    1.81
   4   1  10   26.60    1.83
   4  -2  10    0.62    0.37
  -4   2  10    1.43    0.43
   4   2  10    1.19    0.35
   4   3  10   18.65    1.43
  -5   0   0   -0.02    0.11
  -5   1   0  137.09    9.23
  -5  -1   0  144.73    9.23
   5   3   0  687.74   42.49
  -5   3   0  607.19   42.95
  -5   3   0  653.47   42.41
   5   4   0    3.65    0.41
  -5   4   0    3.36    0.46
  -5   4   0    2.99    0.40
  -5   5   0   64.67    4.57
   5   5   0   71.39    4.53
  -5   5   0   68.50    4.52
  -5   6   0   10.02    0.82
  -5   6   0   10.18    0.88
  -5   7   0    2.91    0.52
  -5   7   0    2.69    0.43
  -5   8   0    0.71    0.33
  -5   8   0    1.07    0.39
  -5   0   1   27.55    1.86
  -5   0  -1   28.05    1.87
  -5   1   1  299.01   19.87
   5   1  -1  324.85   19.88
  -5  -1   1  288.05   19.85
   5   2  -1   91.61    6.51
  -5   2   1   94.34    6.53
  -5   2  -1  103.02    6.53
   5   2   1  108.96    6.53
  -5   3   1  244.34   16.35
   5   3  -1  213.68   16.10
   5   3   1  270.08   16.14
  -5   3  -1  259.15   16.13
   5   4  -1    6.67    0.52
  -5   4   1    7.43    0.63
  -5   4   1    7.21    0.57
  -5   4  -1    6.91    0.68
  -5   4  -1    6.37    0.57
   5   4   1    5.59    0.63
  -5   5   1   69.54    4.80
  -5   5   1   70.85    4.73
   5   5   1   65.49    4.76
  -5   5  -1   76.74    4.74
  -5   5  -1   74.95    4.80
  -5   6   1   10.09    0.86
  -5   6   1    9.84    0.81
  -5   6  -1    9.66    0.80
  -5   6  -1    9.19    0.85
  -5   7   1   11.19    0.99
  -5   7   1   11.75    1.04
  -5   7  -1   13.12    0.99
  -5   7  -1   13.12    1.07
  -5   8   1    1.13    0.36
  -5   8   1    1.77    0.41
  -5   8  -1    1.32    0.41
  -5   0  -2    2.96    0.27
  -5   1   2  170.49   11.72
   5  -1   2  171.14   11.72
   5   1   2  190.97   11.73
  -5   1  -2  185.04   11.73
  -5  -1   2  178.61   11.71
  -5   2   2   37.99    2.72
   5  -2   2   37.71    2.72
   5   2   2   46.28    2.74
  -5   2  -2   42.08    2.72
  -5   3   2  186.43   12.23
  -5   3   2  196.32   12.07
   5   3   2  170.46   12.08
  -5   3  -2  184.46   12.07
  -5   4   2   61.04    4.01
   5  -4   2   62.34    3.99
  -5   4  -2   60.58    3.95
   5   4   2   54.58    3.99
  -5   5   2   13.94    1.19
  -5   5  -2   18.80    1.20
   5   5   2   17.08    1.27
  -5   6   2    3.35    0.58
  -5   6   2    2.96    0.50
  -5   6  -2    3.72    0.48
  -5   6  -2    3.76    0.60
   5   6   2    3.63    0.62
  -5   7   2   38.10    2.63
  -5   7   2   34.91    2.60
  -5   7  -2   40.51    2.65
  -5   7  -2   38.30    2.59
  -5   8   2   -0.12    0.34
   5   0   3  427.78   27.92
  -5   0   3  427.00   27.92
  -5   1   3  203.34   13.57
   5  -1   3  210.73   13.58
  -5   1  -3  209.13   13.58
  -5   2   3   24.74    1.55
  -5   2  -3   20.17    1.53
   5  -3   3   59.82    3.74
  -5   3   3   55.45    3.75
  -5   3   3   61.04    3.71
   5   3   3   50.96    3.74
  -5   3  -3   52.55    3.71
  -5   4   3   48.07    3.46
  -5   4   3   52.42    3.42
   5  -4   3   48.84    3.44
   5   4   3   56.09    3.48
  -5   4  -3   51.59    3.42
   5  -5   3   25.32    1.86
  -5   5   3   26.30    1.88
  -5   5   3   26.74    1.87
  -5   5  -3   28.62    1.87
   5   5   3   28.65    1.93
   5  -6   3   21.95    1.70
  -5   6   3   22.17    1.70
  -5   6   3   24.39    1.72
   5   6   3   25.75    1.78
  -5   6  -3   25.70    1.77
  -5   6  -3   25.04    1.69
  -5   7   3   10.68    0.92
  -5   7   3    9.22    0.88
   5   7   3    9.46    0.96
  -5   7  -3    9.92    0.94
   5   0   4  298.35   19.88
  -5   0   4  310.30   19.85
   5  -1   4  182.62   11.46
  -5   1   4  179.22   11.44
   5   1   4  150.49   11.46
  -5   1  -4  187.48   11.46
   5  -2   4  103.67    6.83
  -5   2   4  106.88    6.82
  -5   2   4  101.23    6.91
  -5   3   4   22.45    1.70
   5  -3   4   22.71    1.69
  -5   3   4   23.01    1.69
   5   3   4   28.72    1.76
  -5   3  -4   26.74    1.70
   5  -4   4   13.38    0.97
  -5   4   4   13.15    1.00
  -5   4   4   13.21    0.99
   5  -5   4   27.93    1.86
  -5   5   4   28.39    1.87
  -5   5   4   28.89    1.88
   5   5   4   25.78    1.91
  -5   5  -4   22.86    1.84
  -5   6   4   33.14    2.36
   5  -6   4   33.01    2.35
  -5   6   4   35.51    2.38
   5   6   4   33.60    2.40
  -5   6  -4   35.40    2.44
  -5   7   4    4.45    0.70
   5  -7   4    5.25    0.64
  -5   7   4    5.42    0.77
   5   7   4    5.63    0.75
  -5   7  -4    5.40    0.81
  -5   0   5   57.52    3.53
   5   0   5   49.62    3.57
   5  -1   5  185.08   12.47
  -5   1   5  190.61   12.44
   5  -1   5  204.32   12.61
   5   1   5  167.26   12.47
  -5   1  -5  204.57   12.48
   5  -2   5  144.76    9.71
  -5   2   5  146.31    9.84
  -5   2   5  149.74    9.70
  -5   2  -5  151.56    9.72
   5  -3   5    2.58    0.43
  -5   3   5    3.07    0.44
   5  -3   5    2.98    0.40
  -5   3   5    2.93    0.47
  -5   4   5   32.40    2.18
   5  -4   5   30.47    2.19
  -5   4   5   32.63    2.21
   5  -5   5   46.24    3.10
  -5   5   5   45.87    3.12
  -5   5   5   44.43    3.09
   5   5   5   45.68    3.13
   5  -6   5    7.29    0.74
  -5   6   5    6.93    0.79
  -5   6   5    7.47    0.83
   5   6   5    9.47    0.84
   5  -7   5    1.33    0.37
  -5   7   5    1.68    0.44
   5   7   5    1.74    0.44
  -5   7  -5    1.77    0.51
   5   0   6  111.62    7.36
   5  -1   6   18.20    1.20
   5  -1   6   15.06    1.24
  -5   1   6   16.03    1.19
   5   1   6   18.19    1.27
  -5   1  -6   17.48    1.26
   5  -2   6  110.60    7.28
   5  -2   6  102.91    7.20
  -5   2   6  112.71    7.19
   5   2   6  112.86    7.22
  -5   2  -6  107.69    7.21
   5  -3   6   31.04    2.21
   5  -3   6   33.34    2.23
  -5   3   6   30.03    2.25
  -5   3   6   32.22    2.23
  -5   3  -6   31.93    2.22
   5   3   6   36.23    2.27
  -5   4   6   49.82    3.49
  -5   4   6   52.82    3.46
   5  -4   6   52.98    3.49
   5   4   6   49.82    3.48
  -5   5   6    8.95    0.91
   5  -5   6   10.32    0.87
  -5   5   6    8.37    0.88
   5   5   6   10.89    0.92
  -5   6   6    7.36    0.83
   5  -6   6    8.30    0.81
  -5   6   6    9.08    0.90
   5   6   6    6.53    0.85
   5   0   7  133.31    8.78
   5  -1   7    0.29    0.27
   5  -1   7   -0.05    0.22
   5   1   7    0.30    0.27
  -5   1  -7    0.11    0.28
   5  -2   7   59.52    3.79
  -5   2   7   60.04    3.75
   5  -2   7   49.56    3.75
   5   2   7   58.32    3.77
  -5   2  -7   52.97    3.77
  -5   3   7    2.35    0.41
  -5   3   7    2.02    0.39
   5  -3   7    2.70    0.52
   5   3   7    3.09    0.56
  -5   4   7   52.98    3.82
  -5   4   7   54.97    3.77
   5  -4   7   54.74    3.81
   5   4   7   60.98    3.79
  -5   5   7   10.02    1.02
  -5   5   7    8.92    0.93
   5  -5   7    9.97    0.95
   5   5   7    9.84    0.93
   5  -6   7   17.10    1.45
  -5   6   7   19.36    1.53
   5   0   8    2.07    0.30
   5  -1   8    0.41    0.28
   5  -1   8    0.59    0.31
   5   1   8    0.69    0.29
  -5   1  -8    0.41    0.32
   5  -2   8   75.38    5.46
   5   2   8   87.16    5.41
  -5   3   8    2.94    0.64
  -5   3   8    3.88    0.76
   5  -3   8    2.53    0.43
   5   3   8    3.12    0.59
  -5   4   8   36.24    2.49
   5  -4   8   31.97    2.50
  -5   4   8   36.79    2.55
   5   4   8   36.23    2.47
  -5   5   8    1.87    0.48
  -5   5   8    3.01    0.56
   5  -5   8    1.76    0.47
   5   5   8    3.22    0.65
   5   0   9    6.18    0.70
   5  -1   9   12.09    1.00
   5  -2   9   26.82    2.25
   5   2   9   37.38    2.26
  -5   3   9    6.90    0.95
   5   3   9    5.57    0.74
  -5   4   9   19.41    1.39
   5  -4   9   13.97    1.35
   5   4   9   15.30    1.30
   5  -1  10    2.74    0.44
   5   1  10    3.72    0.62
   5  -2  10   18.20    1.34
   5   2  10   15.50    1.31
  -6   0   0   40.52    2.75
   6   0   0   42.48    2.74
   6   1   0   72.00    5.15
  -6  -1   0   84.66    5.16
  -6   1   0   78.76    5.17
  -6   2   0  546.51   35.39
   6   2   0  535.46   35.35
  -6   3   0    0.21    0.17
   6   3   0    0.56    0.14
  -6   4   0  111.65    7.44
  -6   4   0  106.75    7.54
   6   4   0  121.09    7.43
  -6   5   0    1.71    0.28
  -6   6   0   28.20    1.93
  -6   6   0   27.37    1.97
  -6   7   0   10.38    0.91
  -6   7   0   11.24    1.00
  -6   0  -1   28.12    1.94
  -6   0   1   28.63    1.94
   6   0   1   29.78    1.94
  -6  -1  -1   62.10    4.36
  -6   1   1   60.44    4.36
   6  -1   1   63.24    4.37
  -6   1  -1   69.34    4.38
  -6  -1   1   73.28    4.36
   6   1   1   69.72    4.37
  -6   2   1  312.45   19.79
   6   2   1  312.83   19.83
  -6   2  -1  271.96   19.79
  -6  -2   1  315.08   19.79
  -6   3  -1   26.59    1.84
   6   3   1   27.50    1.83
  -6   4  -1  128.12    9.67
   6   4   1  160.52    9.54
  -6   4  -1  147.13    9.53
  -6   5   1   14.90    1.11
  -6   5   1   15.40    1.07
   6   5   1   13.61    1.09
  -6   5  -1   14.13    1.06
  -6   5  -1   14.07    1.11
  -6   6   1   29.50    2.24
  -6   6   1   29.10    2.29
  -6   6  -1   36.50    2.30
  -6   6  -1   36.17    2.25
  -6   7   1    0.44    0.37
  -6   7   1    0.17    0.29
  -6   7  -1    0.32    0.37
  -6   7  -1    0.29    0.29
  -6   0  -2  487.33   32.70
  -6   0   2  489.72   32.68
   6   0   2  523.47   32.72
  -6   1   2   38.43    2.43
   6  -1   2   35.78    2.43
  -6  -1   2   34.57    2.41
   6   1   2   37.05    2.44
  -6   2   2  105.16    7.24
   6  -2   2  106.65    7.24
   6   2  -2  119.73    7.22
  -6  -2   2  113.40    7.22
  -6   2  -2  105.69    7.25
   6   2   2  111.93    7.25
  -6   3  -2    1.75    0.35
  -6   4   2   98.35    7.00
  -6   4  -2  110.27    6.92
   6   4   2  106.60    6.94
  -6   5   2   48.42    3.38
  -6   5   2   49.80    3.34
  -6   5  -2   51.75    3.34
  -6   5  -2   54.70    3.41
   6   5   2   44.74    3.37
  -6   6   2   17.51    1.39
  -6   6   2   18.04    1.43
  -6   6  -2   20.91    1.39
  -6   6  -2   20.18    1.45
  -6   7   2    0.95    0.38
  -6   7   2    0.78    0.32
  -6   7  -2    0.84    0.31
  -6   7  -2    0.74    0.38
   6   0   3  384.61   26.55
  -6   0   3  428.45   26.53
   6  -1   3  126.38    8.16
  -6   1   3  130.28    8.14
   6   1   3  123.69    8.16
  -6  -1   3  120.15    8.13
  -6   1  -3  121.46    8.16
   6  -2   3  104.34    7.02
  -6   2   3  106.42    7.01
  -6   2  -3  108.91    7.03
   6   2   3  108.03    7.04
  -6   3   3    5.71    0.57
  -6   3  -3    7.52    0.59
   6   3   3    6.81    0.66
  -6   4   3   23.47    1.80
  -6   4   3   27.05    1.79
   6   4   3   25.06    1.84
  -6   4  -3   28.06    1.79
  -6   5   3   41.52    2.85
  -6   5   3   39.33    2.88
   6   5   3   43.59    2.91
  -6   5  -3   44.80    2.85
  -6   6   3   16.61    1.25
  -6   6   3   18.25    1.28
  -6   6   3   18.25    1.28
   6   6   3   14.54    1.32
  -6   6  -3   15.60    1.23
  -6   6  -3   16.65    1.33
  -6   7   3    4.98    0.73
  -6   7   3    4.11    0.65
  -6   7  -3    5.92    0.77
   6   7   3    5.62    0.76
  -6   0   4   97.56    6.44
   6   0   4   96.06    6.47
  -6   0  -4  101.46    6.48
   6  -1   4   99.67    6.68
  -6   1   4   99.36    6.66
  -6   1  -4  105.73    6.69
  -6   2   4  161.28   10.54
   6  -2   4  166.90   10.67
   6  -2   4  160.66   10.55
  -6   2  -4  154.92   10.55
   6  -3   4   63.49    4.03
  -6   3   4   67.45    4.03
   6  -3   4   52.31    4.05
  -6   3  -4   60.15    4.03
   6   3   4   60.20    4.07
   6  -4   4    4.63    0.46
  -6   4   4    4.49    0.52
  -6   4   4    3.69    0.53
   6   4   4    5.44    0.62
  -6   4  -4    4.87    0.52
  -6   5   4   12.64    0.98
  -6   5   4   13.19    1.01
   6  -5   4   12.90    0.95
   6   5   4   11.72    1.05
  -6   5  -4   11.50    0.97
  -6   6   4   14.41    1.10
  -6   6   4   13.01    1.07
   6  -6   4   14.60    1.04
   6   6   4   11.77    1.13
  -6   6  -4   12.34    1.21
  -6   7   4    5.60    0.76
  -6   7   4    6.20    0.83
   6   7   4    7.60    0.85
  -6   7  -4    8.70    0.93
   6   0   5  129.26    8.50
  -6   1   5  184.90   11.92
   6  -1   5  186.29   11.95
   6   1   5  162.89   11.95
  -6   1  -5  194.99   11.96
   6  -2   5   10.29    0.83
  -6   2   5    9.25    0.80
   6  -2   5   10.88    0.77
  -6   2  -5   11.15    0.84
   6   2   5   10.03    0.85
  -6   3   5   37.36    2.40
   6  -3   5   37.36    2.40
   6  -3   5   38.02    2.41
  -6   3  -5   31.50    2.40
   6   3   5   32.82    2.44
   6  -4   5   11.12    0.87
  -6   4   5   10.90    0.91
  -6   4   5   11.30    0.94
  -6   4  -5   11.72    0.91
   6   4   5   11.97    0.98
   6  -5   5   23.05    1.65
  -6   5   5   24.31    1.69
  -6   5   5   23.84    1.67
   6   5   5   21.96    1.72
  -6   6   5   12.87    1.12
   6  -6   5   13.90    1.08
  -6   6   5   14.37    1.16
   6   6   5   13.41    1.17
   6   0   6   65.23    4.35
   6  -1   6  128.29    8.42
  -6   1   6  146.19    8.40
  -6   1  -6  121.10    8.42
   6   1   6  115.82    8.42
   6  -2   6   17.04    1.27
  -6   2   6   16.98    1.30
   6  -2   6   15.48    1.31
   6   2   6   20.20    1.35
  -6   2  -6   20.77    1.34
   6  -3   6   15.97    1.31
  -6   3   6   17.85    1.33
   6  -3   6   17.53    1.29
   6   3   6   21.07    1.37
  -6   3  -6   18.03    1.33
  -6   4   6   16.54    1.26
   6  -4   6   17.75    1.22
  -6   4   6   17.32    1.28
  -6   4  -6   14.07    1.25
   6   4   6   16.39    1.29
   6  -5   6   23.66    1.73
  -6   5   6   24.11    1.77
  -6   5   6   24.73    1.76
   6   5   6   24.19    1.78
   6  -6   6    8.25    0.84
  -6   6   6    8.19    0.93
  -6   6   6    7.26    0.86
   6   6   6    9.67    0.90
   6   0   7    0.85    0.31
  -6   1  -7   47.23    3.21
   6  -2   7    3.21    0.56
   6  -2   7    3.61    0.46
  -6   2   7    3.10    0.54
  -6   2  -7    2.85    0.59
   6   2   7    3.37    0.58
   6  -3   7   67.31    5.20
  -6   3   7   86.34    5.22
   6  -3   7   79.73    5.26
   6   3   7   84.00    5.24
  -6   3  -7   74.21    5.23
  -6   4   7    9.08    0.98
  -6   4   7    9.73    0.93
   6  -4   7   10.06    0.89
   6   4   7   10.44    0.93
   6  -5   7   11.94    1.02
  -6   5   7   12.44    1.06
  -6   5   7   12.61    1.11
   6   5   7    9.72    1.04
   6   0   8    1.67    0.36
   6  -1   8   26.71    1.78
  -6   1  -8   22.31    1.77
   6   1   8   24.27    1.76
   6  -2   8    5.87    0.73
   6  -2   8    5.46    0.64
   6   2   8    7.58    0.74
  -6   2  -8    5.95    0.78
  -6   3   8   85.76    5.69
   6  -3   8   79.08    5.71
   6   3   8   90.08    5.67
  -6   4   8    2.01    0.50
   6  -4   8    1.26    0.39
  -6   4   8    1.28    0.43
   6   4   8    1.59    0.39
  -6   5   8    2.85    0.51
   6   0   9    0.22    0.32
  -6   0  -9    0.39    0.34
   6  -1   9   28.76    2.07
   6   1   9   28.61    2.04
   6  -2   9    1.64    0.36
   6   2   9    2.75    0.58
   6  -3   9   22.40    1.77
   6   3   9   25.67    1.77
   6   1  10   16.93    1.33
   6   2  10    1.48    0.39
   7   0   0    0.12    0.13
  -7   0   0    0.11    0.14
  -7  -1   0  230.85   15.08
  -7   1   0  220.98   15.08
   7   1   0  240.11   15.08
   7   2   0    2.67    0.28
  -7  -2   0    2.79    0.28
  -7   2   0    1.92    0.34
   7   4   0    0.33    0.16
  -7   4   0    0.03    0.22
  -7   5   0   21.65    1.53
  -7   6   0    2.53    0.48
  -7   7   0   26.21    1.91
  -7   7   0   27.97    1.97
   7   0   1   29.15    1.92
  -7   0  -1   28.50    1.93
  -7   0   1   27.83    1.92
  -7  -1  -1  385.62   24.97
   7  -1   1  411.60   24.93
  -7   1   1  393.08   24.86
   7   1  -1  421.31   24.91
  -7  -1   1  361.71   24.86
  -7   1  -1  345.82   24.86
   7   1   1  347.21   24.92
   7   2  -1   26.27    1.83
  -7   2   1   29.38    1.86
  -7  -2   1   27.31    1.83
   7   2   1   26.97    1.85
   7   3  -1  182.43   12.75
  -7   3  -1  180.85   12.78
   7   3   1  222.70   12.78
  -7   4   1    9.42    0.83
  -7   4  -1   10.55    0.84
   7   4   1   12.13    0.83
  -7   5   1   22.35    1.59
  -7   5  -1   21.41    1.59
   7   5   1   24.05    1.60
  -7   6   1    0.33    0.27
  -7   6  -1    0.31    0.26
  -7   7   1   18.29    1.35
  -7   7   1   17.53    1.29
  -7   7  -1   15.52    1.27
  -7   7  -1   16.41    1.36
  -7   0   2  224.12   14.95
  -7   0  -2  220.68   14.97
   7   0   2  242.23   14.97
  -7   1   2  229.76   15.35
  -7  -1  -2  235.82   15.36
  -7  -1   2  233.37   15.33
   7   1   2  240.38   15.36
   7  -2   2   44.27    2.89
  -7   2   2   45.89    2.89
   7   2  -2   46.55    2.86
  -7  -2   2   43.61    2.86
  -7   2  -2   38.50    2.89
   7   2   2   41.47    2.89
  -7   3   2  172.13   11.30
   7   3   2  180.49   11.31
  -7   3  -2  164.82   11.30
   7   4   2   11.95    0.91
  -7   4  -2   10.71    0.88
  -7   5   2   38.58    2.86
  -7   5  -2   44.88    2.87
   7   5   2   43.84    2.90
  -7   6   2    9.57    0.82
  -7   6   2    9.68    0.87
  -7   6  -2    9.52    0.80
   7   6   2    7.51    0.84
  -7   7   2    3.88    0.71
  -7   7   2    4.28    0.62
  -7   7  -2    3.70    0.71
  -7   7  -2    4.09    0.59
  -7   0   3   74.20    4.87
  -7   1   3  168.98   11.57
   7  -1   3  150.22   11.58
   7   1   3  201.09   11.61
  -7  -1   3  182.26   11.56
  -7   1  -3  182.71   11.60
  -7   2   3  117.13    8.25
   7  -2   3  119.33    8.26
   7   2   3  135.09    8.28
  -7   2  -3  132.27    8.28
  -7   3   3  132.73    8.32
   7   3   3  123.79    8.35
  -7   3  -3  123.78    8.33
  -7   4  -3   28.56    1.86
   7   4   3   25.02    1.89
  -7   5   3   27.89    1.96
  -7   5  -3   30.64    1.96
   7   5   3   26.01    2.01
  -7   6   3    9.02    0.85
  -7   6   3    9.45    0.89
  -7   6  -3   10.87    0.84
   7   6   3    8.99    0.91
  -7   7   3    4.77    0.66
  -7   7   3    4.49    0.74
  -7   7  -3    4.89    0.77
  -7   0   4  112.86    7.39
  -7   1   4   98.71    6.52
   7  -1   4  104.74    6.55
  -7   1  -4   94.40    6.54
   7  -2   4  111.50    7.13
  -7   2   4  113.60    7.12
  -7   2  -4  107.93    7.14
   7   2   4  100.32    7.15
   7  -3   4   26.78    1.83
  -7   3   4   25.41    1.82
   7   3   4   27.57    1.88
  -7   4   4   38.48    2.63
  -7   4  -4   39.75    2.64
   7   4   4   38.44    2.69
  -7   5   4   47.04    3.11
  -7   5  -4   44.28    3.10
   7   5   4   46.57    3.16
  -7   6   4   11.73    0.93
  -7   6   4   12.40    0.95
   7   6   4    8.68    0.98
  -7   6  -4    9.28    0.90
  -7   7   4    3.68    0.70
   7   7   4    2.57    0.51
  -7   7  -4    2.98    0.58
  -7   0  -5  177.07   11.64
   7   0   5  177.52   11.64
  -7   1   5   45.03    2.68
  -7   1  -5   34.96    2.71
   7  -2   5   26.76    1.87
  -7   2   5   26.63    1.84
   7   2   5   25.18    1.90
  -7   2  -5   29.20    1.88
   7  -3   5   30.90    2.22
   7  -3   5   31.85    2.24
  -7   3   5   30.70    2.23
   7   3   5   34.65    2.29
  -7   3  -5   36.01    2.26
   7  -4   5   57.97    3.89
  -7   4   5   57.33    3.87
  -7   4  -5   56.67    3.88
   7   4   5   59.97    3.93
   7  -5   5    9.65    0.76
  -7   5   5    8.40    0.81
  -7   5  -5    8.12    0.81
   7   5   5    8.72    0.89
  -7   6   5   13.40    1.12
  -7   6   5   12.26    1.09
   7   6   5   13.28    1.15
  -7   0  -6   29.94    2.06
   7   0   6   28.73    2.05
   7  -1   6   17.98    1.41
  -7   1  -6   20.55    1.42
   7   1   6   18.67    1.42
  -7   2   6   60.27    4.10
   7  -2   6   55.56    4.12
  -7   2  -6   65.77    4.14
   7   2   6   65.08    4.15
   7  -3   6   10.28    0.77
   7  -3   6    9.95    0.85
  -7   3   6    9.99    0.84
   7   3   6    8.09    0.87
  -7   4   6   49.62    3.07
   7  -4   6   46.97    3.06
   7   4   6   43.46    3.10
  -7   4  -6   40.15    3.06
   7  -5   6    6.12    0.66
  -7   5   6    5.28    0.74
   7   5   6    7.23    0.78
   7  -6   6    5.88    0.71
  -7   6   6    5.36    0.77
  -7   6   6    5.85    0.83
   7   6   6    6.64    0.81
   7   0   7    6.69    0.73
  -7   0  -7    6.96    0.75
   7  -1   7   20.54    1.67
   7   1   7   25.72    1.69
  -7   1  -7   22.17    1.67
   7  -2   7   52.82    4.05
   7   2   7   66.46    4.08
  -7   2  -7   61.95    4.08
   7  -3   7    9.47    0.79
  -7   3   7   10.31    0.89
   7  -3   7    9.34    0.88
   7   3   7    9.60    0.89
  -7   3  -7    8.56    0.90
   7  -4   7   25.64    1.82
  -7   4   7   28.40    1.87
   7   4   7   23.16    1.87
   7  -5   7    3.35    0.62
  -7   5   7    2.96    0.51
   7   5   7    4.28    0.68
  -7   0  -8   55.43    3.75
   7   0   8   54.94    3.74
   7  -1   8    4.49    0.71
   7   1   8    5.21    0.69
  -7   1  -8    4.55    0.71
   7  -2   8   40.93    2.80
  -7   2  -8   37.87    2.80
   7   2   8   42.39    2.80
   7  -3   8    0.93    0.31
   7   3   8    1.44    0.39
  -7   4   8    9.82    0.96
   7  -4   8    8.37    0.85
  -7   0  -9   25.68    1.87
   7   0   9   25.36    1.85
   7  -1   9    3.25    0.68
  -7   1  -9    3.33    0.70
   7   1   9    3.93    0.66
   7   2   9   47.63    3.27
   7  -3   9    2.22    0.40
   7   3   9    3.77    0.67
  -7   0 -10   19.22    1.52
   7   0  10   19.91    1.51
   7   1  10   14.04    1.17
  -8   0   0  602.23   39.56
   8   0   0  607.26   39.57
   8   1   0    7.38    0.56
  -8  -1   0    7.06    0.57
  -8   1   0    7.26    0.59
   8   2   0  190.83   12.35
  -8   2   0  188.08   12.37
  -8  -2   0  188.12   12.36
   8   3   0   31.82    2.12
  -8   4   0    5.37    0.56
  -8   5   0    1.59    0.31
  -8   6   0   61.29    4.10
  -8   7   0    0.92    0.34
  -8   0  -1  189.83   12.66
  -8   0   1  189.90   12.66
   8   0   1  200.88   12.66
   8   1  -1  128.28    7.79
  -8   1   1  112.81    7.80
  -8  -1  -1  113.97    7.80
   8  -1   1  121.61    7.81
   8   1   1  119.10    7.80
  -8  -1   1  122.45    7.80
  -8   1  -1  114.39    7.81
   8   2  -1  283.47   17.19
  -8   2   1  256.78   17.21
   8   2   1  249.00   17.19
  -8  -2   1  263.78   17.19
  -8   3   1   46.12    3.19
   8   3   1   49.36    3.17
  -8   4  -1   30.86    2.20
   8   4   1   33.45    2.18
  -8   5   1    5.63    0.62
  -8   5  -1    6.69    0.63
  -8   6   1   12.88    1.05
  -8   6  -1   13.72    1.05
  -8   7   1    3.13    0.58
  -8   7  -1    2.56    0.56
   8   0   2  243.79   15.36
  -8   0   2  230.07   15.35
  -8   0  -2  230.92   15.36
  -8   1   2   44.80    3.01
  -8  -1  -2   46.26    3.02
  -8  -1   2   44.87    3.00
   8   1   2   45.18    3.02
  -8   2   2  133.86    8.19
   8   2   2  115.55    8.18
  -8   3   2   31.62    2.11
   8   3   2   31.97    2.11
  -8   3  -2   29.16    2.11
  -8   4   2  115.93    7.68
  -8   4  -2  113.28    7.69
   8   4   2  121.12    7.69
  -8   5   2    2.79    0.49
  -8   5  -2    2.38    0.48
   8   5   2    2.20    0.37
  -8   6   2    3.74    0.58
  -8   6  -2    4.16    0.57
  -8   7   2    4.05    0.63
  -8   7  -2    3.48    0.59
  -8   0   3   41.80    2.77
  -8   1   3   69.30    4.60
  -8  -1  -3   73.34    4.63
   8   1   3   66.78    4.62
   8  -2   3  107.46    6.63
  -8   2   3  103.03    6.62
  -8   2  -3   93.07    6.63
   8   2   3   98.78    6.64
  -8   3   3   42.88    2.71
   8   3   3   39.55    2.73
  -8   3  -3   38.38    2.72
  -8   4   3  131.12    9.06
   8   4   3  141.12    9.09
  -8   4  -3  141.60    9.08
  -8   5   3    9.11    0.74
  -8   5  -3    7.75    0.73
   8   5   3    6.18    0.77
  -8   6   3   11.11    0.88
  -8   6  -3    9.52    0.86
   8   6   3    8.03    0.91
  -8   7  -3    1.96    0.39
  -8   1   4   98.75    6.46
   8  -1   4  105.16    6.50
  -8   1  -4  103.58    6.50
   8   1   4   86.17    6.49
   8  -2   4   53.77    3.61
  -8   2   4   52.02    3.59
   8   2   4   54.11    3.63
  -8   2  -4   56.38    3.62
  -8   3  -4    6.93    0.64
   8   3   4    5.94    0.69
  -8   4   4   38.50    2.68
   8   4   4   36.31    2.72
  -8   4  -4   43.46    2.70
  -8   5   4   50.75    3.19
   8   5   4   42.17    3.22
  -8   5  -4   48.26    3.20
  -8   6   4   22.84    1.65
  -8   6  -4   23.95    1.65
   8   6   4   20.93    1.70
  -8   0  -5    4.77    0.59
   8   0   5    4.87    0.57
   8  -1   5   46.35    3.33
  -8   1   5   44.14    3.28
   8   1   5   58.07    3.36
  -8   2   5   59.27    3.96
   8  -2   5   60.83    3.98
  -8   2  -5   64.41    4.00
   8   2   5   53.70    4.00
   8  -3   5  122.29    7.59
  -8   3   5  120.22    7.57
   8   3   5  100.74    7.60
  -8   3  -5  116.19    7.59
  -8   4   5    3.30    0.55
  -8   4  -5    3.40    0.57
   8   4   5    3.84    0.64
  -8   5   5   16.22    1.28
   8   5   5   17.14    1.36
  -8   5  -5   17.27    1.30
  -8   6   5    5.79    0.75
   8   6   5    6.83    0.83
  -8   0  -6   64.83    4.36
   8   0   6   64.87    4.35
   8  -1   6   40.72    3.02
   8   1   6   41.97    3.03
  -8   1  -6   50.35    3.04
  -8   2   6   -0.33    0.25
   8  -2   6    0.09    0.29
  -8   2  -6    0.39    0.33
   8   2   6    0.16    0.32
  -8   3   6   66.24    4.34
   8  -3   6   65.08    4.37
   8   3   6   64.25    4.39
  -8   3  -6   64.77    4.37
  -8   4   6    3.40    0.60
  -8   4  -6    4.10    0.64
   8   4   6    4.67    0.68
  -8   5   6   19.83    1.50
   8   5   6   20.17    1.56
  -8   0  -7   13.02    1.10
   8   0   7   12.71    1.09
   8  -1   7   57.04    3.90
   8   1   7   59.88    3.91
  -8   1  -7   55.93    3.91
   8  -2   7    0.92    0.35
  -8   2  -7    0.85    0.39
   8   2   7    1.16    0.38
  -8   3   7   11.47    1.05
   8  -3   7   10.81    1.06
   8   3   7   14.33    1.10
  -8   3  -7   13.44    1.10
  -8   4   7    1.58    0.42
   8   4   7    1.97    0.42
  -8   5   7   19.63    1.52
  -8   0  -8    6.26    0.78
   8   0   8    6.24    0.78
   8  -1   8   46.66    3.41
  -8   1  -8   48.65    3.42
   8   1   8   53.93    3.42
   8  -2   8    1.48    0.40
  -8   2  -8    1.57    0.44
   8   2   8    1.78    0.41
   8   3   8   15.97    1.29
   8  -4   8    1.32    0.33
  -8   0  -9   15.00    1.26
   8   0   9   15.04    1.25
   8  -1   9   29.23    2.20
  -8   1  -9   30.18    2.21
   8   1   9   32.14    2.20
   8   2   9    3.42    0.71
   9   1   0  279.81   17.88
  -9  -1   0  278.50   17.88
  -9   1   0  262.65   17.89
  -9  -2   0   38.72    2.62
   9   2   0   40.48    2.62
  -9   2   0   38.52    2.64
   9   3   0  127.09    8.28
  -9   3   0  126.70    8.31
  -9  -3   0  125.41    8.29
  -9   4   0   54.35    3.64
  -9   5   0   11.93    0.96
  -9   6   0    5.17    0.63
  -9   7   0   16.57    1.29
   9   0   1  134.80    8.95
  -9   0   1  140.47    8.95
  -9   0  -1  134.10    8.95
   9  -1   1  254.44   16.43
  -9  -1  -1  249.21   16.43
   9   1  -1  275.44   16.42
  -9   1   1  245.56   16.43
   9   1   1  239.25   16.42
  -9   1  -1  238.70   16.44
  -9  -1   1  256.59   16.43
  -9  -2  -1    1.50    0.31
  -9   2   1    1.41    0.28
   9   2  -1    1.89    0.29
   9   2   1    1.89    0.31
  -9   2  -1    1.27    0.25
  -9   3   1   80.08    5.20
  -9   3  -1   78.15    5.20
   9   3   1   77.23    5.17
  -9   4   1   29.75    2.06
   9   4   1   29.77    2.02
  -9   4  -1   29.86    2.06
  -9   5   1   31.23    2.09
  -9   5  -1   28.84    2.08
  -9   6   1    9.60    0.84
  -9   6  -1    8.90    0.84
  -9   7  -1   13.51    1.10
   9   0   2  137.49    9.16
  -9   0  -2  140.58    9.16
  -9   0   2  140.61    9.15
  -9  -1  -2  163.69   10.15
  -9   1   2  162.36   10.14
   9   1   2  144.51   10.14
  -9  -1   2  148.45   10.13
  -9  -2  -2   21.32    1.39
   9  -2   2   17.79    1.38
  -9   2   2   20.33    1.40
  -9   3   2   14.42    1.07
  -9   3  -2   14.29    1.08
   9   3   2   14.64    1.06
  -9   4   2   23.64    1.54
   9   4   2   20.49    1.52
  -9   4  -2   20.62    1.54
  -9   5   2   88.15    5.97
  -9   5  -2   88.30    5.97
   9   5   2   93.89    5.98
  -9   6   2    2.89    0.56
  -9   6  -2    3.37    0.56
  -9   0  -3   10.05    0.84
  -9   0   3   10.61    0.80
   9   0   3   11.40    0.84
  -9  -1  -3   27.01    1.71
   9  -1   3   22.21    1.68
  -9   1   3   25.49    1.67
   9   1   3   23.00    1.69
   9  -2   3  166.15   10.40
  -9   2   3  160.24   10.39
   9   2   3  156.06   10.41
  -9   2  -3  151.44   10.41
  -9   3   3   92.56    6.10
  -9   3  -3   88.74    6.11
   9   3   3   95.97    6.12
  -9   4  -3   10.29    0.93
   9   4   3   12.64    0.96
  -9   5   3   18.03    1.48
   9   5   3   21.30    1.53
  -9   5  -3   22.27    1.51
  -9   6   3   19.73    1.39
   9   6   3   16.38    1.43
  -9   6  -3   18.70    1.38
   9   0   4    2.40    0.46
  -9   0  -4    2.57    0.46
  -9   1   4   45.62    3.21
  -9  -1  -4   51.73    3.26
   9  -1   4   50.50    3.25
  -9   1  -4   46.36    3.25
   9   1   4   47.17    3.25
  -9   2   4   56.85    4.00
   9  -2   4   59.69    4.03
  -9   2  -4   61.73    4.04
   9   2   4   63.04    4.05
  -9   3   4   60.33    4.05
   9   3   4   62.34    4.10
  -9   3  -4   59.99    4.07
  -9   4   4   32.68    2.03
   9   4   4   25.90    2.06
  -9   4  -4   28.29    2.03
  -9   5   4    6.21    0.72
   9   5   4    6.29    0.78
  -9   5  -4    8.29    0.75
  -9   6   4    5.65    0.73
   9   6   4    5.77    0.78
  -9   6  -4    6.68    0.73
  -9   0  -5  110.34    7.40
   9   0   5  113.23    7.40
  -9  -1  -5   56.11    3.85
   9  -1   5   62.20    3.85
  -9   1  -5   56.20    3.84
   9   1   5   53.75    3.84
  -9   2   5   11.13    0.88
   9  -2   5   11.16    0.93
  -9   3   5   36.74    2.62
   9  -3   5   41.04    2.66
  -9   3  -5   42.49    2.67
   9   3   5   34.41    2.68
  -9   4   5   74.07    4.54
  -9   4  -5   67.21    4.55
   9   4   5   62.43    4.58
  -9   5   5    1.37    0.36
   9   5   5    0.63    0.39
  -9   5  -5    0.88    0.37
   9   6   5    5.27    0.78
  -9   0  -6  146.82    9.84
   9   0   6  151.45    9.84
  -9  -1  -6   30.92    2.42
   9  -1   6   37.65    2.43
   9   1   6   31.99    2.42
  -9   1  -6   38.15    2.44
   9  -2   6   28.87    2.01
  -9   2  -6   29.94    2.03
   9   2   6   26.27    2.04
   9  -3   6    1.91    0.40
  -9   3   6    1.31    0.34
   9   3   6    2.19    0.43
  -9   3  -6    2.08    0.42
  -9   4   6   28.45    2.00
  -9   4  -6   28.06    2.04
   9   4   6   28.81    2.08
  -9   5   6    2.81    0.63
   9   5   6    2.54    0.50
   9   0   7   39.51    2.81
  -9   0  -7   41.21    2.82
  -9  -1  -7    6.53    0.82
   9  -1   7    6.79    0.82
  -9   1  -7    8.16    0.86
   9   1   7    8.09    0.84
   9  -2   7   87.38    6.12
   9   2   7   97.69    6.15
  -9   2  -7   90.35    6.13
   9  -3   7    2.91    0.48
   9   3   7    3.33    0.66
  -9   3  -7    2.68    0.50
  -9   4   7    4.86    0.73
  -9   4  -7    4.66    0.77
   9   4   7    6.03    0.79
   9   0   8   44.29    3.06
  -9   0  -8   43.86    3.07
   9  -1   8    3.36    0.70
  -9  -1  -8    3.20    0.69
   9   1   8    4.08    0.70
  -9   1  -8    3.45    0.73
   9  -2   8   30.12    2.35
  -9   2  -8   36.01    2.39
   9  -3   8   -0.18    0.39
   9   3   8    0.36    0.38
  -9   3  -8    0.33    0.45
   9   0   9   27.39    2.00
  -9   0  -9   26.60    2.00
  -9  -1  -9    6.13    0.83
   9  -1   9    6.08    0.82
   9   1   9    6.25    0.81
  -9   1  -9    5.91    0.86
 -10   0   0  162.65   10.59
  10   0   0  160.21   10.58
 -10  -1   0    0.81    0.23
 -10   1   0    1.18    0.27
  10   1   0    0.96    0.21
  10   2   0  206.56   13.68
 -10  -2   0  207.57   13.69
 -10   2   0  213.43   13.71
 -10  -3   0    9.60    0.71
 -10   3   0    8.61    0.78
  10   3   0    9.28    0.70
 -10   4   0   16.06    1.21
 -10   5   0   10.71    0.91
 -10   6   0   41.81    2.87
 -10   0  -1  195.97   12.80
 -10   0   1  199.00   12.79
  10   0   1  191.22   12.79
  10  -1   1   57.55    3.73
 -10   1   1   57.38    3.73
 -10  -1  -1   57.48    3.73
  10   1  -1   63.53    3.72
  10   1   1   48.16    3.71
 -10   1  -1   52.16    3.73
 -10  -1   1   55.69    3.72
  10   2  -1  101.29    6.49
 -10  -2  -1   94.97    6.50
 -10   2   1   97.29    6.51
  10   2   1   96.67    6.49
 -10  -2   1  103.07    6.49
 -10   2  -1   98.99    6.52
 -10  -3  -1   67.24    4.36
 -10   3   1   66.77    4.38
 -10   3  -1   65.84    4.39
  10   3   1   63.37    4.35
 -10   4   1   64.35    4.63
 -10   4  -1   74.87    4.65
 -10   5   1    2.61    0.53
 -10   5  -1    3.02    0.54
 -10   6   1   25.98    1.78
 -10   6  -1   23.35    1.78
 -10   0   2  228.23   14.61
 -10   0  -2  222.25   14.62
  10   0   2  219.33   14.61
 -10  -1  -2   25.18    1.86
 -10   1   2   26.02    1.86
  10  -1   2   25.45    1.86
 -10   1  -2   28.04    1.88
  10   1   2   27.82    1.86
 -10  -1   2   30.03    1.85
 -10  -2  -2   22.77    1.58
 -10   3   2   11.57    0.93
 -10   3  -2   11.57    0.94
  10   3   2   11.82    0.89
 -10   4   2   93.08    6.37
  10   4   2   98.89    6.37
 -10   4  -2   97.25    6.39
 -10   5   2    8.21    0.80
 -10   5  -2    9.03    0.82
 -10   6   2    5.06    0.66
 -10   6  -2    5.08    0.67
 -10   0  -3   63.94    4.22
  10   0   3   64.23    4.21
 -10   0   3   61.60    4.18
  10  -1   3   44.36    3.17
 -10   1   3   43.37    3.15
 -10  -1  -3   45.22    3.18
 -10   1  -3   56.21    3.20
 -10  -2  -3   54.57    3.66
  10  -2   3   56.24    3.66
 -10   2   3   52.30    3.63
 -10   2  -3   54.61    3.66
  10   2   3   55.03    3.65
 -10   3   3   20.02    1.64
 -10   3  -3   24.17    1.68
  10   3   3   26.44    1.68
 -10   4   3   27.83    1.99
  10   4   3   30.91    2.02
 -10   4  -3   27.22    2.02
 -10   5   3   13.88    1.07
  10   5   3   12.85    1.08
 -10   5  -3   13.21    1.09
 -10   6   3    6.58    0.76
 -10   6  -3    6.82    0.76
 -10   0  -4   13.38    1.07
  10   0   4   13.99    1.06
 -10  -1  -4    8.12    0.79
  10  -1   4    8.31    0.78
 -10   1   4    7.98    0.72
 -10   1  -4   10.66    0.81
  10   1   4   10.71    0.80
 -10  -2  -4  111.71    7.08
 -10   2   4  102.92    7.02
  10  -2   4  112.30    7.06
 -10   2  -4  101.03    7.06
  10   2   4  105.92    7.07
 -10   3   4   66.76    4.80
 -10   3  -4   70.48    4.83
  10   3   4   79.83    4.86
 -10   4   4    4.32    0.61
 -10   4  -4    6.19    0.68
  10   4   4    5.27    0.69
  10   5   4    3.72    0.67
 -10   5  -4    4.83    0.66
  10   6   4    8.78    0.96
 -10   6  -4    9.98    0.92
  10   0   5   21.04    1.50
 -10   0  -5   19.13    1.50
 -10  -1  -5   53.96    3.45
  10  -1   5   55.30    3.44
 -10   1  -5   46.63    3.44
  10   1   5   46.60    3.43
  10  -2   5   58.18    3.70
 -10   2   5   54.48    3.65
  10   2   5   51.48    3.71
 -10   2  -5   54.46    3.70
  10  -3   5   32.49    2.16
 -10   3   5   30.11    2.11
  10   3   5   29.13    2.19
 -10   3  -5   30.37    2.16
 -10   4   5    3.90    0.60
  10   4   5    3.16    0.69
 -10   4  -5    4.66    0.65
 -10   5   5    8.04    0.83
  10   5   5    7.53    0.91
 -10   5  -5    9.33    0.88
  10   0   6   23.01    1.70
 -10   0  -6   22.36    1.69
 -10  -1  -6   80.85    6.11
  10  -1   6   92.66    6.11
  10   1   6   92.90    6.12
 -10   1  -6  100.04    6.13
  10  -2   6    7.49    0.76
 -10   2  -6    6.50    0.78
  10   2   6    5.39    0.78
 -10   3   6   28.49    1.80
 -10   3  -6   21.94    1.85
 -10   4   6    7.87    0.82
 -10   4  -6    9.42    0.92
  10   4   6    8.91    0.94
 -10   5  -6   12.91    1.16
  10   0   7    0.20    0.37
 -10   0  -7   -0.02    0.38
 -10  -1  -7   53.61    3.74
  10  -1   7   56.75    3.73
  10   1   7   51.12    3.72
 -10   1  -7   56.44    3.75
  10  -2   7    4.53    0.73
  10   2   7    4.76    0.77
 -10   2  -7    5.37    0.77
  10  -3   7   20.27    1.63
  10   3   7   22.27    1.67
 -10   3  -7   20.90    1.65
 -10   4  -7    3.39    0.76
  10   0   8    4.72    0.79
 -10   0  -8    4.93    0.79
 -10  -1  -8   32.60    2.30
  10  -1   8   29.08    2.28
 -10   1  -8   31.07    2.31
  10   1   8   33.61    2.29
  10  -2   8    1.69    0.44
 -10   2  -8    2.10    0.50
  10   2   8    2.00    0.47
 -11   0   0    1.20    0.28
  11   0   0    1.10    0.25
 -11  -1   0  122.41    7.86
 -11   1   0  116.17    7.87
  11   1   0  119.86    7.85
 -11   2   0    3.35    0.50
 -11  -2   0    3.07    0.42
  11   2   0    3.15    0.38
 -11   3   0   36.63    2.51
 -11   4   0   24.58    1.75
 -11   5   0   30.43    2.14
 -11   6   0    2.15    0.42
 -11   0   1  134.84    8.55
  11   0   1  124.00    8.54
 -11   0  -1  131.10    8.55
  11  -1   1  143.65    9.91
  11   1  -1  152.35    9.90
 -11  -1  -1  142.51    9.91
 -11   1   1  147.67    9.91
 -11  -1   1  168.24    9.92
 -11   1  -1  155.00    9.92
  11   1   1  147.51    9.90
 -11  -2  -1   59.48    3.85
 -11   2   1   60.20    3.87
 -11   2  -1   55.79    3.87
  11   2   1   55.67    3.84
 -11   3   1   50.14    3.54
 -11  -3  -1   48.36    3.51
  11   3   1   59.49    3.51
 -11   4   1   14.70    1.14
 -11   4  -1   14.66    1.14
 -11   5   1   30.73    2.05
 -11   5  -1   27.09    2.04
 -11   6   1    0.14    0.33
 -11   6  -1   -0.23    0.34
 -11   0   2    7.30    0.63
  11   0   2    6.56    0.61
 -11   0  -2    6.76    0.64
 -11  -1  -2  122.09    8.33
 -11   1   2  127.60    8.32
  11  -1   2  123.15    8.32
  11   1   2  125.80    8.32
 -11   1  -2  134.07    8.34
 -11   2   2   41.15    2.72
 -11  -2  -2   40.18    2.72
 -11   2  -2   38.75    2.73
  11   2   2   40.54    2.71
 -11   3   2   59.29    4.31
 -11  -3  -2   61.51    4.30
 -11   3  -2   68.10    4.33
  11   3   2   69.76    4.31
 -11   4   2   12.10    1.09
  11   4   2   15.41    1.07
 -11   4  -2   14.42    1.13
 -11   5   2   21.40    1.53
 -11   5  -2   20.15    1.54
 -11   6  -2    1.87    0.43
 -11   0  -3    5.07    0.58
  11   0   3    4.84    0.55
 -11   1   3   89.21    6.21
  11  -1   3   91.38    6.23
 -11  -1  -3   93.49    6.24
 -11   1  -3   96.12    6.24
  11   1   3  100.67    6.24
  11  -2   3  170.19   11.10
 -11  -2  -3  168.10   11.10
 -11   2   3  159.17   11.08
  11   2   3  176.19   11.10
 -11   2  -3  170.99   11.11
 -11  -3  -3   29.59    1.99
 -11   3   3   27.28    1.97
  11   3   3   29.17    1.99
 -11   3  -3   27.55    2.01
 -11   4  -3    1.99    0.42
  11   4   3    2.61    0.52
 -11   5   3   27.18    1.95
 -11   5  -3   27.03    1.97
  11   5   3   28.21    1.97
 -11   0  -4   80.77    5.36
  11   0   4   79.99    5.35
  11  -1   4   23.37    1.51
 -11  -1  -4   23.19    1.53
 -11   1  -4   17.06    1.50
  11   1   4   18.93    1.51
  11  -2   4   63.87    4.42
 -11  -2  -4   63.37    4.43
 -11   2   4   57.42    4.38
  11   2   4   73.79    4.44
 -11   2  -4   71.64    4.44
 -11   3   4   56.99    3.83
  11   3   4   59.38    3.88
 -11   3  -4   55.13    3.86
 -11   4  -4   11.09    0.99
  11   4   4   10.91    1.00
 -11   5   4    2.68    0.60
  11   5   4    3.27    0.65
 -11   5  -4    2.84    0.64
  11   0   5   74.44    4.94
 -11   0  -5   72.83    4.95
  11   1   5   11.98    1.03
 -11   1  -5   11.69    1.04
 -11  -2  -5   27.72    1.78
  11   2   5   21.45    1.75
 -11   2  -5   22.50    1.76
 -11   3   5   22.41    1.57
  11   3   5   21.44    1.65
 -11   3  -5   21.22    1.62
 -11   4   5   43.04    2.98
 -11   4  -5   44.16    3.02
  11   4   5   43.75    3.06
 -11   5   5    1.89    0.43
  11   5   5    2.61    0.51
 -11   5  -5    3.64    0.69
 -11   0  -6   28.05    2.10
  11   0   6   29.49    2.09
  11  -1   6    1.05    0.38
 -11  -1  -6    0.76    0.39
  11   1   6    1.06    0.39
 -11   1  -6    0.91    0.41
 -11  -2  -6   22.21    1.57
 -11   2  -6   19.90    1.55
  11   2   6   17.81    1.55
  11  -3   6    8.34    0.88
 -11   3  -6    7.88    0.88
  11   3   6    6.59    0.90
 -11   4   6   27.36    1.92
  11   4   6   25.21    2.03
 -11   4  -6   28.17    2.00
  11   0   7   19.20    1.54
 -11   0  -7   19.51    1.56
 -11  -1  -7    2.78    0.52
  11  -1   7    3.95    0.73
  11   1   7    4.24    0.73
 -11   1  -7    4.83    0.79
  11  -2   7   23.18    1.69
 -11  -2  -7   21.48    1.71
 -11   2  -7   22.55    1.71
  11   2   7   20.58    1.70
  11  -3   7    2.73    0.53
 -11   3  -7    3.58    0.78
  11   0   8   16.81    1.41
 -11   0  -8   16.51    1.43
  11  -1   8    1.13    0.44
 -11   1  -8    1.23    0.50
 -12   0   0   12.96    0.99
  12   0   0   12.35    0.96
 -12   1   0   35.14    2.44
  12   1   0   35.13    2.41
 -12  -1   0   36.81    2.43
 -12  -2   0  122.35    7.97
  12   2   0  117.95    7.96
 -12   2   0  123.35    8.00
 -12   3   0    7.11    0.73
 -12   4   0   13.15    1.07
 -12   5   0    0.73    0.36
  12   0   1  167.87   11.60
 -12   0  -1  177.81   11.62
 -12   0   1  185.07   11.61
 -12  -1  -1    1.58    0.31
 -12   1   1    1.53    0.34
  12   1  -1    2.47    0.41
  12   1   1    2.68    0.38
 -12   1  -1    3.15    0.49
 -12  -2  -1   34.21    2.31
 -12   2   1   36.50    2.34
 -12   2  -1   33.40    2.33
  12   2   1   31.06    2.29
 -12   3   1    0.10    0.30
 -12  -3  -1    0.51    0.23
 -12   3  -1    0.32    0.32
  12   3   1    0.68    0.23
 -12   4   1   29.69    2.04
 -12   4  -1   28.10    2.04
 -12   5   1    2.83    0.60
 -12   5  -1    2.10    0.41
 -12   0  -2  185.32   12.32
  12   0   2  179.06   12.30
 -12   0   2  198.43   12.31
 -12  -1  -2   38.29    2.85
  12  -1   2   39.08    2.84
 -12   1   2   39.33    2.85
  12   1   2   45.86    2.85
 -12   1  -2   47.82    2.88
 -12   2   2   34.89    2.44
 -12  -2  -2   34.46    2.42
  12   2   2   36.44    2.42
 -12   2  -2   36.21    2.45
 -12   3   2   18.05    1.25
 -12  -3  -2   17.79    1.21
 -12   3  -2   14.50    1.24
  12   3   2   14.70    1.19
 -12   4   2   56.92    3.72
 -12   4  -2   53.20    3.73
 -12   5   2    3.52    0.62
 -12   5  -2    2.78    0.62
 -12   0  -3   99.58    6.54
  12   0   3   97.72    6.53
 -12   1   3   24.83    1.63
  12  -1   3   24.92    1.65
 -12  -1  -3   24.32    1.66
 -12   1  -3   20.79    1.66
  12   1   3   20.32    1.63
 -12  -2  -3   48.99    3.39
  12  -2   3   49.77    3.39
 -12   2   3   48.07    3.37
 -12   2  -3   51.57    3.41
  12   2   3   52.24    3.39
 -12  -3  -3   46.90    3.14
 -12   3   3   46.34    3.14
 -12   3  -3   45.23    3.16
  12   3   3   46.65    3.14
 -12   4   3   28.97    2.02
 -12  -4  -3   30.32    2.02
 -12   4  -3   27.14    2.05
  12   4   3   27.92    2.02
 -12   5   3   -0.19    0.36
 -12   5  -3    0.31    0.37
 -12   0  -4    5.15    0.66
  12   0   4    5.29    0.63
  12  -1   4   60.08    3.96
 -12  -1  -4   62.05    3.98
 -12   1  -4   56.27    3.96
  12   1   4   56.42    3.96
 -12   2   4   56.84    4.14
  12  -2   4   64.36    4.19
 -12  -2  -4   62.95    4.20
  12   2   4   64.71    4.20
 -12   2  -4   62.15    4.20
 -12  -3  -4   32.32    2.27
 -12   3   4   30.03    2.22
  12   3   4   34.50    2.28
 -12   3  -4   31.81    2.27
 -12   4   4    3.14    0.58
 -12   4  -4    2.57    0.47
  12   4   4    2.45    0.44
  12   0   5    0.12    0.32
 -12   0  -5    0.14    0.36
  12  -1   5   57.88    3.83
 -12  -1  -5   56.45    3.85
 -12   1  -5   54.06    3.84
  12   1   5   57.24    3.85
  12  -2   5   16.40    1.25
 -12  -2  -5   14.87    1.25
  12   2   5   14.38    1.25
 -12   2  -5   15.47    1.27
 -12  -3  -5    7.98    0.87
 -12   3   5    8.20    0.81
  12   3   5    9.71    0.93
 -12   3  -5    9.39    0.91
 -12   4   5    4.50    0.69
  12   4   5    5.27    0.80
 -12   4  -5    6.06    0.78
 -12   0  -6    1.51    0.45
  12   0   6    1.20    0.40
  12  -1   6   14.47    1.15
 -12  -1  -6   13.03    1.16
  12   1   6   11.70    1.16
 -12   1  -6   12.29    1.16
 -12  -2  -6    4.12    0.73
  12  -2   6    5.16    0.73
 -12   2  -6    4.30    0.78
  12   2   6    4.05    0.76
 -12  -3  -6   26.33    2.06
  12   3   6   26.58    2.08
 -12   3  -6   30.80    2.07
 -12   0  -7   17.36    1.45
  12   0   7   16.74    1.42
 -12  -1  -7   10.57    1.12
  12  -1   7   12.50    1.11
  12   1   7   10.79    1.13
 -12   1  -7   12.22    1.16
  12  -2   7    0.07    0.39
 -12   2  -7    0.67    0.47
 -13   0   0    0.03    0.27
 -13   1   0   59.56    3.97
  13   1   0   57.58    3.94
 -13  -1   0   60.03    3.96
 -13   2   0   16.08    1.25
 -13   3   0   53.03    3.60
 -13   4   0    0.71    0.35
 -13   0   1    3.50    0.54
 -13   0  -1    3.50    0.54
  13   0   1    2.97    0.47
 -13   1   1   55.05    3.58
 -13  -1  -1   52.14    3.56
  13   1   1   51.92    3.55
 -13   1  -1   53.06    3.58
 -13   2   1    4.81    0.67
 -13  -2  -1    5.17    0.59
 -13   2  -1    6.06    0.68
  13   2   1    6.38    0.56
 -13   3   1   50.99    3.28
 -13   3  -1   45.07    3.27
 -13   4   1   25.90    1.87
 -13   4  -1   25.96    1.88
  13   0   2    1.17    0.29
 -13   0  -2    1.28    0.33
 -13  -1  -2   51.20    3.46
 -13   1   2   52.79    3.46
  13  -1   2   50.75    3.46
 -13   1  -2   51.91    3.48
  13   1   2   49.82    3.44
 -13   2   2    8.94    0.78
 -13  -2  -2    8.37    0.73
  13   2   2    6.97    0.69
 -13   2  -2    7.24    0.79
 -13  -3  -2   40.00    2.66
 -13   3   2   41.65    2.69
  13   3   2   36.40    2.65
 -13   3  -2   37.71    2.69
 -13   4   2   13.35    1.08
 -13   4  -2   12.13    1.09
  13   0   3    5.70    0.62
 -13   0  -3    5.83    0.67
  13  -1   3   77.68    5.07
 -13  -1  -3   76.36    5.08
  13   1   3   73.86    5.06
 -13   1  -3   76.21    5.09
 -13  -2  -3   26.57    1.81
 -13   2   3   26.73    1.80
  13   2   3   23.75    1.79
 -13   2  -3   23.91    1.82
 -13   3   3    5.19    0.67
 -13  -3  -3    5.44    0.63
  13   3   3    6.34    0.65
 -13   3  -3    5.81    0.73
 -13  -4  -3    7.31    0.66
 -13   4   3    7.11    0.73
  13   4   3    4.67    0.66
 -13   4  -3    4.60    0.76
 -13   0  -4    9.36    0.91
  13   0   4   10.05    0.88
  13  -1   4   40.11    2.97
 -13  -1  -4   40.22    2.99
 -13   1  -4   46.80    3.01
  13   1   4   46.70    2.99
  13  -2   4   49.90    3.12
 -13  -2  -4   47.18    3.12
  13   2   4   43.69    3.11
 -13   2  -4   40.34    3.11
 -13  -3  -4   22.01    1.63
 -13   3   4   20.38    1.59
  13   3   4   22.98    1.64
 -13   3  -4   22.39    1.67
 -13   4   4    6.51    0.79
 -13  -4  -4    7.28    0.77
 -13   4  -4    9.24    0.91
 -13   0  -5   66.08    4.50
  13   0   5   66.57    4.49
  13  -1   5   28.49    2.23
 -13  -1  -5   28.34    2.25
 -13   1  -5   33.98    2.27
  13   1   5   34.78    2.26
 -13  -2  -5   14.73    1.29
  13  -2   5   15.77    1.28
  13   2   5   16.57    1.31
 -13   2  -5   15.34    1.31
 -13  -3  -5    6.52    0.80
 -13   3  -5    6.96    0.85
  13   3   5    7.22    0.85
  13   0   6   67.94    4.59
 -13   0  -6   67.04    4.61
 -13  -1  -6    9.06    0.97
  13  -1   6    9.82    0.93
 -13   1  -6    6.80    0.94
  13   1   6    7.11    0.93
 -13  -2  -6   14.34    1.40
  13  -2   6   17.37    1.44
 -13   2  -6   18.20    1.45
 -14   0   0    2.93    0.54
 -14   1   0    2.88    0.56
  14   1   0    2.33    0.47
 -14  -1   0    3.14    0.53
 -14   2   0  150.69    9.94
 -14   3   0   -0.12    0.34
 -14   4   0   31.20    2.22
 -14   0   1   55.08    3.60
  14   0   1   51.78    3.58
 -14   0  -1   53.03    3.60
 -14  -1  -1    7.49    0.77
 -14   1   1    8.75    0.83
 -14   1  -1    8.71    0.82
  14   1   1    8.66    0.73
 -14  -2  -1   44.18    3.12
 -14   2   1   47.18    3.16
 -14   2  -1   48.82    3.16
  14   2   1   44.48    3.10
 -14   3   1    4.05    0.64
 -14   3  -1    2.90    0.65
 -14   4   1   40.01    2.72
 -14   4  -1   38.09    2.73
  14   0   2  112.88    7.59
 -14   0  -2  116.90    7.61
  14  -1   2    8.12    0.73
 -14  -1  -2    7.92    0.73
 -14   1   2    8.56    0.77
 -14   1  -2    6.14    0.76
  14   1   2    6.06    0.67
 -14   2   2    4.89    0.65
 -14  -2  -2    4.77    0.58
 -14   2  -2    3.80    0.66
  14   2   2    3.77    0.52
 -14   3   2   20.76    1.49
 -14   3  -2   18.51    1.50
 -14   4   2   24.04    1.77
 -14   0  -3   42.30    2.89
  14   0   3   41.48    2.86
 -14  -1  -3    8.64    0.88
  14  -1   3    8.56    0.87
  14   1   3   10.94    0.86
 -14   1  -3   10.84    0.93
 -14   2   3   18.84    1.56
 -14  -2  -3   19.43    1.57
  14   2   3   23.93    1.57
 -14   2  -3   23.20    1.61
 -14   3   3   11.97    0.97
 -14  -3  -3   10.98    0.93
 -14   3  -3    9.75    0.99
  14   3   3    9.84    0.92
 -14   0  -4    5.49    0.74
  14   0   4    5.90    0.69
 -14  -1  -4   17.77    1.36
  14  -1   4   17.49    1.34
  14   1   4   16.54    1.32
 -14   1  -4   16.22    1.37
  14  -2   4   61.70    4.26
 -14  -2  -4   60.82    4.26
  14   2   4   66.42    4.26
 -14   2  -4   62.74    4.27
 -14   3   4    3.51    0.63
 -14  -3  -4    3.18    0.63
  14   3   4    4.75    0.67
 -14   0  -5   36.52    2.62
  14   0   5   36.97    2.60
 -14  -1  -5   37.94    2.53
  14  -1   5   38.36    2.50
 -14   1  -5   31.98    2.51
  14   1   5   31.90    2.48
 -14  -2  -5   10.87    1.08
 -15   0   0    0.14    0.33
 -15   1   0   54.51    3.70
 -15   2   0    0.06    0.36
 -15   3   0   32.12    2.29
 -15   0  -1   10.91    0.96
  15   0   1   11.21    0.93
 -15   1   1   58.89    3.61
 -15  -1  -1   55.03    3.59
 -15   1  -1   49.52    3.60
  15   1   1   48.57    3.56
 -15   2   1    1.49    0.42
 -15   2  -1    1.72    0.43
 -15   3   1   28.57    2.12
 -15   3  -1   30.40    2.14
  15   0   2   17.53    1.34
 -15   0  -2   18.36    1.38
 -15  -1  -2   31.20    2.31
  15   1   2   33.36    2.29
 -15   1  -2   34.65    2.33
 -15   2   2    4.37    0.69
 -15  -2  -2    4.50    0.60
 -15   2  -2    4.13    0.70
  15   2   2    4.27    0.55
 -15   3   2   30.41    2.18
 -15   0  -3   13.09    1.11
  15   0   3   12.64    1.05
  15  -1   3   16.18    1.39
 -15  -1  -3   15.94    1.39
  15   1   3   19.80    1.37
 -15   1  -3   21.09    1.45
 -15  -2  -3   12.55    1.06
 -15   2  -3   12.63    1.12
  15   2   3   12.17    1.02
 -15   0  -4   34.42    2.48
  15   0   4   35.00    2.45
 -15  -1  -4   21.68    1.71
  15   1   4   23.65    1.69
 -16   0   0   71.46    4.80
 -16   1   0    3.85    0.68
 -16   2   0   12.10    1.09
 -16   0  -1   12.79    1.07
 -16  -1  -1    3.59    0.64
 -16   1   1    3.67    0.68
 -16   1  -1    4.20    0.67
  16   1   1    3.74    0.58
  16   0   2   20.79    1.56
 -16   0  -2   21.38    1.59
 -16  -1  -2    8.30    0.81
  16   1   2    7.11    0.74
 -16   1  -2    7.32    0.84
   0   0   0    0.00    0.00
;
_shelx_hkl_checksum              16907
loop_
_space_group_symop_operation_xyz
'x, y, z'
'-x, -y, z'
'-x+1/2, y+1/2, -z'
'x+1/2, -y+1/2, -z'
loop_
_atom_site_label
_atom_site_type_symbol
_atom_site_fract_x
_atom_site_fract_y
_atom_site_fract_z
_atom_site_U_iso_or_equiv
_atom_site_adp_type
_atom_site_occupancy
_atom_site_site_symmetry_order
_atom_site_calc_flag
_atom_site_refinement_flags_posn
_atom_site_refinement_flags_adp
_atom_site_refinement_flags_occupancy
_atom_site_disorder_assembly
_atom_site_disorder_group
Zn1 Zn 0.5000 0.5000 1.03087(5) 0.02802(15) Uani 1 2 d S T P . .
N1 N 0.38393(18) 0.3798(4) 1.1620(3) 0.0279(5) Uani 1 1 d . . . . .
N4 N 0.23957(18) 0.3169(4) 1.2864(3) 0.0256(5) Uani 1 1 d . . . . .
C1 C 0.2852(2) 0.4479(4) 1.1890(3) 0.0230(5) Uani 1 1 d . . . . .
N2 N 0.3948(2) 0.2030(5) 1.2434(4) 0.0423(7) Uani 1 1 d . . . . .
N3 N 0.3098(2) 0.1633(5) 1.3180(4) 0.0430(7) Uani 1 1 d . . . . .
N5 N 0.2416(2) 0.6143(5) 1.1311(4) 0.0440(7) Uani 1 1 d . . . . .
H5A H 0.1773 0.6466 1.1560 0.053 Uiso 1 1 calc R U . . .
H5B H 0.2774 0.6908 1.0682 0.053 Uiso 1 1 calc R U . . .
C2 C 0.1298(2) 0.3172(4) 1.3456(3) 0.0253(5) Uani 1 1 d . . . . .
H2A H 0.1108 0.4586 1.3718 0.030 Uiso 1 1 calc R U . . .
C4 C 0.0522(2) 0.2421(4) 1.2199(4) 0.0233(6) Uani 1 1 d . . . . .
C3 C 0.1206(3) 0.1908(6) 1.4929(4) 0.0392(7) Uani 1 1 d . . . . .
H3A H 0.0482 0.1933 1.5295 0.059 Uiso 1 1 calc R U . . .
H3B H 0.1412 0.0522 1.4709 0.059 Uiso 1 1 calc R U . . .
H3C H 0.1666 0.2463 1.5722 0.059 Uiso 1 1 calc R U . . .
O2 O -0.04263(17) 0.2443(4) 1.2543(3) 0.0346(6) Uani 1 1 d . . . . .
O1 O 0.09026(17) 0.1834(4) 1.0906(3) 0.0339(5) Uani 1 1 d . . . . .
loop_
_atom_site_aniso_label
_atom_site_aniso_U_11
_atom_site_aniso_U_22
_atom_site_aniso_U_33
_atom_site_aniso_U_23
_atom_site_aniso_U_13
_atom_site_aniso_U_12
Zn1 0.0142(2) 0.0435(3) 0.0264(2) 0.000 0.000 0.0023(2)
N1 0.0154(10) 0.0399(13) 0.0284(11) 0.0010(10) 0.0015(9) 0.0010(9)
N4 0.0160(10) 0.0312(11) 0.0296(11) 0.0026(10) -0.0034(9) 0.0001(9)
C1 0.0161(11) 0.0335(14) 0.0196(11) -0.0016(9) -0.0012(9) -0.0002(9)
N2 0.0237(12) 0.0471(15) 0.0561(18) 0.0148(14) 0.0019(13) 0.0075(12)
N3 0.0238(12) 0.0442(15) 0.0611(19) 0.0206(15) 0.0000(13) 0.0059(11)
N5 0.0250(13) 0.0523(16) 0.0546(18) 0.0246(15) 0.0150(13) 0.0114(13)
C2 0.0189(12) 0.0317(13) 0.0252(12) -0.0004(11) 0.0012(10) -0.0028(10)
C4 0.0191(13) 0.0251(12) 0.0257(13) 0.0015(11) -0.0013(11) 0.0001(10)
C3 0.0352(16) 0.0542(19) 0.0281(15) 0.0087(14) 0.0012(13) -0.0079(15)
O2 0.0172(9) 0.0418(12) 0.0449(14) -0.0055(11) -0.0015(10) 0.0011(9)
O1 0.0240(10) 0.0490(12) 0.0286(10) -0.0049(10) 0.0021(9) -0.0083(9)
loop_
_atom_type_symbol
_atom_type_description
_atom_type_scat_dispersion_real
_atom_type_scat_dispersion_imag
_atom_type_scat_source
C C 0.0033 0.0016 'International Tables Vol C Tables 4.2.6.8 and 6.1.1.4'
H H 0.0000 0.0000 'International Tables Vol C Tables 4.2.6.8 and 6.1.1.4'
N N 0.0061 0.0033 'International Tables Vol C Tables 4.2.6.8 and 6.1.1.4'
O O 0.0106 0.0060 'International Tables Vol C Tables 4.2.6.8 and 6.1.1.4'
Zn Zn 0.2839 1.4301 'International Tables Vol C Tables 4.2.6.8 and 6.1.1.4'
loop_
_geom_angle_atom_site_label_1
_geom_angle_atom_site_label_2
_geom_angle_atom_site_label_3
_geom_angle
_geom_angle_site_symmetry_1
_geom_angle_site_symmetry_3
O1 Zn1 O1 115.65(13) 4_557 3_557
O1 Zn1 N1 96.75(10) 4_557 2_665
O1 Zn1 N1 118.65(10) 3_557 2_665
O1 Zn1 N1 118.65(10) 4_557 .
O1 Zn1 N1 96.75(10) 3_557 .
N1 Zn1 N1 111.81(15) 2_665 .
C1 N1 N2 106.8(2) . .
C1 N1 Zn1 129.8(2) . .
N2 N1 Zn1 123.3(2) . .
C1 N4 N3 108.8(2) . .
C1 N4 C2 128.4(2) . .
N3 N4 C2 122.6(2) . .
N5 C1 N4 126.3(3) . .
N5 C1 N1 126.6(3) . .
N4 C1 N1 107.1(2) . .
N3 N2 N1 110.3(3) . .
N2 N3 N4 107.0(3) . .
C1 N5 H5A 120.0 . .
C1 N5 H5B 120.0 . .
H5A N5 H5B 120.0 . .
N4 C2 C3 111.0(2) . .
N4 C2 C4 110.8(2) . .
C3 C2 C4 111.1(3) . .
N4 C2 H2A 108.0 . .
C3 C2 H2A 107.9 . .
C4 C2 H2A 108.0 . .
O2 C4 O1 125.5(3) . .
O2 C4 C2 116.4(3) . .
O1 C4 C2 118.1(3) . .
C2 C3 H3A 109.5 . .
C2 C3 H3B 109.5 . .
H3A C3 H3B 109.5 . .
C2 C3 H3C 109.5 . .
H3A C3 H3C 109.5 . .
H3B C3 H3C 109.5 . .
C4 O1 Zn1 115.64(19) . 3_547
loop_
_geom_bond_atom_site_label_1
_geom_bond_atom_site_label_2
_geom_bond_distance
_geom_bond_site_symmetry_2
Zn1 O1 1.947(2) 4_557
Zn1 O1 1.947(2) 3_557
Zn1 N1 1.997(2) 2_665
Zn1 N1 1.997(2) .
N1 C1 1.335(3) .
N1 N2 1.355(4) .
N4 C1 1.323(4) .
N4 N3 1.363(3) .
N4 C2 1.466(3) .
C1 N5 1.314(4) .
N2 N3 1.268(4) .
N5 H5A 0.8600 .
N5 H5B 0.8600 .
C2 C3 1.509(4) .
C2 C4 1.530(4) .
C2 H2A 0.9800 .
C4 O2 1.224(3) .
C4 O1 1.261(4) .
C3 H3A 0.9600 .
C3 H3B 0.9600 .
C3 H3C 0.9600 .
O1 Zn1 1.947(2) 3_547
