#------------------------------------------------------------------------------
#$Date: 2021-03-17 10:47:03 +0200 (Wed, 17 Mar 2021) $
#$Revision: 263079 $
#$URL: file:///home/coder/svn-repositories/cod/cif/1/56/10/1561055.cif $
#------------------------------------------------------------------------------
#
# This file is available in the Crystallography Open Database (COD),
# http://www.crystallography.net/
#
# All data on this site have been placed in the public domain by the
# contributors.
#
data_1561055
loop_
_publ_author_name
'Wang, Jingrui'
'Li, Peng'
'Cai, Ting'
'Yang, Dan-Dan'
'Xiong, Wei-Wei'
_publ_section_title
;
 Four two-dimensional ternary selenides based on group 13 and 14 metals:
 Syntheses, crystal structures, and electrochemical properties
;
_journal_name_full               'Journal of Solid State Chemistry'
_journal_page_first              88
_journal_page_last               93
_journal_paper_doi               10.1016/j.jssc.2018.04.018
_journal_volume                  263
_journal_year                    2018
_chemical_formula_moiety         'Ge2 In2 Se8, H8 N2'
_chemical_formula_sum            'Ge2 H8 In2 N2 Se8'
_chemical_formula_weight         1042.58
_space_group_crystal_system      monoclinic
_space_group_IT_number           14
_space_group_name_Hall           '-P 2ybc'
_space_group_name_H-M_alt        'P 1 21/c 1'
_atom_sites_solution_hydrogens   none
_atom_sites_solution_primary     direct
_atom_sites_solution_secondary   difmap
_cell_angle_alpha                90
_cell_angle_beta                 95.214(6)
_cell_angle_gamma                90
_cell_formula_units_Z            4
_cell_length_a                   7.6416(12)
_cell_length_b                   12.4698(19)
_cell_length_c                   18.222(3)
_cell_measurement_reflns_used    2404
_cell_measurement_temperature    293(2)
_cell_measurement_theta_max      26.96
_cell_measurement_theta_min      3.14
_cell_volume                     1729.2(5)
_computing_cell_refinement       'Bruker SAINT'
_computing_data_collection       'Bruker APEX2'
_computing_data_reduction        'Bruker SAINT'
_computing_molecular_graphics    'DIAMOND. Version 3.0. Crystal Impact'
_computing_structure_refinement  'SHELXL-2016/6 (Sheldrick, 2016)'
_computing_structure_solution    'SHELXL-2016/6 (Sheldrick, 2016)'
_diffrn_ambient_temperature      293(2)
_diffrn_measured_fraction_theta_full 0.997
_diffrn_measured_fraction_theta_max 0.998
_diffrn_measurement_device_type  'Bruker APEX-II CCD'
_diffrn_measurement_method       '\f and \w scans'
_diffrn_radiation_type           MoK\a
_diffrn_radiation_wavelength     0.71073
_diffrn_reflns_av_R_equivalents  0.1334
_diffrn_reflns_av_unetI/netI     0.1243
_diffrn_reflns_Laue_measured_fraction_full 0.997
_diffrn_reflns_Laue_measured_fraction_max 0.998
_diffrn_reflns_limit_h_max       9
_diffrn_reflns_limit_h_min       -10
_diffrn_reflns_limit_k_max       16
_diffrn_reflns_limit_k_min       -16
_diffrn_reflns_limit_l_max       24
_diffrn_reflns_limit_l_min       -23
_diffrn_reflns_number            16815
_diffrn_reflns_point_group_measured_fraction_full 0.997
_diffrn_reflns_point_group_measured_fraction_max 0.998
_diffrn_reflns_theta_full        25.242
_diffrn_reflns_theta_max         27.997
_diffrn_reflns_theta_min         3.136
_exptl_absorpt_coefficient_mu    22.888
_exptl_absorpt_correction_T_max  1.00000
_exptl_absorpt_correction_T_min  0.45231
_exptl_absorpt_correction_type   multi-scan
_exptl_crystal_colour            orange
_exptl_crystal_density_diffrn    4.005
_exptl_crystal_density_method    'not measured'
_exptl_crystal_description       prismatic
_exptl_crystal_F_000             1824
_exptl_crystal_size_max          0.18
_exptl_crystal_size_mid          0.16
_exptl_crystal_size_min          0.12
_refine_diff_density_max         2.577
_refine_diff_density_min         -1.952
_refine_diff_density_rms         0.585
_refine_ls_extinction_coef       0.0025(4)
_refine_ls_extinction_expression Fc^*^=kFc[1+0.001xFc^2^\l^3^/sin(2\q)]^-1/4^
_refine_ls_extinction_method     'SHELXL-2016/6 (Sheldrick 2016)'
_refine_ls_goodness_of_fit_ref   1.031
_refine_ls_hydrogen_treatment    none
_refine_ls_matrix_type           full
_refine_ls_number_parameters     128
_refine_ls_number_reflns         4166
_refine_ls_number_restraints     0
_refine_ls_restrained_S_all      1.031
_refine_ls_R_factor_all          0.1768
_refine_ls_R_factor_gt           0.1005
_refine_ls_shift/su_max          0.000
_refine_ls_shift/su_mean         0.000
_refine_ls_structure_factor_coef Fsqd
_refine_ls_weighting_details
'w=1/[\s^2^(Fo^2^)+(0.1498P)^2^+90.0859P] where P=(Fo^2^+2Fc^2^)/3'
_refine_ls_weighting_scheme      calc
_refine_ls_wR_factor_gt          0.2787
_refine_ls_wR_factor_ref         0.3236
_reflns_Friedel_coverage         0.000
_reflns_Friedel_fraction_full    .
_reflns_Friedel_fraction_max     .
_reflns_number_gt                2193
_reflns_number_total             4166
_reflns_threshold_expression     'I > 2\s(I)'
_cod_data_source_file            JSSC-2018-263-88.cif
_cod_data_source_block           compound-2
_cod_depositor_comments
;
The following automatic conversions were performed:

data item '_exptl_absorpt_correction_type' value 'Multi-scan' was
changed to 'multi-scan' in accordance with the built-in table derived
from the CIF Core dictionary named 'cif_core.dic' version 2.4.5 last
updated on 2014-11-21.

Automatic conversion script
Id: cif_fix_values 8369 2020-08-20 11:38:08Z andrius 
;
_cod_original_sg_symbol_H-M      'P 21/c'
_cod_database_code               1561055
_shelx_space_group_comment
;
The symmetry employed for this shelxl refinement is uniquely defined
by the following loop, which should always be used as a source of
symmetry information in preference to the above space-group names.
They are only intended as comments.
;
_shelx_res_file
;
TITL x in P2(1)/c
    x.res
    created by SHELXL-2016/6 at 16:52:13 on 11-Dec-2017
CELL 0.71073   7.6416  12.4698  18.2220  90.000  95.214  90.000
ZERR   4.00   0.0012   0.0019   0.0028   0.000   0.006   0.000
LATT  1
SYMM -X, 0.5+Y, 0.5-Z
SFAC N H GE SE IN
UNIT 8 32 8 32 8
TEMP 293

omit -2 56

omit -2 1 4
omit 2 4 3

eadp In1 Ge1
exyz In1 Ge1
eadp In2 Ge2
exyz In2 Ge2
eadp In3 Ge3
exyz In3 Ge3
eadp In4 Ge4
exyz In4 Ge4

L.S. 10
acta
BOND
FMAP 2
PLAN 20

WGHT    0.149800   90.085899
EXTI    0.002546
FVAR       0.04326
IN1   5    0.477026    0.756507    0.156925    10.50000    0.02478    0.04320 =
         0.02371   -0.00108    0.00368   -0.00424
GE1   3    0.477026    0.756507    0.156925    10.50000    0.02478    0.04320 =
         0.02371   -0.00108    0.00368   -0.00424
IN2   5   -0.027788    0.754004    0.147407    10.50000    0.02591    0.04221 =
         0.02563    0.00187    0.00311    0.00622
GE2   3   -0.027788    0.754004    0.147407    10.50000    0.02591    0.04221 =
         0.02563    0.00187    0.00311    0.00622
IN3   5    0.238349    0.796127   -0.176135    10.50000    0.03683    0.04492 =
         0.02770   -0.00059    0.00726    0.00006
GE3   3    0.238349    0.796127   -0.176135    10.50000    0.03683    0.04492 =
         0.02770   -0.00059    0.00726    0.00006
IN4   5    0.218122    0.680362   -0.016413    10.50000    0.05109    0.05209 =
         0.03020   -0.00227    0.00867   -0.00237
GE4   3    0.218122    0.680362   -0.016413    10.50000    0.05109    0.05209 =
         0.03020   -0.00227    0.00867   -0.00237
SE1   4   -0.011741    0.626985    0.253778    11.00000    0.04853    0.05635 =
         0.07343    0.01583    0.00724   -0.00282
SE2   4    0.462237    0.614376    0.059475    11.00000    0.04822    0.05847 =
         0.06142   -0.01189    0.01121   -0.00086
SE3   4    0.517736    0.658594    0.278050    11.00000    0.03636    0.07669 =
         0.05106    0.02090    0.00640    0.01130
SE4   4    0.214674    0.606873   -0.138418    11.00000    0.07363    0.03461 =
         0.05076   -0.01176   -0.00166    0.00000
SE5   4    0.249419    0.868455   -0.048398    11.00000    0.08554    0.03127 =
         0.03462   -0.00308    0.00703   -0.00628
SE6   4    0.722213    0.883321    0.144861    11.00000    0.05612    0.03634 =
         0.04685    0.00080    0.00470   -0.00102
SE7   4   -0.060418    0.645792    0.029514    11.00000    0.04156    0.05946 =
         0.05266   -0.01458    0.00867   -0.00348
SE8   4    0.224299    0.880453    0.156935    11.00000    0.03387    0.05262 =
         0.04902    0.00289    0.00436   -0.00035
N1    1    0.745772    0.932190    0.330645    11.00000    0.07406    0.12618 =
         0.06136    0.00193    0.04600   -0.00489
N2    1   -0.249969    0.882416   -0.045747    11.00000    0.18155    0.02854 =
         0.07614    0.00043   -0.06435    0.00062
HKLF 4




REM  x in P2(1)/c
REM R1 =  0.1005 for    2193 Fo > 4sig(Fo)  and  0.1768 for all    4166 data
REM    128 parameters refined using      0 restraints

END

WGHT      0.1529     75.8236

REM Highest difference peak  2.577,  deepest hole -1.952,  1-sigma level  0.585
Q1    1   0.0379  0.7566  0.1579  11.00000  0.05    2.58
Q2    1  -0.3187  0.6751 -0.0146  11.00000  0.05    2.30
Q3    1   0.5349  0.7489  0.1462  11.00000  0.05    2.14
Q4    1   0.6303  0.8932  0.3597  11.00000  0.05    2.13
Q5    1  -0.0026  0.6063  0.0566  11.00000  0.05    2.12
Q6    1  -0.0271  0.6893  0.2714  11.00000  0.05    2.10
Q7    1  -0.0031  0.8821  0.1512  11.00000  0.05    2.08
Q8    1   0.4876  0.8120  0.1662  11.00000  0.05    2.08
Q9    1  -0.0334  0.8044  0.1433  11.00000  0.05    2.06
Q10   1   0.4782  0.6891  0.0409  11.00000  0.05    2.02
Q11   1   0.0367  0.7308  0.2627  11.00000  0.05    2.00
Q12   1   0.7751  0.6991  0.3202  11.00000  0.05    2.00
Q13   1   0.4467  0.7578  0.1304  11.00000  0.05    2.00
Q14   1   0.7699  0.8809  0.3557  11.00000  0.05    1.95
Q15   1   0.5283  0.6376  0.2375  11.00000  0.05    1.87
Q16   1   0.4403  0.6415  0.2468  11.00000  0.05    1.83
Q17   1   0.0052  0.7463  0.0221  11.00000  0.05    1.81
Q18   1   0.2480  0.9739  0.1556  11.00000  0.05    1.80
Q19   1  -0.0874  0.7542  0.1615  11.00000  0.05    1.77
Q20   1   0.1080  0.8677 -0.0488  11.00000  0.05    1.74
;
_shelx_res_checksum              95228
_shelx_hkl_file
;
  -2   0   0    3.21    0.62
  -2   0   0    2.40    0.66
   2   0   0    3.62    0.73
   3   0   0   47.61    3.98
  -3   0   0   51.06    4.11
  -3   0   0   46.65    3.99
  -4   0   0  896.51   70.14
  -4   0   0 1000.00   70.25
   4   0   0  916.76   70.08
  -5   0   0   11.90    2.01
   5   0   0   14.93    2.07
  -5   0   0   12.60    2.02
  -6   0   0    4.06    1.72
  -6   0   0    3.98    1.46
  -7   0   0   34.31    4.67
  -7   0   0   31.12    3.99
  -7   0   0   34.30    3.43
  -8   0   0   13.69    3.01
  -8   0   0   19.86    2.76
  -9   0   0    2.45    1.97
  -9   0   0   -0.54    1.48
 -10   0   0   -2.92    1.86
 -10   0   0   -1.01    1.65
  -1  -1   0  187.70   14.53
   1  -1   0  183.14   14.40
  -1  -1   0  194.88   14.60
  -1   1   0  189.56   14.49
   1   1   0  206.83   14.63
   1   1   0  195.82   14.50
  -2  -1   0    2.72    0.75
  -2  -1   0    2.53    0.77
   2   1   0    1.86    0.59
  -2   1   0    2.81    0.60
  -2   1   0    4.40    0.59
   2   1   0    3.63    0.75
  -3  -1   0  192.82   15.52
  -3  -1   0  209.94   15.66
  -3   1   0  201.39   15.49
  -3   1   0  202.07   15.37
   3   1   0  202.71   15.53
  -3   1   0  216.59   15.49
  -4  -1   0  286.08   20.06
  -4  -1   0  247.21   19.82
   4   1   0  254.57   19.81
  -4   1   0  266.39   19.85
  -4   1   0  250.32   19.62
  -5  -1   0   14.52    2.16
  -5  -1   0   12.40    2.12
  -5   1   0   13.38    2.06
   5   1   0   14.32    2.12
  -5   1   0   13.72    1.68
  -5   1   0   14.06    2.01
  -6  -1   0    0.40    1.68
  -6  -1   0    1.61    1.51
  -6   1   0    1.72    0.99
   6   1   0    3.97    1.59
  -6   1   0    1.14    1.49
  -6   1   0    2.38    1.64
  -7  -1   0   13.76    2.64
  -7  -1   0   15.84    3.09
  -7   1   0   20.73    3.13
  -7   1   0   14.94    2.85
  -7   1   0   20.19    2.52
  -8  -1   0   45.92    6.32
  -8   1   0   61.94    5.14
  -8   1   0   54.94    6.17
  -9  -1   0   -0.46    1.97
  -9  -1   0   -2.81    1.47
  -9   1   0   -0.48    1.78
  -9   1   0   -0.94    1.43
 -10  -1   0   -1.37    3.15
 -10  -1   0   -0.80    1.71
 -10   1   0    0.58    1.81
 -10   1   0   -1.13    1.53
   0  -2   0  399.08   28.29
   0  -2   0  355.55   28.30
   0   2   0  378.52   28.33
   1  -2   0    0.90    0.33
  -1  -2   0    0.50    0.60
  -1  -2   0    1.39    0.70
  -1   2   0    1.17    0.26
  -1   2   0    1.03    0.35
   1   2   0    1.33    0.58
   1   2   0   -0.44    0.59
   2  -2   0  114.83    8.07
  -2  -2   0   95.42    8.36
  -2  -2   0  100.95    8.22
  -2   2   0  118.48    8.07
   2   2   0  107.55    8.37
   2   2   0   99.39    8.24
  -3  -2   0    8.03    1.31
  -3  -2   0    6.66    1.28
   3   2   0    9.22    1.37
  -3   2   0    6.93    1.10
   3   2   0    8.37    1.31
  -3   2   0    7.31    0.96
  -4  -2   0  131.47   10.28
  -4  -2   0  117.85    9.99
  -4   2   0  133.23    9.91
   4   2   0  126.95   10.02
  -4   2   0  128.99    9.74
  -4   2   0  125.54   10.15
  -5  -2   0   -0.17    1.26
  -5  -2   0    0.69    1.20
  -5   2   0    0.70    0.75
   5   2   0    1.97    1.25
  -5   2   0   -0.29    1.01
  -5   2   0    0.42    1.03
  -6  -2   0    3.62    1.61
  -6  -2   0    1.58    1.76
  -6   2   0    5.32    1.67
  -6   2   0    3.89    1.65
  -6   2   0    3.37    1.07
   6   2   0    5.57    1.55
  -7  -2   0   12.81    3.04
  -7  -2   0    6.36    2.44
  -7   2   0   11.57    2.43
  -7   2   0    7.75    1.53
  -7   2   0    6.85    2.38
   7   2   0   10.35    2.16
  -8  -2   0    4.61    2.46
  -8   2   0    2.91    2.05
  -8   2   0    6.08    1.64
  -9  -2   0   -2.50    1.98
  -9   2   0    1.44    1.82
  -9   2   0    1.04    1.51
 -10  -2   0   -0.95    1.72
 -10  -2   0    4.04    2.26
 -10   2   0    4.02    1.86
 -10   2   0    1.70    1.69
   0  -3   0    0.28    0.88
   0  -3   0   -1.19    0.59
   0   3   0   -1.51    0.61
   0   3   0    0.01    1.01
   1  -3   0    1.04    0.56
  -1  -3   0    1.10    0.86
   1  -3   0    1.18    0.41
  -1  -3   0    0.51    0.77
  -1   3   0    0.85    0.56
   1   3   0   -0.55    0.72
   1   3   0   -0.55    0.80
  -1   3   0    1.12    0.41
   2  -3   0   13.60    1.31
  -2  -3   0   14.12    1.87
  -2  -3   0   10.87    1.64
  -2   3   0   14.63    1.33
   2   3   0   13.77    1.95
   2   3   0   12.05    1.74
  -2   3   0   13.62    1.17
  -3  -3   0    2.45    1.06
  -3  -3   0    2.69    1.00
   3   3   0    1.83    1.01
   3   3   0    2.26    0.99
  -3   3   0    2.35    0.74
  -4  -3   0    6.09    1.38
  -4  -3   0    3.30    1.48
  -4   3   0    5.58    0.97
  -4   3   0    3.74    0.83
  -4   3   0    5.73    1.29
   4   3   0    5.86    1.35
   4   3   0    7.57    1.64
  -5  -3   0    0.44    1.36
  -5  -3   0    1.89    1.25
   5   3   0    1.14    1.30
  -5   3   0    2.38    0.85
  -5   3   0    1.24    0.98
  -5   3   0    1.48    1.19
  -6  -3   0   22.68    3.49
  -6   3   0   21.52    3.20
  -6   3   0   21.25    2.95
  -6   3   0   22.18    2.47
   6   3   0   23.48    3.23
  -7  -3   0    1.87    2.27
  -7   3   0    2.12    1.67
  -7   3   0    2.79    1.29
  -7   3   0    0.82    1.64
   7   3   0    3.41    1.77
  -8  -3   0   -2.07    2.03
  -8   3   0    0.98    1.89
   8   3   0    4.00    1.98
  -8   3   0    1.19    1.36
  -9  -3   0    0.57    2.28
  -9   3   0    0.01    1.41
  -9   3   0    1.95    1.68
   0  -4   0  392.41   30.79
   0  -4   0  436.33   30.77
   0   4   0  405.91   30.74
   0   4   0  398.56   30.80
  -1  -4   0    1.97    0.87
  -1  -4   0    1.91    0.86
   1  -4   0    2.59    0.86
  -1  -4   0    3.09    1.10
   1  -4   0    2.20    0.65
  -1   4   0    2.96    0.63
  -1   4   0    2.65    0.87
   1   4   0    2.23    1.03
   1   4   0    2.20    1.05
  -2  -4   0  110.10    8.66
  -2  -4   0  106.86    8.43
   2  -4   0  113.77    8.26
  -2   4   0  105.73    8.25
   2   4   0  107.74    8.71
  -2   4   0   99.32    8.12
   2   4   0  110.44    8.52
  -3  -4   0    1.02    1.04
   3  -4   0    2.23    0.63
  -3   4   0    2.76    0.45
  -3   4   0    1.75    0.67
   3   4   0    2.31    1.12
   3   4   0    0.88    1.09
  -4  -4   0   45.08    4.08
  -4  -4   0   43.45    4.57
  -4   4   0   42.39    3.62
   4   4   0   44.32    5.50
   4   4   0   51.63    4.51
  -4   4   0   38.96    3.81
  -5  -4   0    0.42    1.29
  -5  -4   0   -1.06    1.42
  -5   4   0    3.07    1.28
   5   4   0    1.29    1.51
  -5   4   0    1.84    0.95
   5   4   0    1.52    1.50
  -5   4   0    1.69    0.83
  -6  -4   0   11.76    2.76
  -6  -4   0   13.25    2.44
  -6   4   0   13.04    1.97
   6   4   0   12.76    2.34
  -6   4   0   15.32    2.38
  -6   4   0   13.54    2.10
  -7  -4   0    1.76    1.94
  -7   4   0    1.35    1.61
   7   4   0    2.37    1.96
  -7   4   0    2.02    1.49
  -7   4   0    1.54    1.26
  -8  -4   0   -1.97    1.87
  -8   4   0    1.64    1.62
  -8   4   0    0.33    1.27
  -9  -4   0   -0.45    2.02
  -9   4   0    2.18    1.62
  -9   4   0    2.35    1.65
   0  -5   0    1.08    1.14
   0  -5   0   -0.16    0.76
   0   5   0   -0.58    1.14
   0   5   0    0.51    0.87
   1  -5   0   20.87    2.32
  -1  -5   0   20.16    2.34
  -1  -5   0   15.08    2.37
   1  -5   0   22.23    2.04
  -1   5   0   16.44    1.88
  -1   5   0   16.93    2.18
   1   5   0   15.80    2.43
   1   5   0   16.99    2.32
  -2  -5   0    4.98    1.56
   2  -5   0    8.00    1.16
  -2  -5   0    7.22    1.38
  -2   5   0    7.24    1.04
  -2   5   0    5.86    1.07
   2   5   0    4.43    1.45
   2   5   0    9.91    1.78
   3  -5   0   46.88    3.74
  -3  -5   0   44.04    4.41
  -3  -5   0   43.90    4.05
   3   5   0   49.17    4.27
   3   5   0   43.85    4.50
  -3   5   0   44.81    3.74
  -3   5   0   42.71    3.53
  -4  -5   0    2.93    1.43
  -4  -5   0    1.20    1.33
   4  -5   0    4.52    1.08
   4   5   0    3.90    1.71
  -4   5   0    3.41    0.87
  -4   5   0    3.78    0.60
  -4   5   0    5.37    1.54
   4   5   0    3.38    1.49
  -5  -5   0   -0.61    1.49
  -5  -5   0   -0.96    1.40
  -5   5   0    2.06    0.94
  -5   5   0    0.84    0.87
  -5   5   0    0.97    1.26
   5   5   0    1.46    1.61
   5   5   0    2.04    1.73
  -6  -5   0   17.06    3.06
  -6  -5   0   23.41    3.52
  -6   5   0   19.81    3.00
   6   5   0   31.71    3.68
  -6   5   0   20.10    2.76
  -6   5   0   23.28    2.56
  -7  -5   0    2.79    2.33
  -7   5   0    4.46    1.73
   7   5   0    5.09    2.15
  -7   5   0    3.99    1.56
  -7   5   0    3.05    1.34
  -8  -5   0    2.03    2.20
  -8   5   0    1.68    1.38
  -8   5   0    3.65    1.55
   8   5   0    3.53    2.18
  -9  -5   0    1.17    2.21
  -9   5   0    1.28    1.53
  -9   5   0    2.79    1.53
   0  -6   0   21.30    2.80
   0  -6   0   19.03    2.45
   0   6   0   18.08    2.38
   0   6   0   22.16    2.77
   1  -6   0    0.48    1.24
  -1  -6   0   -0.32    1.03
   1  -6   0   -0.25    0.84
  -1  -6   0    1.33    1.36
  -1   6   0    0.67    1.19
   1   6   0    0.91    1.07
  -1   6   0    0.23    0.72
   1   6   0    0.35    1.21
  -2  -6   0   57.45    5.17
  -2  -6   0   61.55    5.50
   2  -6   0   69.80    4.91
  -2  -6   0   67.47    5.37
  -2   6   0   54.39    5.04
   2   6   0   54.12    5.32
   2   6   0   58.88    5.63
  -3  -6   0   -0.43    1.87
  -3  -6   0    0.85    1.25
   3  -6   0    1.78    0.84
  -3   6   0    1.41    0.54
  -3   6   0    1.61    0.85
   3   6   0    0.46    1.26
   3   6   0    1.54    1.38
   4  -6   0   10.85    1.60
  -4  -6   0   11.40    2.13
  -4  -6   0    6.43    1.82
   4   6   0    9.67    2.12
  -4   6   0   11.75    1.20
   4   6   0    8.62    2.32
  -4   6   0    9.18    1.41
  -5  -6   0    1.08    1.55
  -5  -6   0   -1.04    1.46
   5   6   0    1.54    1.96
  -5   6   0    0.72    0.54
  -5   6   0    0.34    1.06
  -5   6   0    0.60    1.24
   5   6   0   -0.46    1.86
  -6  -6   0    5.22    2.25
  -6  -6   0   11.90    2.47
  -6   6   0    9.84    1.32
   6   6   0    9.03    2.58
  -6   6   0    8.16    1.53
  -6   6   0    8.25    1.93
  -7  -6   0    1.52    2.02
  -7   6   0    8.95    2.02
  -7   6   0    4.90    1.52
   7   6   0    5.21    2.43
  -7   6   0    6.87    1.51
  -8  -6   0    0.25    2.93
   8   6   0    0.84    2.17
  -8   6   0    1.79    1.49
  -8   6   0    2.76    1.27
  -9  -6   0    0.73    2.42
   9   6   0    0.82    2.80
  -9   6   0    0.57    1.60
  -9   6   0    3.33    1.28
   0  -7   0   -0.21    1.31
   0  -7   0   -0.82    1.09
   0   7   0    1.71    1.22
   0   7   0   -0.17    1.50
   0   7   0   -0.35    0.93
  -1  -7   0   -0.95    1.03
   1  -7   0   -2.82    2.64
  -1  -7   0    2.40    1.30
   1  -7   0   -0.53    0.95
  -1   7   0   -1.40    1.29
  -1   7   0    1.44    0.86
   1   7   0    1.36    1.11
   1   7   0    2.32    1.38
   2  -7   0    6.92    1.11
  -2  -7   0    6.50    1.76
  -2  -7   0    6.91    1.62
  -2   7   0    5.23    1.34
   2   7   0    3.62    1.60
   2   7   0    3.52    1.50
  -2   7   0    5.67    1.02
   3  -7   0    7.55    1.34
  -3  -7   0    3.10    1.64
  -3  -7   0    9.09    1.83
  -3  -7   0    7.26    1.85
   3   7   0    3.84    1.97
  -3   7   0    5.65    1.37
  -3   7   0    6.31    0.94
  -4  -7   0   45.75    4.61
  -4  -7   0   44.25    4.93
   4  -7   0   50.47    4.10
  -4   7   0   45.42    4.08
  -4   7   0   43.55    3.70
   4   7   0   46.36    5.35
   4   7   0   46.16    4.86
   5  -7   0    3.31    1.05
  -5  -7   0   -0.63    2.38
  -5  -7   0   -1.58    1.41
  -5   7   0    1.21    0.58
  -5   7   0    0.21    1.04
  -5   7   0    2.14    1.35
   5   7   0    3.19    2.20
   5   7   0    0.60    2.27
  -6  -7   0   11.45    2.98
   6   7   0   14.61    3.25
  -6   7   0   13.07    1.44
  -6   7   0   12.71    1.86
  -6   7   0   12.06    2.15
  -6   7   0   11.27    1.82
  -7  -7   0   -0.92    2.18
  -7   7   0    3.03    1.43
  -7   7   0    3.46    1.88
  -7   7   0    3.24    1.08
  -7   7   0    1.47    0.69
   7   7   0    0.60    2.15
  -8  -7   0   12.77    3.31
  -8   7   0   22.92    2.98
   8   7   0   19.51    3.86
  -9  -7   0    0.89    2.45
   9   7   0   -0.12    3.21
  -9   7   0   -1.43    1.63
   0  -8   0  309.72   23.72
   0  -8   0  338.88   23.65
   0   8   0  292.80   23.41
   0   8   0  288.32   23.56
  -1  -8   0    2.32    1.29
   1  -8   0    2.37    1.24
   1  -8   0    1.72    1.73
  -1  -8   0    3.52    1.49
  -1   8   0    0.96    1.47
   1   8   0    3.92    1.65
  -1   8   0    3.01    1.10
   1   8   0    1.70    1.28
  -2  -8   0   35.74    4.07
   2  -8   0   38.06    4.01
   2  -8   0   39.81    3.53
  -2  -8   0   33.80    3.88
  -2   8   0   30.33    3.72
   2   8   0   34.54    4.02
   2   8   0   41.78    4.31
  -2   8   0   40.12    3.44
  -3  -8   0    2.77    1.75
  -3  -8   0    3.89    1.74
   3  -8   0    5.44    1.47
  -3   8   0    4.58    0.97
   3   8   0    2.99    2.01
  -3   8   0    4.81    1.40
   3   8   0    3.96    1.89
  -4  -8   0   58.66    6.11
   4  -8   0   71.75    5.48
  -4  -8   0   61.56    5.79
  -4   8   0   57.62    4.99
  -4   8   0   63.34    5.73
   4   8   0   64.80    6.15
  -5  -8   0   -0.33    1.42
   5  -8   0    1.19    1.11
  -5  -8   0   -0.36    1.79
  -5   8   0    0.67    1.30
  -5   8   0    0.27    1.24
  -5   8   0    1.29    0.63
   5   8   0    0.86    2.09
  -6  -8   0    1.02    1.94
  -6   8   0    2.64    1.53
  -6   8   0    3.84    1.47
   6   8   0    2.67    2.54
  -7  -8   0   -1.79    2.55
   7   8   0   -1.27    3.38
  -7   8   0    1.08    1.37
  -7   8   0    0.20    1.63
  -8  -8   0    0.09    2.11
  -8   8   0    0.40    1.47
   8   8   0    4.39    3.30
   0  -9   0    0.86    1.78
   0  -9   0    0.01    1.31
   0   9   0    1.38    1.20
   0   9   0    3.45    1.56
   1  -9   0    8.15    1.84
  -1  -9   0   12.50    2.35
   1  -9   0    9.57    2.39
  -1  -9   0    7.27    1.80
  -1   9   0    9.72    2.88
   1   9   0   12.06    2.34
   1   9   0    9.52    1.89
  -1   9   0    9.51    2.26
  -2  -9   0   12.65    2.32
   2  -9   0   14.35    2.04
   2  -9   0   14.64    2.67
  -2  -9   0   13.87    2.44
  -2   9   0   16.16    2.22
   2   9   0   13.43    4.12
   2   9   0   17.17    2.61
  -2   9   0    9.85    2.17
   3  -9   0   -0.59    1.44
  -3  -9   0   -0.51    1.41
  -3  -9   0    2.55    1.96
  -3   9   0    0.37    0.83
   3   9   0   -0.22    1.77
   3   9   0    0.24    1.95
  -3   9   0   -2.18    1.29
   4  -9   0   13.04    2.08
  -4  -9   0   10.04    2.45
  -4   9   0    7.43    1.80
  -4   9   0   12.63    1.66
   4   9   0    8.97    2.86
   4   9   0    9.26    2.93
  -5  -9   0    4.43    2.31
   5  -9   0    7.18    1.67
  -5  -9   0    2.85    1.75
  -5   9   0    6.12    0.91
  -5   9   0    2.76    1.47
  -5   9   0    3.99    1.61
   5   9   0    5.05    2.60
  -6   9   0   18.32    2.68
   6   9   0   16.08    3.77
  -6   9   0   18.93    2.85
  -7  -9   0    0.68    2.21
   7   9   0   -1.04    2.57
  -7   9   0   -2.07    1.68
  -7   9   0   -1.40    1.37
  -8  -9   0    2.90    2.49
  -8   9   0    0.83    1.65
   8   9   0    0.05    2.78
   0 -10   0    0.09    1.46
   0 -10   0    3.09    1.76
   0  10   0    1.19    1.30
   0  10   0   -0.33    1.49
   1 -10   0   -1.43    1.32
   1 -10   0    3.38    2.11
  -1 -10   0    1.08    1.43
  -1 -10   0    3.33    1.89
   1  10   0    1.22    1.81
  -1  10   0    2.70    1.33
  -1  10   0   -0.29    1.84
   1  10   0    4.26    1.81
   2 -10   0   95.49    8.54
  -2 -10   0  106.66    8.97
   2 -10   0   95.86    9.06
  -2 -10   0   88.87    9.83
   2  10   0  119.79    9.05
   2  10   0  122.08    9.30
  -2  10   0   93.81    8.70
  -3 -10   0    5.24    1.91
   3 -10   0    0.89    1.87
  -3 -10   0    0.61    1.48
  -3  10   0    1.94    1.60
   3  10   0    3.12    2.20
   3  10   0    1.71    2.17
  -4 -10   0   -1.78    1.62
   4 -10   0    1.10    1.60
  -4  10   0    1.76    0.91
  -4  10   0    1.47    1.54
   4  10   0   -1.96    2.21
  -5 -10   0    4.83    2.05
   5 -10   0    6.17    1.83
  -5  10   0    7.33    1.86
   5  10   0    5.60    3.07
  -5  10   0    7.69    1.80
   6 -10   0   11.65    2.19
  -6 -10   0    4.82    2.19
   6  10   0    5.36    3.06
  -6  10   0    9.21    2.04
  -6  10   0    8.61    1.99
  -7 -10   0   -1.61    1.94
   7  10   0   -5.10    2.73
  -7  10   0   -0.04    1.61
  -7  10   0   -1.94    1.79
  -8 -10   0   -1.87    2.09
  -8  10   0   -0.83    1.73
   8  10   0   -1.85    3.06
   0 -11   0    2.10    1.96
   0 -11   0   -0.27    1.58
   0  11   0    1.37    1.61
   0  11   0    0.65    1.42
  -1 -11   0   16.65    2.87
   1 -11   0   29.43    4.06
  -1 -11   0   24.21    3.67
   1 -11   0   28.35    4.11
  -1  11   0   22.69    3.12
   1  11   0   27.28    3.65
  -1  11   0   22.92    3.13
   1  11   0   23.24    3.56
  -2 -11   0   11.45    2.57
   2 -11   0    6.60    1.94
  -2 -11   0   10.60    2.36
   2 -11   0   13.13    2.90
   2  11   0   13.11    2.81
  -2  11   0    9.92    2.42
   2  11   0    7.86    2.33
  -2  11   0   10.84    1.83
   3 -11   0   -2.58    1.86
  -3 -11   0   -0.02    1.56
  -3  11   0    2.54    1.19
  -3  11   0    0.35    1.70
   3  11   0   -0.90    2.13
   3  11   0   -2.14    2.64
  -4 -11   0    1.37    1.97
   4 -11   0    4.45    1.93
  -4  11   0    4.46    1.17
   4  11   0    2.31    2.49
  -4  11   0    0.15    1.59
  -5 -11   0    7.63    2.99
   5 -11   0   12.95    2.58
  -5  11   0    7.35    1.84
  -5  11   0    7.22    2.07
   5  11   0    9.80    3.33
   6 -11   0   11.67    2.54
  -6 -11   0    9.75    2.81
  -6  11   0    6.22    1.93
   6  11   0    4.68    3.32
  -6  11   0    5.93    1.96
  -7 -11   0   -2.10    1.73
  -7  11   0   -3.50    1.45
   7  11   0   -6.36    2.89
  -7  11   0   -3.55    1.75
   0 -12   0   14.93    2.73
   0 -12   0   21.05    3.23
   0  12   0   17.34    2.72
  -1 -12   0    4.97    2.09
   1 -12   0    1.55    1.68
  -1 -12   0    0.99    1.70
   1 -12   0    5.90    2.52
   1  12   0    2.29    1.90
  -1  12   0    1.61    1.58
   1  12   0    2.95    2.03
  -1  12   0    2.36    1.41
   2 -12   0   49.96    5.53
  -2 -12   0   39.35    4.97
   2  12   0   41.28    5.05
  -2  12   0   39.52    4.94
  -2  12   0   45.46    4.43
   2  12   0   43.22    5.28
  -3 -12   0   -0.27    1.53
  -3  12   0    2.01    1.29
   3  12   0    0.02    2.23
  -3  12   0    1.51    1.92
  -4 -12   0    3.45    2.13
   4 -12   0    2.53    2.31
   4  12   0    0.36    2.49
  -4  12   0   -0.53    1.67
  -4  12   0    4.94    1.32
  -5 -12   0    3.23    2.29
   5 -12   0    0.61    2.37
  -5  12   0    3.35    1.78
  -5  12   0    0.81    1.50
   5  12   0    0.40    2.70
  -6 -12   0    3.90    2.53
  -6  12   0    1.88    1.75
  -6  12   0    3.20    1.89
   6  12   0    6.15    3.61
  -7 -12   0    0.08    2.36
  -7  12   0   -0.77    1.74
  -7  12   0   -0.59    2.09
   7  12   0   -3.93    2.86
   0 -13   0   -0.43    1.75
   0  13   0    1.87    1.79
   0  13   0    2.32    2.20
  -1 -13   0    0.04    1.72
   1 -13   0   -1.01    1.77
  -1  13   0    1.72    2.29
   1  13   0   -0.32    1.57
  -1  13   0    0.94    1.52
   1  13   0   -0.53    1.88
   2 -13   0    5.83    3.26
  -2 -13   0   -0.12    1.81
  -2  13   0    0.89    1.41
  -2  13   0    0.86    1.69
   2  13   0    2.48    2.11
  -3 -13   0    2.48    1.80
   3 -13   0   -3.49    3.37
  -3  13   0    1.98    1.42
  -3  13   0    1.23    2.01
   3  13   0   -0.46    2.23
  -4 -13   0    2.44    2.25
  -4  13   0    0.57    1.93
  -4  13   0    1.65    1.35
   4  13   0   -0.65    2.36
  -5 -13   0    0.48    2.13
  -5  13   0   -0.44    1.78
  -5  13   0   -0.26    1.62
   5  13   0   -0.60    3.22
  -6 -13   0    0.96    2.22
  -6  13   0   -0.69    1.78
  -6  13   0   -2.49    1.77
   6  13   0   -4.11    2.89
   0 -14   0   15.00    2.83
   0  14   0   22.24    3.14
   0  14   0   13.20    2.74
  -1 -14   0    1.60    1.83
   1 -14   0   -0.22    1.82
   1  14   0   -0.19    1.95
  -1  14   0    0.37    1.70
  -2 -14   0   -0.14    1.86
   2 -14   0   -3.54    1.78
  -2  14   0    1.45    1.74
   2  14   0   -0.15    2.07
  -2  14   0   -0.36    1.53
  -3 -14   0    0.54    1.87
   3  14   0    0.95    2.39
  -3  14   0    4.24    2.26
  -3  14   0    0.54    1.52
  -4 -14   0    1.79    2.19
  -4  14   0    4.29    2.33
   4  14   0    3.25    2.71
  -5 -14   0    1.74    2.18
  -5  14   0    1.14    1.74
   5  14   0   -1.06    2.63
  -5  14   0    2.49    2.03
   0 -15   0   -0.67    1.91
   0  15   0   -0.19    1.87
   1 -15   0   -1.46    1.88
  -1 -15   0   -0.93    1.85
  -1  15   0    3.72    1.91
   1  15   0    3.28    2.24
  -1  15   0    0.91    1.88
   2 -15   0    0.01    2.10
  -2 -15   0   -1.38    1.80
   2  15   0    1.41    2.05
  -2  15   0   -1.30    1.88
  -2  15   0    3.08    1.74
  -3 -15   0   -0.23    2.00
  -3  15   0    0.98    1.59
   3  15   0   -2.19    2.20
  -4 -15   0    5.06    2.57
   4  15   0    6.23    2.90
  -4  15   0    7.68    4.04
   0 -16   0   12.90    2.83
   0  16   0   16.09    2.88
   1 -16   0   -4.71    1.87
  -1 -16   0   -0.63    1.94
  -1  16   0    3.86    1.91
   1  16   0   -0.22    1.92
  -2 -16   0   -1.01    1.88
   2  16   0    0.94    2.03
  -2  16   0    0.92    1.65
 -10   0   1    1.22    2.05
 -10   0   1   -2.43    1.54
  -9   0   1   -2.45    1.60
  -9   0   1   -1.49    1.54
  -8   0   1    7.05    1.63
  -8   0   1    3.02    2.04
  -7   0   1   -2.11    1.14
  -7   0   1    1.61    1.73
  -7   0   1    1.60    2.18
  -6   0   1    0.79    1.77
  -5   0   1   -0.75    1.05
  -5   0   1   -0.77    1.23
   3   0  -1    2.06    0.76
  -3   0   1    1.87    0.77
  -3   0   1   -1.36    0.82
  -2   0   1    0.82    0.58
  -2   0   1    1.25    0.68
   2   0  -1    0.79    0.44
   1   0   1   -0.45    0.35
   3   0   1    2.71    0.79
  -3   0  -1    2.44    0.74
  -3   0  -1    1.69    0.83
   4   0   1    4.11    1.01
  -4   0  -1    0.62    1.01
  -4   0  -1    1.63    1.10
  -5   0  -1    0.20    1.14
   5   0   1    0.09    1.00
  -5   0  -1    0.79    1.04
  -6   0  -1   -1.07    2.18
   6   0   1    2.50    1.26
  -6   0  -1    3.23    1.61
  -7   0  -1    1.12    1.87
  -7   0  -1    0.25    1.26
  -7   0  -1    0.61    1.90
  -8   0  -1   -0.67    1.97
  -8   0  -1    1.42    1.37
  -9   0  -1   -1.09    1.50
 -10   0  -1   -1.53    1.81
 -10   0  -1    0.95    1.78
 -10  -1   1    3.14    2.28
 -10  -1   1   -0.38    1.63
 -10   1   1    0.73    1.98
 -10   1   1    2.17    1.94
  -9  -1   1    0.33    1.93
  -9  -1   1   -1.04    1.48
  -9   1   1    0.97    1.88
  -9   1   1    0.63    1.49
  -8  -1   1    2.31    2.25
  -8  -1   1    0.75    1.43
  -8   1   1    3.56    1.44
  -8   1   1    1.35    2.05
  -7  -1   1   13.55    2.49
  -7  -1   1    8.07    2.61
  -7   1   1   10.09    1.71
  -7   1   1    6.56    2.57
  -7   1   1   11.06    2.41
  -6  -1   1    3.05    2.01
  -6  -1   1    8.80    2.02
  -6   1   1    3.76    1.86
  -6   1   1    7.56    1.85
  -6   1   1    6.25    1.29
  -5  -1   1    0.98    1.22
  -5  -1   1    0.02    1.48
  -5   1   1   -1.16    1.18
  -5   1   1    0.42    1.18
   5   1  -1    0.38    1.16
  -5   1   1    0.06    0.68
  -4  -1   1    3.50    1.29
  -4  -1   1   -0.07    1.38
   4   1  -1    4.89    1.24
  -4   1   1    1.17    1.14
  -4   1   1    4.30    1.36
  -4   1   1    3.74    0.79
   4   1  -1    5.08    1.05
  -3  -1   1   28.16    2.46
  -3  -1   1   21.92    2.82
  -3   1   1   32.80    2.46
  -3   1   1   19.09    2.53
  -2  -1   1   15.56    1.94
  -2  -1   1   14.85    1.55
   2   1  -1   16.36    1.58
   2   1  -1   15.27    1.75
  -2   1   1   15.33    1.54
  -2   1   1   15.66    1.50
  -2   1   1   15.46    1.38
   1  -1  -1    0.23    0.23
  -1  -1   1    0.39    0.36
  -1  -1   1   -0.06    0.52
   1   1  -1    0.31    0.54
  -1   1   1    0.47    0.24
   1   1  -1    0.31    0.34
  -1  -1  -1    2.17    0.59
   1  -1   1    2.28    0.36
   1  -1   1    1.74    0.24
  -1  -1  -1    1.90    0.45
  -1   1  -1    2.12    0.27
  -1   1  -1    2.05    0.44
   1   1   1    1.75    0.60
   2  -1   1  156.26   11.64
  -2  -1  -1  152.84   11.74
  -2  -1  -1  151.58   11.75
   2   1   1  155.73   11.75
  -2   1  -1  154.39   11.67
   3  -1   1    3.44    0.75
  -3  -1  -1    1.41    0.98
  -3  -1  -1    2.06    0.76
  -3   1  -1    3.75    0.83
   3   1   1    5.37    1.08
  -4  -1  -1   13.22    2.16
   4  -1   1   21.00    2.04
  -4  -1  -1   14.88    2.37
  -4   1  -1   16.18    2.21
   4   1   1   19.41    2.15
  -5  -1  -1    2.24    1.23
  -5  -1  -1    1.68    1.21
  -5   1  -1    3.24    1.17
   5   1   1    3.42    1.22
  -5   1  -1    2.12    1.24
  -5   1  -1    2.94    0.86
  -6  -1  -1   14.47    2.48
  -6  -1  -1   12.45    2.31
  -6   1  -1   17.65    2.66
   6   1   1   19.44    2.65
  -6   1  -1   15.51    2.39
  -6   1  -1   15.07    2.04
  -7  -1  -1    0.57    1.86
  -7  -1  -1   -1.47    1.64
  -7   1  -1    1.28    1.21
  -7   1  -1   -0.92    1.64
   7   1   1    3.40    1.57
  -7   1  -1    1.95    1.75
  -8  -1  -1    9.31    2.70
  -8   1  -1    9.33    2.58
  -8   1  -1   11.94    1.92
  -9  -1  -1    0.42    1.86
  -9  -1  -1   -0.83    1.42
  -9   1  -1    0.35    1.82
  -9   1  -1    0.28    1.37
 -10  -1  -1   -1.99    1.65
 -10  -1  -1   -0.79    2.19
 -10   1  -1   -1.05    1.77
 -10   1  -1   -0.04    1.54
 -10  -2   1    5.24    2.42
 -10  -2   1   -0.29    1.80
 -10   2   1    2.85    1.77
 -10   2   1    1.03    1.72
  -9  -2   1    1.29    2.88
  -9  -2   1   -1.89    1.84
  -9   2   1    0.01    1.50
  -9   2   1    3.41    1.88
  -8  -2   1    6.97    2.90
  -8   2   1    5.17    1.52
  -8   2   1    4.65    2.01
  -7  -2   1   -2.20    2.05
  -7  -2   1    1.28    1.99
  -7   2   1    3.31    1.77
  -7   2   1    2.19    1.30
  -7   2   1    0.17    1.76
  -6  -2   1   41.17    4.23
  -6  -2   1   41.91    5.05
   6   2  -1   49.10    4.28
  -6   2   1   39.60    4.12
  -6   2   1   39.68    3.70
  -6   2   1   33.87    4.50
  -5  -2   1   -1.12    1.34
  -5  -2   1    0.42    1.10
  -5   2   1   -0.03    1.12
   5   2  -1    2.17    1.34
  -5   2   1    0.12    0.70
  -5   2   1   -0.45    1.11
  -4  -2   1   70.17    6.45
  -4  -2   1   71.63    5.99
   4   2  -1   78.75    6.67
   4   2  -1   80.96    6.05
  -4   2   1   74.27    5.74
  -4   2   1   63.56    6.33
  -4   2   1   70.08    6.00
  -3  -2   1    5.80    1.10
  -3  -2   1    2.62    1.15
  -3   2   1    6.71    1.15
  -3   2   1    5.12    0.75
  -3   2   1    6.08    0.89
   3   2  -1    4.64    1.07
   3   2  -1    5.69    1.16
   2  -2  -1  362.91   27.01
  -2  -2   1  347.93   27.32
  -2  -2   1  359.65   27.11
   2   2  -1  361.26   27.29
   2   2  -1  376.89   27.14
  -2   2   1  358.56   27.01
  -1  -2   1    4.54    0.71
   1  -2  -1    3.89    0.56
   1  -2  -1    4.54    0.43
  -1  -2   1    3.98    0.98
  -1   2   1    3.00    0.43
   1   2  -1    2.42    0.75
  -1   2   1    4.04    0.57
   1   2  -1    5.47    0.78
   0  -2   1   10.56    1.23
   0  -2  -1   10.34    1.10
   0  -2   1   11.85    1.25
   0  -2  -1   10.30    1.39
   0   2   1   13.31    1.51
   0   2   1   11.72    1.18
   0   2  -1    8.96    1.01
   0   2  -1   10.29    1.20
   1  -2   1    0.56    0.28
  -1  -2  -1    0.51    0.69
  -1  -2  -1    0.05    0.46
  -1   2  -1   -0.08    0.29
   1   2   1    0.50    0.73
   1   2   1    0.05    0.48
  -1   2  -1    0.08    0.25
  -2  -2  -1  138.26   10.84
   2  -2   1  134.09   10.60
  -2  -2  -1  145.29   10.87
   2   2   1  144.66   10.87
  -2   2  -1  131.61   10.67
   2   2   1  157.78   10.92
  -2   2  -1  138.76   10.61
  -3  -2  -1    1.62    0.92
  -3  -2  -1    1.02    0.85
  -3   2  -1    1.19    0.70
  -3   2  -1    0.93    0.43
   3   2   1    2.02    0.95
  -4  -2  -1    6.98    1.46
  -4  -2  -1    7.68    1.60
   4   2   1    9.63    1.60
  -4   2  -1    9.55    1.19
  -4   2  -1   10.27    1.53
  -5  -2  -1    5.43    1.58
  -5  -2  -1    6.93    2.92
  -5   2  -1    5.55    1.28
  -5   2  -1    5.65    1.03
  -5   2  -1    5.91    1.55
   5   2   1    5.48    1.44
  -6  -2  -1   -0.11    1.51
  -6  -2  -1    1.20    1.77
   6   2   1    3.47    1.68
  -6   2  -1    2.03    1.55
  -6   2  -1   -0.19    1.08
  -6   2  -1   -0.60    1.21
  -7  -2  -1   10.16    3.36
  -7  -2  -1    8.80    2.44
  -7   2  -1    7.56    2.08
  -7   2  -1    6.97    1.55
   7   2   1   10.11    2.06
  -7   2  -1    6.08    2.03
  -8  -2  -1    0.17    2.09
  -8   2  -1    1.71    1.86
  -8   2  -1    2.88    1.41
  -9  -2  -1    1.49    2.22
  -9   2  -1    1.00    1.96
  -9   2  -1    2.54    1.58
 -10  -2  -1    3.07    2.45
 -10  -2  -1   -0.66    1.59
 -10   2  -1    1.63    1.72
 -10   2  -1    3.32    1.96
 -10  -3   1    1.83    2.03
 -10  -3   1    1.58    2.41
 -10   3   1    1.43    1.72
 -10   3   1    2.90    1.94
  -9  -3   1   -0.32    2.32
  -9   3   1    1.60    1.52
  -9   3   1    3.77    1.77
  -8  -3   1   -1.12    2.33
  -8   3   1   -0.10    1.41
  -8   3   1    3.60    2.83
  -7  -3   1   27.29    4.17
  -7   3   1   23.32    3.34
   7   3  -1   26.20    3.52
  -7   3   1   19.61    3.01
  -7   3   1   21.82    2.73
  -6  -3   1   -2.74    1.63
  -6  -3   1   -0.42    2.18
  -6   3   1    0.70    1.01
  -6   3   1    0.59    1.45
  -6   3   1    0.63    1.40
   6   3  -1    1.74    1.51
  -5  -3   1   -0.64    1.07
  -5  -3   1   -1.43    1.32
   5   3  -1    1.32    1.29
  -5   3   1   -0.37    1.05
  -5   3   1    0.57    1.10
  -5   3   1    0.64    0.74
   5   3  -1    1.12    1.19
  -4  -3   1   -0.68    1.00
  -4  -3   1   -2.69    1.31
  -4   3   1   -0.04    0.71
   4   3  -1    1.41    1.07
   4   3  -1    1.18    1.04
  -4   3   1   -0.43    1.52
  -4   3   1   -0.15    0.57
  -3  -3   1   29.50    3.47
   3  -3  -1   31.58    2.74
  -3  -3   1   32.02    3.02
  -3   3   1   36.34    2.71
   3   3  -1   33.23    3.36
   3   3  -1   33.98    3.13
  -3   3   1   31.31    2.74
  -2  -3   1   16.94    2.39
   2  -3  -1   19.86    1.73
  -2  -3   1   17.69    1.90
  -2   3   1   19.09    1.49
   2   3  -1   14.39    2.28
  -2   3   1   20.34    1.75
   2   3  -1   20.51    2.02
  -1  -3   1   17.30    1.73
   1  -3  -1   17.49    1.54
  -1  -3   1   15.81    2.10
   1  -3  -1   19.69    1.71
   1   3  -1   15.00    1.79
  -1   3   1   18.60    1.71
   1   3  -1   16.51    2.07
  -1   3   1   15.97    1.58
   0  -3   1    1.90    0.89
   0  -3  -1    5.87    1.15
   0  -3  -1    2.81    0.77
   0  -3   1    4.59    0.92
   0   3   1    3.63    0.83
   0   3  -1    2.48    0.79
   0   3  -1    0.92    0.69
  -1  -3  -1    7.51    1.17
  -1  -3  -1    5.44    1.01
   1  -3   1    5.37    0.85
   1  -3   1    5.14    0.77
  -1  -3  -1    2.48    1.06
  -1   3  -1    5.91    0.84
   1   3   1    4.34    0.90
   1   3   1    5.67    1.30
  -1   3  -1    5.13    0.79
  -2  -3  -1   56.24    4.92
   2  -3   1   57.29    4.61
  -2  -3  -1   61.18    4.99
  -2   3  -1   57.77    4.62
   2   3   1   58.47    4.98
   2   3   1   70.36    5.10
  -3  -3  -1    5.20    1.33
  -3  -3  -1    4.14    1.16
   3   3   1    6.59    1.46
  -3   3  -1    4.78    0.71
  -3   3  -1    5.02    0.95
   3   3   1    5.20    1.14
  -4  -3  -1   19.56    2.39
  -4  -3  -1   13.79    2.17
  -4   3  -1   19.38    1.75
   4   3   1   19.96    2.42
  -4   3  -1   15.87    2.07
  -5  -3  -1    4.02    1.66
  -5  -3  -1    3.49    1.56
  -5   3  -1    3.30    1.24
   5   3   1    6.70    1.74
  -5   3  -1    2.89    0.90
  -5   3  -1    5.76    1.18
  -6  -3  -1    5.18    1.91
  -6   3  -1    6.73    1.78
  -7  -3  -1   -1.25    1.85
   7   3   1    0.91    1.62
  -7   3  -1    2.73    1.82
  -7   3  -1   -0.65    1.44
  -7   3  -1    0.58    1.15
  -8  -3  -1    9.98    2.89
  -8   3  -1    9.27    2.38
  -8   3  -1   12.29    1.98
   8   3   1   12.49    2.60
  -9  -3  -1    1.76    2.65
  -9   3  -1    1.58    1.50
  -9   3  -1    4.10    2.01
  -9  -4   1   -1.44    2.79
  -9   4   1   -0.70    1.47
  -8  -4   1   -0.45    2.48
  -8   4   1    2.88    1.53
  -8   4   1    3.51    1.52
  -7  -4   1    0.98    2.27
  -7   4   1    4.34    1.92
   7   4  -1    2.97    2.01
  -7   4   1    2.76    1.31
  -7   4   1    2.44    1.44
  -6  -4   1    6.64    2.10
  -6  -4   1    3.53    2.36
  -6   4   1    7.54    1.67
  -6   4   1   10.86    2.04
   6   4  -1    8.65    2.12
  -6   4   1    8.72    1.43
  -5  -4   1    1.87    1.43
  -5  -4   1    0.61    1.79
  -5   4   1    3.66    0.98
   5   4  -1    2.17    1.41
  -5   4   1    2.90    1.10
  -5   4   1    1.89    1.31
   5   4  -1    1.41    1.50
  -4  -4   1   47.70    4.53
  -4  -4   1   44.89    5.09
   4  -4  -1   48.31    4.76
  -4   4   1   50.24    4.59
  -4   4   1   56.62    4.24
  -4   4   1   52.61    4.23
   4   4  -1   58.24    5.01
   4   4  -1   50.56    4.92
  -3  -4   1   -1.81    1.08
   3  -4  -1    1.11    0.64
  -3  -4   1    0.14    1.28
  -3   4   1    1.00    0.29
   3   4  -1   -0.51    1.01
   3   4  -1   -1.19    1.00
  -3   4   1    0.25    0.59
  -2  -4   1   30.94    3.46
  -2  -4   1   34.73    3.04
   2  -4  -1   38.26    2.92
   2   4  -1   28.59    3.43
  -2   4   1   39.77    2.92
   2   4  -1   34.16    3.14
  -2   4   1   30.19    2.69
  -1  -4   1    0.24    0.78
   1  -4  -1    0.13    0.57
   1  -4  -1   -0.45    0.67
  -1  -4   1   -0.62    0.67
   1   4  -1   -0.31    0.74
   1   4  -1    0.67    0.95
  -1   4   1    1.13    0.61
  -1   4   1    1.21    0.81
   0  -4  -1   77.18    6.02
   0  -4   1   85.10    6.14
   0  -4  -1   76.46    6.24
   0  -4   1   71.05    6.09
   0   4  -1   72.67    6.02
   0   4  -1   71.90    5.91
   0   4   1   76.98    6.10
   0   4   1   70.99    6.20
  -1  -4  -1    2.34    0.87
   1  -4   1    3.23    0.70
   1  -4   1    2.54    0.86
  -1  -4  -1    2.88    1.13
   1   4   1    2.89    1.17
  -1   4  -1    1.85    0.87
   1   4   1    2.24    0.95
  -1   4  -1    2.68    0.60
   2  -4   1   15.69    1.48
  -2  -4  -1   12.88    1.95
  -2  -4  -1   12.48    2.03
   2   4   1   14.98    2.31
   2   4   1   13.34    2.13
  -2   4  -1   15.12    1.40
  -2   4  -1   15.57    1.55
  -3  -4  -1   18.34    2.29
   3  -4   1   18.94    1.71
  -3  -4  -1   15.58    2.45
   3   4   1   17.37    2.43
  -3   4  -1   18.33    1.88
   3   4   1   20.20    2.61
  -3   4  -1   17.82    1.75
  -4  -4  -1    8.37    1.74
  -4   4  -1    6.83    1.01
   4   4   1    5.30    2.54
  -4   4  -1    6.40    1.27
   4   4   1    6.51    1.59
  -5  -4  -1    1.57    1.41
  -5  -4  -1    4.71    1.74
  -5   4  -1    4.71    0.96
   5   4   1    4.79    1.71
  -5   4  -1    3.15    1.38
  -6  -4  -1    4.89    2.01
  -6  -4  -1    0.30    1.87
   6   4   1    2.12    1.71
  -6   4  -1    0.43    1.63
  -6   4  -1    1.55    1.43
  -6   4  -1    1.78    1.21
  -7  -4  -1    1.99    2.18
  -7   4  -1    3.89    1.93
  -7   4  -1    0.71    1.44
  -7   4  -1    2.97    1.23
   7   4   1    5.06    2.25
  -8  -4  -1   -1.08    2.15
  -8   4  -1    1.13    1.67
  -8   4  -1    0.24    1.27
  -9  -4  -1   -1.22    2.08
  -9   4  -1   -0.34    1.46
  -9   4  -1    1.56    1.73
  -9  -5   1    0.59    2.48
  -9   5   1    0.82    1.64
  -9   5   1    1.78    1.34
  -8  -5   1   -2.11    2.20
   8   5  -1    3.37    2.39
  -8   5   1    2.58    1.19
  -8   5   1    0.62    1.38
  -7  -5   1    0.09    2.06
  -7   5   1    4.71    1.45
  -7   5   1    6.56    1.48
   7   5  -1    5.10    2.25
  -7   5   1    5.34    1.81
  -6  -5   1   15.68    2.80
  -6  -5   1   10.68    2.73
   6   5  -1   17.24    2.94
  -6   5   1   14.24    2.17
  -6   5   1   17.81    2.35
  -6   5   1   17.41    2.58
   6   5  -1   13.36    3.07
  -5  -5   1    3.47    1.97
  -5  -5   1    9.70    2.14
  -5   5   1    6.96    1.26
  -5   5   1    6.98    1.57
   5   5  -1    8.80    2.15
   5   5  -1    5.71    1.90
  -5   5   1    7.51    1.53
  -4  -5   1    1.77    1.25
  -4  -5   1    1.12    1.63
   4  -5  -1    2.01    0.79
  -4   5   1    1.72    0.86
   4   5  -1    3.45    1.64
  -4   5   1    2.28    0.44
   4   5  -1    1.79    1.46
  -3  -5   1    9.94    2.05
  -3  -5   1   13.62    1.95
   3  -5  -1   13.51    1.58
  -3   5   1   12.45    1.19
   3   5  -1   10.63    1.82
  -3   5   1   15.13    1.67
  -2  -5   1   12.14    1.79
  -2  -5   1   12.38    2.06
   2  -5  -1   13.28    1.65
  -2   5   1   13.52    1.65
   2   5  -1    8.59    1.82
  -2   5   1   11.28    1.34
   2   5  -1   13.78    1.98
   1  -5  -1   55.20    4.65
  -1  -5   1   52.85    4.78
   1  -5  -1   52.26    4.39
  -1  -5   1   51.12    4.56
   1   5  -1   53.97    4.51
  -1   5   1   54.46    4.41
  -1   5   1   47.70    4.49
   1   5  -1   57.42    4.76
   0  -5   1    2.22    1.20
   0  -5  -1   -0.61    0.71
   0  -5  -1    1.80    1.24
   0  -5   1    0.83    0.92
   0   5  -1    2.44    0.97
   0   5   1    0.05    0.82
   0   5  -1    0.89    0.73
   0   5   1    1.79    1.35
   1  -5   1    6.08    1.33
  -1  -5  -1    4.83    1.12
  -1  -5  -1    6.38    1.48
   1  -5   1    7.78    1.11
  -1   5  -1    4.87    1.24
   1   5   1    4.67    1.31
   1   5   1    6.91    1.53
  -1   5  -1    4.93    0.90
  -2  -5  -1  120.60   10.20
  -2  -5  -1  129.92   10.38
   2  -5   1  143.69   10.05
  -2   5  -1  130.78    9.92
  -2   5  -1  126.81   10.03
   2   5   1  130.01   10.38
  -3  -5  -1   39.46    3.91
  -3  -5  -1   40.69    4.08
   3  -5   1   44.27    3.44
   3   5   1   40.73    4.05
   3   5   1   43.35    4.31
  -3   5  -1   38.54    3.31
  -3   5  -1   42.05    3.46
  -4  -5  -1    7.40    1.72
   4  -5   1    9.72    1.26
  -4  -5  -1    5.28    1.82
  -4   5  -1    8.47    1.08
  -4   5  -1    6.49    1.10
   4   5   1    7.78    1.92
   4   5   1    8.21    2.01
  -4   5  -1    7.17    1.35
  -5  -5  -1    0.76    1.64
  -5  -5  -1    0.73    1.56
  -5   5  -1    1.83    1.21
  -5   5  -1    0.54    0.83
   5   5   1    2.24    1.78
  -6  -5  -1   39.60    5.33
  -6   5  -1   48.95    4.22
  -6   5  -1   50.82    4.44
  -6   5  -1   44.09    4.61
   6   5   1   51.75    5.17
  -7  -5  -1    1.07    1.75
  -7   5  -1    1.75    2.08
  -7   5  -1    4.87    1.37
   7   5   1    4.30    1.98
  -7   5  -1    0.64    1.35
  -8  -5  -1    0.94    2.02
  -8   5  -1    2.18    1.61
   8   5   1    2.81    2.57
  -8   5  -1    2.56    1.41
  -9  -5  -1   -0.52    2.10
   9   5   1    2.63    2.71
  -9   5  -1    0.78    1.52
  -9   5  -1   -0.08    1.49
  -9  -6   1    2.33    2.62
  -9   6   1    0.42    1.66
  -9   6   1   -0.59    0.72
  -8   6   1    1.74    1.49
  -8   6   1   -0.42    0.68
   8   6  -1    3.74    2.63
  -8   6   1    1.10    0.90
  -7  -6   1   -1.19    2.03
   7   6  -1    2.40    2.38
  -7   6   1    1.73    0.64
  -7   6   1    3.95    1.00
  -7   6   1    2.73    1.69
  -7   6   1    2.06    1.36
  -6  -6   1   68.00    6.24
  -6  -6   1   56.64    6.81
  -6   6   1   73.95    5.44
   6   6  -1   71.68    6.55
  -6   6   1   67.98    5.68
  -6   6   1   62.45    5.92
  -6   6   1   61.88    5.13
   6   6  -1   70.90    7.17
  -5  -6   1   -1.68    1.36
   5  -6  -1    0.44    0.94
  -5  -6   1    2.86    1.70
  -5   6   1   -0.33    0.96
  -5   6   1    0.36    0.75
   5   6  -1    1.34    1.94
  -5   6   1    1.59    0.45
  -5   6   1   -0.14    1.16
   5   6  -1    0.95    1.69
  -4  -6   1   -0.31    1.59
  -4  -6   1    0.99    1.35
   4  -6  -1    0.92    0.83
   4   6  -1   -0.52    1.47
  -4   6   1    1.59    0.44
   4   6  -1    0.68    1.50
  -4   6   1    0.40    0.88
  -3  -6   1    2.68    1.77
   3  -6  -1    4.77    1.23
  -3  -6   1    6.03    1.48
  -3   6   1    3.28    0.65
   3   6  -1    5.64    1.78
  -3   6   1    3.87    1.08
   3   6  -1    2.16    1.42
   2  -6  -1  289.08   20.96
  -2  -6   1  274.42   21.51
  -2  -6   1  255.06   21.13
   2  -6  -1  299.94   21.24
  -2   6   1  254.57   21.10
  -2   6   1  285.60   21.02
   2   6  -1  282.78   21.31
   2   6  -1  287.09   21.57
   1  -6  -1    3.93    1.44
   1  -6  -1    2.31    0.95
  -1  -6   1    3.45    1.31
  -1  -6   1    1.68    1.23
   1   6  -1    2.47    1.24
  -1   6   1    0.05    1.14
   1   6  -1    2.18    1.05
  -1   6   1    2.40    0.91
   0  -6   1    7.63    1.67
   0  -6  -1    5.77    1.71
   0  -6  -1    5.47    1.21
   0  -6   1    6.47    1.40
   0   6  -1    8.65    1.44
   0   6  -1    5.62    1.14
   0   6   1    7.83    1.86
   0   6   1    6.20    1.38
   1  -6   1   -0.50    0.82
   1  -6   1   -0.49    1.13
  -1  -6  -1    0.66    1.40
  -1  -6  -1   -1.04    0.94
  -1   6  -1    0.10    1.11
  -1   6  -1    0.25    0.64
   1   6   1   -0.72    1.11
   1   6   1    1.25    1.37
  -2  -6  -1   89.04    7.50
  -2  -6  -1   83.37    7.44
   2  -6   1  103.71    7.27
   2   6   1   89.92    7.56
  -2   6  -1   85.38    7.17
  -2   6  -1   83.27    7.00
   2   6   1   97.97    7.79
  -3  -6  -1   10.43    1.99
  -3  -6  -1    9.11    2.26
   3  -6   1   11.68    1.51
   3   6   1   11.88    2.31
  -3   6  -1   11.61    1.32
  -3   6  -1    8.52    1.36
   3   6   1   10.38    2.29
  -4  -6  -1   11.31    2.08
  -4  -6  -1    6.80    1.68
   4  -6   1    9.13    1.66
  -4   6  -1    8.54    1.28
   4   6   1   11.73    2.36
  -4   6  -1    8.86    1.23
  -4   6  -1   10.30    1.56
   4   6   1    6.20    2.10
  -5  -6  -1    2.53    1.92
  -5  -6  -1   -0.82    1.65
   5   6   1    1.51    1.82
  -5   6  -1    2.69    0.68
  -5   6  -1    1.13    1.27
  -5   6  -1    2.11    1.01
  -6  -6  -1   -0.32    1.67
  -6  -6  -1    2.93    2.37
  -6   6  -1    2.78    1.17
   6   6   1    3.81    2.21
  -6   6  -1    0.43    1.05
  -6   6  -1    3.03    1.53
  -6   6  -1    2.46    0.78
  -7  -6  -1    5.44    2.38
   7   6   1    6.37    2.36
  -7   6  -1    7.19    1.64
  -7   6  -1    7.56    3.37
  -7   6  -1    9.14    1.65
  -8  -6  -1   -1.73    2.28
  -8   6  -1    1.83    1.46
  -8   6  -1    0.57    1.37
   8   6   1    3.26    2.68
  -9  -6  -1   -0.59    2.24
  -9   6  -1    2.47    1.43
   9   6   1    2.50    3.01
  -9   6  -1    1.26    1.68
  -9  -7   1   -0.03    2.57
  -9   7   1    2.51    1.82
  -8  -7   1   -0.79    2.02
   8   7  -1    5.16    2.77
  -8   7   1    2.25    1.56
  -7  -7   1   -0.07    2.08
   7   7  -1   -0.06    2.15
  -7   7   1   -0.59    1.30
  -7   7   1    1.28    1.70
  -6  -7   1   -0.04    1.78
   6   7  -1    4.76    2.49
  -6   7   1    9.85    1.94
  -6   7   1    6.44    1.59
   5  -7  -1   12.18    1.75
  -5  -7   1    6.57    2.23
  -5   7   1   10.37    1.94
  -5   7   1    7.83    1.56
   5   7  -1   10.13    2.43
   5   7  -1    8.28    2.72
  -4  -7   1   -0.56    1.53
  -4  -7   1    2.48    1.53
   4  -7  -1    1.09    1.03
   4   7  -1   -0.03    1.68
  -4   7   1    1.84    0.56
  -4   7   1    1.88    1.31
   4   7  -1    0.74    1.63
  -3  -7   1    1.74    1.50
  -3  -7   1    5.03    1.46
   3  -7  -1    3.49    1.15
   3   7  -1    3.04    1.57
   3   7  -1    2.55    1.66
  -3   7   1    4.83    0.88
  -3   7   1    4.23    1.20
   2  -7  -1   17.15    2.54
  -2  -7   1   17.89    2.58
   2  -7  -1   17.37    2.03
  -2  -7   1   17.06    2.66
   2   7  -1   20.43    3.00
  -2   7   1   14.70    2.36
   2   7  -1   19.57    2.61
  -2   7   1   19.73    2.13
   1  -7  -1    1.03    1.03
  -1  -7   1    1.79    1.31
  -1  -7   1    1.44    1.14
   1  -7  -1    0.33    1.44
  -1   7   1    0.02    1.19
   1   7  -1    0.91    1.23
   1   7  -1    2.00    1.26
  -1   7   1    1.79    0.97
   0  -7  -1   -0.89    0.99
   0  -7  -1    2.19    1.49
   0  -7   1    0.91    1.08
   0   7  -1    1.56    1.06
   0   7  -1    1.69    1.14
   0   7   1    1.30    1.12
   0   7   1    1.75    1.64
   1  -7   1   16.10    2.41
   1  -7   1   19.77    2.64
  -1  -7  -1   20.91    2.53
  -1  -7  -1   15.93    2.44
  -1   7  -1   18.55    2.53
  -1   7  -1   16.05    2.10
   1   7   1   22.60    2.76
   1   7   1   17.21    2.45
  -2  -7  -1   50.87    4.96
   2  -7   1   61.13    4.56
   2  -7   1   59.57    4.81
  -2  -7  -1   49.53    4.92
  -2   7  -1   49.66    4.38
   2   7   1   49.70    5.02
  -2   7  -1   46.63    4.65
   2   7   1   58.38    5.36
  -3  -7  -1    1.78    1.39
   3  -7   1    1.65    1.13
  -3  -7  -1    0.98    1.16
  -3  -7  -1    0.19    1.40
   3   7   1   -1.01    1.48
   3   7   1    0.06    1.48
  -3   7  -1    0.95    0.62
  -3   7  -1    0.34    0.98
   4  -7   1    3.81    1.05
  -4  -7  -1    5.26    1.96
  -4  -7  -1    2.35    1.65
   4   7   1   -0.13    1.95
  -4   7  -1    2.50    0.68
  -4   7  -1    2.78    1.13
  -4   7  -1    3.57    1.12
   4   7   1    3.83    2.10
  -5  -7  -1    0.83    1.84
  -5  -7  -1    3.40    2.18
   5  -7   1    5.91    1.20
  -5   7  -1    2.30    1.17
   5   7   1    0.63    2.30
  -5   7  -1    4.39    0.81
   5   7   1    1.94    2.03
  -5   7  -1    2.77    1.34
  -6  -7  -1    0.58    1.76
  -6   7  -1    4.95    0.91
  -6   7  -1    8.22    1.85
  -6   7  -1    4.12    1.31
   6   7   1    6.60    2.75
  -6   7  -1    3.13    1.23
  -7  -7  -1    0.66    2.00
  -7   7  -1    2.61    1.40
  -7   7  -1    0.47    0.80
  -7   7  -1   -1.37    2.68
  -7   7  -1    1.71    1.22
   7   7   1    2.13    2.43
  -8  -7  -1    1.82    2.27
  -8   7  -1    4.62    1.64
  -8   7  -1    3.48    1.39
  -8   7  -1    1.49    0.95
   8   7   1    4.27    3.19
  -9  -7  -1    2.32    2.51
  -9   7  -1    1.00    1.57
   9   7   1   -0.86    2.59
  -9   7  -1    2.74    1.10
  -8  -8   1    1.80    2.30
   8   8  -1    3.66    3.08
  -8   8   1    1.77    1.60
  -7  -8   1   -0.51    2.43
  -7   8   1    0.00    1.35
  -7   8   1    1.87    1.77
  -6  -8   1    1.98    2.17
  -6   8   1    4.48    1.76
   6   8  -1    2.05    2.35
  -6   8   1    3.38    1.49
   5  -8  -1   -0.18    1.12
  -5  -8   1   -3.00    1.70
  -5  -8   1   -2.90    1.70
  -5   8   1   -0.22    1.27
  -5   8   1   -2.50    1.11
   5   8  -1   -2.42    2.00
   4  -8  -1   22.12    2.78
  -4  -8   1   19.12    3.10
   4   8  -1   20.48    3.46
  -4   8   1   25.15    2.11
  -4   8   1   16.87    2.69
  -3  -8   1    2.48    1.51
   3  -8  -1   -0.76    1.15
  -3  -8   1   -0.84    1.41
  -3  -8   1    0.05    1.46
   3   8  -1    0.69    1.79
  -3   8   1    0.73    0.79
   3   8  -1   -2.45    1.45
   2  -8  -1   13.32    2.06
   2  -8  -1   18.91    2.77
  -2  -8   1   14.24    2.16
  -2  -8   1   15.23    2.42
  -2   8   1   10.12    2.00
   2   8  -1   13.08    2.45
  -2   8   1   17.54    2.11
   2   8  -1   13.26    2.26
  -1  -8   1    0.96    1.25
   1  -8  -1    0.30    1.07
  -1  -8   1   -0.44    1.25
   1  -8  -1    0.39    1.59
  -1   8   1    0.07    0.99
  -1   8   1    0.17    1.43
   1   8  -1    0.86    1.11
   1   8  -1   -0.91    1.36
   0  -8  -1   27.77    3.33
   0  -8   1   33.57    3.71
   0  -8   1   29.26    3.57
   0  -8  -1   35.07    3.84
   0   8  -1   25.07    3.24
   0   8   1   30.87    4.21
   0   8  -1   31.23    3.28
   0   8   1   32.18    3.38
  -1  -8  -1    4.43    1.40
   1  -8   1    9.48    2.06
   1  -8   1    6.79    1.65
  -1  -8  -1    9.80    1.94
  -1   8  -1    7.29    1.37
  -1   8  -1    9.13    1.95
   1   8   1    6.62    1.81
   1   8   1   11.05    2.17
  -2  -8  -1    2.21    1.42
   2  -8   1    1.85    1.09
   2  -8   1    1.42    1.39
  -2  -8  -1    2.41    1.46
   2   8   1    2.04    1.52
   2   8   1    3.45    1.82
  -2   8  -1    0.98    1.32
  -2   8  -1    3.23    0.94
  -3  -8  -1    7.22    2.04
  -3  -8  -1   11.13    2.18
   3  -8   1    8.74    1.63
  -3   8  -1    7.46    1.18
   3   8   1    6.70    2.15
   3   8   1    3.20    2.03
  -3   8  -1    6.40    1.59
  -4  -8  -1    2.63    1.90
  -4  -8  -1   -0.02    1.47
  -4  -8  -1    2.76    2.43
   4  -8   1    1.36    1.10
  -4   8  -1    0.91    1.18
   4   8   1   -0.91    3.55
  -4   8  -1    1.86    1.65
   4   8   1    0.23    1.95
  -4   8  -1    1.68    0.72
  -5  -8  -1    2.72    1.98
  -5  -8  -1    4.18    2.06
  -5  -8  -1    6.30    2.27
   5  -8   1    7.96    1.48
  -5   8  -1    4.24    1.44
   5   8   1    4.05    2.41
  -5   8  -1    5.12    0.95
  -5   8  -1    6.26    1.60
  -6  -8  -1   -0.14    1.60
  -6   8  -1    1.50    1.34
   6   8   1    1.45    2.57
  -6   8  -1    0.90    1.45
  -6   8  -1    1.84    0.75
  -7  -8  -1    1.95    1.96
   7   8   1    1.77    2.89
  -7   8  -1    2.51    0.83
  -7   8  -1    3.39    1.94
  -7   8  -1    1.15    1.40
  -7   8  -1    2.86    1.07
  -8  -8  -1   -0.12    2.12
   8   8   1    2.31    2.61
  -8   8  -1    1.31    1.51
  -8  -9   1    0.18    2.34
  -8   9   1    0.88    1.67
   8   9  -1   -0.06    2.96
  -7  -9   1   -0.42    2.15
  -7   9   1    1.65    1.51
  -7   9   1   -2.38    1.66
   7   9  -1   -2.48    2.53
   6  -9  -1    2.01    1.64
  -6  -9   1   -1.55    1.80
  -6   9   1    0.60    1.48
   6   9  -1   -1.24    2.60
  -6   9   1    2.37    1.62
   5  -9  -1    0.29    1.38
  -5  -9   1    0.57    2.09
  -5  -9   1    0.14    1.63
  -5   9   1    0.32    1.39
   5   9  -1   -1.97    2.20
   4  -9  -1    1.62    1.53
  -4  -9   1    4.26    2.78
  -4  -9   1    0.49    1.46
  -4  -9   1    1.31    1.85
   4   9  -1   -0.38    1.95
  -4   9   1    3.73    0.89
  -4   9   1    1.73    1.44
   4   9  -1    0.66    2.32
   3  -9  -1   -1.02    1.47
  -3  -9   1    1.70    1.78
  -3  -9   1    0.62    1.66
   3   9  -1   -1.86    1.76
   3   9  -1    1.46    1.81
  -3   9   1   -0.03    1.43
  -3   9   1    1.62    1.01
   2  -9  -1    8.14    1.57
   2  -9  -1    9.02    2.21
  -2  -9   1    9.93    2.11
  -2  -9   1    9.55    1.94
   2   9  -1    7.28    2.21
  -2   9   1    9.87    1.59
   2   9  -1    8.55    1.98
  -2   9   1    5.73    1.80
   1  -9  -1    6.85    2.19
   1  -9  -1    4.59    1.55
  -1  -9   1    7.45    1.97
  -1  -9   1    4.16    1.76
   1   9  -1    7.54    1.86
  -1   9   1    6.37    1.90
   1   9  -1    5.79    1.89
  -1   9   1    6.04    1.51
   0  -9   1   23.12    3.35
   0  -9  -1   22.04    3.13
   0  -9  -1   25.89    3.71
   0  -9   1   22.94    3.50
   0   9   1   24.76    3.50
   0   9   1   20.35    3.16
   0   9   1   26.27    3.15
   0   9  -1   23.76    3.07
   0   9  -1   23.37    3.00
   1  -9   1   10.67    2.45
  -1  -9  -1   10.37    2.15
  -1  -9  -1    8.49    1.85
   1  -9   1    7.12    1.73
   1   9   1    7.20    1.91
  -1   9  -1    6.85    1.54
  -1   9  -1   10.39    3.76
   1   9   1   11.98    2.26
  -2  -9  -1   33.47    4.07
  -2  -9  -1   33.27    4.04
   2  -9   1   35.49    3.74
   2  -9   1   34.70    4.20
   2   9   1   41.85    4.39
  -2   9  -1   35.84    4.04
  -2   9  -1   35.16    3.46
   2   9   1   37.72    4.48
  -3  -9  -1   -0.23    1.24
   3  -9   1   -0.45    1.37
   3   9   1   -0.63    2.09
  -3   9  -1    3.24    0.95
   3   9   1   -0.92    1.86
  -4  -9  -1    5.66    1.90
   4  -9   1   16.47    2.38
   4   9   1    8.62    2.61
  -4   9  -1   14.49    1.77
   4   9   1   10.61    3.16
  -4   9  -1   10.44    1.92
  -5  -9  -1   -0.92    1.67
   5  -9   1    3.20    1.34
  -5   9  -1    2.68    0.85
  -5   9  -1    3.68    1.46
  -5   9  -1    2.65    1.43
   5   9   1   -1.20    2.33
  -6  -9  -1    6.89    2.14
   6   9   1   11.27    3.48
  -6   9  -1   11.89    1.49
  -6   9  -1    9.53    2.07
  -6   9  -1    9.80    1.95
  -7  -9  -1   -0.18    2.01
   7   9   1   -1.49    2.46
  -7   9  -1   -0.72    1.45
  -7   9  -1    3.04    2.10
  -8  -9  -1    2.69    2.16
   8   9   1    2.23    3.44
  -8   9  -1    0.54    1.53
  -8 -10   1   -1.06    2.23
   8  10  -1   -1.98    3.61
  -8  10   1    2.87    1.99
  -7 -10   1    0.16    2.20
  -7  10   1   -1.03    1.56
   7  10  -1   -3.59    2.87
  -7  10   1   -3.54    1.84
  -6 -10   1    4.80    2.23
   6 -10  -1    4.32    1.85
  -6  10   1    3.13    1.70
   6  10  -1    3.33    2.91
  -6  10   1    4.21    1.84
  -5 -10   1    4.73    1.96
   5 -10  -1    2.34    3.04
  -5  10   1    5.54    1.77
   5  10  -1    2.08    2.68
  -4 -10   1    2.40    1.83
   4 -10  -1    4.29    1.84
  -4  10   1    3.22    1.65
   4  10  -1    0.40    2.19
  -4  10   1    5.85    1.12
   3 -10  -1   -2.73    1.62
  -3 -10   1    4.92    1.85
  -3 -10   1   -0.87    1.79
  -3  10   1   -1.31    1.44
  -3  10   1    2.11    1.12
   3  10  -1   -1.16    1.88
   3  10  -1    0.42    1.85
   2 -10  -1   34.89    4.41
  -2 -10   1   32.09    4.15
  -2 -10   1   26.61    3.83
   2 -10  -1   35.24    3.59
  -2  10   1   28.83    3.38
   2  10  -1   26.52    4.01
   2  10  -1   30.30    4.22
  -1 -10   1   33.65    4.10
  -1 -10   1   32.31    3.98
   1 -10  -1   28.60    3.72
   1 -10  -1   32.16    4.42
   1  10  -1   28.26    3.97
   1  10  -1   34.90    3.93
  -1  10   1   33.20    3.74
  -1  10   1   30.52    4.00
   0 -10  -1    3.82    2.77
   0 -10  -1    7.68    2.18
   0 -10   1    7.79    2.16
   0 -10   1    3.31    1.69
   0  10   1    5.36    1.88
   0  10  -1    2.51    1.66
   0  10  -1    3.90    1.40
   0  10   1    4.34    1.58
   1 -10   1    1.61    1.92
  -1 -10  -1    2.90    1.80
  -1 -10  -1    1.76    1.43
   1 -10   1    1.99    1.52
  -1  10  -1    4.29    1.49
   1  10   1    4.24    1.73
  -1  10  -1    2.68    1.30
   2 -10   1    1.44    1.87
   2 -10   1    1.11    1.47
  -2 -10  -1    6.58    2.82
  -2 -10  -1    2.46    1.66
  -2  10  -1    3.75    1.20
   2  10   1    3.70    2.01
  -2  10  -1    1.66    1.85
   2  10   1    2.16    2.04
  -3 -10  -1   19.40    3.08
   3 -10   1   20.69    2.93
  -3 -10  -1   14.06    2.74
   3  10   1   21.79    3.69
   3  10   1   21.64    3.56
  -3  10  -1   14.94    2.56
  -3  10  -1   19.30    2.38
  -4 -10  -1   -1.76    1.39
   4 -10   1    0.52    1.47
  -4  10  -1   -0.50    1.46
  -4  10  -1    2.02    0.89
   4  10   1   -2.36    1.99
   5 -10   1   -0.48    1.38
  -5 -10  -1   -1.65    1.60
   5  10   1   -1.49    2.51
  -5  10  -1    1.49    0.83
  -5  10  -1   -0.34    1.26
  -5  10  -1   -0.58    1.36
  -6 -10  -1    1.87    1.72
   6  10   1   -2.20    3.21
  -6  10  -1    2.75    1.69
  -6  10  -1    1.44    1.56
  -7 -10  -1    2.53    2.25
   7  10   1   -4.28    2.57
  -7  10  -1    1.26    1.64
  -7  10  -1    8.25    2.38
  -8 -10  -1    3.83    2.64
  -8  10  -1    2.04    1.76
   8  10   1   -6.90    3.35
  -7 -11   1   -1.08    2.22
  -7  11   1    1.06    1.81
   7  11  -1   -5.51    2.94
  -6 -11   1    1.57    2.32
  -6  11   1    0.87    1.58
   6  11  -1   -0.36    4.02
   5 -11  -1    4.92    2.15
  -5 -11   1    2.73    2.72
  -5  11   1    2.45    1.69
   5  11  -1   -0.62    2.61
  -4 -11   1    7.13    2.30
   4 -11  -1    8.04    2.49
   4  11  -1    7.15    2.79
  -4  11   1    6.52    2.12
  -4  11   1   11.46    1.53
   3 -11  -1   -0.70    2.00
  -3 -11   1   -0.65    1.73
  -3  11   1    0.69    1.17
   3  11  -1   -2.97    1.93
  -3  11   1    0.03    1.75
   2 -11  -1   28.15    3.71
   2 -11  -1   17.92    2.54
  -2 -11   1   11.98    2.47
  -2 -11   1   13.02    2.76
   2  11  -1   20.61    3.26
  -2  11   1   21.79    2.88
   2  11  -1   20.70    3.09
  -2  11   1   14.39    2.73
   1 -11  -1    1.92    1.89
  -1 -11   1    1.58    1.63
   1 -11  -1    6.92    2.46
   1  11  -1    4.29    1.78
   1  11  -1    3.61    2.01
  -1  11   1    3.95    2.13
  -1  11   1    2.42    1.44
   0 -11   1   34.16    4.04
   0 -11   1   24.83    3.85
   0 -11  -1   30.01    3.74
   0  11   1   22.90    3.67
   0  11  -1   25.59    3.49
   0  11  -1   25.71    3.46
  -1 -11  -1    2.18    1.82
   1 -11   1    1.76    2.06
  -1 -11  -1    0.81    1.57
   1 -11   1   -1.11    1.51
   1  11   1   -0.04    1.83
  -1  11  -1    2.07    1.29
   1  11   1    0.44    1.62
  -1  11  -1    2.79    1.54
  -2 -11  -1   13.23    2.56
   2 -11   1   14.90    2.57
  -2 -11  -1   19.48    3.11
   2 -11   1   23.60    3.51
  -2  11  -1   18.68    2.99
   2  11   1   20.18    3.32
   2  11   1   18.64    3.22
  -2  11  -1   23.24    2.82
  -3 -11  -1    3.60    1.97
   3 -11   1    3.49    2.24
  -3  11  -1    6.50    1.49
   3  11   1    6.44    3.29
  -3  11  -1    8.52    2.20
   3  11   1    7.51    2.61
   4 -11   1    7.48    2.12
  -4 -11  -1    2.83    1.88
  -4  11  -1    3.80    1.87
  -4  11  -1    8.27    1.42
   4  11   1    9.37    3.02
   5 -11   1    0.39    1.80
  -5  11  -1    3.82    1.05
   5  11   1    1.77    2.68
  -5  11  -1    1.25    1.45
  -5  11  -1   -0.90    1.56
   6 -11   1   -1.30    1.67
  -6 -11  -1    1.45    1.97
   6  11   1   -2.18    2.97
  -6  11  -1   -0.96    1.70
  -6  11  -1   -0.28    1.63
  -7 -11  -1   -0.50    2.07
  -7  11  -1   -2.19    1.50
  -7  11  -1    0.06    1.84
   7  11   1    0.36    3.00
  -7 -12   1    0.96    2.38
   7  12  -1   -3.31    3.14
  -7  12   1   -0.28    1.82
  -6 -12   1   -0.22    2.04
   6  12  -1   -1.85    2.95
  -6  12   1   -0.34    1.69
  -6  12   1    1.31    2.08
  -5 -12   1    7.81    2.58
   5  12  -1    7.40    3.11
  -5  12   1    2.42    1.86
  -4 -12   1   -0.43    1.85
   4 -12  -1   -0.91    2.15
   4  12  -1   -0.51    2.33
  -4  12   1   -3.23    1.65
  -3 -12   1    2.12    1.88
   3 -12  -1   -4.90    2.22
  -3  12   1   -1.12    1.76
   3  12  -1   -1.06    2.08
  -3  12   1    0.04    1.54
   2 -12  -1   14.01    2.98
  -2 -12   1    9.49    2.21
   2 -12  -1    7.72    2.00
   2  12  -1    6.21    2.39
   2  12  -1    7.76    2.54
  -2  12   1    6.23    1.83
  -2  12   1    5.24    2.27
   1 -12  -1   25.65    3.80
  -1 -12   1   25.56    3.95
   1 -12  -1   22.10    3.61
  -1 -12   1   27.34    3.86
  -1  12   1   21.88    3.41
   1  12  -1   23.77    3.55
  -1  12   1   20.19    3.31
   1  12  -1   23.67    3.66
   0 -12   1    8.73    2.40
   0 -12   1    2.32    1.82
   0 -12  -1    3.98    1.78
   0 -12  -1    9.17    2.45
   0  12  -1    4.61    1.82
   0  12   1    3.86    2.06
   0  12  -1    4.23    1.54
   0  12   1    4.41    1.77
   1 -12   1   12.24    2.49
   1 -12   1   19.65    3.71
  -1 -12  -1   11.23    2.49
   1  12   1   15.46    2.98
  -1  12  -1   15.87    2.40
   1  12   1   14.04    3.90
  -1  12  -1   12.24    2.19
   2 -12   1    7.06    2.22
  -2 -12  -1    9.68    2.30
   2 -12   1    6.03    5.13
  -2  12  -1   14.85    2.90
   2  12   1   12.85    2.81
   2  12   1   11.01    2.93
  -2  12  -1   15.77    2.17
  -2  12  -1   12.86    2.07
   3 -12   1   -9.44    4.09
  -3 -12  -1    0.76    1.64
  -3  12  -1    1.63    1.22
   3  12   1    0.01    2.20
  -3  12  -1    0.48    1.89
   4 -12   1    2.95    2.10
  -4 -12  -1    1.46    2.04
   4  12   1    0.11    2.37
  -4  12  -1    2.30    1.41
  -4  12  -1    0.54    1.76
  -5 -12  -1    3.42    2.06
   5 -12   1    4.15    2.31
  -5  12  -1    3.91    1.66
  -5  12  -1    6.43    1.25
   5  12   1    1.21    2.68
  -5  12  -1    3.70    1.86
  -6 -12  -1    0.27    1.98
   6  12   1   -3.65    2.77
  -6  12  -1   -0.56    1.68
  -6  12  -1   -3.06    1.55
  -6 -13   1   -1.27    1.89
   6  13  -1   -2.31    2.77
  -6  13   1   -3.19    1.74
  -6  13   1    0.63    1.92
  -5 -13   1    3.53    2.38
  -5  13   1    0.77    1.98
  -4 -13   1   -2.07    1.86
   4  13  -1    1.45    2.56
  -4  13   1   -0.11    1.80
  -3 -13   1    2.12    1.87
  -3  13   1   -1.13    1.93
  -3  13   1    0.70    1.54
   3  13  -1    1.45    2.34
   2 -13  -1   -3.25    1.55
  -2 -13   1   -0.07    1.79
   2  13  -1   -1.32    1.95
  -2  13   1    0.31    1.97
  -2  13   1   -2.70    1.36
  -1 -13   1   -0.38    1.90
   1 -13  -1    0.01    1.70
   1  13  -1    0.64    1.58
  -1  13   1    1.13    1.70
   1  13  -1    1.48    2.01
  -1  13   1    1.23    1.70
   0 -13   1   -1.21    1.80
   0 -13  -1   -0.91    1.67
   0  13   1    1.46    1.83
   0  13  -1    2.13    1.58
   0  13   1   -0.43    2.82
  -1 -13  -1    2.46    1.71
   1 -13   1    7.49    2.61
   1 -13   1    1.85    1.88
   1  13   1    0.30    1.94
  -1  13  -1    3.12    1.52
  -1  13  -1    2.18    1.74
   1  13   1    3.79    2.21
   2 -13   1    6.15    2.25
   2 -13   1   15.04    3.21
  -2 -13  -1    9.93    2.53
   2  13   1   12.66    2.99
  -2  13  -1    9.16    1.93
  -2  13  -1   11.29    2.09
   3 -13   1   -3.75    2.30
  -3 -13  -1    1.61    1.77
  -3  13  -1    2.91    2.10
  -3  13  -1    3.09    1.47
   3  13   1    3.46    2.59
  -4 -13  -1   -1.69    1.83
   4 -13   1   -2.44    2.37
  -4  13  -1    2.65    1.57
   4  13   1    0.58    2.53
  -4  13  -1   -1.00    1.70
  -5 -13  -1    2.62    2.05
  -5  13  -1   -0.84    1.66
  -5  13  -1    1.10    1.09
   5  13   1   -1.35    2.82
  -5  13  -1   -1.30    1.49
  -6 -13  -1    7.02    2.70
  -6  13  -1    3.00    2.00
  -6  13  -1    7.36    2.07
   6  13   1    4.10    3.34
  -5 -14   1    4.57    2.43
   5  14  -1    0.60    3.11
  -5  14   1    0.90    2.74
  -4 -14   1    0.22    2.13
   4  14  -1   -1.17    2.42
  -4  14   1    2.54    2.04
  -3 -14   1    1.05    1.94
   3  14  -1    0.66    2.29
  -3  14   1    1.68    2.15
  -3  14   1   -2.43    1.64
  -2 -14   1    1.03    1.96
   2 -14  -1   -0.41    1.91
  -2  14   1    1.31    1.90
  -2  14   1    0.97    1.68
   2  14  -1    2.34    2.31
   1 -14  -1    3.32    1.96
  -1 -14   1    5.40    2.27
   1  14  -1    1.80    2.11
  -1  14   1    2.84    2.21
  -1  14   1    4.66    1.96
   0 -14   1    1.11    1.98
   0 -14  -1    1.38    1.78
   0  14   1   -2.21    2.14
   0  14  -1    2.59    1.94
   0  14  -1    2.67    1.95
   0  14   1    1.18    1.90
  -1 -14  -1   -0.68    1.74
   1 -14   1   -2.87    1.83
  -1  14  -1    3.09    1.60
   1  14   1    1.00    2.08
  -2 -14  -1    2.44    2.00
   2 -14   1   -2.61    1.90
   2  14   1   -1.36    2.00
  -2  14  -1   -0.36    1.49
  -2  14  -1    2.16    1.59
  -3 -14  -1    1.89    2.02
  -3  14  -1    5.42    1.72
   3  14   1    1.20    2.35
  -3  14  -1    6.18    1.67
  -4 -14  -1    2.14    2.08
   4  14   1    0.25    3.98
  -4  14  -1    0.65    2.00
  -4  14  -1    1.66    1.40
  -5 -14  -1    1.65    2.03
  -5  14  -1   -0.36    2.00
   5  14   1   -1.89    2.76
  -5  14  -1   -0.53    1.55
  -4 -15   1    1.63    2.31
  -4  15   1    3.22    2.39
  -3 -15   1    0.81    2.07
   3  15  -1    0.25    2.37
  -3  15   1   -0.35    1.63
  -2 -15   1    5.10    2.40
   2 -15  -1    3.60    2.21
   2  15  -1    9.96    2.68
  -2  15   1    8.06    2.18
  -2  15   1    3.63    2.33
  -1 -15   1    3.33    2.17
   1 -15  -1    2.12    1.95
  -1  15   1    2.44    2.37
  -1  15   1    4.87    2.06
   1  15  -1    5.55    2.35
   0 -15  -1    0.86    1.96
   0 -15   1    3.13    2.07
   0  15   1    5.38    2.21
   0  15  -1    6.08    2.11
  -1 -15  -1    3.29    2.06
   1 -15   1    0.05    2.09
  -1  15  -1    3.27    1.96
  -1  15  -1    4.78    1.97
   1  15   1    3.10    2.18
   2 -15   1    3.37    2.47
  -2 -15  -1    5.35    2.21
   2  15   1   11.39    2.93
  -2  15  -1    8.00    2.14
  -2  15  -1   12.06    2.23
  -3 -15  -1    0.91    2.12
  -3  15  -1    3.09    1.64
  -3  15  -1    2.99    1.60
   3  15   1    2.83    2.53
  -4 -15  -1    2.65    2.08
  -4  15  -1   -0.29    1.43
  -4  15  -1   -1.01    1.45
  -4  15  -1   -1.62    1.48
   4  15   1   -0.08    2.45
   2 -16  -1   -4.15    1.96
  -2 -16   1   -1.45    2.17
  -2  16   1    2.13    1.82
   2  16  -1   -2.36    2.07
   1 -16  -1    5.05    2.28
  -1 -16   1    2.78    2.27
  -1  16   1   10.46    2.41
   1  16  -1    9.81    2.58
   0 -16   1    7.14    2.62
   0 -16  -1    7.30    2.44
   0  16  -1   14.75    2.56
   0  16   1   10.40    2.48
  -1 -16  -1    2.48    2.28
   1 -16   1   -0.71    2.14
   1  16   1    4.54    2.29
  -1  16  -1    5.69    2.00
  -2 -16  -1    2.42    2.11
   2  16   1    5.10    2.55
  -2  16  -1   -0.15    1.84
 -10   0   2   12.02    2.88
 -10   0   2    8.95    2.32
  -9   0   2   -1.51    1.44
  -9   0   2    0.68    2.03
  -8   0   2   77.51    6.13
  -8   0   2   55.51    7.03
  -7   0   2   -1.12    1.71
  -7   0   2    0.09    1.28
  -7   0   2   -2.29    1.87
  -6   0   2  136.04    9.77
  -6   0   2  123.10   10.00
  -6   0   2  107.32   10.49
  -5   0   2   12.35    2.31
  -5   0   2   14.97    2.12
   4   0  -2  286.36   21.56
  -4   0   2  284.10   21.64
   3   0  -2   48.31    3.98
  -3   0   2   48.59    4.00
   2   0  -2  188.96   14.86
  -2   0   2  204.07   14.84
  -1   0   2   90.70    7.10
  -1   0   2   99.45    7.17
   1   0  -2   92.93    7.17
   1   0   2  159.72   12.03
  -1   0  -2  159.30   12.05
  -2   0  -2    3.42    0.90
   2   0   2    3.03    0.70
  -3   0  -2   77.87    6.32
   3   0   2   80.28    6.27
  -4   0  -2    4.94    1.25
   4   0   2    3.98    1.15
  -4   0  -2    4.82    1.07
  -5   0  -2    8.63    1.68
  -5   0  -2   12.03    2.10
   5   0   2   15.48    2.10
   6   0   2    3.44    1.39
  -6   0  -2    4.16    1.77
  -6   0  -2    1.35    1.45
  -7   0  -2   13.55    2.64
  -7   0  -2   11.70    2.40
  -8   0  -2    2.13    1.33
  -8   0  -2    0.58    2.05
  -9   0  -2   -0.16    1.33
  -9   0  -2   -0.15    1.97
 -10   0  -2    0.83    1.56
 -10  -1   2    2.74    2.36
 -10  -1   2   -1.74    1.79
 -10   1   2    3.03    1.95
 -10   1   2    0.25    1.70
  -9  -1   2   -0.20    2.69
  -9  -1   2    1.27    2.13
  -9   1   2    5.99    2.20
  -9   1   2    3.45    1.75
  -8  -1   2    3.18    2.38
  -8  -1   2    1.95    1.43
  -8   1   2    2.01    1.49
  -8   1   2    1.61    1.93
  -7  -1   2    5.43    2.11
  -7  -1   2   -0.34    2.09
  -7   1   2    0.19    1.75
  -7   1   2    2.45    2.40
  -7   1   2    4.35    1.40
  -6  -1   2   20.64    2.95
  -6   1   2   25.37    3.01
  -6   1   2   21.22    2.50
  -6   1   2   18.50    3.01
  -5  -1   2   15.81    2.28
  -5  -1   2   14.31    2.61
  -5   1   2   16.94    2.47
   5   1  -2   20.02    2.33
  -5   1   2   19.07    1.97
  -5   1   2   16.58    2.29
  -4  -1   2   58.99    5.87
  -4  -1   2   66.83    5.33
  -4   1   2   66.62    5.31
   4   1  -2   71.52    5.40
  -4   1   2   53.81    5.52
  -3  -1   2   15.02    1.72
   3  -1  -2   17.62    1.48
  -3  -1   2   12.43    1.99
   3   1  -2   17.53    1.75
  -3   1   2   11.83    1.70
  -3   1   2   13.65    1.71
  -3   1   2   15.63    1.50
   3   1  -2   14.70    1.88
   2  -1  -2  310.53   22.72
  -2  -1   2  308.07   22.77
   2  -1  -2  306.08   22.69
   2   1  -2  303.61   22.78
  -2   1   2  309.52   22.71
   2   1  -2  281.90   22.90
  -1  -1   2    9.61    0.94
   1  -1  -2    9.62    0.91
   1  -1  -2   10.21    0.85
  -1  -1   2    8.84    1.24
  -1   1   2    8.87    0.92
   1   1  -2    9.59    1.20
  -1  -1  -2    6.43    1.01
   1  -1   2    4.28    0.62
  -1  -1  -2    5.43    0.82
   1   1   2    7.16    1.07
  -1   1  -2    5.68    0.69
  -1   1  -2    4.18    0.41
  -2  -1  -2  172.26   13.22
   2  -1   2  172.99   13.07
  -2   1  -2  173.49   13.11
   2   1   2  174.23   13.20
  -3  -1  -2    2.82    0.81
   3  -1   2    1.37    0.68
  -3  -1  -2    2.85    1.08
  -3   1  -2    1.58    0.84
   3   1   2    2.32    0.92
  -4  -1  -2    4.11    1.34
   4  -1   2    4.47    1.08
  -4  -1  -2    2.73    1.10
   4   1   2    4.53    1.22
  -4   1  -2    5.18    1.70
   5  -1   2    3.13    1.95
  -5  -1  -2    3.34    1.44
  -5  -1  -2    2.19    1.12
  -5   1  -2    2.49    1.05
  -5   1  -2    0.19    1.17
   5   1   2    1.98    1.17
  -6  -1  -2    8.26    2.03
  -6  -1  -2   12.21    2.28
  -6   1  -2   10.03    2.20
   6   1   2    9.09    1.87
  -6   1  -2   11.21    3.12
  -7  -1  -2    9.08    2.26
  -7  -1  -2    7.38    2.22
  -7   1  -2    5.81    1.47
  -7   1  -2    8.81    2.09
   7   1   2    8.43    2.04
  -7   1  -2    9.01    2.45
  -8  -1  -2   -1.72    1.84
  -8   1  -2    3.59    1.96
  -8   1  -2    1.87    1.34
  -9  -1  -2   -0.79    1.44
  -9  -1  -2   -0.42    1.82
  -9   1  -2    0.57    1.88
  -9   1  -2    1.79    1.47
 -10  -1  -2    1.23    1.94
 -10  -1  -2    0.34    1.67
 -10   1  -2   -1.06    1.51
 -10   1  -2    3.32    2.01
 -10  -2   2    1.91    1.83
 -10  -2   2    5.76    3.06
 -10   2   2    7.12    2.28
 -10   2   2    5.91    2.06
  -9  -2   2   -0.83    1.92
  -9  -2   2   -0.77    1.67
  -9   2   2    2.08    1.79
  -9   2   2   -0.86    1.52
  -8  -2   2   16.94    3.65
  -8   2   2   13.43    2.69
  -8   2   2   19.71    2.72
  -7  -2   2   -1.35    2.12
  -7   2   2    0.99    1.21
  -7   2   2    0.83    1.53
  -7   2   2    1.91    1.76
  -6  -2   2   49.22    4.72
  -6  -2   2   48.70    5.67
  -6   2   2   52.41    4.30
  -6   2   2   48.91    4.67
  -6   2   2   41.25    4.96
  -5  -2   2    0.81    1.09
  -5  -2   2   -1.34    1.55
  -5   2   2   -0.12    1.05
   5   2  -2    3.53    1.25
  -5   2   2    0.80    0.82
   5   2  -2    3.61    1.41
  -5   2   2   -1.43    1.13
  -4  -2   2   52.87    5.81
  -4  -2   2   61.43    5.29
  -4   2   2   66.58    5.09
  -4   2   2   63.05    5.28
   4   2  -2   68.64    5.38
   4   2  -2   66.55    5.64
  -3  -2   2   12.04    1.50
  -3  -2   2   10.84    1.78
  -3   2   2   10.54    1.29
   3   2  -2   12.33    1.61
   3   2  -2   12.83    2.00
  -3   2   2   10.21    1.46
  -2  -2   2   80.98    7.79
  -2  -2   2  103.89    7.54
   2  -2  -2  104.07    7.47
   2   2  -2   83.51    7.76
   2   2  -2  102.97    7.55
  -2   2   2  106.27    7.47
   1  -2  -2    0.43    0.17
  -1  -2   2    0.70    0.70
  -1  -2   2   -0.53    0.39
   1  -2  -2    1.09    0.42
  -1   2   2    0.58    0.43
   1   2  -2    1.76    0.75
   1   2  -2    0.63    0.47
   0  -2   2   15.24    1.29
   0  -2  -2   17.60    1.43
   0  -2   2   16.54    1.61
   0  -2  -2   18.57    1.77
   0   2  -2   15.31    1.28
   0   2  -2   15.96    1.54
   0   2   2   20.80    1.84
  -1  -2  -2   56.93    5.26
  -1  -2  -2   71.52    5.11
   1  -2   2   67.65    4.92
   1   2   2   60.84    5.32
  -1   2  -2   64.91    4.95
  -1   2  -2   66.64    4.94
   2  -2   2    4.05    0.62
  -2  -2  -2    3.20    1.11
  -2  -2  -2    1.87    0.63
  -2   2  -2    3.04    0.42
   2   2   2    2.81    0.96
  -2   2  -2    2.21    0.64
   3  -2   2    1.37    0.67
  -3  -2  -2    2.13    0.86
  -3  -2  -2    1.76    1.13
   3   2   2    1.67    1.07
  -3   2  -2    1.39    0.44
  -3   2  -2    0.57    0.77
  -4  -2  -2   -0.38    0.83
  -4  -2  -2    1.35    1.30
  -4   2  -2    1.05    1.02
   4   2   2    1.01    1.10
  -4   2  -2    0.74    0.52
  -5  -2  -2   17.97    2.69
  -5  -2  -2   16.22    2.64
  -5   2  -2   15.87    2.32
  -5   2  -2   16.73    1.86
   5   2   2   19.65    2.54
  -5   2  -2   19.28    2.33
  -6  -2  -2   14.74    2.61
  -6  -2  -2   15.36    2.57
  -6   2  -2   19.13    2.77
  -6   2  -2   15.25    2.00
  -6   2  -2   13.68    2.15
   6   2   2   16.65    2.65
  -7  -2  -2    2.66    2.81
  -7  -2  -2    1.17    1.93
   7   2   2    3.82    1.71
  -7   2  -2    2.95    1.18
  -7   2  -2    1.45    1.65
  -7   2  -2    3.65    1.70
  -8  -2  -2    0.00    2.14
   8   2   2    3.25    2.04
  -8   2  -2    1.93    1.39
  -8   2  -2    0.85    1.80
  -9  -2  -2    0.45    2.09
  -9   2  -2    2.56    1.49
  -9   2  -2    2.03    1.93
 -10  -3   2    3.27    2.92
 -10  -3   2   -0.46    1.81
 -10   3   2    2.30    1.76
 -10   3   2    1.76    1.79
  -9  -3   2   -0.17    2.31
  -9   3   2    0.38    1.56
  -9   3   2    2.20    1.67
  -8  -3   2   -2.27    2.04
  -8   3   2    3.10    1.49
  -8   3   2   -0.97    1.36
  -7  -3   2    0.93    2.37
  -7   3   2    4.42    1.98
  -7   3   2    3.74    1.33
  -7   3   2    3.67    1.61
  -6  -3   2    1.64    2.12
  -6   3   2    1.60    1.40
   6   3  -2    3.43    1.79
   6   3  -2    4.84    1.71
  -6   3   2    3.52    1.63
  -6   3   2    3.37    1.18
  -5  -3   2   11.93    2.54
  -5  -3   2   12.02    2.00
  -5   3   2   10.24    1.73
   5   3  -2   11.63    2.04
  -5   3   2   11.38    1.68
   5   3  -2   13.09    1.99
  -5   3   2   16.40    2.14
  -4  -3   2   -0.38    0.93
  -4  -3   2   -1.65    1.15
   4   3  -2   -0.19    0.99
   4   3  -2    1.87    1.21
  -4   3   2    0.90    0.70
  -4   3   2    0.19    0.95
  -4   3   2    0.28    0.79
   3  -3  -2    0.86    0.56
  -3  -3   2    0.47    1.24
  -3  -3   2    1.39    0.86
   3   3  -2   -0.03    0.99
  -3   3   2    1.19    0.59
   3   3  -2    1.18    0.93
  -3   3   2    0.51    0.48
   2  -3  -2   43.60    3.36
  -2  -3   2   36.78    3.88
  -2  -3   2   41.41    3.42
   2   3  -2   33.49    3.78
   2   3  -2   42.53    3.48
  -2   3   2   45.06    3.36
   1  -3  -2   21.22    1.91
  -1  -3   2   18.60    2.29
  -1  -3   2   20.40    1.79
   1  -3  -2   18.35    1.69
  -1   3   2   21.95    1.90
   1   3  -2   20.81    1.82
   1   3  -2   16.34    2.14
   0  -3   2   28.26    2.39
   0  -3  -2   28.34    2.29
   0  -3   2   25.24    2.53
   0   3  -2   26.75    2.11
   0   3  -2   21.82    2.38
  -1  -3  -2    1.30    0.99
   1  -3   2    0.18    0.46
  -1  -3  -2    0.92    0.64
  -1   3  -2    0.80    0.42
   1   3   2    1.39    0.76
  -1   3  -2    0.67    0.60
   1   3   2    0.93    1.10
   2  -3   2  157.91   11.74
  -2  -3  -2  161.47   12.03
  -2  -3  -2  147.37   12.07
   2   3   2  160.98   12.16
  -2   3  -2  155.90   11.76
  -2   3  -2  154.59   11.80
  -3  -3  -2    0.13    0.82
   3   3   2    1.38    1.10
  -3   3  -2    0.73    0.43
  -3   3  -2   -0.04    0.68
  -4  -3  -2   19.71    2.53
  -4  -3  -2   19.51    2.55
  -4   3  -2   16.57    2.11
   4   3   2   21.29    2.47
  -4   3  -2   15.70    1.70
  -5  -3  -2    3.36    1.50
  -5  -3  -2    3.77    1.66
  -5   3  -2    1.31    0.75
  -5   3  -2    1.44    1.18
   5   3   2    2.43    1.48
  -6  -3  -2   57.88    7.06
  -6  -3  -2   65.42    6.46
   6   3   2   75.51    6.31
  -6   3  -2   67.71    5.95
  -6   3  -2   70.72    5.59
  -6   3  -2   67.60    6.08
  -7  -3  -2   -0.94    1.61
  -7   3  -2   -0.10    1.84
   7   3   2    2.02    1.69
  -7   3  -2    0.19    1.09
  -7   3  -2    0.77    1.41
  -8  -3  -2    3.10    2.25
  -8   3  -2    1.32    1.33
  -8   3  -2    2.77    1.76
   8   3   2    9.01    2.68
  -9  -3  -2    2.51    3.14
  -9   3  -2    6.08    1.71
  -9   3  -2    1.77    1.97
  -9  -4   2   -0.67    4.56
  -9   4   2    0.93    1.52
  -9   4   2    2.10    1.42
  -8  -4   2   -1.82    2.18
  -8   4   2   -0.18    1.35
  -8   4   2    1.21    1.34
  -7  -4   2   -1.41    2.12
  -7   4   2    1.81    1.14
  -7   4   2    2.43    1.64
  -7   4   2    1.77    1.23
   7   4  -2    1.00    1.80
  -6  -4   2    2.86    2.38
  -6  -4   2    3.69    1.87
  -6   4   2    2.43    1.12
   6   4  -2    2.44    1.93
   6   4  -2    3.70    1.99
  -6   4   2    3.30    1.15
  -6   4   2    4.67    1.69
  -5  -4   2    1.41    1.41
  -5  -4   2    0.63    1.52
   5   4  -2    1.42    1.42
  -5   4   2    3.70    0.99
  -5   4   2    1.42    1.12
   5   4  -2    1.97    1.49
  -4  -4   2    1.58    1.74
  -4  -4   2    4.94    1.27
   4   4  -2    2.84    1.21
  -4   4   2    2.65    0.72
   4   4  -2    2.09    1.30
  -3  -4   2    1.79    1.32
  -3  -4   2    2.44    0.97
   3  -4  -2    3.09    0.78
   3   4  -2    2.03    1.19
   3   4  -2    1.27    1.12
  -3   4   2    2.16    0.78
   2  -4  -2    4.14    0.87
  -2  -4   2    2.88    1.14
  -2  -4   2    3.61    0.95
   2   4  -2    1.58    1.22
  -2   4   2    4.83    0.88
   2   4  -2    3.83    1.03
  -1  -4   2   23.98    2.27
  -1  -4   2   25.98    2.83
   1  -4  -2   29.00    2.57
   1  -4  -2   23.74    2.27
  -1   4   2   31.12    2.35
   1   4  -2   23.66    2.65
   1   4  -2   26.01    2.37
  -1   4   2   25.09    2.46
   0  -4  -2   33.88    2.95
   0  -4   2   31.05    3.05
   0  -4   2   40.87    3.21
   0  -4  -2   35.56    3.38
   0   4  -2   34.20    3.00
   0   4  -2   34.87    2.81
   0   4   2   27.13    3.23
  -1  -4  -2    4.93    1.25
  -1  -4  -2    3.01    0.92
   1  -4   2    5.01    0.82
   1  -4   2    5.18    0.99
   1   4   2    3.15    1.33
  -1   4  -2    3.04    0.96
  -1   4  -2    4.30    0.69
   1   4   2    3.29    1.02
  -2  -4  -2    8.13    1.56
   2  -4   2    6.58    0.95
  -2  -4  -2    9.77    1.65
  -2  -4  -2    6.51    1.22
  -2   4  -2    5.51    0.93
  -2   4  -2    8.04    1.10
   2   4   2    7.70    1.76
  -2   4  -2    7.61    1.01
   2   4   2    9.60    1.56
   3  -4   2   36.96    2.98
  -3  -4  -2   37.55    3.57
  -3  -4  -2   36.58    3.59
  -3   4  -2   37.92    3.02
  -3   4  -2   33.42    3.10
   3   4   2   39.16    3.75
  -4  -4  -2   -0.24    1.26
  -4  -4  -2   -0.35    1.26
   4   4   2   -0.21    1.22
  -4   4  -2   -0.33    0.87
  -4   4  -2    0.68    0.59
  -5  -4  -2    6.43    1.65
  -5  -4  -2    9.32    2.18
  -5   4  -2    9.39    1.38
  -5   4  -2    9.56    1.72
   5   4   2   11.08    2.19
  -6  -4  -2   41.60    4.94
  -6  -4  -2   41.26    4.77
  -6   4  -2   44.49    4.23
  -6   4  -2   40.06    4.33
   6   4   2   46.44    4.76
  -6   4  -2   45.32    3.83
  -7  -4  -2    3.00    1.91
  -7   4  -2    3.62    1.64
  -7   4  -2    6.16    3.12
   7   4   2    6.49    2.47
  -7   4  -2    3.52    1.24
  -8  -4  -2    2.79    2.38
  -8   4  -2    3.50    1.81
   8   4   2    3.14    2.39
  -8   4  -2    4.30    1.50
  -9  -4  -2    1.53    2.21
  -9   4  -2    1.33    1.43
  -9   4  -2    0.90    1.85
   9   4   2    6.55    2.85
  -9  -5   2    1.13    2.70
  -9   5   2    0.49    1.04
  -9   5   2    1.14    1.63
  -8  -5   2   -1.17    2.20
  -8   5   2    0.11    1.41
  -8   5   2    1.17    0.98
  -7  -5   2   -2.94    2.22
  -7   5   2    2.24    1.34
  -7   5   2    1.48    1.82
  -7   5   2    1.79    0.88
   7   5  -2    5.11    2.08
  -6  -5   2    1.18    2.05
  -6  -5   2    4.81    1.97
  -6   5   2    3.54    1.55
  -6   5   2    1.63    0.79
  -6   5   2    3.02    1.22
   6   5  -2    3.94    1.83
   6   5  -2    2.45    2.38
  -5  -5   2    5.86    1.68
  -5  -5   2    4.93    2.27
   5   5  -2    2.46    1.63
  -5   5   2    5.16    1.23
   5   5  -2    6.49    1.77
  -5   5   2    3.73    1.37
   4  -5  -2    1.21    0.80
  -4  -5   2   -1.17    1.33
  -4  -5   2    0.03    1.18
  -4   5   2    0.76    0.79
   4   5  -2    2.69    1.35
   4   5  -2   -0.28    1.37
  -3  -5   2   25.56    2.55
   3  -5  -2   21.33    2.53
  -3  -5   2   19.96    3.18
  -3   5   2   22.56    2.29
   3   5  -2   25.29    2.77
   2  -5  -2   52.15    3.96
  -2  -5   2   52.72    4.55
  -2  -5   2   44.81    3.88
   2  -5  -2   45.69    3.55
  -2   5   2   45.51    3.89
   2   5  -2   38.25    5.69
  -2   5   2   38.69    3.68
   2   5  -2   46.74    4.01
   1  -5  -2   10.43    1.29
  -1  -5   2    9.14    1.36
  -1  -5   2    7.73    1.53
   1  -5  -2   14.82    1.88
   1   5  -2    8.47    1.53
  -1   5   2   11.04    1.57
   1   5  -2    9.46    1.50
  -1   5   2    8.46    1.40
   0  -5  -2   41.12    3.91
   0  -5   2   36.04    3.54
   0  -5  -2   37.37    3.39
   0  -5   2   43.92    3.67
   0   5  -2   36.40    3.24
   0   5   2   44.28    3.61
   0   5   2   32.10    3.75
   0   5  -2   36.52    3.42
  -1  -5  -2   14.99    2.19
   1  -5   2   19.43    2.28
  -1  -5  -2   14.21    2.06
   1  -5   2   18.22    2.00
  -1   5  -2   18.54    1.84
   1   5   2   20.96    2.51
   1   5   2   16.98    2.34
  -1   5  -2   15.50    2.19
  -2  -5  -2  112.35    8.84
  -2  -5  -2  109.74    9.15
   2  -5   2  120.06    8.51
   2   5   2  106.85    8.99
   2   5   2  119.87   10.42
  -2   5  -2  105.82    8.45
  -2   5  -2  101.61    8.53
  -3  -5  -2    6.23    1.64
   3  -5   2    6.02    0.92
  -3  -5  -2    5.83    1.37
  -3   5  -2    5.43    0.97
   3   5   2    6.20    1.90
  -3   5  -2    7.69    1.11
   3   5   2    7.04    1.75
  -3   5  -2    8.68    1.11
  -4  -5  -2   74.94    6.73
  -4  -5  -2   73.16    6.69
  -4   5  -2   80.24    6.12
   4   5   2   83.82    6.88
  -4   5  -2   76.01    6.28
  -5  -5  -2    4.38    1.87
  -5  -5  -2    4.29    1.78
  -5   5  -2    4.53    1.02
  -5   5  -2    3.72    1.39
   5   5   2    2.34    1.68
  -6  -5  -2   40.45    4.93
  -6   5  -2   36.94    4.18
  -6   5  -2   37.40    3.67
   6   5   2   49.22    4.86
  -6   5  -2   43.93    3.96
  -7  -5  -2    0.82    1.93
   7   5   2    3.36    2.31
  -7   5  -2    0.93    1.13
  -7   5  -2    1.40    1.35
  -7   5  -2    4.15    3.59
  -8  -5  -2    6.78    2.46
   8   5   2    6.59    2.50
  -8   5  -2   12.50    1.91
  -8   5  -2    5.85    1.95
  -9  -5  -2    3.27    2.29
  -9   5  -2    4.28    1.71
   9   5   2   11.00    3.41
  -9   5  -2    2.94    1.88
  -9  -6   2    0.20    2.80
  -9   6   2   -0.29    1.75
  -8  -6   2    3.42    3.35
   8   6  -2    8.64    3.18
  -8   6   2    4.99    1.73
  -7  -6   2   -0.07    2.21
  -7   6   2    2.10    1.42
  -7   6   2   -0.80    1.62
   7   6  -2    1.72    2.35
  -6  -6   2    2.48    1.95
  -6  -6   2    6.79    2.21
   6   6  -2    6.90    2.51
  -6   6   2    4.68    1.69
  -6   6   2    3.62    1.34
   6   6  -2    6.37    2.18
  -5  -6   2    2.62    1.70
  -5  -6   2    0.71    1.60
   5  -6  -2    4.49    1.16
  -5   6   2    2.81    1.34
  -5   6   2    2.71    1.16
   5   6  -2    3.80    1.94
   5   6  -2   -0.39    1.89
  -4  -6   2   19.57    3.14
  -4  -6   2   21.95    2.74
   4  -6  -2   21.11    2.39
  -4   6   2   21.97    2.39
   4   6  -2   22.81    3.04
  -3  -6   2    0.84    1.59
   3  -6  -2    1.13    0.95
  -3  -6   2    2.46    1.18
   3   6  -2    1.00    1.39
  -3   6   2    2.06    0.92
   3   6  -2    2.30    1.48
  -2  -6   2   18.98    2.05
  -2  -6   2   18.28    2.82
   2   6  -2   10.78    1.99
   2   6  -2   18.58    2.26
  -2   6   2   12.05    1.87
   1  -6  -2   24.62    2.53
  -1  -6   2   27.88    3.19
   1  -6  -2   25.68    3.05
  -1  -6   2   25.30    2.76
   1   6  -2   29.00    2.97
   1   6  -2   25.31    2.60
  -1   6   2   20.06    2.74
  -1   6   2   21.59    2.61
   0  -6   2   33.10    3.17
   0  -6   2   28.35    3.13
   0  -6  -2   26.46    2.82
   0  -6  -2   31.40    3.67
   0   6  -2   25.96    2.67
   0   6   2   27.96    3.32
   0   6  -2   24.39    2.76
   0   6   2   31.89    3.14
  -1  -6  -2   19.54    2.50
   1  -6   2   22.77    2.79
  -1  -6  -2   21.70    2.97
   1  -6   2   24.07    2.51
  -1   6  -2   23.21    2.77
   1   6   2   24.99    3.07
   1   6   2   21.12    3.01
  -1   6  -2   18.57    2.19
  -2  -6  -2   18.52    2.81
  -2  -6  -2   21.91    2.73
   2  -6   2   20.77    2.32
   2   6   2   22.60    3.07
   2   6   2   27.79    3.20
  -2   6  -2   23.24    2.12
  -2   6  -2   17.26    2.36
  -3  -6  -2    7.40    1.83
  -3   6  -2    8.92    1.36
   3   6   2    9.18    2.04
  -4  -6  -2    4.40    1.76
  -4  -6  -2    2.46    1.33
  -4   6  -2    4.05    0.77
   4   6   2    3.13    1.72
  -4   6  -2    4.47    1.09
  -4   6  -2    3.42    0.95
  -5  -6  -2    5.32    1.88
   5   6   2    2.72    1.88
  -5   6  -2    4.15    1.12
  -5   6  -2    5.07    0.88
  -5   6  -2    4.22    1.47
  -6  -6  -2   12.07    2.57
   6   6   2   17.75    3.26
  -6   6  -2   19.05    2.78
  -7  -6  -2    3.25    2.20
  -7   6  -2    2.54    2.21
   7   6   2    4.62    2.40
  -7   6  -2    2.14    1.33
  -7   6  -2    3.88    1.35
  -8  -6  -2   11.52    3.03
  -8   6  -2   11.17    1.98
   8   6   2    9.90    2.82
  -8   6  -2   10.83    2.21
  -9  -6  -2   -0.81    2.25
   9   6   2    1.52    2.96
  -9   6  -2   -1.06    1.45
  -9   6  -2    5.45    1.86
  -9  -7   2   -0.01    2.68
  -8  -7   2    0.82    2.22
   8   7  -2    3.24    2.99
  -8   7   2    2.82    1.65
  -7  -7   2   -0.77    1.93
  -7   7   2   -1.13    1.31
   7   7  -2    3.27    2.43
  -7   7   2    0.16    1.74
  -6  -7   2    1.58    2.41
   6   7  -2    4.01    2.19
  -6   7   2    2.59    1.56
  -6   7   2    4.57    1.48
  -5  -7   2    7.33    2.09
  -5  -7   2    3.37    2.31
   5  -7  -2    4.15    1.29
   5   7  -2    5.84    2.34
   5   7  -2    0.15    2.02
  -5   7   2    3.47    1.32
  -4  -7   2   22.90    2.80
   4  -7  -2   20.77    2.48
  -4  -7   2   16.10    2.96
  -4   7   2   20.79    2.47
   4   7  -2   19.43    2.94
   4   7  -2   13.93    2.77
  -3  -7   2    3.61    1.67
  -3  -7   2    7.90    1.67
   3  -7  -2    6.43    1.43
  -3   7   2    5.42    1.38
  -3   7   2    5.59    0.93
   3   7  -2    6.48    1.85
   3   7  -2    7.13    1.86
   2  -7  -2   48.63    4.25
  -2  -7   2   39.60    3.85
  -2  -7   2   44.53    4.13
  -2  -7   2   54.15    6.05
   2  -7  -2   44.09    3.69
  -2   7   2   43.93    3.84
   2   7  -2   46.12    4.48
   2   7  -2   39.21    4.11
  -2   7   2   36.68    3.97
  -1  -7   2    1.80    1.24
   1  -7  -2    0.91    0.95
  -1  -7   2    2.19    1.15
   1  -7  -2    1.22    1.52
  -1   7   2    1.06    1.03
   1   7  -2    2.53    1.15
   1   7  -2    1.36    1.17
  -1   7   2    0.41    1.26
   0  -7  -2  147.14   11.43
   0  -7   2  156.10   11.63
   0  -7  -2  152.06   11.78
   0  -7   2  158.93   11.67
   0   7  -2  123.10   11.42
   0   7   2  147.53   11.60
   0   7   2  140.45   11.69
   0   7  -2  140.27   11.25
   1  -7   2   17.55    2.41
  -1  -7  -2   19.01    2.65
  -1  -7  -2   11.13    1.90
   1  -7   2   16.71    2.38
  -1   7  -2   16.22    2.28
  -1   7  -2   13.16    1.95
   1   7   2   18.40    2.73
   1   7   2   22.33    2.79
   2  -7   2   17.42    2.41
  -2  -7  -2   20.09    2.77
  -2  -7  -2   17.19    2.65
   2   7   2   22.53    3.36
   2   7   2   20.90    3.06
  -2   7  -2   14.68    2.40
  -2   7  -2   20.03    2.04
   3  -7   2    3.38    1.00
  -3  -7  -2    2.25    1.23
  -3  -7  -2    4.26    1.54
  -3   7  -2    2.21    1.09
  -3   7  -2    3.38    0.81
   3   7   2    0.97    1.90
   3   7   2    0.95    1.82
  -4  -7  -2  103.53    8.68
  -4  -7  -2   98.54    8.60
  -4  -7  -2  104.65    8.76
   4   7   2  104.17    8.93
  -4   7  -2  103.45    8.10
  -4   7  -2  101.30    8.10
  -4   7  -2  100.68    7.92
  -5  -7  -2   -1.01    1.86
  -5  -7  -2   -0.82    1.28
  -5   7  -2    1.55    1.12
   5   7   2    0.74    1.90
  -5   7  -2    1.59    0.74
  -5   7  -2    1.95    1.34
  -6  -7  -2    0.65    1.58
  -6   7  -2    0.28    0.81
   6   7   2    0.17    2.38
  -6   7  -2    2.08    1.47
  -6   7  -2   -0.22    1.07
  -7  -7  -2   -1.07    1.77
   7   7   2    2.68    3.48
  -7   7  -2    1.96    1.80
  -7   7  -2    1.67    1.29
  -7   7  -2    2.10    1.29
  -7   7  -2    0.52    1.15
  -8  -7  -2    4.04    2.29
   8   7   2   10.25    3.08
  -8   7  -2   11.51    2.08
  -8   7  -2   13.15    2.06
  -8   7  -2    8.40    1.58
  -9  -7  -2   -0.33    1.95
  -9   7  -2   -0.05    1.67
   9   7   2   -0.79    3.09
  -9   7  -2    0.32    1.32
  -8  -8   2   14.53    3.60
  -8   8   2   13.92    2.46
   8   8  -2   19.44    3.76
  -7   8   2   -0.35    1.38
  -7   8   2   -2.76    1.68
   7   8  -2   -0.73    3.64
   6  -8  -2   18.04    3.72
  -6  -8   2    8.47    2.51
  -6   8   2   14.25    2.20
   6   8  -2    9.61    2.65
  -6   8   2   11.73    2.18
  -5  -8   2    2.69    1.86
   5  -8  -2    6.80    1.55
  -5  -8   2    7.01    2.15
  -5   8   2    4.39    1.51
   5   8  -2    5.39    2.37
   4  -8  -2   58.86    5.16
  -4  -8   2   58.57    6.07
  -4  -8   2   55.74    5.34
  -4   8   2   52.90    5.09
   4   8  -2   61.44    5.78
  -3  -8   2   -0.29    1.32
   3  -8  -2   -0.91    1.21
  -3  -8   2   -0.06    1.49
  -3   8   2    0.03    0.78
   3   8  -2   -0.85    2.05
   3   8  -2    3.87    1.92
  -3   8   2    1.04    1.14
  -2  -8   2    7.31    1.68
   2  -8  -2    4.76    1.18
   2  -8  -2    6.00    1.94
  -2  -8   2    6.71    1.84
  -2   8   2    4.25    2.26
  -2   8   2    9.82    1.49
   2   8  -2    8.46    1.99
   2   8  -2    5.92    1.81
  -1  -8   2   20.30    3.24
  -1  -8   2   17.42    2.70
   1  -8  -2   17.07    2.82
   1  -8  -2   17.34    2.49
   1   8  -2   18.75    2.55
   1   8  -2   22.57    2.88
  -1   8   2   18.89    2.70
   0  -8   2    8.80    1.94
   0  -8   2    6.08    1.62
   0  -8  -2    5.70    1.46
   0  -8  -2    9.35    2.18
   0   8   2    6.68    3.03
   0   8   2    6.56    2.23
   0   8  -2    6.84    1.52
   0   8  -2    7.68    1.63
  -1  -8  -2    3.16    1.30
  -1  -8  -2    3.11    1.69
   1  -8   2    3.81    1.41
   1  -8   2    7.20    1.86
  -1   8  -2    6.14    1.30
   1   8   2    2.64    1.58
   1   8   2    5.88    1.90
  -1   8  -2    3.25    1.91
  -1   8  -2    3.55    1.68
   2  -8   2   -0.89    1.41
  -2  -8  -2    3.57    1.59
  -2  -8  -2   -0.59    1.06
   2  -8   2    2.99    1.16
  -2   8  -2   -0.77    1.17
   2   8   2    0.56    2.91
  -2   8  -2    0.66    0.74
   2   8   2   -1.95    1.45
   3  -8   2    1.05    1.12
  -3  -8  -2    0.28    1.28
  -3  -8  -2    2.95    1.59
   3   8   2    1.43    1.97
  -3   8  -2    0.83    1.25
  -3   8  -2    2.75    0.87
   3   8   2    0.65    2.01
  -4  -8  -2    7.78    1.93
   4  -8   2   12.02    1.68
  -4  -8  -2   11.36    2.56
  -4   8  -2   12.79    1.70
  -4   8  -2   11.82    1.62
  -4   8  -2    7.60    1.65
   4   8   2    5.14    3.09
   4   8   2   10.68    2.64
  -5  -8  -2    9.31    2.55
   5  -8   2    9.65    1.52
  -5  -8  -2    7.15    2.47
  -5  -8  -2    5.45    1.96
  -5   8  -2    8.78    1.22
  -5   8  -2    5.18    1.78
  -5   8  -2    7.64    1.66
   5   8   2    7.97    2.70
  -6  -8  -2   -0.39    1.51
   6   8   2   -0.72    2.17
  -6   8  -2    0.56    1.24
  -6   8  -2    0.78    0.82
  -6   8  -2    2.04    1.49
  -7  -8  -2   -1.37    1.62
  -7   8  -2   -0.35    0.85
  -7   8  -2   -0.55    1.85
  -7   8  -2   -1.25    1.10
  -7   8  -2    1.68    1.39
   7   8   2   -1.00    2.54
  -8  -8  -2    7.40    2.71
  -8   8  -2    6.75    1.28
   8   8   2   10.27    3.89
  -8   8  -2    6.64    1.79
  -8  -9   2   -2.37    2.52
   8   9  -2    0.49    3.35
  -8   9   2    1.98    1.72
  -7  -9   2    2.01    2.39
  -7   9   2    0.35    1.51
   7   9  -2   -2.49    2.71
   6  -9  -2    0.34    1.35
  -6  -9   2    0.55    2.22
   6   9  -2   -2.46    2.38
  -6   9   2    1.36    2.15
  -6   9   2   -0.16    1.41
   5  -9  -2    0.53    1.39
  -5  -9   2    1.44    2.00
  -5  -9   2   -1.81    1.89
  -5   9   2    1.06    1.45
   5   9  -2   -3.14    2.07
   4  -9  -2   22.95    3.04
  -4  -9   2   22.37    3.36
  -4  -9   2   18.43    2.78
  -4   9   2   16.73    2.52
   4   9  -2   17.80    3.23
   4   9  -2   16.99    3.46
  -3  -9   2    2.38    1.55
  -3  -9   2    3.03    1.98
   3  -9  -2    0.97    1.70
   3   9  -2    3.35    2.12
  -3   9   2    1.43    1.04
  -3   9   2    0.76    1.43
   3   9  -2    1.04    1.78
  -2  -9   2   13.46    2.25
  -2  -9   2   16.32    2.62
   2  -9  -2   13.77    2.60
   2  -9  -2   16.74    2.28
  -2   9   2    9.86    2.18
  -2   9   2   14.78    2.10
   2   9  -2   15.71    2.58
   2   9  -2   10.64    2.41
   1  -9  -2   -2.76    1.59
  -1  -9   2   -2.13    1.36
  -1  -9   2    1.57    1.37
   1  -9  -2   -1.02    1.10
   1   9  -2   -2.09    1.36
   1   9  -2    1.10    1.26
  -1   9   2   -0.60    1.20
  -1   9   2   -1.43    1.55
   0  -9   2   96.72    8.11
   0  -9  -2   99.41    8.37
   0  -9   2  104.98    8.44
   0  -9  -2   96.81    7.90
   0   9   2   94.10    8.11
   0   9   2   89.76    7.89
   0   9  -2   84.17    7.81
   0   9  -2   93.17    7.71
   0   9   2   90.86    8.28
   1  -9   2    5.09    2.01
   1  -9   2    3.42    1.57
  -1  -9  -2    4.33    1.47
  -1  -9  -2    5.84    1.92
  -1   9  -2    3.62    1.21
   1   9   2    6.09    2.14
  -1   9  -2    6.40    1.45
   1   9   2    3.51    1.83
   2  -9   2   -1.39    1.48
   2  -9   2    0.93    1.29
  -2  -9  -2    0.94    1.24
  -2  -9  -2    3.69    1.81
   2   9   2   -0.66    2.02
  -2   9  -2    1.48    1.66
   2   9   2   -0.28    1.87
  -2   9  -2    2.20    1.17
   3  -9   2    5.33    1.69
  -3  -9  -2   11.56    3.18
  -3  -9  -2    6.54    1.89
  -3   9  -2    4.41    1.13
  -3   9  -2    2.85    1.58
   3   9   2    4.41    2.51
   3   9   2   11.63    2.83
  -4  -9  -2   22.61    3.64
   4   9   2   18.94    3.56
  -4   9  -2   22.18    3.45
   4   9   2   30.11    4.68
  -4   9  -2   25.02    2.52
  -4   9  -2   24.48    2.55
  -5  -9  -2    0.00    1.86
   5  -9   2    1.65    1.23
   5   9   2   -0.24    2.62
  -5   9  -2    2.26    0.92
  -5   9  -2    0.27    1.29
  -5   9  -2    0.77    1.31
  -6  -9  -2   -2.91    1.39
  -6   9  -2   -0.91    1.32
   6   9   2   -3.24    2.51
  -6   9  -2   -0.61    0.78
  -6   9  -2    1.69    1.49
  -7  -9  -2    2.54    2.12
  -7   9  -2    2.79    0.97
   7   9   2    0.92    3.15
  -7   9  -2    5.02    2.13
  -7   9  -2    2.92    1.62
  -7   9  -2    3.59    1.23
  -8  -9  -2    2.33    2.10
   8   9   2    0.02    3.09
  -8   9  -2    0.42    1.60
  -8 -10   2    2.15    2.71
   8  10  -2   -1.11    3.20
  -7 -10   2    0.10    2.29
  -7  10   2   -0.67    1.69
   7  10  -2   -4.23    2.70
  -6 -10   2   12.69    2.89
   6 -10  -2   14.40    2.87
  -6  10   2   10.84    2.50
  -6  10   2   12.13    2.33
   6  10  -2   11.51    3.49
  -5 -10   2    0.65    1.94
   5 -10  -2    1.55    1.87
   5  10  -2    1.91    2.48
  -5  10   2    1.84    1.57
  -4 -10   2    6.98    3.94
   4 -10  -2   12.27    2.44
  -4 -10   2    9.09    2.48
  -4  10   2    6.88    2.00
   4  10  -2   13.17    3.07
  -3 -10   2    3.49    1.79
  -3 -10   2    3.49    1.83
   3 -10  -2    2.52    2.01
   3  10  -2    7.72    2.31
  -3  10   2    0.94    1.68
  -3  10   2    3.87    1.33
   3  10  -2    3.10    2.06
  -2 -10   2   22.47    3.27
   2 -10  -2   23.34    3.67
  -2 -10   2   16.18    2.78
   2 -10  -2   19.03    2.79
   2  10  -2   27.96    3.77
   2  10  -2   23.70    3.67
  -2  10   2   15.61    2.88
  -2  10   2   22.98    2.99
  -1 -10   2   36.92    4.40
   1 -10  -2   38.72    4.24
   1 -10  -2   41.51    4.96
  -1 -10   2   46.05    4.87
   1  10  -2   40.98    4.32
  -1  10   2   45.67    4.48
   1  10  -2   41.28    4.44
  -1  10   2   37.49    4.66
   0 -10  -2    0.94    1.86
   0 -10   2    0.96    1.60
   0 -10  -2   -0.07    2.64
   0 -10   2   -0.09    1.54
   0  10   2    3.13    2.01
   0  10  -2    0.37    1.44
   0  10   2   -0.27    1.44
   0  10   2    0.01    2.15
   0  10  -2    1.54    1.34
  -1 -10  -2    2.29    1.84
  -1 -10  -2    1.76    1.35
   1 -10   2    3.77    1.96
   1 -10   2   -0.03    2.76
  -1  10  -2    1.55    1.13
   1  10   2    2.28    1.90
  -1  10  -2    1.28    1.38
   1  10   2    1.90    1.90
  -2 -10  -2    6.67    1.87
   2 -10   2    8.36    1.94
   2 -10   2    9.21    2.50
  -2 -10  -2   13.76    2.59
   2  10   2   16.46    2.98
  -2  10  -2    8.43    1.56
   2  10   2   11.14    3.00
  -2  10  -2    9.55    2.23
   3 -10   2   30.66    3.68
  -3 -10  -2   24.83    3.73
  -3  10  -2   25.15    2.94
   3  10   2   32.46    4.57
  -3  10  -2   26.17    3.55
   3  10   2   34.64    4.45
   4 -10   2    2.96    1.58
  -4 -10  -2    2.26    1.57
  -4  10  -2    2.01    1.62
  -4  10  -2    5.00    1.36
  -4  10  -2    5.90    1.20
   4  10   2    2.15    2.25
  -5 -10  -2   -0.22    1.67
   5 -10   2    1.64    1.39
  -5  10  -2   -0.30    1.22
  -5  10  -2    1.54    0.88
  -5  10  -2    1.88    1.53
   5  10   2   -1.97    2.33
  -6 -10  -2   -0.60    1.52
  -6  10  -2    2.02    1.65
  -6  10  -2    1.09    1.51
  -6  10  -2    2.97    0.97
  -7 -10  -2   -0.29    1.89
   7  10   2   -5.01    2.81
  -7  10  -2    0.95    1.61
  -7  10  -2   -2.16    1.90
  -8  10  -2    0.58    1.59
  -7 -11   2   -0.20    2.37
   7  11  -2   -5.46    2.81
  -7  11   2    1.14    1.88
  -6 -11   2    1.24    2.37
  -6  11   2   -0.61    1.69
  -6  11   2    2.35    1.76
   5 -11  -2    3.59    2.29
  -5 -11   2    3.13    2.51
  -5  11   2    2.13    1.77
   5  11  -2   -0.03    2.53
   4 -11  -2    7.03    2.45
  -4 -11   2    4.71    1.95
  -4  11   2    5.61    1.89
   4  11  -2    6.12    2.72
   3 -11  -2    0.58    2.13
  -3 -11   2    2.72    1.82
  -3  11   2    3.76    1.52
  -3  11   2    2.18    1.82
   3  11  -2    2.85    2.36
  -2 -11   2    4.64    2.15
  -2 -11   2    6.55    2.01
   2 -11  -2    3.90    1.55
   2  11  -2    2.79    2.00
   2  11  -2    1.61    2.08
  -2  11   2    1.65    1.83
  -1 -11   2    0.94    1.83
   1 -11  -2    2.66    1.57
  -1 -11   2    5.10    2.31
   1  11  -2    1.79    1.92
   1  11  -2    4.63    1.84
  -1  11   2    2.64    2.08
  -1  11   2    1.22    1.53
   0 -11   2   15.39    2.71
   0 -11   2   10.06    2.43
   0 -11  -2    9.46    2.20
   0 -11  -2   20.37    3.19
   0  11   2   15.91    2.71
   0  11  -2   15.73    2.47
   0  11   2   15.31    2.76
   0  11  -2   13.23    2.24
  -1 -11  -2   12.09    2.64
   1 -11   2    9.00    2.25
   1 -11   2   11.12    2.70
  -1 -11  -2   10.66    2.24
   1  11   2   13.37    2.90
  -1  11  -2   13.42    2.10
   1  11   2   14.55    2.88
  -1  11  -2    8.14    1.86
   2 -11   2    8.77    2.42
  -2 -11  -2    3.15    1.81
  -2 -11  -2    9.77    2.35
  -2  11  -2    4.88    1.49
   2  11   2    2.62    2.58
  -2  11  -2    7.37    1.56
   2  11   2   12.11    2.82
   3 -11   2    3.06    2.00
  -3 -11  -2    5.30    1.94
   3  11   2    6.20    2.66
  -3  11  -2    6.51    1.42
   3  11   2    4.02    4.68
  -3  11  -2    6.58    2.12
  -4 -11  -2   -0.43    1.50
   4 -11   2    3.46    1.82
  -4  11  -2    0.82    1.68
   4  11   2    2.68    2.73
  -4  11  -2   -0.54    1.10
  -4  11  -2    3.70    1.37
  -5 -11  -2    0.17    2.61
   5 -11   2    1.75    1.74
  -5  11  -2    0.95    1.61
   5  11   2    0.34    2.50
  -5  11  -2    1.74    1.44
  -5  11  -2    4.50    1.09
  -6 -11  -2    0.08    1.52
  -6  11  -2    3.39    1.75
  -6  11  -2   -0.02    1.59
   6  11   2   -0.67    2.75
  -7 -11  -2    2.59    2.36
   7  11   2    3.92    3.73
  -7  11  -2    0.74    1.72
  -7  11  -2    3.35    1.92
  -7 -12   2    0.40    2.07
  -7  12   2   -0.67    2.16
   7  12  -2   -5.53    3.17
  -6 -12   2    3.84    2.05
  -6  12   2    4.69    2.00
  -6  12   2    1.35    1.93
   6  12  -2    3.67    3.39
  -5 -12   2    5.87    2.61
  -5  12   2    4.31    2.03
   5  12  -2    6.00    3.25
  -4 -12   2   -0.29    1.84
   4  12  -2   -3.26    2.29
  -4  12   2   -3.11    1.65
  -3 -12   2    0.85    2.05
   3 -12  -2   -4.23    2.18
  -3  12   2   -2.29    1.41
   3  12  -2   -2.29    2.04
  -3  12   2    1.86    1.82
  -2 -12   2   11.36    2.59
   2 -12  -2   14.29    3.28
   2 -12  -2   11.22    2.16
   2  12  -2   11.29    2.65
  -2  12   2   12.07    2.33
  -2  12   2    9.40    2.42
   1 -12  -2   28.17    3.81
   1 -12  -2   37.03    4.81
  -1 -12   2   31.45    4.22
  -1 -12   2   28.39    4.39
   1  12  -2   30.98    4.68
  -1  12   2   22.37    3.84
  -1  12   2   35.31    4.06
   1  12  -2   32.47    4.07
  -1  12   2   29.03    3.67
   0 -12  -2    1.30    1.54
   0 -12   2   -0.45    1.81
   0 -12   2    3.08    2.06
   0 -12  -2    1.22    1.97
   0  12  -2    1.60    1.40
   0  12   2   -0.92    1.77
   0  12   2    0.88    1.83
   0  12  -2    0.89    1.65
   1 -12   2    1.64    1.87
  -1 -12  -2    1.40    1.52
   1 -12   2    2.15    2.36
   1  12   2    0.27    1.95
   1  12   2    4.02    4.41
  -1  12  -2    2.56    1.31
  -1  12  -2    0.49    1.46
   2 -12   2    1.33    2.32
   2 -12   2   -1.73    1.71
  -2 -12  -2    1.75    1.61
   2  12   2   -1.57    2.42
  -2  12  -2    2.71    1.36
  -2  12  -2    2.01    1.46
   2  12   2    1.78    2.26
   3  12   2   17.11    3.57
  -3  12  -2   16.11    2.57
  -3  12  -2   14.58    2.88
   4 -12   2   -3.53    1.74
  -4 -12  -2   -0.81    1.76
  -4  12  -2    0.22    1.30
   4  12   2    1.14    2.42
  -4  12  -2    2.30    1.23
  -4  12  -2    0.83    1.84
   5 -12   2    1.21    3.29
  -5 -12  -2   -0.57    1.50
  -5  12  -2   -1.13    1.77
   5  12   2    2.27    4.96
  -5  12  -2    3.45    1.25
  -5  12  -2    0.71    1.44
  -6 -12  -2    1.31    1.76
   6 -12   2   -1.33    2.09
   6  12   2   -4.17    2.66
  -6  12  -2    0.52    1.68
  -6  12  -2    4.14    1.78
  -6 -13   2   -0.11    2.19
  -6  13   2   -3.11    2.84
   6  13  -2   -4.60    2.42
  -6  13   2   -3.31    2.07
  -5 -13   2    1.53    2.22
  -5  13   2    0.83    1.91
   5  13  -2   -0.23    2.57
  -4 -13   2    6.15    2.65
   4  13  -2    4.66    2.68
  -4  13   2    1.67    2.09
  -3 -13   2    0.41    1.99
   3  13  -2    0.80    2.30
  -3  13   2   -3.23    1.66
  -2 -13   2    2.60    1.96
  -2  13   2    0.77    2.14
  -2  13   2    0.16    1.90
   2  13  -2   -0.25    2.04
  -1 -13   2   -3.23    1.62
   1 -13  -2   -1.03    1.53
  -1  13   2    0.54    1.79
   1  13  -2   -0.50    1.83
  -1  13   2   -1.56    1.90
   0 -13  -2    7.14    2.12
   0 -13   2   10.65    3.00
   0 -13   2    8.19    2.34
   0  13  -2    7.43    1.86
   0  13  -2    9.60    2.29
   0  13   2    6.99    2.27
   0  13   2    3.27    2.68
   1 -13   2    7.26    2.51
  -1 -13  -2    0.24    1.68
   1 -13   2   -1.01    1.92
  -1  13  -2    0.26    1.46
  -1  13  -2    0.90    1.56
   1  13   2   -3.35    2.14
   1  13   2    0.53    1.93
   2 -13   2    6.16    2.26
   2 -13   2   12.18    3.03
  -2 -13  -2    6.93    2.16
   2  13   2    9.62    2.65
  -2  13  -2    6.18    1.68
  -2  13  -2   10.62    1.90
  -3 -13  -2   -0.27    1.60
   3 -13   2   -2.62    2.19
  -3  13  -2    1.56    1.28
   3  13   2   -0.53    2.37
  -3  13  -2   -0.80    1.23
   4 -13   2   -0.44    2.37
  -4 -13  -2    3.09    1.97
   4  13   2    3.82    2.74
  -4  13  -2    6.59    1.48
  -4  13  -2    2.85    1.72
  -4  13  -2    2.91    2.07
  -5 -13  -2    1.45    1.93
   5 -13   2   -6.14    2.23
  -5  13  -2   -0.07    1.78
  -5  13  -2   -0.65    1.57
   5  13   2   -0.79    2.69
  -6 -13  -2   -0.23    1.67
  -6  13  -2    1.74    1.89
   6  13   2   -5.52    2.81
  -6  13  -2    4.64    1.91
  -5 -14   2    1.68    2.08
  -5  14   2    0.65    1.97
   5  14  -2    2.19    2.98
  -4 -14   2    2.82    2.32
   4  14  -2   -0.58    2.63
  -4  14   2    2.72    2.23
  -3 -14   2    1.33    1.94
   3  14  -2   -1.31    2.29
  -3  14   2    0.99    2.24
   2 -14  -2    1.63    1.92
  -2 -14   2    3.78    2.13
  -2  14   2    4.15    1.88
   2  14  -2    4.59    2.48
  -2  14   2   -3.09    1.98
  -2  14   2    1.37    2.24
   1 -14  -2    0.80    1.69
  -1 -14   2   -1.46    1.97
  -1  14   2    3.92    2.06
  -1  14   2   -4.89    2.05
   1  14  -2   -1.00    1.83
   0 -14   2   -0.79    1.80
   0 -14  -2    0.25    1.81
   0  14   2    1.34    1.92
   1 -14   2   -2.07    1.98
  -1 -14  -2   -2.20    1.59
  -1  14  -2    1.05    1.55
  -1  14  -2    0.31    1.50
   1  14   2   -1.22    1.97
  -2 -14  -2    0.84    1.73
   2 -14   2   -3.67    1.98
  -2  14  -2    1.81    1.48
   2  14   2    2.48    2.11
  -2  14  -2   -0.24    1.36
  -3 -14  -2    1.65    2.04
   3  14   2    2.34    2.49
  -3  14  -2    3.25    1.52
  -3  14  -2    3.03    1.48
  -4 -14  -2    0.60    1.84
  -4  14  -2   -1.59    1.24
  -4  14  -2    1.56    1.41
   4  14   2   -0.04    2.49
  -4  14  -2    0.70    1.29
  -5 -14  -2    1.87    2.04
  -5  14  -2    0.01    2.00
   5  14   2    0.07    2.74
  -4 -15   2   -0.76    2.12
  -4  15   2    4.12    2.38
   4  15  -2    2.40    2.82
  -3 -15   2    0.62    2.06
  -3  15   2    0.20    2.13
   3  15  -2   -1.44    2.21
  -2 -15   2   -0.08    2.30
   2 -15  -2   -2.82    1.86
  -2  15   2    1.05    1.85
   2  15  -2   -2.19    2.00
  -1 -15   2    0.86    2.10
   1 -15  -2   -0.14    1.74
  -1  15   2   -4.59    2.53
  -1  15   2    4.80    2.15
   1  15  -2    5.18    2.12
   0 -15   2    7.41    2.44
   0 -15  -2    4.12    2.15
   0  15  -2    9.37    2.29
   0  15   2   13.01    2.70
  -1 -15  -2   -0.71    1.96
   1 -15   2   -1.89    2.00
  -1  15  -2    0.82    1.63
   1  15   2    1.54    2.10
  -2 -15  -2    2.61    2.02
  -2  15  -2    3.27    1.57
  -2  15  -2    3.13    1.65
   2  15   2    2.61    2.44
  -3 -15  -2    2.71    1.98
   3  15   2   -0.54    3.76
  -3  15  -2    2.27    1.32
  -3  15  -2   -0.30    1.42
  -4 -15  -2    3.02    2.10
  -4  15  -2    6.32    1.44
  -4  15  -2    3.41    1.30
  -4  15  -2    5.71    1.73
   4  15   2    4.75    2.72
  -2 -16   2   -0.48    2.35
   2 -16  -2   -0.89    2.05
  -2  16   2    1.73    1.90
   2  16  -2    1.43    2.13
  -1 -16   2   -1.60    2.04
   1 -16  -2    1.74    1.93
   1  16  -2    3.56    2.03
  -1  16   2    3.45    2.04
   0 -16   2   -1.14    2.55
   0 -16  -2    1.25    1.99
   0  16   2    0.65    1.95
   0  16  -2    0.27    1.77
   1 -16   2   -3.44    2.11
  -1 -16  -2    2.36    2.30
  -1  16  -2   -0.92    1.57
   1  16   2    2.41    2.19
  -2 -16  -2    1.96    2.18
   2  16   2    1.60    2.27
  -2  16  -2    2.10    1.47
 -10   0   3    2.20    2.04
 -10   0   3    0.23    1.83
  -9   0   3   -1.64    1.98
  -9   0   3    2.70    2.28
  -8   0   3    4.32    1.70
  -8   0   3    1.79    2.12
  -7   0   3    2.16    2.07
  -7   0   3    2.49    1.76
  -7   0   3    7.05    1.70
  -6   0   3    1.84    1.40
  -6   0   3   -0.46    0.99
  -6   0   3   -2.96    1.59
  -5   0   3   -1.02    1.22
  -5   0   3    0.40    1.19
  -5   0   3    0.66    0.85
   5   0  -3    1.55    0.86
   4   0  -3    1.67    0.78
  -4   0   3   -0.45    0.87
  -4   0   3    1.20    0.72
   3   0  -3    1.00    0.72
  -3   0   3    0.68    0.79
  -2   0   3    0.52    0.43
   2   0  -3    0.04    0.61
  -2   0   3    0.99    0.57
   1   0  -3    0.88    0.39
  -1   0   3    0.84    0.35
   1   0  -3    0.45    0.27
  -1   0   3    0.68    0.33
   0   0   3    1.10    0.27
   0   0  -3    0.84    0.32
  -1   0  -3    0.57    0.51
   1   0   3    0.06    0.68
   2   0   3    2.97    0.80
  -2   0  -3    3.67    0.97
  -3   0  -3    1.22    0.98
   3   0   3    1.65    0.84
   4   0   3    1.48    1.01
  -4   0  -3    0.56    1.14
  -5   0  -3    1.22    0.97
   5   0   3    0.74    1.00
  -5   0  -3    1.17    1.30
  -6   0  -3    2.65    1.65
   6   0   3    2.94    1.48
  -6   0  -3    0.88    1.25
  -7   0  -3    0.72    1.61
  -7   0  -3    0.57    1.85
   7   0   3    3.47    1.50
  -8   0  -3    1.49    1.98
  -8   0  -3    1.09    1.34
  -9   0  -3   -0.15    1.37
  -9   0  -3    0.86    1.89
 -10  -1   3    3.68    2.03
 -10  -1   3    1.58    2.43
 -10   1   3    2.08    1.84
 -10   1   3    0.75    1.80
  -9  -1   3    3.01    2.50
  -9  -1   3    3.19    2.44
  -9   1   3    3.04    1.93
  -9   1   3    2.44    1.78
  -8  -1   3    2.39    1.48
  -8  -1   3    1.49    2.22
  -8   1   3    2.60    1.91
  -8   1   3    3.28    1.51
  -7  -1   3    0.50    2.19
  -7  -1   3    4.76    2.11
  -7  -1   3    3.68    1.54
  -7   1   3    2.25    1.39
  -7   1   3    4.94    2.06
  -7   1   3    4.32    1.74
  -6  -1   3   17.61    4.00
  -6  -1   3   23.84    3.00
  -6   1   3   24.06    2.63
  -6   1   3   22.47    3.01
  -5  -1   3   -0.70    1.44
  -5  -1   3    2.99    1.25
  -5   1   3    0.69    1.21
  -5   1   3    1.81    1.57
  -5   1   3    1.48    1.14
   5   1  -3    2.39    1.07
   4  -1  -3   19.81    1.77
  -4  -1   3   13.47    2.00
  -4   1   3   18.65    1.79
  -4   1   3   13.46    2.01
   4   1  -3   14.56    2.20
  -4   1   3   15.53    2.11
   3  -1  -3    0.39    0.49
  -3  -1   3   -0.57    0.66
  -3  -1   3   -0.29    0.86
  -3   1   3    0.09    0.64
   3   1  -3    0.10    0.78
  -3   1   3    0.45    0.51
  -2  -1   3   32.15    2.81
  -2   1   3   34.78    2.73
  -1  -1   3    0.14    0.46
   1  -1  -3    0.32    0.27
   1  -1  -3   -0.13    0.33
   1   1  -3    0.24    0.55
  -1   1   3   -0.23    0.36
   0  -1  -3  104.75    7.41
   0   1   3   95.43    7.42
   0   1  -3   92.30    7.39
   1  -1   3    0.84    0.52
  -1  -1  -3    0.87    0.75
   1   1   3    1.69    1.11
   1   1   3    0.18    0.79
  -1   1  -3    2.81    0.70
  -2  -1  -3   19.36    2.20
   2  -1   3   19.18    1.77
   2   1   3   17.40    2.06
  -2   1  -3   21.58    2.00
  -3  -1  -3    7.69    1.48
   3  -1   3    5.01    1.01
   3   1   3    7.62    1.30
  -3   1  -3    6.19    1.26
  -4  -1  -3   29.70    3.17
  -4  -1  -3   28.17    2.99
   4  -1   3   31.36    2.83
   4   1   3   30.19    2.98
   5  -1   3   12.17    2.78
  -5  -1  -3   11.62    2.21
  -5   1  -3    9.76    1.87
   5   1   3    9.63    1.83
  -5   1  -3    9.34    1.59
  -6  -1  -3    1.60    1.49
  -6  -1  -3    4.63    1.87
   6  -1   3    1.51    1.23
   6   1   3    5.68    1.51
  -6   1  -3    2.20    1.04
  -6   1  -3    3.23    1.65
  -6   1  -3    3.53    1.37
  -7  -1  -3    5.42    2.01
  -7  -1  -3    8.08    2.55
  -7   1  -3    7.92    1.46
  -7   1  -3    8.29    2.36
  -7   1  -3    5.44    1.86
   7   1   3   11.01    2.37
  -8  -1  -3   -1.96    1.64
  -8   1  -3    2.50    1.93
   8   1   3    3.61    1.70
  -8   1  -3    0.51    1.31
  -9  -1  -3    1.31    1.49
  -9  -1  -3    1.07    2.09
  -9   1  -3    1.74    1.91
  -9   1  -3    0.31    1.36
 -10  -2   3    9.94    2.50
 -10   2   3    9.03    2.41
 -10   2   3   10.82    2.43
  -9  -2   3    4.38    2.89
  -9  -2   3    0.20    1.71
  -9   2   3    2.79    1.75
  -9   2   3    1.76    1.67
  -8  -2   3    2.51    2.62
  -8   2   3    3.69    1.56
  -7  -2   3    0.07    2.16
  -7   2   3    4.16    1.84
  -7   2   3    3.15    1.55
  -7   2   3    3.31    1.31
  -6  -2   3   27.65    3.26
  -6  -2   3   16.39    3.43
  -6   2   3   28.68    2.88
  -6   2   3   28.07    3.32
  -6   2   3   22.58    3.35
   6   2  -3   38.11    3.62
  -5  -2   3    3.21    1.82
  -5  -2   3    8.10    1.50
  -5   2   3   10.26    1.73
   5   2  -3   10.28    1.76
  -5   2   3    9.76    1.73
  -5   2   3    5.37    1.38
  -4  -2   3    4.53    1.75
  -4  -2   3   10.02    1.58
  -4   2   3   13.45    1.74
   4   2  -3    6.50    1.63
  -4   2   3    8.80    1.34
  -4   2   3    8.36    1.27
   3  -2  -3    8.28    1.15
  -3  -2   3   10.22    1.32
  -3  -2   3    7.63    1.72
  -3   2   3    8.11    1.19
   3   2  -3    8.01    1.58
   3   2  -3   11.71    1.50
  -3   2   3    9.07    1.08
   2  -2  -3    0.14    0.31
   2  -2  -3    1.25    0.53
  -2  -2   3    0.56    0.56
  -2  -2   3    0.39    0.80
   2   2  -3    0.53    0.88
   2   2  -3    0.61    0.62
  -2   2   3    1.14    0.54
   1  -2  -3   17.21    1.58
  -1  -2   3   20.94    2.07
   1   2  -3   13.92    1.85
  -1   2   3   17.19    1.59
   0  -2   3   17.31    1.65
   0   2  -3   15.69    1.58
   1  -2   3    6.71    0.53
  -1  -2  -3    3.62    1.13
   1  -2   3    5.29    0.61
   1   2   3    7.93    1.43
  -1   2  -3    6.36    0.87
   1   2   3    3.14    1.37
  -2  -2  -3    4.75    0.83
  -2  -2  -3    5.11    1.17
  -2   2  -3    3.55    0.79
   2   2   3    5.02    1.28
  -3  -2  -3   22.03    2.65
   3  -2   3   23.83    2.12
  -3  -2  -3   24.59    2.41
   3   2   3   25.50    2.61
  -3   2  -3   19.78    2.28
  -3   2  -3   23.20    1.91
  -4  -2  -3  130.88    9.76
   4  -2   3  119.28    9.49
  -4  -2  -3  124.29    9.85
   4   2   3  122.50    9.76
  -4   2  -3  125.01    9.34
  -4   2  -3  114.74    9.65
  -5  -2  -3    4.72    1.47
   5  -2   3    7.21    1.33
  -5  -2  -3    5.85    1.80
   5   2   3    8.48    1.67
  -5   2  -3    5.95    1.68
  -5   2  -3    6.04    1.01
  -6  -2  -3    0.13    1.90
  -6  -2  -3   -1.00    1.23
  -6   2  -3    0.52    1.46
  -6   2  -3    1.87    0.97
   6   2   3    4.73    1.78
  -7  -2  -3    1.87    1.81
   7   2   3    6.23    1.95
  -7   2  -3    2.61    1.51
  -7   2  -3    1.89    1.17
  -7   2  -3    2.62    1.87
  -8  -2  -3   17.58    3.32
   8   2   3   27.72    3.78
  -8   2  -3   26.23    2.84
  -8   2  -3   16.49    3.02
  -9  -2  -3    1.36    2.46
  -9   2  -3    0.34    1.41
  -9   2  -3   -1.50    1.63
 -10  -3   3    2.71    1.94
 -10  -3   3    0.19    2.45
 -10   3   3    0.64    1.57
 -10   3   3    2.24    1.82
  -9  -3   3    6.03    2.89
  -9   3   3    7.35    2.11
  -8  -3   3   -1.77    2.30
  -8   3   3    0.34    1.31
  -8   3   3    0.14    1.42
  -7  -3   3    1.31    2.52
  -7   3   3    3.49    1.52
  -7   3   3    4.10    1.93
  -7   3   3    5.21    1.49
  -6  -3   3   35.16    5.21
  -6   3   3   39.60    3.56
  -6   3   3   36.30    3.91
  -6   3   3   32.24    3.65
   6   3  -3   42.63    4.45
  -5  -3   3    6.08    2.21
  -5  -3   3    7.52    1.74
  -5   3   3    8.60    1.75
   5   3  -3    7.97    1.64
  -5   3   3    6.69    1.21
   5   3  -3    6.83    1.75
  -5   3   3    7.50    1.25
  -4  -3   3   38.72    4.65
  -4  -3   3   42.86    3.90
  -4   3   3   48.61    3.74
   4   3  -3   49.71    4.08
  -4   3   3   39.31    3.54
   4   3  -3   45.80    4.43
   3  -3  -3    4.01    0.82
  -3  -3   3    6.45    1.17
  -3  -3   3    4.35    1.41
   3   3  -3    6.39    1.28
  -3   3   3    4.74    0.86
   3   3  -3    3.47    1.26
  -2  -3   3   54.94    4.89
  -2  -3   3   53.89    4.38
   2  -3  -3   61.13    4.39
   2   3  -3   43.93    4.71
   2   3  -3   54.43    4.42
  -2   3   3   57.10    4.37
   1  -3  -3    1.68    0.64
   1  -3  -3    1.36    0.35
  -1  -3   3    2.18    0.99
  -1  -3   3    1.92    0.53
   1   3  -3    1.44    0.80
  -1   3   3    1.88    0.65
   1   3  -3    1.18    0.53
   0  -3  -3  328.49   23.68
   0  -3  -3  325.18   23.44
   0  -3   3  296.04   23.32
   0  -3   3  340.81   23.59
   0   3   3  279.97   23.60
   0   3  -3  307.34   23.51
  -1  -3  -3    0.00    1.11
   1  -3   3    1.07    0.50
  -1  -3  -3    0.70    0.50
  -1   3  -3    1.55    0.53
  -1   3  -3    0.22    0.34
  -1   3  -3    0.61    0.61
   1   3   3   -0.42    1.26
   1   3   3   -1.84    1.06
  -3  -3  -3   16.33    2.21
  -3  -3  -3   13.09    1.91
   3   3   3   19.55    2.39
  -3   3  -3   12.76    1.68
  -3   3  -3   13.75    1.32
  -4  -3  -3   73.14    6.00
  -4  -3  -3   67.11    6.02
  -4   3  -3   66.91    5.74
  -4   3  -3   70.08    5.39
  -5  -3  -3    1.12    1.29
  -5  -3  -3    0.14    1.62
   5   3   3    3.47    1.47
  -5   3  -3    1.19    0.72
  -5   3  -3    2.49    1.40
  -6  -3  -3    0.79    1.80
  -6  -3  -3    1.17    1.42
  -6   3  -3    3.40    1.27
  -6   3  -3    1.24    0.95
   6   3   3    6.89    1.98
  -6   3  -3    2.05    1.62
  -7  -3  -3   17.02    2.95
   7   3   3   22.04    3.49
  -7   3  -3   26.00    3.98
  -7   3  -3   21.85    3.27
  -7   3  -3   23.49    2.55
  -8  -3  -3   -0.91    1.93
   8   3   3    3.68    3.06
  -8   3  -3    0.80    1.70
  -8   3  -3    2.51    1.38
  -9  -3  -3    1.02    2.19
  -9   3  -3    1.74    1.44
  -9   3  -3   -0.86    1.81
   9   3   3    3.09    2.49
  -9  -4   3    1.62    3.25
  -9   4   3    0.57    1.24
  -9   4   3    0.85    1.75
  -8  -4   3   -0.07    2.77
  -8   4   3    2.09    1.11
  -8   4   3   -0.46    1.39
  -7  -4   3    0.69    2.60
  -7   4   3    8.02    1.64
   7   4  -3    9.88    2.56
  -7   4   3    7.59    1.34
  -7   4   3    6.68    2.11
  -6  -4   3    7.66    2.86
  -6  -4   3   16.77    2.60
  -6   4   3   12.66    1.76
  -6   4   3   10.67    1.83
  -6   4   3   13.51    2.29
   6   4  -3   14.07    2.59
   6   4  -3   21.08    3.07
  -5  -4   3    2.88    1.38
  -5  -4   3    0.74    1.85
   5   4  -3    5.44    1.65
  -5   4   3    3.96    1.03
  -5   4   3    4.13    0.69
  -5   4   3    3.83    1.39
   5   4  -3    2.71    1.74
  -4  -4   3   -1.09    1.47
   4  -4  -3    2.94    0.82
  -4  -4   3    3.38    1.23
   4   4  -3    1.93    1.38
  -4   4   3    3.17    0.93
   4   4  -3    4.20    1.50
  -3  -4   3  109.33    8.53
   3  -4  -3  110.99    8.46
  -3  -4   3  107.76    9.10
  -3   4   3  109.21    8.42
   3   4  -3  113.58    8.61
   3   4  -3   98.36    8.92
   2  -4  -3   13.31    1.58
  -2  -4   3   12.38    1.99
  -2  -4   3   11.83    1.52
  -2   4   3   11.74    1.55
   2   4  -3   11.86    1.94
   2   4  -3   14.88    1.68
  -1  -4   3   15.59    2.24
   1  -4  -3   12.36    1.43
   1  -4  -3   17.91    1.89
  -1  -4   3   13.33    1.45
   1   4  -3   14.36    1.94
  -1   4   3   17.10    1.82
   1   4  -3   14.57    1.51
   0  -4  -3   13.68    1.98
   0  -4  -3   11.02    1.34
   0  -4   3   12.45    1.57
   0  -4   3   15.57    1.81
   0   4   3    8.01    1.58
   0   4  -3   11.58    1.09
   0   4  -3   12.98    1.58
  -1  -4  -3  115.08    8.48
   1  -4   3  103.32    8.44
   1  -4   3  125.60    8.48
  -1  -4  -3   94.03    8.72
  -1   4  -3  112.84    8.38
  -1   4  -3  104.80    8.46
   1   4   3  103.80    8.83
   1   4   3  109.59    8.92
  -2  -4  -3   22.28    2.44
  -2   4  -3   24.79    2.13
  -3  -4  -3   24.87    2.94
  -3  -4  -3   27.41    2.73
   3   4   3   22.77    3.02
  -3   4  -3   22.61    2.32
  -3   4  -3   26.21    2.15
  -4  -4  -3   33.05    3.59
  -4  -4  -3   35.35    3.80
  -4   4  -3   36.05    2.93
  -4   4  -3   33.93    3.26
   4   4   3   36.86    3.80
  -5  -4  -3    6.26    1.60
  -5  -4  -3    5.18    1.91
  -5   4  -3    9.45    1.82
  -5   4  -3    6.17    1.04
   5   4   3    7.87    1.92
  -6  -4  -3    6.18    1.99
  -6  -4  -3    9.65    2.45
  -6   4  -3    5.44    1.83
   6   4   3    8.07    2.20
  -7  -4  -3    1.42    1.82
   7   4   3    3.81    1.96
  -7   4  -3    1.52    1.36
  -7   4  -3    0.83    1.09
  -8  -4  -3    4.64    2.29
  -8   4  -3    5.88    1.89
   8   4   3    8.39    2.67
  -8   4  -3    5.58    1.55
  -9  -4  -3   -0.91    1.86
  -9   4  -3    1.66    1.43
  -9   4  -3    1.91    1.91
   9   4   3    1.41    2.37
  -9  -5   3    1.33    2.70
  -9   5   3    2.38    2.94
  -8  -5   3   -0.81    2.56
  -8   5   3    2.36    1.53
  -8   5   3    1.67    0.74
  -7  -5   3    8.45    3.00
  -7   5   3    7.31    1.68
  -7   5   3    3.01    1.87
  -7   5   3    8.94    1.17
   7   5  -3    5.00    3.84
  -6  -5   3    1.62    2.13
  -6  -5   3    1.58    1.72
  -6   5   3    2.73    1.26
  -6   5   3    1.56    1.45
   6   5  -3    5.82    2.30
   6   5  -3    3.07    2.58
   5  -5  -3    2.52    1.08
  -5  -5   3   -2.02    1.63
  -5  -5   3    1.26    1.40
  -5   5   3    2.31    1.11
   5   5  -3    3.29    1.63
   5   5  -3    1.50    1.63
   4  -5  -3   19.28    2.03
  -4  -5   3   17.04    2.25
  -4  -5   3   11.52    2.45
   4   5  -3   12.40    2.33
  -4   5   3   19.46    2.03
   4   5  -3   20.72    3.02
   3  -5  -3   11.82    1.52
  -3  -5   3    8.45    1.91
  -3  -5   3   11.05    1.71
   3   5  -3   14.72    2.00
  -3   5   3   11.22    1.60
   3   5  -3    8.16    1.86
   2  -5  -3   31.44    2.91
   2  -5  -3   27.73    2.42
  -2  -5   3   27.86    2.74
  -2  -5   3   38.52    3.66
  -2   5   3   31.30    2.84
   2   5  -3   27.86    3.49
   2   5  -3   31.22    2.89
  -1  -5   3   -0.09    0.64
   1  -5  -3    0.04    0.58
   1  -5  -3    0.47    1.01
  -1  -5   3   -0.56    1.03
   1   5  -3    2.04    1.05
  -1   5   3    1.61    1.02
   1   5  -3    0.88    0.72
   0  -5  -3   48.32    4.04
   0  -5  -3   44.80    4.53
   0  -5   3   54.80    4.39
   0  -5   3   48.60    4.18
   0   5  -3   46.14    4.13
   0   5   3   40.59    4.39
   0   5  -3   52.74    3.85
   1  -5   3   13.14    2.10
  -1  -5  -3   16.49    2.51
   1  -5   3   17.96    1.94
  -1  -5  -3   12.92    1.87
   1   5   3   17.19    2.65
  -1   5  -3   13.81    2.14
   1   5   3   17.14    2.28
  -1   5  -3   15.55    1.72
   1   5   3   15.01    2.40
   2  -5   3   92.74    6.17
  -2  -5  -3   80.37    6.68
  -2  -5  -3   76.77    6.46
   2   5   3   75.59    6.84
  -2   5  -3   65.17    6.22
  -2   5  -3   78.40    6.04
  -2   5  -3   81.67    6.17
   3  -5   3   16.57    1.55
  -3  -5  -3   13.63    2.19
  -3  -5  -3   15.52    2.36
  -3  -5  -3   15.69    2.34
  -3   5  -3   14.87    1.74
   3   5   3   15.27    2.52
  -3   5  -3   15.22    1.70
  -3   5  -3   17.64    1.68
  -4  -5  -3   11.81    2.07
  -4  -5  -3   13.33    2.47
   4   5   3   16.90    2.72
  -4   5  -3   14.07    1.98
  -4   5  -3   16.59    1.67
  -5  -5  -3   27.52    3.73
  -5  -5  -3   25.42    3.59
  -5   5  -3   28.78    3.21
   5   5   3   30.45    3.82
  -5   5  -3   31.00    2.70
  -6  -5  -3    2.91    1.86
  -6   5  -3    4.99    1.17
   6   5   3    6.50    2.36
  -6   5  -3    4.88    1.79
  -7  -5  -3    2.34    2.13
  -7   5  -3    4.99    1.37
   7   5   3    4.84    2.49
  -7   5  -3    4.70    1.96
   8   5   3    3.01    2.61
  -8   5  -3    2.02    1.52
  -8   5  -3    2.12    1.41
  -9  -5  -3    1.29    2.31
  -9   5  -3    5.84    2.10
   9   5   3    4.25    2.55
  -9   5  -3    3.71    1.66
  -9  -6   3   -1.60    2.75
  -9   6   3    0.09    1.90
  -8  -6   3    2.05    2.95
  -8   6   3    2.58    1.59
  -7  -6   3    4.91    2.60
  -7   6   3    4.23    1.90
   7   6  -3    9.22    2.81
  -7   6   3    6.72    1.75
  -6  -6   3   -1.32    1.87
  -6  -6   3    3.06    1.99
  -6   6   3    2.64    1.68
  -6   6   3    2.38    1.35
   6   6  -3    1.73    1.83
   6   6  -3    0.10    2.21
   5  -6  -3    8.91    1.50
  -5  -6   3    6.27    2.19
  -5  -6   3   10.66    2.03
   5   6  -3    4.53    2.11
  -5   6   3    7.29    1.52
   5   6  -3   10.52    2.50
  -4  -6   3    1.06    1.58
  -4  -6   3    2.46    1.32
   4  -6  -3    0.92    0.99
  -4   6   3    1.88    1.04
   4   6  -3    0.28    1.45
   4   6  -3    1.25    1.47
   3  -6  -3   66.69    5.49
  -3  -6   3   67.31    6.22
  -3  -6   3   60.96    5.45
  -3   6   3   61.68    5.40
   3   6  -3   68.45    5.70
   3   6  -3   70.39    6.13
   2  -6  -3    1.67    1.07
   2  -6  -3    2.00    0.66
  -2  -6   3    2.11    0.96
  -2  -6   3    3.28    1.41
   2   6  -3    3.10    1.20
   2   6  -3    3.23    1.28
  -2   6   3    2.29    0.98
   1  -6  -3   46.87    4.37
  -1  -6   3   40.60    4.22
  -1  -6   3   46.38    3.82
  -1  -6   3   35.79    3.48
   1  -6  -3   35.65    3.54
  -1   6   3   38.74    3.87
  -1   6   3   47.55    3.78
   1   6  -3   42.46    4.28
   1   6  -3   40.28    3.58
   0  -6  -3    1.98    0.88
   0  -6   3    4.01    1.22
   0  -6  -3    4.89    1.70
   0  -6   3    1.88    1.21
   0   6   3    2.65    1.47
   0   6   3    2.95    1.26
   0   6  -3    2.34    0.86
   0   6  -3    1.84    0.86
   1  -6   3  138.44   11.83
  -1  -6  -3  133.76   12.01
   1  -6   3  162.79   11.80
  -1  -6  -3  147.15   11.75
   1   6   3  171.60   12.34
  -1   6  -3  137.12   11.60
  -1   6  -3  156.16   11.43
   1   6   3  165.07   12.16
   2  -6   3    6.66    1.13
  -2  -6  -3    6.68    1.75
  -2  -6  -3    5.18    1.27
  -2   6  -3    5.46    1.29
  -2   6  -3    8.57    1.31
   2   6   3    5.85    1.59
   2   6   3    7.73    2.13
  -3  -6  -3    7.99    1.83
  -3  -6  -3    5.82    1.48
   3  -6   3    8.13    1.10
  -3   6  -3    7.31    1.15
   3   6   3    7.09    2.06
  -3   6  -3    9.53    1.30
  -3   6  -3    7.23    1.23
  -4  -6  -3   11.30    2.27
  -4  -6  -3    9.50    2.01
   4   6   3    6.91    2.34
  -5  -6  -3   26.56    3.78
  -5  -6  -3   24.31    3.59
  -5   6  -3   29.36    3.09
  -5   6  -3   27.62    2.61
   5   6   3   27.84    3.90
  -5   6  -3   27.17    2.67
  -6  -6  -3    4.63    2.03
  -6   6  -3    7.78    1.36
   6   6   3    9.34    2.71
  -6   6  -3   11.34    2.17
  -7  -6  -3   -2.37    1.80
  -7   6  -3   -0.68    1.08
  -7   6  -3    1.94    1.83
   7   6   3    1.91    2.49
  -7   6  -3   -1.10    1.20
  -8  -6  -3   -0.01    2.13
  -8   6  -3    2.76    1.59
  -8   6  -3    1.66    1.39
   8   6   3    1.77    2.77
  -9  -6  -3   -1.17    1.97
  -9   6  -3    5.09    1.86
   9   6   3    2.23    2.79
  -9   6  -3   -0.58    1.52
  -9  -7   3    2.69    3.30
  -9   7   3    0.26    1.76
  -8  -7   3    4.93    2.89
  -8   7   3    7.19    1.94
  -7  -7   3    1.84    2.72
  -7   7   3    1.85    2.92
   7   7  -3    1.10    2.42
  -7   7   3    1.15    1.42
  -6  -7   3    1.02    2.03
   6   7  -3   -0.51    1.91
  -6   7   3    0.99    1.37
  -6   7   3    0.09    1.55
   5  -7  -3    1.14    1.20
  -5  -7   3    0.64    1.55
  -5  -7   3   -0.08    2.00
   5   7  -3   -1.80    1.99
  -5   7   3   -0.38    1.13
   5   7  -3   -0.10    1.91
  -4  -7   3   10.73    2.07
  -4  -7   3   12.66    2.81
   4  -7  -3   13.55    1.98
  -4   7   3   15.07    2.14
   4   7  -3   13.45    2.58
   4   7  -3   11.66    2.54
   3  -7  -3    1.41    1.14
  -3  -7   3    1.22    1.77
  -3  -7   3    2.56    1.26
  -3   7   3    0.57    1.28
   3   7  -3    1.41    1.56
   3   7  -3    3.36    1.53
  -2  -7   3    6.78    1.38
   2  -7  -3    6.10    1.10
  -2  -7   3    7.87    2.05
   2  -7  -3    4.90    1.64
   2   7  -3    8.03    1.86
  -2   7   3    5.42    1.46
   2   7  -3    7.55    1.68
   1  -7  -3   13.20    1.98
   1  -7  -3   13.88    2.33
  -1  -7   3   12.76    2.12
  -1  -7   3   13.70    1.98
  -1   7   3   17.31    2.38
   1   7  -3   16.75    2.36
  -1   7   3   14.26    2.11
   1   7  -3   15.40    2.03
   0  -7  -3    1.47    1.48
   0  -7   3   -1.58    1.14
   0  -7   3    0.60    1.16
   0   7  -3    0.25    0.89
   0   7   3    0.72    1.28
   0   7  -3   -0.56    0.82
   0   7   3    1.31    1.43
  -1  -7  -3    1.42    1.00
   1  -7   3    3.19    1.25
  -1  -7  -3    3.03    1.60
   1  -7   3    2.57    1.43
   1   7   3    3.33    1.68
  -1   7  -3    2.93    0.89
   1   7   3    6.45    1.82
  -2  -7  -3   18.38    2.77
   2  -7   3   16.47    2.31
  -2  -7  -3   21.07    2.94
   2   7   3   19.06    2.75
  -2   7  -3   18.31    2.06
   2   7   3   21.23    3.09
  -2   7  -3   16.54    2.50
   3  -7   3    6.97    1.19
  -3  -7  -3    5.64    1.43
  -3  -7  -3    8.04    1.97
  -3   7  -3    9.16    1.19
   3   7   3    5.70    2.12
  -3   7  -3    4.70    1.32
  -3   7  -3    7.75    1.11
  -4  -7  -3    1.37    1.22
   4  -7   3    1.87    0.81
  -4  -7  -3    4.33    1.80
  -4   7  -3    1.25    1.08
   4   7   3    1.66    1.97
  -4   7  -3    1.20    0.73
  -4   7  -3    0.80    0.97
  -5  -7  -3    7.69    2.11
  -5  -7  -3    7.72    2.61
  -5  -7  -3    7.65    2.18
  -5   7  -3    7.71    1.46
   5   7   3    7.80    2.46
  -5   7  -3    9.72    1.31
  -5   7  -3   11.23    1.82
  -6  -7  -3   -1.22    1.56
  -6   7  -3    1.30    0.91
  -6   7  -3    1.13    1.12
  -6   7  -3    4.03    1.67
   6   7   3    0.12    2.17
  -7  -7  -3   -0.91    2.20
  -7   7  -3    0.35    0.99
  -7   7  -3    0.22    1.17
   7   7   3   -1.76    3.39
  -7   7  -3    1.72    1.73
  -7   7  -3    0.48    1.30
  -8  -7  -3   -0.13    1.85
  -8   7  -3    1.81    1.40
  -8   7  -3   -0.38    1.12
   8   7   3    1.11    2.88
  -9  -7  -3    3.47    2.45
  -9   7  -3    2.83    1.62
  -9   7  -3    6.95    1.90
   9   7   3    1.25    3.24
  -8  -8   3    2.92    2.83
   8   8  -3    2.46    2.86
  -8   8   3    3.51    1.81
  -7   8   3   -0.23    1.40
   7   8  -3   -0.02    2.65
  -6  -8   3    2.39    2.48
   6  -8  -3    8.34    1.81
   6   8  -3    3.95    2.55
  -6   8   3    4.29    1.55
  -6   8   3    1.98    2.43
   5  -8  -3   15.43    2.34
  -5  -8   3   13.16    2.99
  -5  -8   3   18.78    2.93
  -5   8   3   15.04    2.33
   5   8  -3   22.01    3.62
  -4  -8   3    0.19    1.50
   4  -8  -3    2.17    1.37
  -4  -8   3    0.02    1.78
  -4   8   3    0.12    1.21
   4   8  -3   -0.51    1.92
   4   8  -3    0.97    2.12
  -3  -8   3   10.84    2.35
   3  -8  -3   10.24    2.04
  -3  -8   3   15.40    2.16
   3   8  -3   19.63    2.91
   3   8  -3   11.51    3.57
  -3   8   3   13.49    2.14
   2  -8  -3    9.50    1.49
  -2  -8   3    9.24    2.03
   2  -8  -3   10.20    2.22
  -2  -8   3   13.53    2.02
   2   8  -3   13.66    2.26
  -2   8   3   12.09    1.76
   2   8  -3   10.14    1.99
  -2   8   3    9.63    1.98
  -1  -8   3   17.16    2.93
   1  -8  -3   19.40    2.46
  -1  -8   3   17.10    2.60
   1  -8  -3   20.02    3.11
   1   8  -3   20.00    2.50
  -1   8   3   17.70    2.88
  -1   8   3   15.95    2.51
   1   8  -3   24.06    2.78
   0  -8  -3   -0.37    0.99
   0  -8   3    1.69    1.35
   0  -8  -3    2.21    1.81
   0  -8   3   -0.74    1.37
   0   8  -3   -0.89    1.00
   0   8   3   -1.41    2.58
   0   8  -3    1.69    1.09
   0   8   3   -0.82    1.56
   1  -8   3    6.76    1.71
  -1  -8  -3    8.95    2.10
  -1  -8  -3    7.96    1.59
   1   8   3   12.04    2.40
   1   8   3    3.98    1.85
  -1   8  -3    5.21    1.27
  -2  -8  -3    8.74    1.72
   2  -8   3   10.90    1.99
  -2  -8  -3   13.67    2.45
   2   8   3    9.90    2.61
  -2   8  -3   11.30    2.27
   2   8   3   17.49    2.95
  -2   8  -3   12.05    2.03
  -3  -8  -3    1.55    1.26
  -3  -8  -3    3.05    1.62
   3  -8   3    1.17    1.08
  -3   8  -3    0.37    1.23
   3   8   3    1.45    2.19
  -3   8  -3    1.47    0.83
   3   8   3    0.58    1.83
  -3   8  -3    1.85    0.82
  -4  -8  -3    0.18    1.48
  -4  -8  -3    2.01    1.74
   4  -8   3    1.03    1.11
   4   8   3   -1.06    2.05
  -4   8  -3   -0.07    1.14
  -4   8  -3    0.31    0.82
  -4   8  -3    1.48    1.05
  -5  -8  -3    1.38    1.45
  -5  -8  -3    4.19    2.66
   5   8   3   -1.05    2.10
  -5   8  -3    1.22    1.18
  -5   8  -3    3.06    1.08
  -5   8  -3    2.93    1.42
  -6  -8  -3   -1.06    1.42
   6   8   3    0.20    2.43
  -6   8  -3    2.19    1.66
  -6   8  -3   -0.09    1.42
  -7  -8  -3    0.28    1.74
  -7   8  -3    0.32    1.72
  -7   8  -3   -0.77    1.25
  -7   8  -3   -0.50    0.93
   7   8   3   -0.98    2.80
  -8  -8  -3   -1.14    1.79
  -8   8  -3    1.02    1.47
   8   8   3   -0.41    2.90
  -8   8  -3    1.73    1.44
  -8   8  -3   -2.03    1.03
  -8  -9   3    2.24    3.02
  -8   9   3    2.17    2.38
   8   9  -3    1.56    3.14
  -7  -9   3    1.13    2.45
  -7   9   3    2.37    1.72
   7   9  -3   -1.33    2.86
   6  -9  -3    1.15    1.72
  -6  -9   3    1.54    2.36
  -6   9   3    1.37    1.47
   6   9  -3   -1.01    2.41
  -6   9   3    1.13    1.61
  -5  -9   3   -0.51    1.84
  -5  -9   3   -0.31    1.80
   5  -9  -3    0.41    1.62
  -5   9   3    1.05    1.44
   5   9  -3   -2.00    1.88
   4  -9  -3   10.86    2.13
  -4  -9   3    9.11    2.08
  -4  -9   3    7.01    2.38
  -4   9   3    6.15    1.77
   4   9  -3    8.55    2.48
  -3  -9   3    4.09    1.75
  -3  -9   3    3.63    1.94
  -3  -9   3    4.32    1.70
   3  -9  -3    3.75    1.86
   3   9  -3    2.63    1.96
   3   9  -3    5.21    2.69
  -3   9   3    2.94    1.64
   2  -9  -3   -1.17    1.01
  -2  -9   3    1.17    1.53
  -2  -9   3    1.40    1.75
   2  -9  -3   -1.05    1.71
  -2   9   3   -0.89    1.24
   2   9  -3    3.06    1.61
  -2   9   3   -0.99    1.37
   2   9  -3   -2.16    1.50
   1  -9  -3    0.91    2.01
  -1  -9   3    1.94    1.42
   1  -9  -3   -0.41    1.11
  -1  -9   3    0.04    1.45
   1   9  -3   -2.11    1.33
  -1   9   3   -1.05    1.47
   1   9  -3    1.42    1.30
  -1   9   3   -0.65    1.53
   0  -9  -3    2.47    1.30
   0  -9   3    4.50    1.88
   0  -9   3    7.24    1.77
   0  -9  -3    4.12    1.92
   0   9   3    1.54    1.79
   0   9  -3    3.06    1.37
   0   9   3    3.52    1.92
   0   9  -3    3.97    1.42
   1  -9   3    3.96    1.65
  -1  -9  -3    1.84    1.30
  -1  -9  -3    7.93    2.20
   1  -9   3    8.38    2.12
  -1   9  -3    4.32    1.23
   1   9   3    2.36    2.04
   1   9   3    8.53    2.23
  -1   9  -3    8.65    1.47
  -2  -9  -3    0.74    1.26
   2  -9   3    0.07    1.52
  -2  -9  -3    4.82    1.90
   2   9   3    1.24    1.94
  -2   9  -3    0.95    0.94
   2   9   3   -0.59    2.13
  -2   9  -3    1.10    1.71
   3  -9   3    0.58    1.24
  -3  -9  -3   -0.97    1.25
  -3  -9  -3    1.49    1.72
  -3   9  -3    0.95    0.83
   3   9   3   -2.81    2.65
  -3   9  -3    0.18    1.38
  -3   9  -3    1.09    0.91
   3   9   3    0.99    2.28
  -4  -9  -3    3.20    1.84
   4  -9   3    1.52    1.14
  -4  -9  -3    1.57    1.44
   4   9   3   -0.16    2.21
  -4   9  -3    0.29    1.37
  -4   9  -3    1.42    1.03
  -5  -9  -3    0.34    1.73
   5  -9   3    5.11    1.31
  -5   9  -3    4.50    1.70
  -5   9  -3    0.65    2.25
   5   9   3    1.24    2.61
  -6  -9  -3   -1.10    2.34
  -6   9  -3   -1.10    1.21
  -6   9  -3    1.42    1.63
   6   9   3   -1.42    2.08
  -7  -9  -3    1.30    1.85
   7   9   3   -3.24    2.61
  -7   9  -3    3.56    1.96
  -7   9  -3    2.50    1.57
  -8  -9  -3   -0.65    2.08
   8   9   3   -0.81    3.28
  -8   9  -3    0.53    1.57
  -8   9  -3   -0.73    1.32
  -8   9  -3   -3.12    2.56
  -8   9  -3    0.45    1.28
  -8 -10   3    2.12    2.73
   8  10  -3   -3.13    2.86
  -8  10   3   -1.63    1.72
  -7 -10   3    1.46    2.20
   7  10  -3   -0.98    2.88
  -7  10   3   -1.62    1.61
  -6 -10   3    0.33    1.87
   6  10  -3   -4.42    2.52
  -6  10   3   -1.05    1.58
  -6  10   3   -0.56    1.58
   5 -10  -3   -0.22    1.82
  -5 -10   3   -0.92    2.27
  -5 -10   3    0.34    2.13
   5  10  -3   -3.43    2.15
  -5  10   3   -1.73    1.46
  -4 -10   3    1.04    1.90
   4 -10  -3    3.65    2.08
  -4 -10   3    2.67    1.90
   4  10  -3   -1.72    2.18
  -4  10   3   -0.14    1.47
   3 -10  -3   25.80    4.05
  -3 -10   3   39.46    4.49
  -3 -10   3   28.62    3.74
   3  10  -3   27.00    4.08
  -3  10   3   23.81    3.56
  -2 -10   3    2.02    1.55
   2 -10  -3    2.63    2.02
  -2 -10   3    0.31    1.74
   2 -10  -3    1.12    1.23
   2  10  -3    3.88    1.87
  -2  10   3   -0.17    1.55
   2  10  -3   -2.14    1.57
  -2  10   3   -2.66    1.41
   1 -10  -3   -0.63    1.24
  -1 -10   3    2.90    1.62
  -1 -10   3   -0.33    1.52
   1 -10  -3    1.72    1.90
  -1  10   3   -2.22    1.57
   1  10  -3    3.31    1.59
  -1  10   3   -1.65    1.67
   1  10  -3   -1.54    1.51
   0 -10  -3    1.82    1.95
   0 -10   3    3.49    1.79
   0 -10   3   -1.58    1.52
   0  10   3    1.70    2.02
   0  10   3    3.48    1.86
   0  10   3   -0.06    1.82
   0  10  -3   -0.41    1.11
   0  10  -3    0.11    1.44
   1 -10   3   40.86    4.50
  -1 -10  -3   38.28    5.36
   1 -10   3   33.32    4.20
  -1 -10  -3   27.31    3.79
   1  10   3   29.44    4.55
  -1  10  -3   39.35    3.42
  -1  10  -3   30.42    3.57
   1  10   3   36.79    4.38
   2 -10   3    3.66    1.68
  -2 -10  -3    2.40    1.41
  -2 -10  -3    8.37    2.10
   2 -10   3    3.28    2.01
   2  10   3    9.72    2.48
  -2  10  -3    3.69    1.23
  -2  10  -3    6.34    1.29
   2  10   3    2.00    2.58
  -3 -10  -3   -2.75    1.37
   3 -10   3   -1.54    1.40
   3  10   3    1.74    2.17
  -3  10  -3    0.88    0.86
  -3  10  -3    0.89    0.96
  -4 -10  -3   -0.29    1.57
   4 -10   3    1.95    1.36
  -4  10  -3    3.51    1.13
   4  10   3    3.90    2.37
  -4  10  -3    1.39    1.11
  -4  10  -3    2.25    1.63
   5 -10   3    2.88    1.42
  -5 -10  -3   -0.17    1.60
  -5  10  -3    1.33    1.41
  -5  10  -3   -0.69    1.37
   5  10   3    1.99    2.62
  -6 -10  -3    2.30    1.82
  -6  10  -3    3.80    1.63
   6  10   3    2.47    2.61
  -6  10  -3    5.90    1.91
  -7 -10  -3    1.42    1.70
  -7  10  -3   -1.52    1.51
   7  10   3   -3.86    2.69
  -7  10  -3   -1.44    0.95
  -7  10  -3    3.04    1.88
  -7 -11   3    2.82    2.74
   7  11  -3   -4.95    2.74
  -7  11   3   -1.18    2.53
  -6 -11   3    2.22    2.59
   6  11  -3    2.82    4.10
  -6  11   3   -0.59    1.71
  -6  11   3    2.10    1.81
  -5 -11   3    1.08    2.23
   5  11  -3   -2.42    2.39
  -5  11   3    0.80    1.74
   4 -11  -3    2.80    2.18
  -4 -11   3   -1.34    1.87
   4  11  -3   -1.97    2.23
  -4  11   3   -2.14    1.57
  -3 -11   3    0.91    1.90
   3 -11  -3   -0.21    2.32
  -3  11   3    0.94    1.81
   3  11  -3    2.03    2.29
  -2 -11   3   10.98    2.51
  -2 -11   3    9.73    2.30
   2 -11  -3   13.98    3.02
   2 -11  -3   13.76    2.10
  -2  11   3    8.82    2.41
   2  11  -3   14.58    2.66
   2  11  -3   12.44    3.31
  -1 -11   3    7.93    2.31
   1 -11  -3    7.15    1.84
  -1 -11   3   10.29    2.30
   1 -11  -3   11.75    2.80
  -1  11   3    7.10    2.43
  -1  11   3    5.85    2.35
   1  11  -3   11.63    2.47
   1  11  -3   11.13    2.35
   0 -11  -3    0.06    1.41
   0 -11   3    1.63    1.84
   0 -11   3    2.89    1.83
   0 -11  -3    5.13    2.16
   0  11  -3   -0.12    1.50
   0  11   3    1.54    2.30
   0  11   3   -0.33    2.11
   0  11  -3    4.72    1.54
   0  11   3    3.39    1.94
   1 -11   3    1.69    1.82
  -1 -11  -3    0.96    1.42
   1 -11   3    9.16    2.40
  -1 -11  -3    6.38    2.28
  -1  11  -3    4.76    1.56
   1  11   3   -0.88    2.19
  -1  11  -3    4.70    1.40
   1  11   3    4.56    2.20
   2 -11   3    5.71    2.03
   2 -11   3   11.11    2.51
  -2 -11  -3    6.23    1.79
   2  11   3    3.58    2.89
  -2  11  -3    8.63    1.62
   2  11   3   11.90    2.88
   3 -11   3    8.20    2.15
  -3 -11  -3    4.29    1.75
   3  11   3    9.52    2.94
  -3  11  -3   13.59    2.47
  -3  11  -3    7.30    1.51
   4 -11   3   -0.13    1.47
  -4 -11  -3   -0.59    1.46
  -4  11  -3   -1.20    1.00
   4  11   3   -0.65    2.53
  -4  11  -3    1.96    1.04
  -4  11  -3    0.27    1.66
  -5 -11  -3    1.98    1.84
   5 -11   3   -1.25    1.46
  -5  11  -3    1.98    1.08
  -5  11  -3    1.44    1.73
   5  11   3   -1.32    2.30
  -6 -11  -3   -0.37    1.77
  -6  11  -3    0.04    1.61
  -6  11  -3    3.79    1.57
   6  11   3   -2.48    2.69
  -6  11  -3   -1.84    1.57
  -7 -11  -3   -0.16    1.73
  -7  11  -3   -0.21    1.89
   7  11   3   -4.74    2.95
  -7  11  -3   -1.25    1.58
  -7 -12   3    2.28    2.45
  -7  12   3    1.70    1.88
   7  12  -3   -1.33    3.37
  -6 -12   3    3.76    2.23
  -6  12   3    0.70    1.83
   6  12  -3   -3.49    2.94
  -5 -12   3    0.60    2.24
  -5  12   3   -0.32    1.78
   5  12  -3    1.24    2.64
  -4 -12   3    0.80    2.06
  -4  12   3   -3.44    1.51
   4  12  -3   -1.22    2.30
  -3 -12   3    2.48    2.04
   3  12  -3    0.68    2.10
  -3  12   3   -2.16    1.76
   2 -12  -3    6.50    3.36
  -2 -12   3    0.61    2.06
   2 -12  -3    1.81    1.54
  -2  12   3    3.32    2.14
   2  12  -3    2.36    2.08
  -1 -12   3   10.47    2.68
  -1 -12   3   10.45    2.31
   1 -12  -3   12.67    3.26
   1 -12  -3    8.69    1.96
  -1  12   3    7.33    2.41
  -1  12   3    4.81    2.52
   1  12  -3    6.00    2.04
   1  12  -3    9.51    2.33
   0 -12   3    1.98    1.91
   0 -12   3    6.66    3.01
   0 -12  -3    0.96    1.57
   0  12   3    6.20    2.13
   0  12   3   -3.47    1.98
   0  12  -3    6.60    2.59
   0  12  -3    1.48    1.70
  -1 -12  -3    1.00    1.59
   1 -12   3    2.66    2.19
   1 -12   3   -0.01    1.88
  -1  12  -3   -0.05    1.43
   1  12   3   -6.54    4.63
  -1  12  -3    2.59    1.25
   1  12   3    3.59    2.11
   2 -12   3   14.50    2.81
  -2 -12  -3   13.67    2.76
   2 -12   3   29.49    4.15
   2  12   3   26.76    3.92
  -2  12  -3   19.18    2.79
   2  12   3   15.59    3.98
  -3 -12  -3   -0.01    1.65
   3 -12   3   -1.18    1.96
   3  12   3   -0.05    2.30
  -3  12  -3    0.97    1.15
  -3  12  -3   -0.22    1.11
   4 -12   3   -0.78    1.83
  -4 -12  -3   -0.03    1.77
  -4  12  -3   -1.11    1.83
  -4  12  -3   -0.83    1.04
   4  12   3   -0.08    2.52
  -4  12  -3    2.86    1.23
  -5 -12  -3   -1.43    1.46
   5 -12   3   -3.06    1.73
  -5  12  -3   -0.76    1.35
  -5  12  -3    2.37    1.16
  -5  12  -3   -1.67    1.66
   5  12   3    0.17    2.90
  -6 -12  -3    5.01    2.18
  -6  12  -3    8.90    1.72
   6  12   3    2.87    3.39
  -6  12  -3    5.63    2.07
  -6  12  -3    6.41    2.03
  -6 -13   3    2.62    2.83
   6  13  -3    2.61    3.17
  -6  13   3    0.80    2.10
  -5 -13   3    1.01    2.15
  -5  13   3   -1.93    1.85
   5  13  -3   -4.03    2.49
  -4 -13   3    2.93    2.52
   4  13  -3    0.43    2.41
  -4  13   3   -0.18    1.99
  -3 -13   3    0.38    2.23
   3  13  -3    1.88    2.39
  -3  13   3   -0.91    1.95
   2 -13  -3   16.18    2.70
  -2 -13   3   13.99    2.98
   2  13  -3   16.51    3.02
  -2  13   3   15.39    2.96
   1 -13  -3    1.47    1.62
  -1 -13   3   -0.99    1.84
  -1  13   3   -1.43    1.96
  -1  13   3    1.92    1.91
   1  13  -3   -2.59    2.50
   0 -13  -3    0.52    1.61
   0 -13   3    6.56    2.20
   0 -13   3   -1.44    1.76
   0  13   3    2.06    2.02
   0  13   3   -4.33    2.30
   0  13  -3   -0.20    1.64
   0  13  -3    2.87    1.63
  -1 -13  -3   -1.23    1.47
   1 -13   3    2.70    2.07
   1 -13   3   -1.81    1.97
   1  13   3    0.56    2.06
  -1  13  -3   -0.13    1.48
  -1  13  -3    2.51    1.90
   1  13   3   -6.06    2.50
  -2 -13  -3    4.52    1.91
   2 -13   3   21.58    3.51
  -2  13  -3    8.33    1.79
  -2  13  -3   13.70    2.06
   2  13   3   11.15    2.74
   3 -13   3    1.87    2.78
  -3 -13  -3   -1.44    1.51
   3  13   3   -1.95    2.38
  -3  13  -3    2.72    1.33
  -3  13  -3    0.36    1.10
   4 -13   3   -1.95    2.22
  -4 -13  -3    0.65    1.64
  -4  13  -3   -0.34    1.03
  -4  13  -3    0.94    1.26
   4  13   3    1.26    2.61
   5 -13   3   -4.89    2.19
  -5 -13  -3   -0.65    1.92
  -5  13  -3    3.13    1.35
  -5  13  -3    1.41    1.39
  -5  13  -3   -2.42    1.80
   5  13   3   -1.83    2.50
  -6 -13  -3    1.43    2.12
  -6  13  -3    0.01    1.81
   6  13   3   -2.18    2.88
  -6  13  -3    2.11    1.16
  -5 -14   3   -2.14    2.16
  -5  14   3    0.28    2.09
   5  14  -3    1.35    2.93
  -4 -14   3   -0.47    2.07
  -4  14   3   -0.86    2.04
   4  14  -3   -0.12    2.64
  -3 -14   3    0.98    2.04
   3  14  -3    0.89    2.40
  -3  14   3   -1.47    2.48
  -2 -14   3    1.57    2.27
   2 -14  -3   -0.96    1.69
  -2  14   3   -1.79    2.24
   2  14  -3    0.47    2.14
  -1 -14   3    3.83    2.44
   1 -14  -3    1.68    1.74
  -1  14   3    2.28    1.95
   1  14  -3    2.32    1.97
   0 -14  -3    0.95    1.76
   0 -14   3   -2.39    1.86
   0  14   3    1.40    2.03
   0  14  -3   -0.59    1.55
   1 -14   3   -0.84    2.13
  -1 -14  -3    0.49    1.67
  -1  14  -3    2.00    1.53
   1  14   3    1.75    2.11
  -1  14  -3    2.71    1.62
  -2 -14  -3   -0.10    1.65
  -2  14  -3    0.04    1.20
  -2  14  -3    1.06    1.45
   2  14   3    2.79    2.31
  -3 -14  -3    1.00    1.92
   3 -14   3   -1.47    2.71
   3  14   3    2.26    2.36
  -3  14  -3    3.56    1.43
  -4 -14  -3    1.70    1.93
   4  14   3    1.10    2.59
  -4  14  -3   -2.19    1.14
  -5 -14  -3   -0.68    2.04
  -5  14  -3    2.85    1.36
   5  14   3   -1.34    2.66
  -4 -15   3   -0.70    2.15
  -4  15   3    0.41    2.11
   4  15  -3   -1.75    2.51
  -3 -15   3    0.42    2.24
   3  15  -3   -1.16    2.19
  -3  15   3    0.31    2.36
  -2 -15   3    2.67    2.45
   2 -15  -3   -1.20    1.85
   2  15  -3   -0.13    2.20
  -2  15   3    2.89    2.05
  -1 -15   3    3.78    3.97
   1 -15  -3    1.65    1.86
   1  15  -3    5.14    2.15
  -1  15   3    3.94    2.11
   0 -15   3   -0.16    2.15
   0 -15  -3    2.06    1.84
   0  15   3    0.36    2.01
   0  15  -3   -0.86    1.56
   1 -15   3   -2.96    2.12
  -1 -15  -3    1.28    1.92
  -1  15  -3   -0.53    1.36
   1  15   3   -1.93    1.78
  -2 -15  -3    3.00    1.97
   2  15   3    5.49    2.62
  -2  15  -3    4.48    1.76
  -3 -15  -3    0.59    1.74
  -3  15  -3   -0.73    1.53
   3  15   3   -1.84    2.40
  -4 -15  -3    0.28    2.13
  -4  15  -3   -0.64    1.46
   4  15   3    0.78    2.61
  -2 -16   3    1.37    2.30
   2 -16  -3   -2.14    1.92
   2  16  -3   -1.13    2.10
  -2  16   3    0.71    1.78
  -1 -16   3   -0.46    2.18
  -1  16   3    1.24    1.93
   1  16  -3   -2.03    1.78
   0 -16  -3   -1.26    1.89
   0 -16   3    0.99    2.99
   0  16   3    3.94    2.26
   0  16  -3   -1.33    2.57
   1 -16   3   -2.48    2.22
  -1 -16  -3   -1.60    2.08
  -1  16  -3    1.52    1.36
   1  16   3    2.89    2.28
  -2 -16  -3   -1.20    1.85
   2  16   3    3.29    2.68
 -10   0   4    3.77    1.98
 -10   0   4    4.08    2.32
  -9   0   4    2.61    2.13
  -9   0   4   -0.97    1.79
  -8   0   4    1.74    2.09
  -8   0   4    3.83    1.80
  -7   0   4   -0.44    1.88
  -7   0   4    3.59    1.51
  -7   0   4    3.40    1.80
  -6   0   4   -0.54    0.98
  -6   0   4   -0.64    1.41
  -6   0   4   -3.62    1.44
  -5   0   4    0.86    0.86
  -5   0   4    0.88    1.11
   5   0  -4    3.43    0.99
  -5   0   4   -0.92    1.20
  -4   0   4    2.97    1.21
  -4   0   4    5.84    1.24
  -4   0   4    5.79    1.01
   4   0  -4    5.83    1.14
   3   0  -4   -0.67    0.73
  -3   0   4    0.17    0.55
  -3   0   4    0.72    0.73
   2   0  -4   25.34    2.52
  -2   0   4   26.76    2.28
  -2   0   4   29.74    2.42
   1   0  -4    4.35    0.62
   1   0  -4    3.92    0.55
  -1   0   4    2.84    0.52
  -1   0   4    3.54    0.55
   0   0   4   24.84    1.95
   0   0  -4   23.64    1.93
   1   0   4   11.30    1.49
   1   0   4   15.31    1.78
  -1   0  -4   14.24    1.36
  -2   0  -4   68.73    5.80
   2   0   4   74.10    5.71
   3   0   4    4.43    1.11
  -3   0  -4    2.51    1.24
  -4   0  -4   24.37    2.98
   4   0   4   25.86    2.62
   5   0   4    1.12    1.18
  -5   0  -4    0.70    1.44
  -6   0  -4    4.85    1.88
   6   0   4    3.36    1.51
  -6   0  -4    0.57    1.24
   7   0   4    2.33    1.49
  -7   0  -4   -0.27    2.09
  -7   0  -4   -1.17    1.37
  -8   0  -4    7.13    2.25
  -8   0  -4   10.17    1.86
   8   0   4   14.49    2.57
  -9   0  -4   -0.56    1.81
  -9   0  -4    0.20    1.46
 -10  -1   4    7.67    2.16
 -10  -1   4    6.23    2.69
 -10   1   4    8.29    2.27
 -10   1   4    5.18    2.10
  -9  -1   4   -0.46    2.09
  -9  -1   4    0.52    1.83
  -9   1   4    2.77    1.91
  -9   1   4    0.06    2.24
  -8  -1   4   10.47    3.07
  -8  -1   4   15.28    2.39
  -8   1   4   17.49    2.81
  -8   1   4   19.01    2.82
  -7  -1   4   -0.10    1.21
  -7  -1   4   -1.27    1.92
  -7   1   4    0.28    1.56
  -7   1   4    0.00    1.25
  -7   1   4    1.09    1.53
  -6  -1   4    8.08    3.07
  -6  -1   4   18.28    2.59
  -6   1   4   14.08    2.27
  -6   1   4   15.28    2.20
   6   1  -4   20.07    2.62
  -6   1   4   12.25    2.29
  -5  -1   4   -0.22    1.00
  -5  -1   4   -2.78    1.25
  -5   1   4    0.09    0.80
   5   1  -4    0.43    0.95
  -5   1   4    1.07    1.08
  -5   1   4    0.43    1.18
  -4  -1   4   27.19    3.46
   4  -1  -4   35.15    2.79
  -4  -1   4   32.27    2.96
  -4   1   4   28.05    2.96
  -4   1   4   27.35    2.94
  -4   1   4   31.27    2.78
   4   1  -4   31.65    3.24
  -3  -1   4    4.84    1.04
   3  -1  -4    3.34    0.80
  -3  -1   4    4.62    1.20
  -3   1   4    4.08    0.76
   3   1  -4    1.55    1.04
  -3   1   4    4.41    0.78
  -2  -1   4   10.21    1.50
   2  -1  -4    8.52    1.24
   2  -1  -4    9.88    1.06
  -2   1   4   10.22    1.01
  -2   1   4    8.70    1.09
   2   1  -4    7.74    1.29
  -1  -1   4    4.93    0.79
   1  -1  -4    4.97    0.71
   1  -1  -4    5.08    0.68
  -1   1   4    4.94    0.67
   1   1  -4    3.95    0.71
   0  -1  -4    7.29    0.91
   0  -1   4    5.42    0.59
   0   1   4    7.59    1.02
   0   1  -4    4.57    0.70
   1  -1   4    1.68    0.71
  -1  -1  -4    0.80    0.79
   1   1   4    1.06    0.90
  -1   1  -4    1.82    0.26
  -2  -1  -4    9.75    1.45
   2  -1   4    5.64    0.96
  -2   1  -4    5.23    1.17
   2   1   4    5.40    1.27
   3  -1   4   25.41    2.32
  -3  -1  -4   26.85    2.83
   3   1   4   23.51    2.57
  -3   1  -4   22.92    2.65
  -4  -1  -4    4.24    1.13
  -4  -1  -4    4.77    1.60
   4  -1   4    3.46    1.07
   4   1   4    4.48    1.23
  -4   1  -4    0.17    2.28
  -5  -1  -4    7.82    1.49
  -5  -1  -4    8.94    2.01
   5   1   4   12.69    1.94
  -5   1  -4    8.34    1.99
  -6  -1  -4    2.13    1.26
   6  -1   4    0.08    1.17
  -6  -1  -4   -1.15    1.70
   6   1   4    2.98    1.47
  -6   1  -4    0.89    1.69
  -6   1  -4   -0.94    1.06
  -7  -1  -4    3.55    2.42
  -7  -1  -4    2.40    1.64
   7  -1   4    4.79    1.59
  -7   1  -4    3.30    1.62
   7   1   4    3.32    1.74
  -7   1  -4    2.41    1.19
  -7   1  -4    7.74    2.26
  -8  -1  -4    7.42    2.39
  -8   1  -4    8.13    1.65
  -8   1  -4    5.85    2.14
   8   1   4   11.36    2.49
  -9  -1  -4    1.95    1.96
  -9  -1  -4   -0.20    1.50
  -9   1  -4    1.62    1.44
  -9   1  -4    1.23    1.89
 -10  -2   4    5.68    3.95
 -10  -2   4    7.30    2.30
 -10   2   4    3.99    1.97
 -10   2   4    8.59    2.14
  -9  -2   4    2.91    2.73
  -9  -2   4   -1.56    1.71
  -9   2   4    3.13    1.69
  -8  -2   4   -0.69    2.49
  -8  -2   4    1.31    1.58
  -8   2   4    2.86    1.56
  -8   2   4    2.24    1.50
  -7  -2   4    8.10    2.95
  -7   2   4   10.88    1.84
  -7   2   4   11.75    2.03
  -7   2   4   12.43    2.37
  -6  -2   4   -1.77    1.97
  -6  -2   4    2.34    1.65
  -6   2   4    2.24    1.22
  -6   2   4    1.47    1.13
  -6   2   4    3.21    1.63
   6   2  -4    3.16    1.49
  -5  -2   4    2.85    1.87
  -5  -2   4    3.34    1.41
   5   2  -4    2.85    1.30
  -5   2   4    2.34    1.35
  -5   2   4    3.20    0.97
  -5   2   4    4.56    1.10
  -4  -2   4    0.54    1.05
  -4  -2   4    0.59    1.33
  -4   2   4    1.44    0.64
   4   2  -4    0.00    2.08
  -4   2   4    1.29    0.76
   3  -2  -4   38.56    3.02
   3  -2  -4   39.56    3.16
  -3  -2   4   39.96    3.28
  -3  -2   4   35.60    3.74
  -3   2   4   38.49    3.16
   3   2  -4   28.30    3.60
  -3   2   4   37.96    2.97
  -2  -2   4   39.25    3.50
  -2  -2   4   37.24    3.07
   2  -2  -4   39.37    3.05
   2  -2  -4   34.99    2.97
  -2   2   4   38.34    3.06
   2   2  -4   32.95    3.39
   1  -2  -4    2.42    0.59
  -1  -2   4    3.20    0.89
   1   2  -4    2.86    0.79
  -1   2   4    3.26    0.63
   0  -2   4    8.81    1.28
   0   2  -4    8.79    1.19
   1  -2   4    6.77    0.80
  -1  -2  -4    6.83    1.34
   1   2   4    6.23    1.38
  -2  -2  -4   87.03    7.48
  -2  -2  -4   87.61    7.55
   2  -2   4   98.78    7.16
  -2   2  -4   93.06    7.32
   2   2   4  102.08    7.65
  -2   2  -4   93.42    7.02
  -3  -2  -4    1.86    2.63
   3  -2   4    1.86    0.68
  -3  -2  -4    2.12    0.84
  -3   2  -4    1.13    0.38
  -3   2  -4    1.95    1.07
   3   2   4    1.16    1.14
  -4  -2  -4   41.46    3.90
   4  -2   4   44.21    3.67
  -4  -2  -4   41.80    4.22
   4   2   4   47.00    4.10
  -4   2  -4   41.57    3.41
  -4   2  -4   39.76    3.98
  -5  -2  -4    1.31    1.66
  -5  -2  -4    0.77    0.99
   5  -2   4    0.11    0.97
  -5   2  -4    1.27    1.44
  -5   2  -4   -0.47    0.60
   5   2   4    0.88    1.28
  -6  -2  -4   28.48    3.87
   6  -2   4   36.10    3.46
  -6   2  -4   33.65    3.14
  -6   2  -4   34.90    3.96
  -6   2  -4   37.59    3.73
   6   2   4   35.03    3.87
  -7  -2  -4   -0.70    1.44
   7   2   4    3.09    1.86
  -7   2  -4    4.21    2.12
  -7   2  -4    2.28    1.51
  -7   2  -4    1.83    1.09
  -8  -2  -4    5.31    2.22
  -8   2  -4    9.26    1.74
  -8   2  -4    7.45    2.12
   8   2   4   13.37    2.79
  -9  -2  -4   -1.13    2.69
  -9   2  -4   -0.29    1.69
  -9   2  -4    1.80    1.46
   9   2   4    3.82    2.06
 -10  -3   4    4.64    2.20
 -10   3   4    9.03    2.39
  -9  -3   4   -1.21    2.38
  -9  -3   4   -1.00    1.62
  -9   3   4    0.54    1.38
  -9   3   4    1.02    2.40
  -8  -3   4   -1.72    2.44
  -8   3   4    1.11    1.16
  -8   3   4    1.96    1.49
  -7  -3   4   -2.01    2.03
  -7   3   4   -0.04    1.61
  -7   3   4    2.41    1.29
   7   3  -4    1.19    2.43
  -7   3   4    3.85    1.13
  -6  -3   4  131.05   12.41
   6   3  -4  164.66   12.00
  -6   3   4  140.19   11.53
  -6   3   4  137.58   11.13
  -6   3   4  147.51   11.29
  -5  -3   4   -0.34    1.04
  -5  -3   4   -0.19    1.53
   5   3  -4    0.24    1.36
  -5   3   4    1.54    0.61
  -5   3   4   -0.19    1.04
  -5   3   4   -0.63    0.77
  -4  -3   4    4.41    1.15
   4  -3  -4    5.08    1.00
  -4  -3   4    4.18    1.71
  -4   3   4    6.54    0.80
   4   3  -4    3.59    1.40
  -4   3   4    4.23    0.93
  -3  -3   4    3.38    0.91
  -3  -3   4    1.45    1.32
   3  -3  -4    2.99    0.85
   3   3  -4    3.03    1.32
  -3   3   4    2.44    0.71
   2  -3  -4  501.60   34.97
  -2  -3   4  460.50   35.27
  -2  -3   4  487.68   34.94
   2   3  -4  405.40   35.17
  -2   3   4  475.38   34.95
   1  -3  -4    1.21    0.64
  -1  -3   4    1.98    0.95
  -1  -3   4    0.88    0.47
  -1   3   4    0.77    0.60
   1   3  -4    0.90    0.73
   0  -3   4   20.48    1.93
   0  -3   4   15.73    1.36
   0   3  -4   16.93    1.75
   0   3   4   18.21    2.06
   1  -3   4   27.67    2.31
  -1  -3  -4   23.02    2.91
  -1   3  -4   31.80    2.44
   1   3   4   25.53    3.11
  -2  -3  -4   71.52    6.68
  -2  -3  -4   88.06    6.51
   2  -3   4   85.90    6.23
   2   3   4   81.87    6.90
  -2   3  -4   78.00    6.19
  -2   3  -4   83.96    6.39
  -3  -3  -4    7.99    1.76
  -3  -3  -4    7.33    1.19
   3  -3   4    9.06    1.16
   3   3   4   12.38    2.09
  -3   3  -4    9.87    1.53
  -3   3  -4    8.43    0.92
  -4  -3  -4    0.35    1.02
  -4  -3  -4    0.34    1.52
  -4   3  -4   -0.71    0.47
  -4   3  -4    0.38    1.06
   4   3   4    1.58    1.32
  -5  -3  -4   14.72    2.12
  -5  -3  -4   16.66    2.90
  -5   3  -4   13.14    1.63
  -5   3  -4   15.95    2.39
   5   3   4   17.23    2.66
  -6  -3  -4    5.52    1.75
  -6  -3  -4    7.45    2.44
  -6   3  -4    6.90    1.96
   6   3   4    9.50    2.30
  -6   3  -4    5.64    1.20
  -7  -3  -4    3.52    1.88
  -7   3  -4    2.98    1.21
  -7   3  -4    5.00    2.86
   7   3   4    7.21    2.17
  -7   3  -4    4.14    1.63
  -8  -3  -4    4.31    2.21
  -8   3  -4    4.44    1.49
  -8   3  -4    3.91    1.80
  -9  -3  -4   -0.15    1.99
  -9   3  -4    2.37    1.45
  -9   3  -4    0.86    1.69
   9   3   4    2.04    2.30
  -9  -4   4   -1.44    2.73
  -9   4   4    1.56    2.18
  -9   4   4    1.70    1.10
  -8  -4   4   -3.22    2.57
  -8   4   4    0.97    0.89
  -8   4   4   -0.19    1.37
  -7  -4   4    3.34    2.90
  -7   4   4    5.84    1.59
  -7   4   4    4.99    0.98
   7   4  -4    3.58    2.32
  -7   4   4    6.86    2.21
  -6  -4   4    2.47    2.26
  -6  -4   4    7.41    1.96
  -6   4   4    5.53    1.35
   6   4  -4    5.90    1.92
  -6   4   4    9.26    1.12
  -6   4   4    6.19    1.90
  -5  -4   4    8.53    2.64
  -5  -4   4   11.78    1.98
   5   4  -4   11.39    2.09
   5   4  -4   12.38    2.42
  -5   4   4   12.11    1.81
  -4  -4   4    4.55    1.29
  -4  -4   4    1.58    1.83
   4  -4  -4    1.79    0.80
   4   4  -4    4.21    1.40
   4   4  -4    1.23    1.38
  -4   4   4    1.93    0.83
  -3  -4   4   44.97    4.86
   3  -4  -4   50.19    4.11
  -3  -4   4   47.52    4.14
  -3   4   4   50.99    4.10
   3   4  -4   47.13    4.71
   3   4  -4   51.20    4.28
  -2  -4   4  145.22   11.99
  -2  -4   4  156.17   11.50
   2  -4  -4  162.81   11.60
   2   4  -4  128.98   11.82
   2   4  -4  152.99   11.54
  -2   4   4  155.34   11.56
   1  -4  -4    0.40    0.41
  -1  -4   4    1.88    0.99
   1  -4  -4    1.02    0.84
  -1  -4   4    1.46    0.56
   1   4  -4    1.57    0.75
   1   4  -4    2.11    0.63
  -1   4   4    1.33    0.81
   0  -4  -4   89.10    6.61
   0  -4   4   96.17    6.89
   0  -4   4   76.61    6.43
   0  -4  -4   86.55    7.01
   0   4   4   80.79    6.92
   0   4  -4   84.84    6.73
  -1  -4  -4   69.84    5.08
   1  -4   4   56.46    5.02
  -1  -4  -4   55.56    5.47
   1   4   4   63.35    5.65
  -1   4  -4   66.50    5.01
   2  -4   4  491.90   34.81
  -2  -4  -4  487.42   35.12
  -2   4  -4  509.28   34.91
  -2   4  -4  397.86   34.88
   2   4   4  440.39   35.41
  -2   4  -4  472.32   34.95
  -3  -4  -4    0.94    1.21
  -3  -4  -4    0.66    1.46
  -3  -4  -4    0.76    0.80
  -3   4  -4    2.22    0.93
  -3   4  -4    1.66    0.53
   3   4   4    0.18    1.44
  -4  -4  -4   78.38    6.57
  -4  -4  -4   77.28    6.81
  -4   4  -4   78.08    6.41
  -4   4  -4   78.10    6.02
   4   4   4   76.91    6.85
  -5  -4  -4    4.22    1.98
  -5  -4  -4    3.95    1.60
  -5   4  -4    3.76    0.85
   5   4   4    1.75    1.58
  -5   4  -4    4.08    1.52
  -6  -4  -4   91.33    8.49
  -6  -4  -4   95.19    8.37
  -6   4  -4   98.62    7.53
  -6   4  -4   90.06    8.14
   6   4   4  101.91    8.47
  -7  -4  -4    2.77    1.91
  -7   4  -4    2.03    1.46
   7   4   4    4.41    2.25
  -7   4  -4    3.31    1.34
  -7   4  -4    7.07    2.91
  -8  -4  -4    4.57    2.39
   8   4   4    7.12    2.74
  -8   4  -4    6.63    1.56
  -8   4  -4    3.32    1.75
  -9  -4  -4   -0.96    2.01
  -9   4  -4    2.50    1.54
  -9   4  -4    2.39    1.81
   9   4   4    2.14    2.26
  -9  -5   4   -0.73    2.75
  -9   5   4    1.52    1.81
  -8  -5   4    1.68    2.67
  -8   5   4    3.48    1.61
  -7  -5   4    0.36    2.21
  -7   5   4    2.52    1.98
  -7   5   4    0.99    1.28
  -6  -5   4   75.25    7.43
  -6  -5   4   66.01    6.00
  -6   5   4   59.29    5.92
   6   5  -4   63.98    7.08
  -6   5   4   65.41    5.59
   5  -5  -4    0.80    1.04
  -5  -5   4   -1.06    1.82
  -5  -5   4    1.11    1.41
  -5   5   4    1.72    1.13
   5   5  -4    2.30    1.55
   5   5  -4    1.55    1.66
  -4  -5   4   42.56    4.96
   4  -5  -4   45.03    3.82
  -4  -5   4   41.93    3.96
   4   5  -4   37.18    4.60
   4   5  -4   48.84    4.52
  -4   5   4   41.67    3.98
  -3  -5   4   15.50    2.12
   3  -5  -4   13.68    1.86
  -3  -5   4   12.12    2.29
   3   5  -4   18.31    2.15
   3   5  -4   13.04    2.30
  -3   5   4   14.08    1.87
   2  -5  -4  372.35   25.58
   2  -5  -4  325.20   25.01
  -2  -5   4  327.81   25.70
  -2  -5   4  336.10   25.18
   2   5  -4  355.52   25.26
   2   5  -4  303.22   25.53
  -2   5   4  322.42   25.25
  -1  -5   4    8.34    1.07
  -1  -5   4    6.52    1.44
   1  -5  -4    7.64    1.48
   1  -5  -4    8.02    1.02
   1   5  -4    7.10    1.36
   1   5  -4    7.40    1.16
  -1   5   4    7.77    1.38
   0  -5  -4   21.68    2.83
   0  -5   4   27.10    2.69
   0  -5  -4   21.91    2.14
   0  -5   4   21.26    2.30
   0   5   4   16.38    2.68
   0   5  -4   23.81    2.34
   0   5  -4   21.39    1.79
   1  -5   4   -0.06    0.98
   1  -5   4    2.36    0.84
  -1  -5  -4   -0.09    1.52
  -1  -5  -4    1.06    0.76
   1   5   4    0.61    1.53
  -1   5  -4    1.27    0.63
  -2  -5  -4   85.02    8.45
  -2  -5  -4  109.04    8.25
   2  -5   4  111.95    7.92
  -2   5  -4  114.66    7.89
  -2   5  -4   96.93    8.06
   2   5   4   91.83    8.68
  -2   5  -4  106.51    8.03
  -3  -5  -4   37.30    3.96
   3  -5   4   39.61    3.07
  -3   5  -4   39.38    3.33
  -3   5  -4   35.17    3.20
  -3   5  -4   39.53    3.26
  -4  -5  -4    6.67    1.58
  -4  -5  -4    7.19    2.14
  -4  -5  -4    7.58    1.84
  -4   5  -4    6.10    1.38
  -4   5  -4    4.95    0.89
   4   5   4    5.42    1.95
  -5  -5  -4   17.56    3.22
  -5  -5  -4   19.20    2.99
  -5   5  -4   17.94    1.94
  -5   5  -4   17.41    2.68
   5   5   4   18.91    3.09
  -6  -5  -4   -0.39    1.48
  -6   5  -4    1.85    0.96
   6   5   4    1.48    1.92
  -6   5  -4    1.58    1.70
  -7  -5  -4    8.44    2.47
  -7   5  -4    9.71    2.33
  -7   5  -4    7.05    2.36
   7   5   4    7.91    2.54
  -7   5  -4    7.92    1.82
  -8  -5  -4    3.75    2.19
   8   5   4    4.20    2.43
  -8   5  -4    3.05    1.76
  -8   5  -4    4.96    1.50
  -9  -5  -4    3.86    2.40
  -9   5  -4    0.28    1.79
  -9   5  -4    2.47    1.60
   9   5   4    6.78    2.84
  -9  -6   4    1.56    2.89
  -9   6   4    0.79    1.79
  -8  -6   4    1.60    3.97
  -8   6   4   -0.24    1.51
  -7  -6   4   10.17    3.15
  -7   6   4   13.81    2.24
  -6  -6   4    0.84    1.68
  -6  -6   4    1.10    2.37
   6   6  -4    1.29    2.07
   6   6  -4   -2.06    1.99
  -6   6   4    1.45    1.37
  -5  -6   4    1.90    2.03
   5  -6  -4    4.93    1.37
  -5  -6   4    7.14    1.71
   5   6  -4    0.68    1.78
   5   6  -4    4.58    2.09
  -5   6   4    4.05    1.37
   4  -6  -4   38.46    3.70
  -4  -6   4   34.77    4.83
  -4  -6   4   39.08    3.82
  -4   6   4   39.33    3.68
   4   6  -4   43.91    4.15
   4   6  -4   41.28    4.69
  -3  -6   4   12.48    1.89
  -3  -6   4    8.81    2.00
   3  -6  -4   14.26    1.90
  -3   6   4   10.39    1.70
   3   6  -4   14.81    2.38
   3   6  -4   15.96    2.25
  -2  -6   4    3.03    1.47
   2  -6  -4    2.70    0.72
  -2  -6   4    2.02    0.95
   2  -6  -4    3.48    1.22
   2   6  -4    3.21    1.35
  -2   6   4    1.74    1.02
   2   6  -4    2.27    1.06
  -1  -6   4    0.89    1.33
  -1  -6   4    1.94    0.79
   1  -6  -4    2.29    1.41
   1  -6  -4    1.44    0.78
   1   6  -4    3.91    0.94
  -1   6   4    1.20    1.10
   1   6  -4    2.06    0.96
   0  -6  -4  262.19   19.80
   0  -6   4  293.16   20.14
   0  -6   4  229.61   19.82
   0  -6  -4  267.76   20.23
   0   6  -4  269.58   19.56
   0   6  -4  244.64   19.89
  -1  -6  -4   15.32    1.91
   1  -6   4   14.55    2.04
   1  -6   4   14.60    2.16
  -1  -6  -4   13.59    2.34
   1   6   4   21.08    2.97
  -1   6  -4   13.31    1.83
   1   6   4   13.23    2.53
   2  -6   4   25.33    2.33
  -2  -6  -4   27.93    3.26
  -2  -6  -4   23.61    2.66
  -2   6  -4   23.29    2.00
  -2   6  -4   24.58    2.65
  -2   6  -4   23.07    2.34
   2   6   4   22.35    3.42
   3  -6   4    2.45    0.68
  -3  -6  -4    1.92    1.07
  -3  -6  -4    2.97    1.52
  -3   6  -4    1.52    0.92
  -3   6  -4    2.70    0.91
   3   6   4    1.07    1.78
  -3   6  -4    3.88    0.83
  -4  -6  -4   75.74    6.57
  -4  -6  -4   72.85    6.68
  -4   6  -4   77.16    6.15
   4   6   4   74.23    7.05
  -4   6  -4   76.68    6.18
  -4   6  -4   72.38    5.96
  -5  -6  -4    6.60    2.11
  -5  -6  -4    7.90    2.68
  -5  -6  -4    5.71    1.62
  -5   6  -4    9.10    1.90
  -5   6  -4    5.76    1.17
   5   6   4    9.27    2.37
  -5   6  -4    7.59    1.19
  -6  -6  -4   10.90    2.40
  -6  -6  -4    6.01    2.12
   6   6   4    7.98    2.52
  -6   6  -4    8.64    2.19
  -6   6  -4    7.57    1.36
  -7  -6  -4    2.88    2.05
  -7   6  -4    2.49    1.80
  -7   6  -4    2.14    1.89
   7   6   4    2.42    2.45
  -8  -6  -4    0.52    2.12
  -8   6  -4    2.84    1.41
  -8   6  -4    1.40    1.48
   8   6   4    6.02    2.70
  -9  -6  -4    2.45    2.09
  -9   6  -4   -0.10    1.68
   9   6   4    2.94    2.69
  -9   6  -4    0.26    1.49
  -9  -7   4    2.60    3.31
  -9   7   4    0.04    1.75
  -8  -7   4   28.16    5.17
  -8   7   4   28.07    3.78
  -7  -7   4   -0.26    2.44
  -7   7   4   -0.03    1.51
  -6  -7   4    4.48    2.65
  -6  -7   4    3.19    2.55
  -6   7   4    2.77    1.43
   6   7  -4    5.34    2.49
  -6   7   4    2.18    1.66
  -5  -7   4    1.89    1.58
   5  -7  -4    0.71    1.16
  -5  -7   4    0.53    2.05
  -5   7   4   -0.41    1.20
   5   7  -4    3.23    2.04
   5   7  -4    1.30    1.90
  -4  -7   4  144.42   11.23
   4  -7  -4  126.83   10.21
  -4  -7   4  117.08   10.19
   4   7  -4  135.97   10.55
   4   7  -4  135.95   11.01
  -4   7   4  115.93   10.10
   3  -7  -4   13.43    2.13
  -3  -7   4   12.64    2.49
  -3  -7   4   14.47    2.18
  -3   7   4   14.41    2.23
   3   7  -4   18.82    2.53
   3   7  -4   21.12    3.08
  -2  -7   4    8.22    1.45
   2  -7  -4    8.07    1.20
  -2  -7   4   11.69    2.31
   2  -7  -4    8.92    1.91
  -2   7   4    7.87    2.75
   2   7  -4    9.21    1.68
   2   7  -4    7.88    1.80
  -1  -7   4    6.59    1.73
   1  -7  -4    9.72    2.16
   1  -7  -4    5.99    1.24
  -1  -7   4    9.08    1.59
   1   7  -4    7.77    1.58
  -1   7   4    6.70    1.79
   1   7  -4    9.85    1.48
   0  -7  -4   50.73    4.84
   0  -7   4   56.10    4.74
   0  -7  -4   45.59    4.13
   0  -7   4   44.00    4.29
   0   7  -4   44.32    4.19
   0   7  -4   47.56    3.80
   0   7   4   39.98    4.65
  -1  -7  -4   17.68    2.67
   1  -7   4   17.69    2.64
  -1  -7  -4   13.48    2.20
   1  -7   4   15.24    2.17
   1   7   4   19.80    2.78
   1   7   4   15.90    3.18
  -1   7  -4   14.48    2.28
  -2  -7  -4    1.37    1.32
  -2  -7  -4    6.07    1.68
   2  -7   4    1.72    1.07
  -2   7  -4    1.58    1.33
  -2   7  -4    2.50    0.56
   2   7   4    5.16    2.19
  -2   7  -4    2.11    0.93
  -3  -7  -4    7.35    1.51
   3  -7   4    8.53    1.17
  -3  -7  -4    7.56    1.89
  -3   7  -4    6.68    1.28
   3   7   4    7.04    2.45
  -3   7  -4    4.47    1.38
  -3   7  -4    8.91    1.31
  -4  -7  -4    0.78    1.42
   4  -7   4    2.36    0.79
  -4  -7  -4    2.84    1.85
  -4   7  -4   -0.64    0.94
  -4   7  -4    0.76    1.09
   4   7   4    0.75    1.98
  -4   7  -4    1.87    1.01
  -5  -7  -4    2.41    1.80
  -5  -7  -4    1.32    1.63
   5   7   4   -0.15    2.05
  -5   7  -4    2.92    0.91
  -5   7  -4    1.27    2.24
  -5   7  -4   -0.04    1.01
  -6  -7  -4    1.13    1.63
  -6   7  -4    2.82    1.13
   6   7   4   -0.16    2.10
  -6   7  -4    2.29    0.99
  -6   7  -4    2.09    1.64
  -7   7  -4    1.54    1.97
  -7   7  -4    0.13    1.06
   7   7   4    2.03    3.00
  -7   7  -4    0.49    1.27
  -8  -7  -4    3.48    2.26
  -8   7  -4    0.47    1.20
  -8   7  -4    0.58    1.54
  -8   7  -4    7.81    2.57
  -8   7  -4    1.91    1.39
   8   7   4    3.58    3.14
  -8  -8   4    2.43    2.98
  -8   8   4    2.73    1.78
  -7  -8   4    4.16    3.83
  -7   8   4    9.64    2.07
   7   8  -4   13.43    3.64
   6  -8  -4    1.02    1.47
  -6  -8   4   -2.19    1.94
  -6   8   4   -0.88    1.39
   6   8  -4   -0.69    2.25
  -5  -8   4    5.18    2.56
  -5  -8   4    7.11    2.16
   5  -8  -4    3.99    2.80
  -5   8   4    3.74    1.52
   5   8  -4    4.03    2.36
   4  -8  -4   14.16    2.23
  -4  -8   4   10.58    2.10
  -4  -8   4   12.69    2.75
   4   8  -4   12.28    2.69
   4   8  -4   12.43    2.47
  -4   8   4   10.36    1.94
  -3  -8   4   32.40    3.38
  -3  -8   4   33.64    4.48
   3  -8  -4   33.67    3.72
  -3   8   4   26.93    3.42
   3   8  -4   40.48    4.34
   3   8  -4   32.28    3.76
   2  -8  -4    6.74    1.21
  -2  -8   4    6.32    1.45
  -2  -8   4    9.18    2.22
   2  -8  -4    5.43    1.83
  -2  -8   4    6.88    1.62
  -2   8   4    3.96    1.50
   2   8  -4    6.21    1.62
   2   8  -4    6.09    1.69
   1  -8  -4    0.40    0.93
   1  -8  -4   -0.20    1.60
  -1  -8   4    0.28    1.43
  -1  -8   4    2.74    1.34
  -1   8   4    0.21    1.46
   1   8  -4    0.14    1.08
   1   8  -4    1.25    1.12
   0  -8   4   62.01    5.45
   0  -8   4   56.16    5.07
   0  -8  -4   63.65    5.62
   0  -8  -4   54.12    4.84
   0   8   4   48.83    5.35
   0   8  -4   48.89    4.87
   0   8  -4   55.19    4.53
   1  -8   4   16.32    2.47
  -1  -8  -4   18.58    2.88
  -1  -8  -4   12.23    1.87
   1  -8   4   15.52    2.31
  -1   8  -4   11.81    1.54
   1   8   4   21.55    3.24
   1   8   4   24.03    5.31
  -1   8  -4   15.76    2.12
  -2  -8  -4   12.80    2.01
   2  -8   4   15.38    2.22
  -2  -8  -4   18.89    2.80
  -2   8  -4   13.91    2.06
  -2   8  -4   14.88    1.38
   2   8   4   22.83    3.29
   3  -8   4    0.68    0.92
  -3  -8  -4    1.76    1.66
  -3  -8  -4   -0.99    1.12
  -3   8  -4    1.14    0.85
  -3   8  -4    0.20    1.28
  -3   8  -4    0.36    0.75
   3   8   4   -1.73    1.86
   4  -8   4   16.20    1.91
  -4  -8  -4   15.36    2.59
  -4  -8  -4   17.10    2.81
  -4   8  -4   13.72    2.05
  -4   8  -4   15.17    2.00
  -4   8  -4   16.35    2.06
   4   8   4   10.89    2.96
  -5  -8  -4    0.20    1.35
   5   8   4   -2.29    2.06
  -5   8  -4   -0.22    0.85
  -5   8  -4   -0.88    1.89
  -5   8  -4   -0.59    1.10
  -6  -8  -4   -0.99    1.49
  -6   8  -4    0.24    0.90
  -6   8  -4    0.46    1.14
  -6   8  -4    0.75    1.62
   6   8   4   -0.07    2.47
  -7  -8  -4   -2.39    1.92
  -7   8  -4   -0.86    1.06
  -7   8  -4   -0.39    1.77
   7   8   4   -2.39    2.55
  -7   8  -4   -0.31    1.27
  -8  -8  -4    1.43    2.03
  -8   8  -4    0.71    2.31
   8   8   4    2.98    3.10
  -8   8  -4    0.32    1.56
  -8   8  -4    0.88    1.40
  -8  -9   4   13.94    4.01
  -8   9   4   12.58    2.45
  -7  -9   4   -1.03    2.15
   7   9  -4   -0.17    2.77
  -7   9   4    1.76    1.62
  -6  -9   4    2.85    2.17
   6   9  -4    2.23    2.50
  -6   9   4    0.26    1.55
  -5  -9   4   -0.91    1.82
   5  -9  -4    0.04    1.51
  -5  -9   4   -1.05    2.14
  -5   9   4   -1.96    1.32
   5   9  -4   -0.18    2.20
   4  -9  -4   39.35    4.45
  -4  -9   4   35.39    4.04
  -4  -9   4   49.14    5.33
  -4   9   4   32.80    3.98
   4   9  -4   41.39    4.69
  -3  -9   4    2.94    1.56
  -3  -9   4    0.40    1.68
   3  -9  -4    4.32    1.91
   3   9  -4    6.61    2.56
  -3   9   4    2.17    1.68
   3   9  -4    4.09    2.09
  -2  -9   4   14.12    2.18
   2  -9  -4   11.49    2.74
   2  -9  -4   13.47    1.84
  -2  -9   4   13.24    2.74
   2   9  -4   16.82    2.48
   2   9  -4   14.78    2.43
  -2   9   4    8.35    2.18
   1  -9  -4    0.50    1.83
  -1  -9   4    0.94    1.60
   1  -9  -4    0.63    1.10
  -1  -9   4    3.02    1.49
   1   9  -4    0.87    1.29
   1   9  -4   -0.17    1.26
  -1   9   4   -0.35    1.62
   0  -9   4   39.62    4.38
   0  -9  -4   33.07    3.61
   0  -9   4   44.55    4.02
   0  -9  -4   43.66    4.59
   0   9  -4   33.03    3.27
   0   9   4   30.78    4.31
   0   9  -4   28.93    3.63
  -1  -9  -4   -0.01    1.83
  -1  -9  -4    0.36    1.10
   1  -9   4    6.46    1.87
  -1   9  -4   -0.30    0.88
  -1   9  -4    0.81    1.00
   1   9   4    1.60    1.84
  -2  -9  -4    5.25    1.68
  -2  -9  -4   11.97    2.40
   2  -9   4    5.58    1.81
  -2   9  -4    5.48    1.30
   2   9   4    9.77    2.51
  -3  -9  -4    1.81    1.80
   3  -9   4    0.76    1.27
  -3  -9  -4   -1.46    1.24
  -3   9  -4   -0.24    1.49
   3   9   4    1.32    2.39
  -3   9  -4   -0.80    0.73
  -3   9  -4    2.61    0.99
  -4  -9  -4   10.59    2.65
  -4  -9  -4    5.17    1.68
   4  -9   4    7.78    1.44
  -4   9  -4    7.87    1.73
  -4   9  -4    6.60    1.30
   4   9   4    7.24    2.62
  -4   9  -4    8.36    1.47
  -5  -9  -4   -0.09    1.63
  -5   9  -4   -1.18    1.30
  -5   9  -4    0.38    1.25
   5   9   4   -2.08    2.10
  -5   9  -4    0.04    0.92
  -6  -9  -4   -0.53    2.28
  -6   9  -4    0.83    1.72
  -6   9  -4    0.50    1.03
  -7  -9  -4   -1.35    1.93
  -7   9  -4    0.27    1.96
  -7   9  -4   -1.52    1.08
   7   9   4   -1.06    3.08
  -7   9  -4   -1.08    1.33
  -8  -9  -4    0.61    1.86
  -8   9  -4    1.65    2.52
   8   9   4   -3.58    3.32
  -8   9  -4   -0.53    1.49
  -8 -10   4   -0.02    3.04
  -8  10   4    2.95    2.06
  -7 -10   4    0.13    2.36
  -7  10   4    0.40    1.65
   7  10  -4   -4.51    2.69
  -6 -10   4    0.91    2.42
  -6  10   4   -0.82    1.66
   6  10  -4   -1.21    2.40
   5 -10  -4   21.48    3.64
  -5 -10   4   11.09    2.64
  -5 -10   4    7.79    2.54
   5  10  -4   12.56    3.36
  -5  10   4    9.46    2.15
  -4 -10   4    2.85    1.86
   4 -10  -4    0.84    1.93
  -4 -10   4    3.39    2.13
   4  10  -4   -0.40    2.08
  -4  10   4    2.87    1.64
   3 -10  -4   -2.12    2.30
  -3 -10   4    2.53    1.59
  -3 -10   4   -0.59    1.92
  -3  10   4    0.20    1.54
   3  10  -4   -1.59    1.86
   3  10  -4    3.72    2.09
   2 -10  -4   14.18    1.97
  -2 -10   4   13.03    2.91
   2 -10  -4   13.92    2.94
  -2 -10   4   12.64    2.22
   2  10  -4   14.06    2.62
   2  10  -4   17.45    4.43
  -2  10   4    7.44    2.28
   1 -10  -4   15.30    2.19
   1 -10  -4   16.73    3.05
  -1 -10   4   11.45    2.31
  -1 -10   4   15.27    2.72
   1  10  -4   15.01    2.38
   1  10  -4   16.15    2.42
  -1  10   4   11.58    2.48
   0 -10   4    8.07    2.29
   0 -10   4    9.94    2.09
   0 -10  -4    8.78    2.66
   0  10  -4    5.28    1.48
   0  10  -4    5.07    1.52
   0  10   4    6.62    2.53
   1 -10   4   12.69    2.43
  -1 -10  -4    9.93    2.00
   1 -10   4   20.57    2.86
  -1 -10  -4   19.21    3.26
   1  10   4   22.47    3.32
  -1  10  -4   14.25    1.86
  -1  10  -4   11.89    1.96
  -2 -10  -4   17.47    2.73
   2 -10   4   17.95    2.89
   2  10   4   23.29    3.50
  -2  10  -4   16.46    2.48
  -3 -10  -4    2.02    1.42
   3 -10   4    2.07    1.55
   3  10   4    4.09    2.42
  -3  10  -4    2.98    0.90
  -3  10  -4    3.60    1.18
  -3  10  -4    4.20    1.96
   4 -10   4    2.39    1.29
  -4 -10  -4    0.85    1.59
  -4  10  -4    1.69    1.51
  -4  10  -4    1.05    1.01
   4  10   4    2.45    2.67
  -4  10  -4    2.25    1.16
  -5 -10  -4    6.43    2.01
   5 -10   4    8.11    1.54
   5  10   4    2.56    2.67
  -5  10  -4    4.99    1.30
  -5  10  -4    5.78    1.67
  -6 -10  -4    5.94    2.33
  -6  10  -4    7.11    1.41
  -6  10  -4    5.48    1.75
  -6  10  -4   10.01    2.16
   6  10   4    3.00    3.11
  -7 -10  -4   -0.05    2.04
  -7  10  -4    0.46    1.90
  -7  10  -4   -0.06    1.16
   7  10   4   -6.95    3.03
  -7  10  -4   -0.23    1.44
  -7 -11   4   -0.36    2.81
  -7  11   4   -1.41    1.81
   7  11  -4   -4.10    2.79
  -6 -11   4   12.09    3.48
   6  11  -4   11.32    3.58
  -6  11   4    9.87    2.45
  -5 -11   4    1.86    2.58
   5  11  -4   -0.52    2.70
  -5  11   4   -1.24    1.74
  -4 -11   4    1.88    2.38
  -4  11   4   -2.01    1.59
   4  11  -4    0.81    2.29
   3 -11  -4    3.44    2.47
  -3 -11   4    8.24    2.58
  -3  11   4    4.29    1.97
   3  11  -4    5.91    2.44
   2 -11  -4   22.31    2.92
  -2 -11   4   18.00    2.79
  -2 -11   4   21.83    3.39
   2 -11  -4   19.12    3.54
  -2  11   4   11.74    2.75
   2  11  -4   23.53    3.64
   2  11  -4   19.70    3.20
   1 -11  -4    0.66    2.19
  -1 -11   4    4.52    1.74
   1 -11  -4   -0.16    1.29
  -1 -11   4   -1.27    1.73
  -1  11   4    1.49    1.90
   1  11  -4   -0.60    1.51
   1  11  -4   -0.17    1.73
   0 -11   4    9.24    2.36
   0 -11  -4    4.71    1.71
   0 -11   4    9.84    2.14
   0 -11  -4   10.86    2.84
   0  11  -4    6.73    1.66
   0  11   4    7.56    2.65
   0  11   4    7.56    2.23
   0  11  -4    6.74    1.68
   1 -11   4    9.08    2.41
   1 -11   4    4.16    2.02
  -1 -11  -4    8.60    2.29
  -1 -11  -4    5.03    1.73
   1  11   4   10.25    2.68
  -1  11  -4    6.78    1.41
  -1  11  -4    7.07    1.61
  -2 -11  -4   -0.87    1.45
   2 -11   4   -1.03    1.77
   2  11   4    0.17    2.25
  -2  11  -4    1.34    1.09
  -3 -11  -4   -0.65    1.33
   3 -11   4    0.65    1.63
  -3  11  -4    0.91    1.11
   3  11   4    0.94    2.11
  -4 -11  -4    2.00    1.72
   4 -11   4    3.97    1.70
   4  11   4    5.28    2.80
  -4  11  -4    3.30    1.26
  -4  11  -4    6.12    1.25
  -4  11  -4    3.24    1.92
  -5 -11  -4   -1.70    1.46
   5 -11   4   -0.08    1.36
  -5  11  -4   -0.82    1.34
  -5  11  -4    1.29    1.19
  -5  11  -4   -0.61    1.54
   5  11   4    0.39    3.61
  -6 -11  -4    5.15    2.29
  -6  11  -4    6.87    1.46
  -6  11  -4    6.59    1.97
  -6  11  -4   10.07    2.41
   6  11   4    1.53    3.08
  -7 -11  -4    1.09    2.02
   7  11   4   -2.65    3.36
  -7  11  -4    2.20    2.05
  -7  11  -4   -0.85    1.56
  -6 -12   4    0.63    2.19
   6  12  -4   -5.28    2.71
  -6  12   4   -1.47    2.53
  -5 -12   4    4.07    2.59
   5  12  -4   -1.69    2.72
  -5  12   4    3.30    2.06
  -4  12   4   -1.64    1.65
   4  12  -4   -2.30    2.17
  -3 -12   4    2.12    2.08
   3  12  -4    1.40    2.22
  -3  12   4   -0.84    1.85
   2 -12  -4   20.03    2.99
  -2 -12   4   16.32    2.92
   2  12  -4   21.21    3.15
  -2  12   4   15.36    3.01
  -1 -12   4    4.33    2.16
  -1 -12   4    7.62    2.15
   1 -12  -4    5.33    1.74
  -1  12   4    7.37    2.54
   1  12  -4    7.98    1.98
   1  12  -4    2.67    1.84
   0 -12   4    2.27    2.20
   0 -12  -4   -0.86    1.40
   0 -12   4   -0.33    1.87
   0  12  -4   -1.14    1.33
   0  12   4    0.96    2.01
   0  12  -4    3.36    1.59
   1 -12   4   -2.18    1.87
  -1 -12  -4    0.47    1.46
   1 -12   4    3.00    2.09
  -1  12  -4    1.92    1.25
  -1  12  -4   -0.94    1.10
   1  12   4    1.10    2.18
  -2 -12  -4   29.31    4.04
  -2  12  -4   33.63    3.68
   2  12   4   41.33    4.92
  -3 -12  -4    0.89    1.70
   3 -12   4   -0.66    1.99
   3  12   4    4.29    2.48
  -3  12  -4    2.54    1.20
  -4 -12  -4    2.19    2.34
   4 -12   4    0.69    1.87
  -4  12  -4    5.05    1.32
   4  12   4    5.83    3.10
   5 -12   4   -0.84    1.61
  -5 -12  -4   -1.18    1.79
  -5  12  -4    2.01    1.37
  -5  12  -4   -1.18    1.78
  -5  12  -4    3.69    1.26
   5  12   4   -1.03    2.61
  -6 -12  -4    7.52    2.37
  -6  12  -4   11.53    3.05
   6  12   4    1.71    2.98
  -6  12  -4    7.33    2.12
  -6 -13   4    4.83    2.79
  -6  13   4    0.08    2.03
   6  13  -4    3.38    3.33
  -5 -13   4    1.81    2.31
  -5  13   4   -2.30    1.98
   5  13  -4   -1.83    2.56
  -4 -13   4    7.47    2.85
   4  13  -4    3.66    2.54
  -4  13   4    0.54    1.92
  -3 -13   4   -0.32    3.20
  -3  13   4   -2.52    1.81
   3  13  -4   -0.91    2.11
  -2 -13   4    9.51    2.89
   2 -13  -4    9.76    2.03
  -2  13   4    8.09    2.54
   2  13  -4   12.55    2.74
  -1 -13   4    0.12    1.97
   1 -13  -4    1.32    1.50
  -1  13   4    0.79    1.81
  -1  13   4   -0.19    2.17
   1  13  -4   -0.65    1.66
   0 -13  -4    1.93    1.71
   0 -13   4    0.83    2.05
   0 -13   4    7.16    2.18
   0  13  -4    5.03    1.66
   0  13   4    3.35    2.18
   0  13  -4    1.34    1.52
   1 -13   4    5.62    2.34
   1 -13   4   -0.69    2.04
  -1 -13  -4   -0.43    1.44
   1  13   4    0.52    2.03
  -1  13  -4    1.85    1.44
  -1  13  -4    0.11    1.09
   2 -13   4    4.50    4.94
  -2 -13  -4   -0.17    1.50
  -2  13  -4    0.86    1.39
   2  13   4    0.46    2.35
   3 -13   4   -3.90    2.15
  -3 -13  -4   -0.54    1.57
   3  13   4   -0.18    2.29
  -3  13  -4    1.04    1.27
  -4 -13  -4   -1.81    1.52
   4 -13   4   -2.82    2.02
  -4  13  -4    2.34    1.28
   4  13   4    1.74    3.12
  -5 -13  -4    0.27    1.70
  -5  13  -4    4.79    1.38
   5  13   4   -3.38    2.66
  -5 -14   4   -0.82    2.55
  -5  14   4   -1.69    1.96
   5  14  -4   -0.93    5.86
  -4 -14   4   -1.09    2.03
   4  14  -4   -2.77    2.28
  -4  14   4   -2.72    1.89
  -3 -14   4   -2.07    1.98
   3  14  -4   -2.25    2.07
  -3  14   4    1.96    2.15
   2 -14  -4   -1.77    1.53
   2  14  -4    1.71    2.10
  -1 -14   4   -1.43    2.14
   1 -14  -4   -1.11    1.58
   1  14  -4   -1.20    1.79
  -1  14   4   -0.38    1.83
   0 -14  -4   12.05    2.48
   0 -14   4   13.82    3.10
   0  14   4   13.04    2.71
   0  14  -4   13.67    2.22
   1 -14   4   -1.39    2.23
  -1 -14  -4    0.03    1.54
  -1  14  -4    2.05    1.07
   1  14   4    1.30    2.11
   2 -14   4    8.42    2.95
  -2 -14  -4    1.49    1.77
  -2  14  -4    7.06    1.73
   2  14   4    1.70    2.33
  -3 -14  -4    1.13    1.79
   3 -14   4   -2.93    2.68
   3  14   4    2.62    4.16
  -4 -14  -4    3.23    2.11
   4  14   4    8.99    3.29
  -5 -14  -4   -0.81    1.78
  -5  14  -4    6.97    1.80
   5  14   4   -1.31    2.92
  -4 -15   4    4.69    2.91
  -4  15   4    4.16    2.37
   4  15  -4    5.66    3.07
  -3 -15   4   -0.49    2.55
  -3  15   4   -2.48    2.22
   3  15  -4   -2.81    1.98
  -2 -15   4   -0.75    2.34
   2 -15  -4   -2.64    1.78
   2  15  -4    0.03    2.03
  -2  15   4    0.92    2.38
  -2  15   4   -1.28    1.78
  -1 -15   4    1.62    2.44
   1 -15  -4    1.72    1.87
  -1  15   4    1.99    2.05
   0 -15   4    3.16    2.62
   0 -15  -4    3.94    1.95
   0  15   4   10.82    2.62
   0  15  -4    6.49    1.71
   1 -15   4   -1.93    2.21
  -1 -15  -4    0.99    1.84
   1  15   4    2.08    2.19
  -2 -15  -4    1.69    1.99
   2  15   4    1.32    2.54
  -3 -15  -4   -0.82    1.73
  -3  15  -4    0.30    1.51
   3  15   4   -1.02    2.38
  -2 -16   4   -4.26    2.08
   2  16  -4    0.56    1.96
  -2  16   4    2.03    2.02
  -1 -16   4   -1.43    2.32
   1 -16  -4   -2.64    1.62
   1  16  -4    1.32    1.85
  -1  16   4    4.63    2.19
   0 -16   4   -2.98    2.33
   0 -16  -4   -0.25    1.78
   0  16   4    0.92    2.05
   0  16  -4   -0.30    1.32
   1 -16   4   -0.65    2.39
  -1 -16  -4    1.48    2.45
   1  16   4    5.71    2.82
  -2 -16  -4    0.14    1.78
   2  16   4    0.33    2.17
 -10   0   5    0.09    1.98
 -10   0   5    0.67    1.97
  -9   0   5   -2.00    1.80
  -9   0   5   -1.71    1.62
  -8   0   5    0.30    1.61
  -8   0   5    2.90    1.99
  -7   0   5    0.75    1.26
  -7   0   5    1.73    1.74
   6   0  -5    1.27    1.07
  -6   0   5   -0.06    1.51
  -6   0   5    0.88    1.53
  -6   0   5   -0.02    1.13
  -5   0   5    0.91    1.11
   5   0  -5    1.25    0.96
  -5   0   5   -1.36    0.88
  -5   0   5    0.20    1.05
  -4   0   5    1.09    0.97
  -4   0   5    2.04    0.94
  -4   0   5    0.51    0.75
   4   0  -5    0.43    0.90
  -3   0   5    0.44    0.65
  -3   0   5   -0.38    0.50
   3   0  -5   -1.45    0.74
   1   0  -5    0.72    0.46
   1   0  -5    0.09    0.33
  -1   0   5    0.37    0.39
   0   0   5    0.17    0.38
   0   0  -5    1.03    0.34
   1   0   5   -0.76    0.68
  -1   0  -5   -0.11    0.39
  -3   0  -5    2.12    1.23
   3   0   5    1.22    0.88
   4   0   5    3.17    1.14
  -4   0  -5    4.00    1.58
   5   0   5    1.11    1.09
  -5   0  -5    2.44    1.78
  -6   0  -5    0.57    1.14
   6   0   5    1.70    1.39
  -6   0  -5   -2.15    1.64
  -7   0  -5    0.64    1.49
  -7   0  -5   -0.25    2.05
   7   0   5    0.95    1.58
   8   0   5    6.19    1.94
  -8   0  -5    1.27    1.37
  -8   0  -5    2.06    1.72
  -9   0  -5    0.28    1.75
  -9   0  -5    0.78    1.41
 -10  -1   5    0.07    1.81
 -10  -1   5    1.57    2.36
 -10   1   5   -0.68    1.82
 -10   1   5    1.18    1.98
  -9  -1   5   -0.30    2.04
  -9  -1   5    0.65    1.77
  -9   1   5    0.65    1.80
  -9   1   5    0.50    1.60
  -8  -1   5    9.32    2.89
  -8  -1   5   12.80    2.30
  -8   1   5   16.08    2.55
  -8   1   5   12.58    2.16
  -7  -1   5    0.42    1.29
  -7  -1   5   -0.65    1.86
  -7   1   5    0.81    1.35
  -7   1   5    1.52    2.83
  -7   1   5    2.91    1.46
  -6  -1   5    0.11    1.49
  -6  -1   5   -0.19    2.06
  -6  -1   5   -0.28    1.17
  -6   1   5    2.79    1.30
  -6   1   5    0.31    1.08
   6   1  -5    1.64    1.32
  -6   1   5    0.45    1.38
  -5  -1   5    2.08    1.26
   5  -1  -5    1.65    0.79
  -5  -1   5    2.67    1.44
  -5   1   5    0.92    1.17
   5   1  -5    2.27    1.19
  -5   1   5    2.34    1.03
  -5   1   5    1.66    0.96
  -4  -1   5   67.05    6.22
   4  -1  -5   75.79    5.88
  -4  -1   5   75.53    5.98
   4   1  -5   67.48    6.19
  -4   1   5   73.05    5.84
  -4   1   5   75.72    5.83
  -3  -1   5    1.81    0.88
  -3  -1   5    1.20    0.80
   3  -1  -5    0.39    0.72
   3   1  -5    0.50    0.92
  -3   1   5    0.77    0.58
  -3   1   5    1.38    0.55
   2  -1  -5    2.54    0.56
  -2  -1   5    3.78    0.88
   2  -1  -5    2.53    0.67
  -2   1   5    2.84    0.52
   2   1  -5    1.91    0.85
  -2   1   5    2.74    0.64
  -1  -1   5   31.50    2.76
  -1  -1   5   30.53    2.57
   1  -1  -5   33.32    2.64
  -1   1   5   33.69    2.66
   1   1  -5   32.02    2.76
   0  -1  -5    5.68    0.74
   0  -1   5    4.30    0.62
   0   1  -5    5.34    0.77
   0   1   5    5.51    0.85
  -1  -1  -5    3.84    0.85
   1  -1   5    1.81    0.56
  -1   1  -5    3.62    0.39
   1   1   5    2.36    1.00
  -2  -1  -5    2.85    1.00
   2  -1   5    2.30    0.80
  -2   1  -5    2.80    1.14
  -2   1  -5    1.48    0.65
   2   1   5    2.40    1.21
  -3  -1  -5   25.69    3.21
   3  -1   5   31.42    2.69
  -3   1  -5   26.64    3.10
   3   1   5   31.54    2.99
   4  -1   5   20.41    2.22
  -4  -1  -5   19.00    2.89
  -4   1  -5   20.14    2.87
   4   1   5   19.38    2.48
   5  -1   5    2.02    1.35
  -5  -1  -5   -0.07    1.70
  -5  -1  -5    1.68    1.17
   5   1   5    2.95    1.30
  -5   1  -5    2.07    1.66
  -6  -1  -5    1.85    1.48
  -6  -1  -5    0.64    1.99
   6  -1   5    3.24    1.34
   6   1   5    3.94    1.54
  -6   1  -5    1.57    2.02
  -6   1  -5    1.90    1.28
   7  -1   5    1.89    1.54
  -7  -1  -5    1.69    1.60
  -7  -1  -5    2.84    3.40
  -7   1  -5    0.04    1.38
  -7   1  -5    2.24    2.15
  -7   1  -5   -1.06    0.99
   7   1   5    2.44    1.62
  -8  -1  -5    3.60    2.11
  -8   1  -5    3.46    1.86
  -8   1  -5    3.30    1.42
   8   1   5    6.57    1.92
  -9  -1  -5    0.31    1.42
   9   1   5    1.75    2.07
  -9   1  -5   -0.23    1.36
  -9   1  -5    2.05    1.91
 -10  -2   5   -0.18    1.92
 -10  -2   5   -1.70    2.56
 -10   2   5   -1.15    1.69
 -10   2   5    2.68    2.11
  -9  -2   5   -1.48    1.77
  -9  -2   5   -1.05    2.34
  -9   2   5    2.14    1.49
  -9   2   5   -0.98    1.60
  -8  -2   5    1.53    1.55
  -8  -2   5    0.92    2.43
  -8   2   5    5.38    1.44
  -8   2   5    4.57    1.79
  -7  -2   5   -2.19    1.97
   7   2  -5    4.60    1.92
  -7   2   5    3.20    1.21
  -7   2   5   -1.71    2.52
  -7   2   5    3.13    1.46
  -6  -2   5   -0.39    1.84
  -6   2   5    1.50    1.00
  -6   2   5    0.75    1.51
   6   2  -5    1.48    1.39
  -6   2   5    0.11    1.03
  -5  -2   5    4.27    1.35
  -5  -2   5    2.33    1.58
  -5   2   5    4.06    0.89
  -5   2   5    2.52    1.08
   5   2  -5    3.42    1.46
  -5   2   5    7.18    1.56
  -4  -2   5  209.48   15.32
  -4  -2   5  184.82   15.66
   4  -2  -5  212.59   15.08
  -4   2   5  200.86   15.19
   4   2  -5  186.22   16.21
  -4   2   5  197.06   15.04
  -3  -2   5    1.23    0.88
   3  -2  -5    0.75    0.84
  -3  -2   5    0.06    1.06
   3  -2  -5    0.56    0.58
  -3   2   5    1.44    0.39
   3   2  -5    1.02    1.06
  -3   2   5    0.90    0.63
   2  -2  -5   18.54    1.65
   2   2  -5   15.34    2.11
  -1  -2   5   17.65    1.90
   1  -2  -5   16.77    1.63
  -1   2   5   16.69    1.66
   1   2  -5   15.30    1.81
   0  -2  -5  915.69   64.82
   0   2  -5  834.94   64.77
   0   2   5  854.03   64.82
   1  -2   5    5.92    0.85
  -1  -2  -5    5.67    1.18
   1   2   5    3.70    1.23
  -2  -2  -5    1.77    1.12
   2  -2   5    3.68    0.71
  -2   2  -5    4.47    1.08
   2   2   5    3.46    1.50
  -3  -2  -5    0.50    1.05
  -3  -2  -5    0.82    1.44
   3  -2   5    0.77    0.66
  -3   2  -5    0.88    0.34
  -3   2  -5    0.18    1.12
   3   2   5    1.08    1.20
  -4  -2  -5   78.20    7.24
   4  -2   5   87.06    6.73
  -4   2  -5   88.62    6.50
   4   2   5   86.30    8.29
  -4   2  -5   81.24    7.08
  -5  -2  -5    7.42    2.28
  -5  -2  -5    4.81    1.42
   5  -2   5    5.10    1.24
  -5   2  -5    3.32    1.70
  -5   2  -5    4.87    0.88
   5   2   5    4.15    1.75
  -6  -2  -5    1.14    1.24
  -6  -2  -5    1.30    2.46
   6  -2   5    4.06    1.36
   6   2   5    3.23    1.74
  -6   2  -5    0.51    0.89
  -6   2  -5    1.75    1.79
  -7  -2  -5   -0.03    1.52
  -7   2  -5   -0.36    0.99
  -7   2  -5    0.14    1.41
   7   2   5    2.36    1.68
  -7   2  -5   -1.31    1.96
  -8  -2  -5    0.70    1.71
  -8   2  -5   -0.58    1.52
  -8   2  -5    1.74    1.26
   8   2   5    4.04    2.02
  -9  -2  -5    0.09    2.08
  -9   2  -5    2.86    1.85
  -9   2  -5    1.73    1.46
   9   2   5    2.88    2.26
  -9  -3   5   -1.22    1.63
  -9  -3   5   -1.56    2.43
  -9   3   5    0.98    1.75
  -9   3   5    0.07    1.25
  -8   3   5   11.03    2.17
  -8   3   5   14.50    2.17
  -7  -3   5   -3.27    1.99
  -7   3   5    0.26    1.25
   7   3  -5    0.92    2.46
  -7   3   5    3.10    0.93
  -7   3   5    0.50    2.61
  -6  -3   5    9.99    2.06
  -6  -3   5    4.78    2.31
  -6   3   5   12.31    2.30
   6   3  -5    8.17    2.13
  -5  -3   5    0.85    1.23
  -5  -3   5    0.50    1.62
   5   3  -5    0.15    1.34
  -5   3   5    1.97    0.55
  -5   3   5    0.69    0.88
   4  -3  -5   55.97    4.39
  -4  -3   5   56.14    4.55
  -4  -3   5   44.79    5.17
   4   3  -5   45.13    5.01
  -4   3   5   55.28    4.39
  -4   3   5   52.03    4.02
   3  -3  -5    0.55    0.63
  -3  -3   5    0.81    1.27
  -3  -3   5    1.18    0.83
   3  -3  -5    0.39    0.34
  -3   3   5    1.18    0.70
   3   3  -5   -0.03    1.97
  -2  -3   5   30.82    3.10
   2  -3  -5   28.82    2.28
  -2  -3   5   26.79    2.46
   2  -3  -5   29.72    2.54
  -2   3   5   29.37    2.54
   2   3  -5   22.05    2.87
  -1  -3   5   17.92    1.74
   1  -3  -5   21.33    2.03
  -1  -3   5   21.20    2.33
   1   3  -5   19.83    2.16
  -1   3   5   22.29    2.05
   0  -3   5    3.97    0.84
   0  -3  -5    6.79    1.25
   0   3   5    4.91    1.20
   0   3  -5    4.90    0.88
   1  -3   5   26.57    2.57
   1  -3   5   33.06    2.47
  -1  -3  -5   34.49    3.30
  -1   3  -5   36.77    2.78
   1   3   5   29.59    3.39
  -2  -3  -5    1.73    1.13
   2   3   5    0.83    1.66
  -2   3  -5    1.74    0.92
   3  -3   5   16.39    1.62
  -3  -3  -5   19.92    2.10
  -3  -3  -5   18.32    2.41
  -3  -3  -5   23.66    2.95
   3   3   5   17.10    2.46
  -3   3  -5   14.32    1.39
  -3   3  -5   14.95    2.16
  -4  -3  -5    2.65    1.01
  -4  -3  -5    4.42    1.84
   4  -3   5    3.17    0.90
  -4   3  -5    4.45    1.53
   4   3   5    1.69    1.57
  -4   3  -5    2.47    0.58
   5  -3   5   12.16    1.67
  -5  -3  -5   10.78    2.59
  -5  -3  -5   11.62    1.98
  -5   3  -5   10.84    1.39
   5   3   5   13.02    2.43
  -5   3  -5   12.12    2.31
  -6  -3  -5    3.10    1.60
  -6  -3  -5    6.52    2.41
   6   3   5    5.26    1.85
  -6   3  -5    2.03    0.96
  -6   3  -5    3.30    1.97
  -7  -3  -5   -1.68    1.53
  -7   3  -5    0.27    2.26
   7   3   5    0.12    1.70
  -7   3  -5    0.36    1.39
  -7   3  -5    0.28    1.34
  -8  -3  -5    0.39    1.77
  -8   3  -5   -1.03    1.18
   8   3   5    2.37    2.26
  -8   3  -5    0.39    1.52
  -9  -3  -5   -0.32    1.96
  -9   3  -5    1.92    1.49
  -9   3  -5    1.00    1.71
   9   3   5    4.83    2.19
  -9  -4   5    0.78    2.88
  -9   4   5    0.13    0.91
  -9   4   5    1.30    1.63
  -8  -4   5   -0.93    2.42
  -8   4   5    0.98    1.47
  -8   4   5    1.25    0.79
  -7  -4   5   -3.36    2.28
  -7   4   5    1.57    0.63
   7   4  -5   -0.09    2.18
  -7   4   5    2.14    1.25
  -6  -4   5    7.81    1.96
  -6  -4   5    6.43    2.61
   6   4  -5    8.51    2.29
  -6   4   5   14.72    2.12
  -5  -4   5    9.89    1.87
  -5  -4   5    5.58    2.12
  -5   4   5    6.78    1.29
   5   4  -5    7.54    2.14
  -4  -4   5    3.64    1.16
   4  -4  -5    2.88    0.96
  -4  -4   5    2.45    2.66
   4   4  -5    2.58    1.43
  -4   4   5    3.10    1.17
  -3  -4   5    5.68    1.68
   3  -4  -5    8.03    1.22
  -3  -4   5    4.77    1.54
   3   4  -5    4.96    1.41
  -3   4   5    4.27    1.01
  -2  -4   5  176.09   12.36
  -2  -4   5  154.36   11.76
   2  -4  -5  146.02   11.57
  -2   4   5  163.94   11.87
   2   4  -5  130.84   12.63
  -1  -4   5    4.56    1.32
   1  -4  -5    4.27    1.16
  -1  -4   5    5.42    0.75
  -1   4   5    3.97    1.02
   1   4  -5    4.08    0.97
   0  -4   5   21.90    2.23
   0  -4   5   17.04    1.48
   0  -4  -5   18.72    2.36
   0  -4  -5   19.88    1.77
   0   4   5   14.30    2.33
   0   4  -5   19.12    2.01
  -1  -4  -5    0.62    0.55
  -1  -4  -5    0.42    1.19
   1  -4   5   -0.21    0.76
  -1   4  -5    1.38    0.61
   1   4   5    1.11    1.46
  -2  -4  -5  114.24    9.66
   2  -4   5  127.55    8.96
  -2  -4  -5  117.03    9.34
  -2   4  -5  124.22    9.21
   2   4   5  109.12    9.85
  -3  -4  -5    1.71    0.86
  -3  -4  -5    1.59    1.25
  -3   4  -5    1.02    0.50
  -3   4  -5    1.66    1.11
   3   4   5    2.25    1.59
  -4  -4  -5   22.80    3.37
  -4  -4  -5   23.99    3.12
  -4  -4  -5   24.52    2.80
  -4   4  -5   21.48    2.80
  -4   4  -5   22.42    2.03
   4   4   5   28.82    3.45
  -5  -4  -5    8.69    2.62
  -5  -4  -5    7.64    1.66
   5   4   5    9.38    2.20
  -5   4  -5    8.07    1.10
  -5   4  -5    8.81    2.10
  -6  -4  -5    8.83    2.73
  -6  -4  -5    2.81    1.46
  -6   4  -5    5.24    1.11
   6   4   5   10.83    2.40
  -6   4  -5    7.58    2.12
  -7  -4  -5    1.33    1.76
  -7   4  -5    3.94    1.16
   7   4   5    5.56    2.33
  -7   4  -5    2.27    1.42
  -7   4  -5    3.35    2.50
  -8   4  -5    2.91    1.30
  -8   4  -5    2.37    1.75
   8   4   5    2.17    1.99
  -9  -4  -5    2.31    2.33
   9   4   5    2.17    2.42
  -9   4  -5    3.40    1.58
  -9   4  -5    1.76    1.73
  -9  -5   5   -3.04    2.83
  -9   5   5   -0.68    1.74
  -8  -5   5    7.61    3.57
  -8   5   5    6.02    1.82
  -7  -5   5    0.33    2.28
  -7   5   5    0.05    1.32
  -6  -5   5    7.55    2.62
  -6  -5   5   10.53    2.32
  -6   5   5    9.33    2.63
   6   5  -5    6.88    2.42
  -6   5   5   10.19    1.67
   5  -5  -5    8.53    1.44
  -5  -5   5    9.55    1.81
  -5  -5   5    9.66    2.79
   5   5  -5    5.31    2.23
  -5   5   5    7.34    1.43
   4  -5  -5   44.01    3.82
  -4  -5   5   40.47    3.88
  -4  -5   5   42.38    4.94
   4   5  -5   42.49    4.68
  -4   5   5   42.42    3.78
  -3  -5   5   15.62    3.02
  -3  -5   5   16.97    2.08
   3  -5  -5   18.82    2.16
   3   5  -5   19.72    2.33
   3   5  -5   19.71    2.84
  -3   5   5   18.08    2.14
  -2  -5   5   25.60    2.37
   2  -5  -5   29.98    2.70
  -2  -5   5   29.45    3.42
   2  -5  -5   21.57    2.11
  -2   5   5   28.27    2.63
   2   5  -5   21.98    2.90
   2   5  -5   25.47    2.47
   1  -5  -5   54.34    4.26
   1  -5  -5   60.24    5.07
  -1  -5   5   51.13    4.21
  -1  -5   5   57.39    4.96
  -1   5   5   47.52    4.57
   0  -5   5    1.34    0.90
   0  -5  -5   -0.34    2.27
   0  -5  -5    0.57    0.56
   0  -5   5    1.60    0.84
   0   5   5    1.05    1.35
   0   5  -5    1.85    0.88
  -1  -5  -5   69.61    5.46
   1  -5   5   62.91    5.51
  -1  -5  -5   65.97    6.05
   1   5   5   62.56    6.11
  -1   5  -5   72.47    5.46
  -2  -5  -5    6.32    1.14
  -2  -5  -5    7.33    1.76
   2  -5   5    7.92    0.93
  -2   5  -5    8.89    1.36
   2   5   5    5.25    1.93
  -3  -5  -5   40.40    3.61
  -3  -5  -5   35.51    3.95
  -3   5  -5   36.90    3.37
   3   5   5   33.99    4.31
  -3   5  -5   40.27    3.29
  -3   5  -5   34.31    3.13
  -4  -5  -5   41.66    4.40
  -4  -5  -5   43.60    4.14
  -4   5  -5   39.07    3.41
   4   5   5   41.73    4.65
  -4   5  -5   44.28    4.00
  -5  -5  -5   19.85    3.03
  -5  -5  -5   21.34    4.63
  -5  -5  -5   23.98    3.31
  -5   5  -5   25.24    2.27
  -5   5  -5   25.18    3.17
   5   5   5   26.09    3.79
  -6  -5  -5   12.27    2.45
  -6  -5  -5   11.06    2.29
  -6   5  -5   15.30    2.67
  -6   5  -5   11.75    1.71
   6   5   5    9.72    2.50
  -7  -5  -5    2.26    1.80
  -7   5  -5    6.70    2.31
   7   5   5    5.32    2.59
  -7   5  -5    3.08    1.14
  -8  -5  -5   11.88    2.79
  -8   5  -5   11.35    1.84
   8   5   5   11.45    3.10
  -8   5  -5    9.38    2.19
  -9  -5  -5    0.31    2.08
   9   5   5    4.86    3.19
  -9   5  -5    0.84    1.80
  -9   5  -5    2.02    1.50
  -9  -6   5   -2.24    2.74
  -9   6   5    0.70    1.86
  -8  -6   5   -2.13    4.04
  -8   6   5    1.08    1.58
  -7  -6   5    2.48    2.91
  -7   6   5    1.35    1.62
  -6  -6   5   10.18    2.22
  -6  -6   5   10.86    3.27
   6   6  -5    2.04    2.40
  -6   6   5   10.06    1.87
   5  -6  -5   10.16    1.69
  -5  -6   5   10.05    1.98
  -5  -6   5    9.22    2.72
   5   6  -5   17.06    2.82
   5   6  -5   10.39    3.10
  -5   6   5   10.44    1.81
   4  -6  -5  105.35    8.54
  -4  -6   5  100.92    8.54
  -4  -6   5  118.85    9.62
   4   6  -5  111.45    8.82
  -4   6   5   97.00    8.46
   4   6  -5  110.26    9.28
  -3  -6   5    0.06    1.59
   3  -6  -5   -0.35    0.93
  -3  -6   5    1.37    0.96
  -3   6   5    0.59    1.02
   3   6  -5    0.72    1.15
   3   6  -5    0.70    1.39
   2  -6  -5   41.42    3.39
   2  -6  -5   42.82    3.93
  -2  -6   5   42.00    4.71
  -2  -6   5   42.90    3.55
   2   6  -5   43.91    3.67
   2   6  -5   35.32    4.05
  -2   6   5   38.16    3.78
   1  -6  -5   10.06    1.82
  -1  -6   5    8.50    1.26
  -1  -6   5   10.58    2.05
   1  -6  -5    9.34    1.35
   1   6  -5    9.72    1.31
  -1   6   5   11.05    1.76
   1   6  -5    8.24    1.49
   0  -6  -5  427.88   30.48
   0  -6  -5  452.38   30.98
   0  -6   5  387.22   30.50
   0   6   5  358.24   30.72
   0   6  -5  399.74   30.58
   1  -6   5    1.40    0.96
  -1  -6  -5    2.22    0.88
   1  -6   5    2.07    1.16
  -1  -6  -5    1.82    1.49
   1   6   5    2.13    1.80
  -2  -6  -5   66.83    5.67
  -2  -6  -5   62.65    6.13
   2  -6   5   75.71    5.38
  -2   6  -5   60.74    6.04
   3  -6   5    4.81    0.71
  -3  -6  -5    3.47    1.61
  -3  -6  -5    2.72    0.99
  -3   6  -5    5.84    1.18
   3   6   5   -0.04    1.84
  -3   6  -5    3.43    0.90
  -3   6  -5    1.35    1.02
  -4  -6  -5   84.02    7.49
  -4  -6  -5   85.81    7.25
  -4   6  -5   89.58    6.76
   4   6   5   87.15    7.85
  -4   6  -5   76.71    6.65
  -4   6  -5   86.29    6.96
  -5  -6  -5    3.60    2.24
  -5  -6  -5    2.86    1.44
  -5   6  -5    3.64    0.98
  -5   6  -5    4.31    1.03
   5   6   5    1.23    2.01
  -6  -6  -5   11.36    2.50
  -6  -6  -5    7.87    2.19
   6   6   5   12.99    2.93
  -6   6  -5    9.90    1.44
  -6   6  -5   11.42    2.34
  -7  -6  -5    3.42    2.00
  -7   6  -5   10.61    2.54
  -7   6  -5    6.57    1.37
  -8  -6  -5    2.35    2.05
  -8   6  -5    3.38    1.35
   8   6   5    2.87    2.71
  -8   6  -5    0.23    1.57
  -8   6  -5    1.87    3.07
  -9  -6  -5    3.36    2.52
  -9   6  -5    0.51    1.73
   9   6   5    3.17    3.04
  -9   6  -5    4.88    1.66
  -9  -7   5    0.53    2.99
  -9   7   5    0.88    1.82
  -8  -7   5    1.26    2.83
  -8   7   5    2.18    1.73
  -7  -7   5   10.54    3.45
  -7   7   5   11.11    2.21
   6  -7  -5    3.49    1.42
  -6  -7   5    0.04    2.51
  -6  -7   5    2.05    2.74
  -6   7   5    1.94    1.37
  -5  -7   5   -1.04    1.95
   5  -7  -5    3.78    1.51
  -5  -7   5    4.50    1.67
   5   7  -5    0.90    2.09
   5   7  -5    1.55    1.87
  -5   7   5    1.24    1.25
  -4  -7   5    7.69    1.75
  -4  -7   5    5.07    2.45
   4  -7  -5    9.12    1.73
   4   7  -5    5.68    1.99
  -4   7   5    5.24    1.54
   4   7  -5   10.60    2.32
  -3  -7   5   26.60    4.02
   3  -7  -5   24.43    3.11
  -3  -7   5   24.80    2.81
   3   7  -5   31.07    3.69
   3   7  -5   29.52    3.16
  -3   7   5   25.47    2.97
   2  -7  -5    4.54    0.96
   2  -7  -5    3.83    1.58
  -2  -7   5    1.97    1.52
  -2  -7   5    6.30    1.21
   2   7  -5    6.55    1.69
   2   7  -5    5.57    1.41
  -2   7   5    4.43    1.49
  -1  -7   5   30.72    5.34
  -1  -7   5   25.73    2.63
   1  -7  -5   28.93    2.81
   1  -7  -5   35.40    3.63
  -1  -7   5   30.57    3.02
   1   7  -5   25.95    3.13
   1   7  -5   33.27    2.73
  -1   7   5   28.47    3.33
   0  -7   5    4.30    1.58
   0  -7   5    3.46    1.23
   0  -7  -5    5.47    1.86
   0  -7  -5    4.07    1.00
   0   7   5    2.69    1.63
   0   7  -5    3.24    1.12
   1  -7   5    5.33    1.47
  -1  -7  -5    5.15    1.89
   1  -7   5    3.71    1.29
  -1  -7  -5    2.08    1.01
   1   7   5    5.06    2.10
  -1   7  -5    2.96    1.08
   1   7   5    5.14    2.39
  -2  -7  -5    4.89    1.33
   2  -7   5    2.75    1.07
  -2  -7  -5    1.68    1.78
  -2   7  -5    3.98    0.98
   2   7   5    4.67    2.29
  -3  -7  -5   39.71    4.02
   3  -7   5   42.22    3.37
  -3  -7  -5   32.90    4.36
   3   7   5   41.12    4.99
  -3   7  -5   38.74    3.79
  -3   7  -5   40.25    3.56
  -3   7  -5   41.60    3.44
  -4  -7  -5    7.76    1.75
  -4  -7  -5    9.26    2.17
   4   7   5    5.69    2.51
  -4   7  -5    9.03    1.33
  -4   7  -5    4.48    1.33
  -4   7  -5    9.24    1.68
  -5  -7  -5    5.08    2.07
  -5  -7  -5   -0.78    1.46
  -5   7  -5    0.03    0.95
  -5   7  -5   -0.62    1.39
   5   7   5   -2.62    2.07
  -5   7  -5    0.23    0.88
  -6  -7  -5    1.36    1.54
   6   7   5    5.73    2.82
  -6   7  -5    5.23    1.24
  -6   7  -5    6.78    1.32
  -6   7  -5    6.23    2.06
  -7  -7  -5    2.18    1.92
  -7   7  -5    4.21    2.12
  -7   7  -5    0.91    1.13
  -7   7  -5    2.11    1.20
   7   7   5    3.43    2.65
  -8  -7  -5    1.08    1.96
   8   7   5   -0.06    2.81
  -8   7  -5   -0.89    1.22
  -8   7  -5   -0.08    2.40
  -8   7  -5   -0.52    1.61
  -8  -8   5    1.98    2.96
  -8   8   5    2.87    1.97
  -7  -8   5    1.05    2.76
  -7   8   5    0.86    1.72
  -6  -8   5    2.48    2.55
   6  -8  -5    1.16    2.53
  -6   8   5    0.19    1.32
   6   8  -5    0.23    2.29
  -5  -8   5    5.17    2.21
  -5  -8   5   11.64    2.60
   5  -8  -5   12.23    2.19
   5   8  -5   10.71    2.74
  -5   8   5    8.86    1.97
  -4  -8   5    3.34    2.40
   4  -8  -5    7.00    1.87
  -4  -8   5    6.13    1.65
   4   8  -5    7.21    2.29
  -4   8   5    1.61    1.45
   4   8  -5    5.90    2.17
  -3  -8   5   15.43    2.10
  -3  -8   5    7.92    2.25
   3  -8  -5   13.91    2.31
  -3   8   5    9.81    1.95
   3   8  -5   14.79    2.51
   3   8  -5   19.61    2.62
  -2  -8   5    4.30    1.25
   2  -8  -5    4.46    1.79
   2  -8  -5    6.56    1.17
  -2  -8   5    5.49    2.14
   2   8  -5    4.19    1.43
  -2   8   5    4.08    1.51
   2   8  -5    5.17    1.66
  -1  -8   5    5.47    2.03
  -1  -8   5    5.12    1.47
   1  -8  -5    4.26    1.14
   1  -8  -5    3.46    1.94
   1   8  -5    3.96    1.17
  -1   8   5    3.85    1.70
   1   8  -5    3.41    1.37
   0  -8  -5    2.83    1.82
   0  -8   5    6.53    1.60
   0  -8  -5    1.36    1.02
   0  -8   5    1.43    1.54
   0   8   5   -0.26    1.46
   0   8  -5    2.22    0.72
   0   8  -5    2.41    1.12
  -1  -8  -5   19.93    3.13
  -1  -8  -5   14.88    2.41
   1  -8   5   19.10    2.59
   1  -8   5   16.01    2.41
  -1   8  -5   16.81    2.32
   1   8   5   19.46    3.11
   1   8   5   24.02    3.48
   2  -8   5   -0.13    1.12
  -2  -8  -5   -0.54    1.01
  -2  -8  -5    3.29    1.76
   2   8   5    1.84    2.20
  -2   8  -5    2.09    0.94
  -3  -8  -5    3.27    2.05
   3  -8   5    1.32    0.89
  -3  -8  -5    1.21    1.25
   3   8   5    2.28    2.27
  -3   8  -5    2.28    1.50
  -3   8  -5    2.47    0.97
  -4  -8  -5    8.08    1.89
   4  -8   5   12.75    1.56
  -4  -8  -5   10.90    2.32
   4   8   5    8.54    2.80
  -4   8  -5    7.78    1.68
  -4   8  -5   13.57    1.84
  -4   8  -5   11.66    1.85
  -5  -8  -5   -1.58    1.22
  -5   8  -5   -0.41    0.91
  -5   8  -5    0.02    1.45
  -5   8  -5   -1.82    1.04
   5   8   5   -2.05    2.33
  -6  -8  -5   -0.90    1.57
   6   8   5   -1.45    2.16
  -6   8  -5   -0.88    0.97
  -6   8  -5    2.14    1.81
  -6   8  -5   -1.86    1.05
  -7  -8  -5    0.03    1.88
  -7   8  -5    1.23    1.30
  -7   8  -5    0.73    1.24
   7   8   5   -0.26    2.94
  -7   8  -5   -0.77    2.02
  -8  -8  -5    1.95    2.11
  -8   8  -5   -2.71    2.38
   8   8   5   -2.81    3.26
  -8   8  -5    0.96    1.41
  -8   8  -5   -2.06    1.53
  -8  -9   5    6.02    3.67
  -8   9   5    6.51    2.15
  -7  -9   5    4.29    2.76
  -7   9   5    5.36    2.03
  -6  -9   5    4.34    2.82
   6   9  -5    1.07    2.59
  -6   9   5    3.25    1.68
  -5  -9   5    1.39    1.94
   5  -9  -5    2.36    1.66
  -5  -9   5    0.47    1.78
  -5   9   5   -1.68    1.42
   5   9  -5    1.78    2.41
  -4  -9   5   43.44    5.30
  -4  -9   5   34.92    3.90
   4  -9  -5   38.79    4.26
   4   9  -5   39.77    4.52
  -4   9   5   31.49    3.90
  -3  -9   5    0.44    1.88
  -3  -9   5    2.73    1.48
   3  -9  -5    0.58    1.75
   3   9  -5    2.14    1.94
   3   9  -5    1.17    2.06
  -3   9   5    2.25    1.57
   2  -9  -5   15.10    2.29
   2  -9  -5   18.33    3.03
  -2  -9   5   18.80    2.77
  -2  -9   5   15.39    2.96
   2   9  -5   17.10    2.43
   2   9  -5   21.83    3.10
  -2   9   5   13.41    2.55
  -1  -9   5    2.04    1.67
  -1  -9   5    4.41    1.47
   1  -9  -5    4.34    1.92
   1  -9  -5    2.31    1.16
  -1   9   5    0.42    1.54
   1   9  -5    1.83    1.18
   1   9  -5    3.38    1.27
   0  -9  -5   10.66    1.81
   0  -9   5   13.20    2.32
   0  -9   5   19.34    2.76
   0  -9  -5   17.47    3.07
   0   9  -5   10.36    1.50
   0   9  -5   12.70    2.01
   0   9   5    8.53    2.35
  -1  -9  -5   17.04    2.50
  -1  -9  -5   25.11    3.68
   1  -9   5   17.68    2.82
   1  -9   5   24.33    3.28
  -1   9  -5   16.08    2.56
   1   9   5   26.38    3.85
   1   9   5   26.56    3.69
  -2  -9  -5    1.32    1.28
   2  -9   5    2.89    1.96
  -2   9  -5    3.93    1.21
   2   9   5    5.71    2.59
   3  -9   5    2.04    1.14
  -3  -9  -5   -0.43    1.14
  -3  -9  -5    2.55    1.91
   3   9   5   -0.14    2.34
  -3   9  -5    1.00    1.02
   4  -9   5   12.82    1.75
  -4  -9  -5    6.36    1.84
   4   9   5   13.65    3.51
  -4   9  -5    9.65    1.95
  -4   9  -5    8.68    1.52
  -4   9  -5   13.79    1.73
  -5  -9  -5   12.10    2.58
  -5   9  -5   11.83    1.75
  -5   9  -5   17.14    2.28
   5   9   5   14.09    3.72
  -5   9  -5    9.73    1.88
  -6  -9  -5    0.24    1.80
  -6   9  -5    3.80    1.82
   6   9   5   -0.48    2.85
  -6   9  -5    0.35    1.13
  -6   9  -5   -1.39    1.16
  -7  -9  -5   -0.24    1.78
  -7   9  -5   -0.88    1.95
   7   9   5   -1.02    3.18
  -7   9  -5   -2.77    1.08
  -8  -9  -5    5.50    2.53
  -8   9  -5    1.55    1.51
  -8   9  -5    3.57    2.84
   8   9   5    5.55    4.10
  -8   9  -5    3.71    1.47
  -8   9  -5    1.70    1.70
  -8 -10   5    2.23    3.51
  -8  10   5    1.16    1.99
  -7 -10   5    0.42    2.56
  -7  10   5   -1.08    2.92
  -6 -10   5   -1.11    2.60
   6  10  -5    0.33    2.81
  -6  10   5   -1.09    1.55
  -5 -10   5    9.24    2.84
  -5 -10   5   13.03    2.67
   5  10  -5   11.34    3.04
  -5  10   5    9.53    2.22
  -4 -10   5   20.23    2.96
   4 -10  -5   20.81    3.30
  -4 -10   5   19.15    3.61
   4  10  -5   19.52    3.41
  -4  10   5   14.79    2.66
  -3 -10   5   -0.14    1.48
  -3 -10   5    4.19    1.79
   3 -10  -5    0.71    2.01
  -3 -10   5    1.64    1.88
   3  10  -5   -0.16    1.89
   3  10  -5    3.57    1.93
  -3  10   5    1.34    1.64
   2 -10  -5    5.63    1.37
   2 -10  -5    2.58    2.06
  -2 -10   5    6.01    1.70
  -2 -10   5    2.80    2.06
   2  10  -5    6.43    1.89
   2  10  -5    1.54    1.66
  -2  10   5    3.19    1.86
   1 -10  -5   16.38    4.98
   1 -10  -5   14.37    2.16
  -1 -10   5   24.81    3.46
  -1 -10   5   17.22    2.55
  -1  10   5    9.94    2.57
   1  10  -5   13.62    2.29
   1  10  -5   19.37    2.35
   0 -10  -5  124.22   10.98
   0 -10   5  133.90    9.91
   0 -10   5  146.53   10.42
   0  10  -5  105.51    9.12
   0  10  -5   97.09    9.58
   0  10   5  117.94   10.19
  -1 -10  -5    7.45    2.46
  -1 -10  -5    1.44    1.29
   1 -10   5    2.85    1.84
   1 -10   5    5.63    1.96
  -1  10  -5    4.98    1.34
   1  10   5    5.38    2.22
  -2 -10  -5    5.54    1.55
   2 -10   5    7.72    2.02
   2  10   5   16.54    3.19
  -2  10  -5    6.91    1.47
  -3 -10  -5   -0.89    1.15
   3 -10   5    1.51    1.30
  -3  10  -5    2.44    1.19
   3  10   5    0.78    2.52
  -4 -10  -5   39.19    4.91
   4 -10   5   48.95    4.29
  -4  10  -5   40.53    4.29
   4  10   5   55.89    6.10
  -4  10  -5   58.21    4.88
  -5 -10  -5   -0.73    1.30
  -5  10  -5   -1.47    1.42
  -5  10  -5    1.16    1.37
  -5  10  -5   -1.09    1.02
   5  10   5   -3.00    2.51
  -6 -10  -5    0.21    1.75
  -6  10  -5    4.45    2.55
  -6  10  -5    0.22    1.15
  -6  10  -5   -0.23    1.52
   6  10   5   -0.90    2.51
  -7 -10  -5   -0.39    1.70
  -7  10  -5    0.06    2.03
   7  10   5   -3.38    3.18
  -7  10  -5   -0.99    1.26
  -7 -11   5   -2.00    2.78
  -7  11   5    0.04    1.80
  -6 -11   5   -1.94    2.48
   6  11  -5   -1.05    2.72
  -6  11   5    0.86    1.88
  -5 -11   5    0.04    2.41
   5  11  -5   -2.82    2.32
  -5  11   5   -2.29    1.59
  -4 -11   5    5.94    3.93
  -4 -11   5    6.38    2.43
  -4  11   5    5.15    2.02
   4  11  -5    8.85    2.74
  -3 -11   5   -0.62    1.89
  -3  11   5   -0.99    1.75
   3  11  -5    0.97    1.99
   2 -11  -5   -1.32    1.17
  -2 -11   5    1.11    1.67
   2 -11  -5    1.20    2.33
  -2 -11   5   -0.29    2.03
  -2  11   5   -0.42    1.81
   2  11  -5    3.55    1.78
   2  11  -5   -0.40    1.57
   1 -11  -5    7.75    2.72
  -1 -11   5    3.90    2.31
   1 -11  -5    4.04    1.52
  -1 -11   5    3.96    1.73
  -1  11   5    2.29    1.98
   1  11  -5    4.01    1.61
   1  11  -5    8.21    1.97
   0 -11  -5    5.53    2.17
   0 -11   5    1.49    2.06
   0 -11   5    6.39    1.87
   0 -11  -5    1.63    1.36
   0  11   5   -0.74    1.93
   0  11   5    1.59    1.88
   0  11  -5   -0.79    0.95
   0  11  -5    2.69    1.41
   1 -11   5    1.55    1.95
  -1 -11  -5    2.29    1.47
   1 -11   5    6.59    2.10
   1  11   5    5.43    2.33
  -1  11  -5    3.04    1.31
   2 -11   5    5.88    2.11
  -2 -11  -5    2.62    1.53
  -2  11  -5    3.80    1.23
   2  11   5    4.98    2.40
  -3 -11  -5    3.76    1.62
   3 -11   5    4.46    1.84
   3  11   5    9.49    3.10
  -3  11  -5    4.55    1.36
  -4 -11  -5   -1.42    1.50
   4 -11   5    1.00    1.40
   4  11   5    0.85    2.86
  -4  11  -5    0.82    1.13
   5 -11   5    3.25    1.41
  -5 -11  -5    0.02    1.79
   5  11   5    1.56    3.05
  -5  11  -5    4.98    1.37
  -5  11  -5    1.20    1.26
  -6 -11  -5    0.17    1.56
  -6  11  -5   -0.20    1.83
  -6  11  -5    0.61    1.23
   6  11   5   -0.86    2.93
  -6  11  -5    2.05    1.71
  -7 -11  -5    1.59    1.78
   7  11   5   -1.65    3.48
  -7  11  -5    0.47    1.50
  -7  11  -5    1.05    2.11
  -7  11  -5    1.23    1.39
  -6 -12   5    1.96    2.39
   6  12  -5   -1.39    2.96
  -6  12   5    1.16    1.95
  -5 -12   5   -0.78    2.35
  -5  12   5   -2.88    1.74
   5  12  -5   -4.74    2.32
  -4 -12   5   -1.24    2.37
  -4  12   5   -1.21    1.72
   4  12  -5   -4.18    2.14
  -3 -12   5    2.60    2.22
   3  12  -5    0.70    2.11
  -3  12   5    0.21    1.97
  -2 -12   5   10.47    3.51
  -2 -12   5   13.14    2.92
   2 -12  -5   14.32    2.10
  -2  12   5    9.32    2.53
   2  12  -5    9.90    3.48
  -1 -12   5   -1.36    1.91
   1 -12  -5   -0.01    1.31
  -1 -12   5    5.39    1.97
   1  12  -5    0.13    1.41
  -1  12   5   -0.55    2.06
   1  12  -5    3.98    1.73
   0 -12   5    2.34    1.95
   0 -12  -5    0.09    1.38
   0 -12   5    1.04    2.25
   0  12   5   -1.08    2.07
   0  12   5    0.00    1.95
   0  12  -5   -0.28    1.06
   0  12  -5    1.17    1.41
  -1 -12  -5   -2.15    1.17
   1 -12   5   -0.44    2.04
   1 -12   5    4.76    2.23
  -1  12  -5    5.69    2.82
   1  12   5   -1.38    2.00
  -2 -12  -5    2.90    1.53
   2 -12   5    9.35    2.55
   2  12   5    6.91    2.57
  -2  12  -5    8.15    1.69
  -3 -12  -5   -2.25    1.35
   3 -12   5   -1.00    1.75
   3  12   5   -1.12    2.55
  -3  12  -5    3.01    1.20
  -4 -12  -5   -2.57    2.12
   4 -12   5   -1.43    1.51
   4  12   5   -1.47    2.50
  -4  12  -5    0.52    1.15
   5 -12   5   -3.41    1.49
  -5 -12  -5   -0.97    1.64
  -5  12  -5    4.20    1.31
   5  12   5    0.21    3.02
  -6 -12  -5    1.32    1.71
   6  12   5   -4.38    2.50
  -6  12  -5    4.60    1.37
  -6 -13   5    2.09    2.79
  -6  13   5    1.22    2.05
   6  13  -5    3.47    3.31
  -5 -13   5   -1.40    2.17
   5  13  -5   -4.03    2.46
  -5  13   5   -1.24    1.93
  -4 -13   5    3.27    2.63
   4  13  -5   -2.08    2.40
  -3 -13   5   -2.75    2.67
   3  13  -5   -0.03    2.17
  -3  13   5   -2.05    1.83
   2 -13  -5    1.89    1.58
  -2 -13   5    3.11    2.54
  -2  13   5    1.97    2.08
   2  13  -5    1.29    1.88
   1 -13  -5   -0.59    1.37
  -1 -13   5    0.48    2.13
  -1  13   5    0.23    2.10
   1  13  -5   -1.09    1.49
   0 -13  -5   -0.19    1.48
   0 -13   5   -1.26    2.09
   0 -13   5    3.87    1.94
   0  13  -5   -2.35    0.98
   0  13   5    2.57    2.13
  -1 -13  -5   -0.42    1.48
   1 -13   5   -1.55    2.05
   1 -13   5    8.34    2.68
  -1  13  -5    3.44    1.45
   1  13   5    3.92    2.36
   2 -13   5    3.75    2.31
  -2 -13  -5    1.18    1.48
  -2  13  -5    1.25    1.34
   2  13   5    1.84    2.50
   3 -13   5   -1.79    2.10
  -3 -13  -5    0.80    1.71
  -3  13  -5    3.00    2.03
   3  13   5    3.09    2.83
  -4 -13  -5   -0.24    1.82
   4 -13   5   -2.14    1.93
   4  13   5   -0.37    2.48
  -4  13  -5    3.47    1.29
  -5 -13  -5    0.40    1.74
   5  13   5    0.54    3.04
  -5 -14   5    0.64    2.86
  -5  14   5    0.43    2.11
   5  14  -5    0.97    4.65
  -4 -14   5    0.55    2.22
   4  14  -5   -0.86    2.53
  -4  14   5    1.16    2.17
  -3 -14   5   -1.43    1.99
   3  14  -5   -3.82    2.08
  -3  14   5   -2.31    1.80
  -2 -14   5    3.28    2.38
   2  14  -5    3.65    2.14
  -2  14   5    1.68    2.31
  -1 -14   5   -0.50    2.24
   1 -14  -5   -0.29    1.50
   1  14  -5   -0.56    1.56
  -1  14   5    0.20    2.25
  -1  14   5    0.93    1.91
   0 -14  -5    3.24    1.81
   0 -14   5    0.17    2.39
   0  14  -5    3.21    1.28
   0  14   5    3.47    2.22
  -1 -14  -5    1.34    1.65
   1 -14   5   -2.24    2.20
   1 -14   5    8.83    2.70
   1  14   5    0.97    2.25
   2 -14   5    7.11    2.74
  -2 -14  -5    0.36    1.68
  -2  14  -5    2.32    1.61
   2  14   5    5.03    2.73
  -3 -14  -5   -0.32    1.57
   3 -14   5   -0.19    2.51
  -3  14  -5    3.68    1.50
   3  14   5    0.14    2.41
  -4 -14  -5   -0.62    1.67
   4  14   5    2.02    2.73
  -4 -15   5    0.10    2.72
   4  15  -5    0.50    2.43
  -4  15   5   -0.04    2.10
  -3 -15   5   -2.56    2.38
  -3  15   5   -1.46    2.16
   3  15  -5   -2.13    2.11
  -2 -15   5   -0.83    2.20
   2 -15  -5    0.42    1.70
  -2  15   5   -2.04    1.95
   2  15  -5   -1.92    1.85
  -2  15   5    2.30    2.48
  -1 -15   5   -2.26    2.12
   1 -15  -5    0.51    1.67
  -1  15   5    0.77    2.03
   1  15  -5   -0.27    1.53
   0 -15  -5    2.06    1.74
   0 -15   5   -1.53    2.46
   0  15   5    3.39    2.16
   1 -15   5   -1.58    2.37
  -1 -15  -5   -1.21    1.64
   1  15   5    0.32    2.13
  -2 -15  -5    1.75    1.83
   2  15   5    1.30    2.16
  -3 -15  -5    0.77    1.76
   3  15   5    0.23    2.43
  -1 -16   5   -1.03    2.37
   1 -16  -5   -1.62    1.59
  -1  16   5    0.94    2.09
   0 -16   5    2.19    2.72
   0 -16  -5    3.58    2.04
   0  16   5    7.10    2.87
   1 -16   5   -4.57    3.30
  -1 -16  -5    1.17    2.18
   1  16   5   -0.74    2.21
 -10   0   6    0.38    1.80
 -10   0   6    0.72    1.87
  -9   0   6    5.14    1.94
  -9   0   6    3.82    2.16
  -8   0   6    7.26    2.21
  -8   0   6    9.45    2.15
  -7   0   6    3.18    1.63
  -7   0   6    1.00    1.33
  -6   0   6   59.96    5.27
  -6   0   6   57.13    5.62
   6   0  -6   65.63    5.44
   5   0  -6    4.14    1.30
  -5   0   6    6.02    1.22
  -5   0   6    6.28    1.38
  -5   0   6    4.14    1.34
  -4   0   6   78.71    6.29
   4   0  -6   68.83    6.38
  -4   0   6   79.81    6.16
  -4   0   6   79.05    6.27
  -3   0   6    2.22    0.72
   3   0  -6    0.22    0.80
  -3   0   6    1.00    0.70
  -2   0   6  248.81   19.12
  -2   0   6  253.95   19.11
   2   0  -6  259.26   19.23
  -1   0   6    0.61    0.41
   1   0  -6    0.67    0.46
   1   0  -6    0.59    0.41
   0   0  -6  397.10   29.57
   0   0   6  394.96   29.60
   1   0   6   17.95    2.21
  -1   0  -6   25.41    1.91
  -2   0  -6   52.59    4.60
   2   0   6   62.03    4.86
  -3   0  -6   39.65    3.70
  -3   0  -6   38.45    4.08
   3   0   6   45.19    3.76
  -4   0  -6   89.00    7.82
   4   0   6   94.90    7.47
  -5   0  -6    8.54    2.35
   5   0   6    8.79    1.63
  -6   0  -6   -1.18    2.06
   6   0   6    1.01    1.35
  -6   0  -6    0.79    1.20
   7   0   6   54.34    5.03
  -7   0  -6   45.10    5.50
  -7   0  -6   51.47    5.19
  -8   0  -6    3.85    1.80
   8   0   6    7.73    1.84
  -8   0  -6    3.29    1.38
  -9   0  -6   -1.14    1.32
 -10  -1   6   -0.78    2.05
 -10  -1   6   -0.63    2.10
 -10   1   6    0.64    1.88
 -10   1   6    0.64    1.89
  -9  -1   6    4.23    2.21
  -9  -1   6    3.07    1.96
  -9   1   6    4.30    1.94
  -9   1   6    4.06    1.74
  -8  -1   6    7.29    1.94
  -8  -1   6    8.29    2.37
  -8   1   6    6.03    1.83
  -8   1   6    9.13    1.97
  -7  -1   6    3.26    1.62
  -7  -1   6    6.38    2.22
  -7   1   6    3.05    1.46
   7   1  -6    4.78    1.70
  -7   1   6    4.40    1.42
  -6  -1   6    4.62    1.36
   6  -1  -6    5.81    1.22
  -6  -1   6    4.49    2.87
  -6  -1   6    3.39    3.05
  -6   1   6    5.46    1.34
  -6   1   6    5.27    1.34
   6   1  -6    4.19    1.57
  -5  -1   6   20.45    2.32
   5  -1  -6   17.95    2.24
  -5  -1   6   18.26    2.93
  -5  -1   6   17.09    2.43
  -5   1   6   17.96    2.50
   5   1  -6   20.77    2.81
  -5   1   6   22.24    2.29
  -5   1   6   19.12    2.24
  -4  -1   6    1.37    0.81
  -4  -1   6    2.19    1.10
  -4  -1   6    2.04    1.09
   4  -1  -6    0.46    0.87
  -4   1   6    1.63    0.79
  -4   1   6    2.80    0.73
   4   1  -6    1.22    1.15
  -3  -1   6   62.08    4.80
   3  -1  -6   50.01    4.90
  -3  -1   6   65.51    5.05
  -3   1   6   61.76    4.78
   3   1  -6   52.62    5.11
  -3   1   6   62.90    4.70
  -2  -1   6    7.19    1.12
   2  -1  -6    8.44    1.05
  -2  -1   6    5.28    0.86
   2  -1  -6    9.95    1.25
  -2   1   6    8.02    1.10
   2   1  -6    5.57    1.06
  -1  -1   6   43.91    3.61
  -1  -1   6   41.15    3.44
   1  -1  -6   44.66    3.50
   1   1  -6   43.52    3.62
  -1   1   6   45.39    3.52
   0  -1   6  167.12   12.83
   0  -1  -6  174.64   12.91
   0   1   6  171.21   12.95
   1  -1   6   64.65    5.89
  -1  -1  -6   90.08    6.04
  -1   1  -6   86.73    5.77
   1   1   6   62.71    6.16
   2  -1   6   13.10    1.70
  -2  -1  -6   15.58    2.00
   2   1   6   13.80    2.04
  -2   1  -6   12.61    1.31
   3  -1   6   35.44    3.15
  -3  -1  -6   33.75    3.46
  -3   1  -6   32.91    3.58
   3   1   6   38.68    3.52
  -4  -1  -6  241.63   19.38
   4  -1   6  250.11   18.99
  -4   1  -6  243.90   19.32
   4   1   6  261.86   19.20
  -5  -1  -6   10.28    2.41
   5  -1   6    9.48    1.68
   5   1   6    6.60    1.59
  -5   1  -6    8.09    2.37
  -6  -1  -6   -3.90    2.34
   6  -1   6    4.26    1.34
  -6  -1  -6    1.44    1.38
  -6   1  -6    2.19    1.96
   6   1   6    3.23    1.55
   7  -1   6    3.40    1.49
  -7  -1  -6    1.85    1.55
  -7   1  -6    2.45    1.15
  -7   1  -6    3.25    2.25
  -7   1  -6    4.52    1.71
   7   1   6    5.19    1.89
   8  -1   6   59.78    5.41
  -8  -1  -6   50.63    5.82
  -8   1  -6   49.23    5.72
   8   1   6   58.04    5.63
  -8   1  -6   59.22    4.99
  -9  -1  -6    0.61    2.00
  -9  -1  -6   -1.04    1.38
   9   1   6    3.09    2.13
  -9   1  -6    0.33    1.71
  -9   1  -6    0.11    1.40
 -10  -2   6    0.38    1.93
 -10   2   6    3.04    1.95
  -9  -2   6    0.36    2.11
  -9  -2   6    1.45    1.94
  -9   2   6    1.19    1.90
  -9   2   6    2.67    1.64
  -8  -2   6   17.58    2.77
  -8  -2   6   15.48    3.53
  -8   2   6   15.39    2.56
  -8   2   6   22.54    2.76
  -7  -2   6   -0.02    1.39
  -7  -2   6   -0.09    1.91
  -7   2   6    0.64    1.40
   7   2  -6   -1.31    1.60
  -7   2   6    2.31    1.02
  -6  -2   6    0.87    1.75
  -6  -2   6    2.37    1.57
  -6   2   6    1.54    1.19
   6   2  -6    3.98    1.65
  -6   2   6    3.62    1.02
  -5  -2   6    1.34    1.60
  -5  -2   6   -0.74    1.08
   5  -2  -6    0.91    0.67
  -5   2   6   -0.06    0.86
  -5   2   6    1.67    0.68
   5   2  -6    0.64    1.32
  -5   2   6    0.65    1.16
   4  -2  -6  115.09    8.67
  -4  -2   6  125.40    8.90
  -4  -2   6  123.45    9.28
  -4   2   6  106.87    9.28
   4   2  -6   93.22    9.14
  -4   2   6  106.24    8.52
   3  -2  -6    1.77    0.76
   3  -2  -6    2.02    0.73
  -3  -2   6    2.84    1.12
  -3  -2   6    2.93    1.13
   3   2  -6    2.07    1.12
  -3   2   6    2.73    0.83
   2  -2  -6   11.84    1.34
   2  -2  -6    9.94    1.37
  -2  -2   6   13.71    1.84
   2   2  -6   12.95    1.82
  -2   2   6   12.10    1.42
  -1  -2   6   14.90    1.83
   1  -2  -6   16.31    1.60
  -1   2   6   14.19    1.61
   1   2  -6   15.18    1.76
   0  -2   6  191.61   14.62
   0  -2  -6  208.94   14.83
   0   2   6  189.65   14.85
   0   2  -6  191.45   14.80
  -1  -2  -6   19.13    2.10
   1   2   6   15.34    2.23
  -2  -2  -6    7.86    1.63
   2  -2   6   11.47    1.31
   2   2   6   13.26    2.29
   3  -2   6   32.45    2.77
  -3  -2  -6   27.64    3.32
   3   2   6   34.32    3.53
  -3   2  -6   32.43    2.45
  -3   2  -6   28.79    3.26
  -4  -2  -6   26.26    3.45
   4  -2   6   26.06    2.44
  -4  -2  -6   22.44    4.22
   4   2   6   26.31    3.05
  -4   2  -6   24.49    3.59
  -4   2  -6   21.16    2.00
  -5  -2  -6    1.36    2.14
   5  -2   6    5.97    1.46
  -5  -2  -6    3.61    1.33
   5   2   6    3.83    1.65
  -5   2  -6    3.74    2.00
  -5   2  -6    5.19    0.86
  -6  -2  -6   -0.47    2.26
   6  -2   6    1.41    1.26
  -6  -2  -6    0.74    1.26
   6   2   6    4.35    1.68
  -6   2  -6   -2.16    1.89
  -6   2  -6   -1.14    0.80
  -7  -2  -6    9.67    2.31
   7  -2   6   13.63    2.18
  -7   2  -6   11.75    2.25
   7   2   6   17.70    2.89
  -7   2  -6   13.64    2.18
  -7   2  -6    7.59    2.52
  -8  -2  -6    2.77    1.95
  -8   2  -6    0.72    1.25
  -8   2  -6    0.14    1.50
  -9  -2  -6   -0.68    1.76
  -9   2  -6   -0.20    1.36
   9   2   6    2.83    2.28
  -9   2  -6    0.32    1.74
  -9  -3   6    2.39    2.58
  -9  -3   6    0.68    1.83
  -9   3   6    2.61    1.71
  -9   3   6    1.44    1.18
  -8  -3   6    8.66    2.47
  -8  -3   6    6.34    2.91
   8   3  -6   12.88    3.29
  -8   3   6   10.60    2.00
  -8   3   6   13.12    1.96
  -7  -3   6    2.98    2.77
  -7   3   6    7.71    1.20
  -7   3   6    9.03    1.87
  -6  -3   6   18.38    2.78
  -6  -3   6   12.27    3.05
  -6   3   6   19.25    3.09
  -6   3   6   20.07    2.49
  -6   3   6   19.35    1.88
   6   3  -6   16.69    3.01
  -5  -3   6   20.64    2.54
  -5  -3   6   13.51    2.65
  -5   3   6   21.78    2.36
  -5   3   6   22.06    1.78
   5   3  -6   14.79    2.64
  -4  -3   6    1.09    1.07
   4  -3  -6    1.56    0.77
   4  -3  -6    0.78    0.43
  -4  -3   6    2.91    1.46
  -4   3   6    0.90    0.81
   4   3  -6   -0.08    1.25
  -3  -3   6   10.53    2.05
   3  -3  -6    7.65    1.24
  -3  -3   6   11.85    1.89
   3  -3  -6   11.51    1.46
   3   3  -6    8.28    1.76
  -3   3   6   11.04    1.51
   2  -3  -6   12.99    1.58
  -2  -3   6   16.63    2.26
  -2  -3   6   12.14    1.51
   2  -3  -6   13.58    1.34
   2   3  -6   12.46    2.01
  -2   3   6   13.68    1.63
  -1  -3   6   22.24    2.47
   1  -3  -6   23.23    2.21
  -1   3   6   23.59    2.24
   1   3  -6   20.95    2.31
   0  -3  -6   51.18    4.22
   0  -3   6   52.78    4.20
   0   3  -6   48.53    4.10
   0   3   6   45.29    4.24
   1  -3   6    2.24    0.27
  -1  -3  -6    1.82    1.17
   1  -3   6    2.72    0.56
   1  -3   6    1.48    0.48
  -1   3  -6    1.13    0.61
   1   3   6    0.42    1.25
  -2  -3  -6   96.26    9.04
   2  -3   6  126.03    8.56
   2   3   6  111.31    9.41
   3  -3   6    2.87    0.70
  -3  -3  -6    1.83    1.33
  -3   3  -6    1.18    1.29
   3   3   6    1.34    1.46
  -4  -3  -6   24.47    2.80
   4  -3   6   25.30    2.31
  -4  -3  -6   21.97    3.26
  -4  -3  -6   25.54    3.17
  -4   3  -6   22.18    1.97
  -4   3  -6   22.62    3.01
   4   3   6   26.00    3.29
   5  -3   6    0.94    0.94
  -5  -3  -6   -1.40    1.43
  -5  -3  -6   -0.18    1.07
  -5  -3  -6    0.38    2.03
   5   3   6    0.13    1.52
  -5   3  -6    0.53    1.71
  -5   3  -6    0.01    0.60
  -6  -3  -6   45.00    5.38
  -6  -3  -6   44.37    4.83
   6   3   6   50.45    5.05
  -6   3  -6   49.84    4.00
  -6   3  -6   45.98    5.14
  -7  -3  -6    1.07    1.44
  -7   3  -6    0.24    2.12
  -7   3  -6    1.32    0.99
  -7   3  -6    1.52    1.47
   7   3   6    3.89    2.05
  -8  -3  -6    2.23    2.09
   8   3   6    5.00    2.18
  -8   3  -6    3.69    1.35
  -8   3  -6    4.49    1.79
  -9  -3  -6   -0.82    2.01
   9   3   6    2.06    2.15
  -9   3  -6    0.62    1.39
  -9   3  -6    0.11    1.71
  -9  -4   6   -3.58    2.80
  -9  -4   6   -0.95    1.79
  -9   4   6    0.57    1.70
  -8  -4   6   10.21    3.50
  -8   4   6   21.55    2.97
  -7  -4   6   -1.47    2.44
  -7   4   6    2.01    1.47
   7   4  -6   -1.87    2.08
  -6  -4   6  112.72    8.94
  -6  -4   6  101.64    9.89
  -6   4   6  111.22    8.64
  -6   4   6   97.64    8.83
   6   4  -6  109.04    9.51
  -5  -4   6   -2.53    1.57
  -5  -4   6    0.08    1.24
   5   4  -6    0.66    1.57
  -5   4   6    0.42    1.05
  -4  -4   6  125.32    9.66
  -4  -4   6  121.32   10.38
   4  -4  -6  128.79    9.61
  -4   4   6  119.36    9.56
   4   4  -6  115.38   10.19
  -3  -4   6    0.86    1.49
   3  -4  -6    2.01    0.93
  -3   4   6    1.72    0.87
   3   4  -6    2.05    1.20
  -2  -4   6  408.09   29.43
   2  -4  -6  402.46   29.10
  -2  -4   6  391.24   28.96
  -2   4   6  373.35   29.05
   2   4  -6  354.52   29.27
   1  -4  -6    8.54    1.36
  -1  -4   6    7.50    0.97
  -1  -4   6    8.93    1.46
   1   4  -6    6.20    1.16
  -1   4   6    8.21    1.35
   0  -4   6   71.76    5.37
   0  -4   6   62.00    4.80
   0  -4  -6   63.41    5.41
   0   4  -6   62.49    5.18
   0   4   6   58.31    5.37
  -1  -4  -6    3.08    1.44
   1  -4   6    2.55    0.80
  -1   4  -6    2.13    0.71
   1   4   6    1.21    1.44
  -2  -4  -6  109.41    7.89
  -2  -4  -6   78.94    9.47
  -2   4  -6  108.22    7.79
   2   4   6   86.26    8.48
  -3  -4  -6    3.52    1.25
  -3  -4  -6    3.84    1.58
  -3   4  -6    0.27    1.19
   3   4   6   -0.30    1.97
  -4  -4  -6    0.74    1.07
  -4  -4  -6    0.60    1.46
  -4   4  -6    1.14    0.48
   4   4   6    1.55    1.71
  -4   4  -6   -1.60    1.35
  -5  -4  -6    1.96    2.36
  -5  -4  -6    2.11    1.19
  -5  -4  -6    2.09    1.71
  -5   4  -6    2.33    1.86
   5   4   6    0.69    1.91
  -5   4  -6    2.94    0.72
  -6  -4  -6    0.28    1.14
  -6  -4  -6    0.85    2.49
  -6  -4  -6    0.44    1.72
  -6   4  -6    0.44    1.99
  -6   4  -6    0.01    0.79
   6   4   6    2.75    1.93
  -7  -4  -6    2.21    1.86
  -7  -4  -6    1.36    1.55
  -7   4  -6    3.29    1.07
  -7   4  -6    3.56    2.87
   7   4   6    3.90    2.42
  -8  -4  -6    0.59    1.81
   8   4   6    2.11    2.40
  -8   4  -6    1.27    1.53
  -8   4  -6    1.05    1.20
  -9  -4  -6    1.09    2.04
  -9   4  -6   -2.42    1.60
  -9   4  -6    1.01    1.38
   9   4   6    1.43    2.69
  -9  -5   6   -2.19    2.68
  -9   5   6    2.03    1.82
  -8  -5   6    6.98    3.21
  -8   5   6   10.67    2.22
  -7  -5   6   -1.60    2.39
  -7   5   6    0.80    1.45
  -6  -5   6   23.40    3.06
   6   5  -6   14.97    3.16
  -6   5   6   19.74    2.67
  -5  -5   6    2.04    1.30
  -5  -5   6    0.34    1.88
   5  -5  -6    2.97    1.17
  -5   5   6    2.88    1.16
   5   5  -6    0.24    1.85
   4  -5  -6    5.75    1.29
  -4  -5   6    3.42    1.86
  -4  -5   6    6.15    1.43
  -4   5   6    5.36    1.21
   4   5  -6    4.69    1.74
   3  -5  -6   24.56    2.64
  -3  -5   6   25.39    3.83
  -3  -5   6   25.72    2.49
  -3   5   6   24.61    2.85
   3   5  -6   23.61    3.16
  -2  -5   6   34.57    3.66
   2  -5  -6   30.74    3.00
  -2  -5   6   30.19    2.63
   2  -5  -6   28.75    2.43
   2   5  -6   27.60    3.21
  -2   5   6   27.95    2.90
  -1  -5   6   13.05    1.84
   1  -5  -6   10.37    1.23
   1  -5  -6   10.39    1.78
  -1  -5   6    7.86    1.13
  -1   5   6    8.20    1.46
   1   5  -6   10.21    1.59
   0  -5  -6    0.19    0.57
   0  -5   6    0.36    0.36
   0  -5  -6    0.83    1.20
   0  -5   6    1.96    1.14
   0   5   6    1.14    1.29
   0   5  -6    1.27    0.88
  -1  -5  -6   31.22    2.80
   1  -5   6   28.62    2.84
  -1  -5  -6   30.52    3.58
   1   5   6   29.06    3.68
  -2  -5  -6  101.67    8.72
   2  -5   6  106.45    7.84
  -2  -5  -6  109.42    8.28
   2   5   6   95.65    8.98
  -2   5  -6  103.44    8.23
  -3  -5  -6    1.33    1.00
  -3  -5  -6    1.76    1.45
  -3   5  -6    2.07    0.79
   3   5   6    0.25    2.03
  -3   5  -6    0.47    1.12
  -4  -5  -6    2.24    1.19
  -4  -5  -6    4.47    1.73
  -4   5  -6   -0.34    1.48
  -4   5  -6    0.36    0.64
   4   5   6   -0.24    2.01
  -5  -5  -6    0.80    1.07
  -5  -5  -6    1.18    1.64
   5   5   6    2.86    2.25
  -5   5  -6    1.62    1.76
  -5   5  -6   -0.20    0.64
  -6  -5  -6   16.51    3.06
  -6  -5  -6   22.99    3.47
   6   5   6   31.65    4.05
  -6   5  -6   23.74    3.66
  -6   5  -6   21.35    2.20
  -7  -5  -6   -0.12    1.54
  -7   5  -6   -0.54    0.90
  -7   5  -6    1.39    2.10
   7   5   6    3.38    2.47
  -8  -5  -6   -0.31    1.85
  -8   5  -6    0.14    1.57
   8   5   6    1.86    2.79
  -8   5  -6    0.44    1.79
  -9  -5  -6    2.42    2.24
   9   5   6    0.51    2.92
  -9   5  -6   -0.46    1.32
  -9   5  -6   -2.62    1.56
  -9  -6   6    1.53    3.47
  -9   6   6    0.48    1.90
  -8   6   6    8.66    2.46
  -7  -6   6   -2.98    2.32
  -7   6   6    0.85    1.52
  -6  -6   6   53.02    6.26
  -6  -6   6   44.81    4.53
  -6   6   6   38.05    4.12
   6   6  -6   40.26    5.53
   5  -6  -6    1.70    1.21
  -5  -6   6    2.36    2.37
  -5  -6   6    1.35    1.35
  -5   6   6    1.28    1.24
   4  -6  -6   45.78    4.11
  -4  -6   6   48.13    5.47
  -4  -6   6   39.81    4.03
   4   6  -6   49.84    5.03
  -4   6   6   41.19    4.03
  -3  -6   6    4.85    1.86
  -3  -6   6    6.15    1.26
   3  -6  -6    4.11    1.31
  -3   6   6    3.66    1.18
   3   6  -6    4.55    1.66
  -2  -6   6   91.11    7.47
   2  -6  -6   91.89    6.92
  -2  -6   6   84.34    6.49
   2  -6  -6   84.64    6.37
  -2   6   6   73.39    7.00
   2   6  -6   67.37    6.91
  -1  -6   6    8.89    1.19
   1  -6  -6    9.20    1.34
   1  -6  -6   10.83    1.94
  -1  -6   6   11.93    1.95
  -1   6   6    9.11    1.67
   1   6  -6    7.35    1.36
   0  -6   6   31.47    3.21
   0  -6  -6   25.19    3.32
   0  -6  -6   24.74    2.50
   0  -6   6   26.68    2.65
   0   6  -6   26.23    2.78
   0   6   6   23.16    3.17
  -1  -6  -6   45.41    4.78
   1  -6   6   46.13    4.20
  -1  -6  -6   49.48    4.09
   1   6   6   47.80    4.95
  -1   6  -6   44.69    4.04
  -2  -6  -6    5.57    1.86
   2  -6   6    5.90    0.86
  -2   6  -6    4.42    0.96
   2   6   6    9.46    2.66
  -3  -6  -6    2.73    1.21
  -3  -6  -6    3.60    1.75
  -3   6  -6    2.76    1.03
   3   6   6   -2.12    1.98
  -3   6  -6    1.75    0.83
  -4  -6  -6    3.21    1.83
  -4  -6  -6    1.49    1.05
  -4   6  -6    2.97    0.94
  -4   6  -6    1.56    0.90
  -4   6  -6    3.26    1.57
   4   6   6    0.55    2.17
  -5  -6  -6   13.19    2.22
   5   6   6   17.20    3.42
  -5   6  -6   11.74    1.70
  -5   6  -6   17.31    3.80
  -5   6  -6   15.21    2.04
  -6  -6  -6    1.03    1.40
  -6  -6  -6    0.98    1.77
  -6   6  -6    3.12    2.06
   6   6   6   -0.04    2.13
  -6   6  -6   -0.73    0.81
  -7   6  -6   -0.18    0.95
  -7   6  -6    0.26    2.19
   7   6   6    1.66    3.00
  -8  -6  -6   -0.08    2.10
  -8   6  -6    0.20    2.67
  -8   6  -6   -2.29    1.51
  -8   6  -6   -0.42    1.51
   8   6   6   -3.01    2.66
  -9  -7   6    0.49    3.08
  -9   7   6    0.92    1.85
  -8  -7   6   -0.68    2.78
  -8   7   6    1.00    1.84
  -7  -7   6    5.98    3.14
  -7   7   6    4.89    1.86
   6  -7  -6    2.06    1.69
  -6  -7   6   -0.03    2.08
  -6   7   6   -0.10    1.31
  -5  -7   6    4.34    2.31
  -5  -7   6    8.79    1.97
   5  -7  -6    7.95    1.81
  -5   7   6    7.72    1.66
   5   7  -6   11.41    2.81
   4  -7  -6    2.80    1.42
  -4  -7   6    0.62    2.10
  -4  -7   6    2.62    1.35
  -4   7   6    0.43    1.15
   4   7  -6    2.37    1.95
  -3  -7   6   43.90    5.21
   3  -7  -6   42.41    4.24
  -3  -7   6   46.77    3.95
   3   7  -6   48.35    4.68
  -3   7   6   35.77    4.04
   2  -7  -6    0.54    1.39
  -2  -7   6    0.71    0.90
  -2  -7   6   -0.98    1.66
   2  -7  -6   -0.02    0.64
   2   7  -6    1.73    1.22
  -2   7   6    0.51    1.20
  -1  -7   6    0.13    0.71
  -1  -7   6    1.55    1.50
   1  -7  -6   -0.50    0.66
   1  -7  -6    1.56    1.71
  -1   7   6   -0.73    1.26
   1   7  -6    1.43    1.03
   0  -7  -6   -0.89    1.37
   0  -7   6    0.31    1.56
   0  -7   6    1.03    1.01
   0  -7  -6    0.08    0.72
   0   7   6   -0.46    1.52
   0   7  -6    1.18    0.89
  -1  -7  -6   23.79    2.74
  -1  -7  -6   27.57    3.65
   1  -7   6   29.69    3.26
   1  -7   6   28.15    3.08
  -1   7  -6   24.10    2.78
   1   7   6   27.58    3.94
  -2  -7  -6    1.20    1.64
   2  -7   6    0.26    0.77
  -2  -7  -6   -1.09    0.85
   2   7   6    1.59    2.09
  -2   7  -6    0.61    0.85
   3  -7   6   11.89    1.32
  -3  -7  -6    8.71    1.67
  -3  -7  -6   11.95    2.49
   3   7   6   13.06    3.18
  -3   7  -6   12.91    1.85
  -4  -7  -6    3.40    1.34
  -4  -7  -6    5.40    2.25
  -4   7  -6    4.04    1.09
  -4   7  -6    3.97    1.19
   4   7   6    1.59    2.40
  -4   7  -6    7.46    1.57
  -5  -7  -6    1.82    1.63
  -5  -7  -6    2.85    1.94
  -5   7  -6    0.68    1.70
   5   7   6    1.77    2.33
  -5   7  -6    1.28    1.00
  -5   7  -6    0.36    0.95
  -6  -7  -6   -0.50    1.56
  -6   7  -6    1.20    1.05
  -6   7  -6    1.62    1.93
   6   7   6    0.07    2.37
  -6   7  -6   -0.60    0.92
  -7  -7  -6   -1.02    1.64
  -7   7  -6    2.37    2.28
  -7   7  -6   -0.16    1.25
   7   7   6    2.88    2.62
  -7   7  -6    0.96    1.09
  -8  -7  -6    3.09    2.27
  -8   7  -6   -0.02    2.63
  -8   7  -6    0.90    1.32
  -8   7  -6   -3.27    1.80
   8   7   6    3.21    3.11
  -8   7  -6    1.47    1.74
  -8  -8   6    0.14    2.99
  -8   8   6    2.36    1.90
  -7  -8   6    0.83    3.27
  -7   8   6   -1.90    1.62
  -6  -8   6    2.07    2.70
  -6   8   6    0.53    1.40
  -5  -8   6    2.45    1.97
   5  -8  -6    1.55    1.61
  -5  -8   6    1.04    2.35
  -5   8   6    0.45    1.35
  -4  -8   6   -0.31    2.17
  -4  -8   6    2.02    1.39
   4   8  -6    0.69    1.73
  -4   8   6    0.48    1.35
  -3  -8   6    0.05    1.80
  -3  -8   6    1.22    1.21
   3  -8  -6    3.62    1.74
   3   8  -6    2.18    1.65
   3   8  -6    0.80    1.44
  -3   8   6    2.26    1.47
   2  -8  -6    4.55    1.01
  -2  -8   6    4.41    1.21
   2  -8  -6    2.81    1.69
  -2  -8   6    4.69    2.16
   2   8  -6    4.70    1.41
  -2   8   6    2.78    1.65
   2   8  -6    3.76    1.57
  -1  -8   6    1.11    1.15
   1  -8  -6   -0.23    0.81
  -1  -8   6    0.19    1.65
   1  -8  -6   -0.72    1.47
   1   8  -6    0.86    1.13
  -1   8   6   -0.50    1.47
   0  -8   6    2.63    2.18
   0  -8  -6    1.71    1.03
   0  -8   6    1.50    1.49
   0  -8  -6    0.42    1.71
   0   8  -6    2.85    1.23
   0   8   6    2.19    1.73
   1  -8   6    9.50    1.89
  -1  -8  -6   10.76    2.55
   1  -8   6    9.78    2.03
  -1  -8  -6    8.08    2.74
  -1   8  -6    8.34    1.60
   1   8   6   17.98    2.91
   1   8   6    9.38    2.57
  -2  -8  -6    6.84    2.12
  -2  -8  -6    3.75    1.38
   2  -8   6    3.38    1.27
  -2   8  -6    4.94    1.23
   2   8   6    5.01    2.39
  -3  -8  -6    3.96    2.76
   3  -8   6    0.70    0.73
  -3  -8  -6   -0.46    1.23
   3   8   6   -1.07    2.26
  -3   8  -6   -0.01    0.89
  -4  -8  -6   -0.32    1.19
  -4  -8  -6    5.73    2.07
  -4   8  -6    3.38    1.26
  -4   8  -6    1.02    1.30
  -4   8  -6    2.08    0.99
   4   8   6    1.60    2.59
  -5  -8  -6    4.38    1.75
  -5   8  -6    3.53    1.22
  -5   8  -6    9.93    2.03
  -5   8  -6    3.05    1.28
   5   8   6    5.54    2.57
  -6  -8  -6   -1.01    2.30
  -6   8  -6   -0.67    1.06
   6   8   6   -1.31    2.69
  -6   8  -6   -0.25    1.10
  -6   8  -6   -0.61    1.81
  -7  -8  -6   -0.41    1.89
  -7   8  -6   -0.58    1.25
  -7   8  -6   -0.10    2.23
  -7   8  -6    0.34    1.16
   7   8   6   -1.03    2.77
  -8  -8  -6    1.50    2.13
  -8   8  -6   -3.87    2.37
  -8   8  -6    0.25    1.23
   8   8   6    2.93    3.62
  -8   8  -6   -6.07    2.38
  -8  -9   6   -3.64    3.04
  -8   9   6    2.47    1.98
  -7  -9   6    3.21    3.15
  -7   9   6    6.09    2.62
  -6  -9   6   -0.81    3.09
  -6   9   6    1.97    1.64
  -5  -9   6    5.57    1.92
  -5  -9   6   -0.46    2.70
  -5   9   6    1.34    1.51
  -4  -9   6    2.51    1.54
   4  -9  -6    1.70    1.76
  -4  -9   6    3.65    2.20
  -4   9   6    0.70    1.43
   4   9  -6    0.51    1.83
  -3  -9   6   11.09    1.89
   3  -9  -6    8.78    2.75
  -3  -9   6    9.01    2.76
  -3   9   6    6.35    1.85
   3   9  -6   10.41    2.46
  -2  -9   6    2.48    1.27
   2  -9  -6    3.05    2.00
  -2  -9   6    3.28    1.51
   2  -9  -6    4.44    1.17
  -2  -9   6    2.70    1.95
   2   9  -6    3.32    1.50
   2   9  -6    5.30    1.70
  -2   9   6    3.59    1.68
   1  -9  -6   15.81    2.09
  -1  -9   6   15.77    2.84
  -1  -9   6   15.48    2.31
   1  -9  -6   22.00    3.44
   1   9  -6   18.47    2.80
  -1   9   6   14.37    2.57
   0  -9   6   11.88    2.51
   0  -9  -6   11.43    2.52
   0  -9   6   12.43    2.08
   0  -9  -6    8.83    1.63
   0   9   6    5.78    2.11
   0   9  -6    7.56    1.58
  -1  -9  -6    5.26    1.47
   1  -9   6    8.56    1.97
  -1  -9  -6   12.71    2.58
   1  -9   6   11.55    2.42
   1   9   6   11.25    2.64
   1   9   6    8.58    2.71
  -1   9  -6    6.69    1.58
   2  -9   6    1.76    1.47
  -2  -9  -6    1.76    1.34
  -2  -9  -6    3.91    2.18
  -2   9  -6    4.21    1.18
   2   9   6    4.07    2.19
  -3  -9  -6    2.43    1.36
  -3  -9  -6    6.49    2.22
   3  -9   6    1.18    0.98
  -3   9  -6    1.79    1.10
   3   9   6    0.72    2.40
   4  -9   6   19.37    1.98
   4   9   6   11.85    3.38
  -4   9  -6   16.58    2.41
  -5  -9  -6    3.14    1.63
   5   9   6   -0.41    2.51
  -5   9  -6    0.88    1.11
  -5   9  -6    6.41    1.73
  -5   9  -6    0.98    1.35
  -6  -9  -6    5.60    2.03
  -6   9  -6   10.03    1.67
   6   9   6    6.12    3.24
  -6   9  -6    7.42    1.64
  -6   9  -6   18.99    3.97
  -7  -9  -6    0.97    1.99
  -7   9  -6   -3.76    2.07
  -7   9  -6   -0.90    1.20
   7   9   6   -3.50    2.74
  -7   9  -6   -2.42    1.11
  -7 -10   6    1.28    3.00
  -7  10   6   -0.17    1.77
  -6 -10   6   14.99    3.81
  -6  10   6    9.59    2.45
  -5 -10   6    6.36    3.09
  -5 -10   6    4.09    2.10
   5  10  -6    4.87    2.61
  -5  10   6    3.55    1.84
  -4 -10   6    1.71    1.69
  -4 -10   6    0.67    2.13
  -4  10   6    1.13    1.68
   4  10  -6   -0.58    2.06
   3 -10  -6   -2.37    1.95
  -3 -10   6    1.71    2.40
  -3 -10   6    5.12    1.77
  -3 -10   6    1.19    1.49
   3  10  -6    8.17    3.44
   3  10  -6   -1.61    1.76
  -3  10   6    0.95    1.75
   2 -10  -6   53.18    5.64
   2 -10  -6   56.58    4.47
  -2 -10   6   40.47    4.71
  -2 -10   6   58.80    5.93
   2  10  -6   48.92    5.15
  -2  10   6   35.92    4.88
   2  10  -6   48.12    4.58
   1 -10  -6    5.95    2.51
   1 -10  -6    3.68    1.30
  -1 -10   6    5.06    1.64
  -1 -10   6    4.25    2.07
   1  10  -6    6.75    2.55
   1  10  -6    4.50    1.34
  -1  10   6    2.22    1.91
   0 -10   6   -2.25    1.82
   0 -10   6    3.31    1.56
   0 -10  -6    0.15    2.10
   0 -10  -6   -0.36    1.16
   0  10   6   -1.81    1.81
   0  10  -6    2.41    1.23
   1 -10   6    6.37    2.04
  -1 -10  -6    1.73    1.40
   1 -10   6    2.44    1.92
   1  10   6    8.61    2.42
   1  10   6    3.84    2.47
  -1  10  -6    3.00    1.31
  -2 -10  -6   40.89    4.60
   2 -10   6   47.52    4.75
  -2  10  -6   43.96    4.37
   2  10   6   58.39    5.67
  -3 -10  -6   -0.05    1.24
   3  10   6    1.35    2.36
  -3  10  -6    1.09    1.08
   4 -10   6   -0.02    1.05
  -4 -10  -6   -0.74    1.41
   4  10   6   -0.04    2.72
  -4  10  -6    1.68    1.19
   5  10   6   -1.64    3.23
  -5  10  -6    0.20    1.14
  -5  10  -6    0.13    1.14
  -6 -10  -6   -1.04    1.62
  -6  10  -6    0.96    1.81
  -6  10  -6   -0.26    1.19
   6  10   6   -0.75    2.91
  -6  10  -6    0.18    1.46
  -7 -10  -6    0.61    1.99
  -7  10  -6   -3.64    2.07
  -7  10  -6   -1.70    1.31
   7  10   6   -1.50    3.25
  -7  10  -6   -2.71    1.19
  -7 -11   6   -2.02    3.00
  -7  11   6   -0.94    1.95
  -6 -11   6    5.32    3.05
  -6  11   6    1.03    2.11
  -5 -11   6   -2.26    2.45
  -5  11   6    0.80    1.85
   5  11  -6   -3.20    2.33
  -4 -11   6   -0.74    2.16
  -4 -11   6   -2.85    1.69
  -4  11   6   -1.73    1.57
   4  11  -6   -4.20    1.96
  -3 -11   6   -1.11    2.28
  -3  11   6    0.61    1.83
   3  11  -6   -4.12    1.75
   2 -11  -6    2.99    1.33
  -2 -11   6    4.55    1.84
  -2 -11   6    4.68    2.48
  -2  11   6   -0.89    1.78
   2  11  -6    1.27    1.65
   1 -11  -6   11.93    1.99
   1 -11  -6   24.31    5.11
  -1 -11   6   13.97    2.37
  -1 -11   6   10.46    2.72
   1  11  -6   11.27    2.35
  -1  11   6   10.48    2.48
   1  11  -6   12.73    1.90
   0 -11   6    6.66    1.97
   0 -11  -6    0.53    1.18
   0 -11   6    1.49    2.01
   0  11  -6    1.89    1.43
   0  11   6    1.82    2.15
  -1 -11  -6    0.31    1.24
   1 -11   6    3.69    1.95
   1 -11   6    0.86    1.94
   1  11   6    4.23    2.40
  -1  11  -6    2.42    1.44
  -2 -11  -6   37.77    4.57
   2 -11   6   48.29    4.90
  -2  11  -6   40.77    4.27
   2  11   6   54.89    5.54
  -3 -11  -6    5.41    1.71
   3 -11   6    9.12    1.94
  -3  11  -6    7.43    1.62
   3  11   6   12.12    3.19
  -4 -11  -6    1.56    1.76
   4 -11   6    1.10    1.30
   4  11   6    2.44    2.52
  -4  11  -6    0.86    1.16
  -5 -11  -6    1.19    1.49
  -5  11  -6   -1.83    1.12
   5  11   6    0.66    3.07
  -6 -11  -6   22.56    3.68
   6  11   6   21.32    4.36
  -6  11  -6   25.35    3.09
  -6 -12   6   12.90    3.47
  -6  12   6   10.32    2.59
  -5 -12   6    0.18    2.55
   5  12  -6   -3.42    2.59
  -5  12   6    0.97    2.49
  -4 -12   6    1.07    2.54
   4  12  -6   -1.54    2.20
  -4  12   6   -0.11    1.94
  -3 -12   6   -1.94    2.19
   3  12  -6   -2.26    1.97
  -3  12   6   -3.51    1.77
   2 -12  -6   45.38    4.07
  -2 -12   6   47.09    5.59
  -2 -12   6   37.27    4.82
   2  12  -6   36.08    4.15
  -2  12   6   28.13    4.43
   1 -12  -6    2.88    1.49
  -1 -12   6    5.14    1.96
  -1 -12   6    2.27    2.36
  -1  12   6    1.55    2.22
   0 -12   6    5.40    1.98
   0 -12   6    0.63    2.27
   0 -12  -6    1.80    1.47
   0  12  -6    5.01    1.67
   0  12   6    1.30    2.27
   0  12   6    2.22    2.08
  -1 -12  -6   -0.16    1.36
   1 -12   6    2.65    1.88
   1 -12   6   -0.81    2.01
   1  12   6   -0.51    2.28
  -1  12  -6    2.11    1.26
   2 -12   6   26.68    3.65
   2  12   6   25.53    3.98
  -2  12  -6   23.59    3.62
   3 -12   6    2.47    1.82
  -3 -12  -6   -0.49    1.43
  -3  12  -6    4.09    1.50
   3  12   6    1.23    2.46
   4 -12   6   -1.50    1.41
  -4 -12  -6   -2.31    1.44
   4  12   6   -2.74    2.74
  -4  12  -6    1.64    1.25
  -5 -12  -6   -0.17    1.76
   5  12   6   -0.29    3.02
  -5  12  -6    3.69    1.41
  -6 -12  -6    1.20    1.87
  -6  12  -6    3.67    1.49
   6  12   6   -1.71    3.09
  -6 -13   6   -2.09    2.38
  -6  13   6   -0.25    2.02
  -5 -13   6   -2.44    2.04
  -5  13   6   -3.19    1.85
  -4 -13   6    0.31    2.62
   4  13  -6    0.33    2.42
  -4  13   6   -0.72    2.04
  -3 -13   6   -1.76    2.23
   3  13  -6   -2.93    1.99
  -2 -13   6    8.93    2.85
   2 -13  -6   10.85    1.98
  -2  13   6    5.86    2.42
   2  13  -6    9.94    3.72
  -1 -13   6    1.52    2.92
  -1 -13   6    0.49    2.39
   1 -13  -6    0.10    1.41
  -1  13   6    1.14    2.20
   0 -13  -6   -0.67    1.43
   0 -13   6    1.91    1.90
   0 -13   6   -2.17    2.15
   0  13   6   -0.37    1.93
  -1 -13  -6   -0.59    1.35
   1 -13   6    4.80    2.76
   1 -13   6   -0.76    2.22
   1  13   6    1.08    2.29
   2 -13   6   18.64    3.29
  -2 -13  -6    9.58    2.24
   2  13   6   21.40    3.87
  -2  13  -6   13.82    2.18
  -3 -13  -6    1.37    2.23
   3 -13   6   -1.86    1.99
  -3  13  -6    1.58    1.27
   3  13   6    1.91    3.28
  -4 -13  -6    1.41    1.55
   4 -13   6   -0.71    1.75
   4  13   6   -1.67    2.56
  -4  13  -6    5.36    1.53
  -5 -13  -6    0.55    1.61
   5 -13   6   -3.40    1.70
  -5  13  -6    2.86    1.88
   5  13   6    1.55    2.78
  -5 -14   6    1.93    2.83
  -5  14   6   -0.75    2.14
  -4 -14   6    0.20    2.50
  -4  14   6    1.61    2.22
  -3 -14   6   -1.87    2.09
  -3  14   6   -3.39    1.84
   3  14  -6   -3.03    2.11
   2 -14  -6   -1.92    1.91
  -2 -14   6   -0.04    2.20
  -2  14   6    0.66    2.18
  -1 -14   6    4.28    2.95
   1 -14  -6    5.33    1.89
  -1  14   6    4.68    2.50
  -1  14   6    4.22    2.27
   0 -14  -6    5.74    1.95
   0 -14   6    5.71    2.74
   0  14   6   12.96    2.94
   1 -14   6    9.48    2.74
   1 -14   6    0.20    2.36
  -1 -14  -6    1.87    1.71
   1  14   6    6.40    2.59
  -2 -14  -6    0.16    1.59
   2 -14   6    6.17    2.61
   2  14   6    0.05    3.05
   3 -14   6   -2.64    2.56
  -3 -14  -6   -0.98    1.69
   3  14   6    1.23    2.72
   4 -14   6   -4.16    2.14
  -4 -14  -6   -0.14    1.80
   4  14   6    1.96    2.89
  -3 -15   6   -0.32    2.37
  -3  15   6   -0.86    2.23
  -2 -15   6   -1.78    2.20
   2 -15  -6   -3.47    1.43
  -2  15   6   -2.43    2.18
  -1 -15   6    0.56    2.51
   1 -15  -6    0.73    1.67
  -1  15   6    3.84    2.21
   0 -15  -6    0.82    1.67
   0 -15   6    4.43    4.03
   0  15   6    5.43    2.47
  -1 -15  -6    0.00    1.61
   1 -15   6   -5.44    2.30
  -2 -15  -6   -0.01    1.75
   2  15   6    0.06    2.30
  -3 -15  -6    1.55    1.85
   3  15   6    3.36    2.52
   1 -16  -6    1.13    1.64
  -1 -16   6    0.38    2.70
  -1  16   6    2.13    3.63
   0 -16  -6    0.23    1.82
   0 -16   6   -2.09    2.55
   0  16   6    4.48    2.39
 -10   0   7   -0.34    1.83
  -9   0   7    1.07    1.88
  -9   0   7   -1.17    1.64
  -8   0   7    1.94    1.73
  -8   0   7    2.97    1.71
   7   0  -7    0.87    1.32
  -7   0   7   -0.15    1.32
  -7   0   7    0.31    1.39
  -6   0   7    0.18    1.48
   6   0  -7   -0.79    1.18
  -6   0   7    2.00    1.26
  -6   0   7    0.38    1.13
  -5   0   7    0.39    1.12
   5   0  -7    0.73    1.16
  -5   0   7    2.04    1.01
  -5   0   7    0.43    0.91
   4   0  -7    0.18    1.04
  -4   0   7    2.14    0.86
  -4   0   7    1.17    0.97
   3   0  -7    0.85    0.90
   1   0  -7    0.88    0.44
  -1   0   7    0.45    0.47
   1   0  -7    0.73    0.56
   0   0  -7    0.87    0.42
   0   0   7    0.97    0.49
   1   0   7   -0.54    0.78
  -1   0  -7    0.67    0.40
   2   0   7    2.13    1.27
  -2   0  -7    0.00    0.67
  -3   0  -7    0.76    1.02
   3   0   7    5.04    1.18
   4   0   7    1.80    1.17
  -4   0  -7   -1.07    1.11
  -4   0  -7    0.63    1.80
  -5   0  -7    1.05    2.04
   5   0   7   -0.08    1.06
   6   0   7    3.11    1.44
  -6   0  -7    1.41    2.46
   7   0   7    3.86    1.61
  -7   0  -7    2.36    1.47
  -8   0  -7    0.97    1.64
   8   0   7    2.88    1.75
  -8   0  -7    0.85    1.32
  -9   0  -7    0.48    1.90
   9   0   7    2.70    2.04
  -9   0  -7   -0.52    1.33
  -9  -1   7    2.38    2.04
  -9  -1   7    0.28    1.81
  -9   1   7    1.22    1.58
  -9   1   7   -0.53    1.65
  -8  -1   7    2.90    1.90
  -8  -1   7    1.14    1.72
  -8   1   7    2.28    1.64
  -8   1   7    1.95    1.51
  -7  -1   7    1.88    1.47
  -7  -1   7    3.40    1.90
   7   1  -7    4.12    1.76
  -7   1   7    3.03    1.46
  -7   1   7    4.05    1.37
  -6  -1   7    0.57    1.29
  -6  -1   7    0.16    1.55
   6  -1  -7    1.86    1.19
  -6  -1   7    2.18    2.61
   6   1  -7    0.93    1.45
  -6   1   7    2.58    1.06
  -6   1   7    0.89    1.48
  -6   1   7    1.20    1.19
  -5  -1   7    8.89    1.75
  -5  -1   7    6.19    1.61
  -5  -1   7    6.03    1.41
   5  -1  -7    7.61    1.41
  -5   1   7    6.75    1.58
  -5   1   7    6.68    1.39
   5   1  -7    7.55    1.77
  -5   1   7    7.39    1.19
  -4  -1   7    2.66    1.18
   4  -1  -7    1.40    0.99
  -4  -1   7    2.06    0.93
  -4  -1   7    2.70    1.06
   4   1  -7   -0.24    1.10
  -4   1   7    1.26    0.88
   3  -1  -7   15.44    2.02
  -3  -1   7   14.47    1.70
  -3  -1   7   18.16    2.09
  -3   1   7   15.26    1.73
   3   1  -7   13.40    2.24
  -3   1   7   16.59    1.65
   2  -1  -7    9.36    1.26
  -2  -1   7   12.36    1.60
   2  -1  -7   12.79    1.46
  -2  -1   7    9.67    1.25
   2   1  -7   10.50    1.64
  -2   1   7    9.89    1.33
  -1  -1   7   13.07    1.35
   1  -1  -7   14.44    1.42
   1   1  -7   14.64    1.65
  -1   1   7   12.66    1.46
   0  -1   7    1.59    0.47
   0  -1  -7    2.38    0.58
   0   1  -7    2.00    0.41
   0   1   7    2.95    0.74
  -1  -1  -7    0.73    0.61
   1  -1   7    1.01    0.63
   1   1   7    0.52    1.02
  -1   1  -7    1.32    0.31
  -2  -1  -7   34.50    3.43
   2   1   7   43.59    4.04
  -3  -1  -7    0.39    1.14
   3  -1   7    1.25    0.89
  -3   1  -7    0.20    0.83
   3   1   7   -0.38    1.25
  -4  -1  -7    3.59    2.02
  -4  -1  -7    4.20    1.43
   4  -1   7    4.24    1.13
  -4   1  -7    3.51    1.87
   5  -1   7    0.22    1.13
  -5  -1  -7    2.78    1.92
  -5   1  -7   -2.35    1.94
   5   1   7    1.43    1.34
  -6  -1  -7    8.33    1.85
   6  -1   7    8.43    1.71
  -6  -1  -7    9.74    3.22
  -6   1  -7    8.56    2.80
   6   1   7    8.41    2.03
   7  -1   7    2.84    1.59
  -7  -1  -7    3.08    1.61
  -7   1  -7    3.34    1.94
  -7   1  -7    0.34    2.23
   7   1   7    8.20    2.04
  -7   1  -7    2.42    1.59
  -8  -1  -7    2.38    1.77
   8  -1   7    4.67    1.84
  -8   1  -7    2.19    1.34
   8   1   7    6.77    2.33
  -8   1  -7    2.16    1.76
  -9  -1  -7   -0.02    1.45
  -9  -1  -7    0.49    1.88
   9   1   7    4.86    2.36
  -9   1  -7    0.87    1.43
  -9   1  -7    3.18    2.19
  -9  -2   7    0.79    2.18
  -9  -2   7    0.00    1.90
  -9   2   7   -0.20    1.72
  -8  -2   7   11.60    2.67
  -8  -2   7    9.30    2.84
   8   2  -7   12.02    2.82
  -8   2   7   11.77    2.21
  -8   2   7   18.95    2.42
  -7  -2   7    2.31    1.61
  -7  -2   7    2.30    2.19
  -7   2   7    3.00    1.58
  -7   2   7    2.76    1.06
   7   2  -7    1.09    1.78
  -6  -2   7   35.54    3.60
  -6  -2   7   31.52    3.72
  -6  -2   7   34.55    4.49
   6   2  -7   37.39    4.25
  -6   2   7   34.07    3.13
  -6   2   7   33.20    3.47
  -6   2   7   33.68    3.76
  -5  -2   7    5.14    1.98
   5  -2  -7    3.64    0.96
  -5  -2   7    5.06    1.51
   5   2  -7    4.36    1.73
  -5   2   7    3.93    0.82
  -5   2   7    3.33    1.13
  -4  -2   7   20.17    2.40
  -4  -2   7   24.49    3.02
  -4   2   7   21.60    1.97
  -4   2   7   20.88    2.28
  -3  -2   7   62.69    4.71
   3  -2  -7   57.06    4.55
  -3  -2   7   57.79    4.91
   3  -2  -7   49.57    4.59
   3   2  -7   45.96    5.18
  -3   2   7   57.75    4.56
   2  -2  -7   16.04    1.76
  -2  -2   7   20.86    2.19
   2  -2  -7   17.35    1.76
  -2   2   7   17.00    1.81
   2   2  -7   16.07    2.17
   1  -2  -7   47.25    3.74
  -1  -2   7   44.39    3.60
  -1  -2   7   47.90    3.93
   1   2  -7   45.10    3.87
  -1   2   7   43.35    3.76
   0  -2  -7    7.88    1.08
   0  -2   7    4.71    0.71
   0   2  -7    4.28    0.82
   0   2   7    4.99    1.02
   1  -2   7   24.88    1.94
  -1  -2  -7   26.17    2.48
   1   2   7   16.87    2.74
  -2  -2  -7    1.79    1.19
   2  -2   7    1.02    0.73
   2   2   7    1.09    1.82
  -3  -2  -7   45.74    4.97
   3  -2   7   62.04    4.57
  -3   2  -7   60.83    4.21
   3   2   7   60.88    5.29
  -3   2  -7   47.94    4.32
   4  -2   7    1.78    0.92
  -4   2  -7    1.48    0.47
   4   2   7    2.32    1.62
  -4   2  -7    3.61    3.08
  -5  -2  -7   20.01    3.48
  -5  -2  -7   17.46    2.67
  -5  -2  -7   16.80    2.57
  -5   2  -7   16.89    1.68
  -5   2  -7   17.89    3.20
   5   2   7   13.35    2.44
  -6  -2  -7    4.96    2.49
   6  -2   7    4.85    1.34
  -6  -2  -7    3.86    1.48
   6   2   7    8.23    2.21
  -6   2  -7    2.69    0.97
  -6   2  -7    4.01    2.46
   7  -2   7    9.04    1.80
  -7  -2  -7    4.94    1.73
   7   2   7   11.10    2.43
  -7   2  -7    9.07    1.38
  -7   2  -7    1.24    2.40
  -7   2  -7    4.30    1.71
  -8  -2  -7    0.32    1.70
  -8   2  -7    1.18    1.58
   8   2   7    3.50    2.40
  -8   2  -7    0.84    1.20
  -9  -2  -7    2.74    2.34
   9   2   7    4.72    2.58
  -9   2  -7    3.40    1.58
  -9   2  -7    2.23    2.42
  -9  -3   7    0.55    1.86
  -9  -3   7    3.99    2.64
  -9   3   7    2.19    1.97
  -9   3   7    1.77    1.11
  -8  -3   7    2.10    2.64
  -8  -3   7    1.54    2.40
  -8   3   7    2.25    1.65
  -8   3   7    1.20    0.91
   8   3  -7   -5.17    2.73
  -7  -3   7    8.39    2.87
  -7   3   7   10.33    1.97
  -7   3   7   12.28    1.57
   7   3  -7   10.44    3.86
  -6  -3   7    4.54    2.31
  -6  -3   7    4.88    1.82
  -6   3   7    3.65    1.73
  -6   3   7    3.62    1.41
   6   3  -7    3.60    2.00
  -5  -3   7    2.89    1.70
  -5  -3   7    6.04    1.62
  -5   3   7    5.08    1.28
   5   3  -7    1.05    1.58
  -4  -3   7    2.33    1.52
   4  -3  -7    1.09    0.61
   4  -3  -7    1.38    0.87
  -4  -3   7    0.55    0.95
  -4   3   7    0.82    0.82
   4   3  -7    1.88    1.37
  -3  -3   7   32.53    2.91
   3  -3  -7   33.12    2.88
  -3  -3   7   33.84    3.50
   3  -3  -7   27.50    2.76
  -3   3   7   32.24    2.90
   3   3  -7   28.02    3.33
   2  -3  -7   28.54    2.48
  -2  -3   7   36.24    3.20
  -2  -3   7   26.93    2.58
  -2   3   7   27.16    2.66
   1  -3  -7    4.80    1.03
  -1  -3   7    4.77    1.12
  -1   3   7    4.26    1.06
   1   3  -7    4.89    1.09
   0  -3  -7   15.99    1.98
   0   3   7   15.88    2.12
   0   3  -7   18.13    1.92
   1  -3   7    0.59    0.68
   1  -3   7    0.40    0.22
  -1  -3  -7    0.59    1.07
  -1   3  -7    0.85    0.64
   1   3   7   -0.06    1.30
   2  -3   7   26.42    2.11
  -2  -3  -7   22.91    3.00
   2   3   7   17.26    3.11
  -3  -3  -7    2.19    2.79
   3  -3   7    0.61    0.64
   3   3   7   -0.55    2.27
   4  -3   7    8.09    1.25
  -4  -3  -7    9.02    1.52
  -4  -3  -7    7.00    1.88
  -4   3  -7   11.52    2.21
   4   3   7    8.33    2.15
  -4   3  -7    7.35    0.86
  -5  -3  -7    0.01    1.58
  -5  -3  -7    1.85    1.26
   5  -3   7    0.93    0.97
  -5  -3  -7   -0.11    2.09
   5   3   7   -0.29    1.53
  -5   3  -7   -0.08    0.54
  -5   3  -7   -2.44    1.88
  -6  -3  -7    6.66    1.76
  -6  -3  -7   10.52    3.11
  -6  -3  -7    7.72    2.09
  -6   3  -7    7.36    1.13
  -6   3  -7    5.03    2.49
   6   3   7    9.64    2.36
  -7  -3  -7    1.34    2.06
  -7  -3  -7    1.00    1.49
  -7   3  -7    2.44    1.00
   7   3   7    3.52    2.31
  -7   3  -7    2.51    2.65
  -8  -3  -7    1.58    2.14
  -8   3  -7    0.41    1.57
   8   3   7    3.84    2.14
  -8   3  -7    0.41    1.16
  -9  -3  -7    2.53    2.11
  -9   3  -7    1.59    1.41
  -9   3  -7    1.86    1.92
   9   3   7    2.28    2.13
  -9  -4   7   -1.30    1.86
  -9  -4   7    1.29    3.80
  -9   4   7    1.96    1.74
  -8  -4   7    2.38    2.76
  -8   4   7    2.56    1.62
  -7  -4   7    0.25    2.51
   7   4  -7   -1.12    2.17
  -7   4   7    0.91    1.33
  -6  -4   7   23.80    3.35
  -6   4   7   26.95    3.04
   6   4  -7   31.15    4.36
  -5  -4   7    0.45    1.19
  -5  -4   7   -0.27    1.97
   5   4  -7   -1.18    1.54
  -5   4   7    0.68    1.05
  -4  -4   7    6.71    1.44
  -4  -4   7    7.53    1.98
   4  -4  -7    4.95    1.10
  -4   4   7    3.39    1.07
   4   4  -7    4.62    1.75
  -3  -4   7   11.21    1.60
  -3  -4   7   15.03    2.41
   3  -4  -7   11.85    1.70
   3  -4  -7    9.90    1.34
   3   4  -7    9.70    1.73
   2  -4  -7   27.38    2.66
  -2  -4   7   29.91    3.22
  -2  -4   7   24.74    2.40
   2   4  -7   24.13    2.95
  -2   4   7   29.49    2.69
   1  -4  -7    0.58    0.85
  -1  -4   7    3.24    1.23
  -1  -4   7    2.05    0.60
  -1   4   7    0.85    0.98
   1   4  -7    1.91    1.00
   0  -4   7    3.89    1.00
   0  -4  -7    3.92    1.45
   0   4   7    4.34    1.30
   0   4  -7    6.04    1.55
   1  -4   7    6.81    0.69
  -1  -4  -7    7.16    1.88
   1  -4   7    5.31    0.90
   1   4   7    6.07    1.85
  -1   4  -7    6.91    1.16
   2  -4   7    3.31    0.55
  -2  -4  -7    2.92    1.54
   2   4   7    2.51    2.14
  -2   4  -7    3.96    0.91
   3  -4   7    0.01    0.54
  -3  -4  -7    1.05    1.46
  -3  -4  -7    1.23    0.92
   3   4   7   -1.87    1.74
   4  -4   7    0.72    0.75
  -4  -4  -7    0.77    1.02
  -4  -4  -7    3.00    1.71
   4   4   7   -0.19    1.84
  -4   4  -7   -3.12    1.44
  -5  -4  -7    3.69    1.47
  -5  -4  -7    4.94    1.80
  -5   4  -7    5.39    0.77
   5   4   7    7.64    2.16
  -5   4  -7    2.82    2.06
  -6  -4  -7    1.30    1.71
  -6  -4  -7    0.92    1.42
  -6   4  -7    0.24    0.74
   6   4   7    2.09    2.13
  -6   4  -7   -1.62    1.93
  -7  -4  -7   -0.05    1.94
  -7  -4  -7    0.94    1.66
  -7   4  -7    1.55    0.93
  -7   4  -7    0.75    2.78
   7   4   7    3.73    2.26
  -8  -4  -7   -0.59    1.80
   8   4   7    5.09    2.68
  -8   4  -7    1.63    1.43
  -8   4  -7   -0.88    1.50
  -9  -4  -7    1.78    2.31
  -9   4  -7   -1.60    1.78
   9   4   7    2.00    2.62
  -9   4  -7    0.49    1.32
  -9  -5   7   -3.39    2.92
  -9   5   7    0.57    1.72
  -8  -5   7   -0.83    2.56
  -8   5   7    5.08    3.12
  -7  -5   7    0.93    2.88
  -7   5   7    5.24    1.62
  -6  -5   7    1.10    1.53
  -6  -5   7    0.00    2.16
   6   5  -7    0.35    2.10
  -6   5   7    1.63    1.22
  -5  -5   7    6.06    1.51
   5  -5  -7    5.16    1.27
  -5  -5   7    3.72    2.28
   5   5  -7    1.51    1.95
  -5   5   7    4.86    1.37
  -4  -5   7   11.94    1.86
  -4  -5   7   10.04    2.57
   4  -5  -7   11.30    1.73
   4   5  -7   11.07    2.16
  -4   5   7   10.50    1.74
   3  -5  -7   14.08    1.91
  -3  -5   7   11.92    1.70
  -3  -5   7   12.27    2.31
  -3   5   7   11.19    1.74
   3   5  -7   11.30    2.16
  -2  -5   7   17.08    1.74
   2   5  -7   14.99    2.37
  -1  -5   7    5.20    1.45
   1  -5  -7    5.65    1.36
  -1  -5   7    6.10    0.90
   1   5  -7    4.87    1.14
  -1   5   7    5.52    1.38
   0  -5   7   16.76    1.54
   0  -5   7   22.60    2.57
   0  -5  -7   22.40    2.73
   0   5   7   20.58    2.62
   0   5  -7   19.98    2.22
   1  -5   7   10.67    1.68
  -1  -5  -7   15.44    1.71
  -1  -5  -7   16.28    2.32
  -1   5  -7   12.04    1.74
   1   5   7    8.50    2.12
  -2  -5  -7    1.01    1.47
  -2  -5  -7    1.93    0.93
  -2   5  -7    2.19    0.80
   2   5   7    0.89    2.03
  -3  -5  -7    0.78    1.00
  -3  -5  -7    1.63    1.65
   3   5   7    1.14    1.99
  -3   5  -7    1.83    0.80
  -4  -5  -7    1.18    1.17
  -4  -5  -7    4.30    1.74
   4   5   7   -0.33    1.96
  -4   5  -7    1.74    1.62
  -5  -5  -7    4.42    1.81
  -5  -5  -7    2.21    1.28
   5   5   7    1.31    2.08
  -5   5  -7    3.94    2.17
  -5   5  -7    2.12    0.70
  -6  -5  -7    2.35    1.53
  -6  -5  -7    2.48    1.81
  -6   5  -7    2.73    0.82
  -6   5  -7    2.61    2.25
   6   5   7    6.62    2.53
  -7  -5  -7    3.72    2.10
  -7   5  -7    1.83    0.93
   7   5   7    5.40    3.76
  -7   5  -7    6.10    2.68
  -8  -5  -7   -0.20    1.84
  -8   5  -7   -0.12    1.04
  -8   5  -7   -2.39    1.38
   8   5   7    2.39    2.81
  -9  -6   7   -3.84    2.76
  -9   6   7    2.03    2.03
  -8  -6   7    8.27    4.15
  -8   6   7   11.52    2.57
  -7  -6   7   -1.54    2.49
  -7   6   7    0.47    1.43
  -6  -6   7    0.22    2.50
  -6  -6   7    3.33    1.73
   6   6  -7    4.39    2.71
  -6   6   7    2.44    1.37
   5  -6  -7    7.81    1.64
  -5  -6   7    1.81    2.58
  -5  -6   7    5.49    1.61
  -5   6   7    5.90    1.54
   5   6  -7    7.24    2.42
   4  -6  -7   27.32    3.04
  -4  -6   7   25.46    2.97
  -4  -6   7   33.24    4.67
  -4   6   7   26.00    3.01
   4   6  -7   28.13    3.90
  -3  -6   7    5.50    1.22
   3  -6  -7    4.41    1.28
  -3  -6   7    2.97    2.09
  -3   6   7    2.88    1.16
   3   6  -7    3.41    1.51
   2  -6  -7    2.00    1.27
  -2  -6   7    3.76    1.61
  -2  -6   7    5.18    1.03
   2  -6  -7    4.71    0.75
  -2   6   7    2.95    1.30
   2   6  -7    2.49    1.14
  -1  -6   7   27.07    4.64
   1  -6  -7   17.90    1.88
   1  -6  -7   19.24    2.69
  -1  -6   7   17.96    1.74
  -1   6   7   17.77    2.50
   1   6  -7   18.08    2.47
   0  -6  -7    0.75    0.66
   0  -6   7    0.24    1.29
   0  -6  -7    0.33    1.47
   0  -6   7    1.24    0.85
   0   6  -7    1.47    0.88
  -1  -6  -7    1.67    0.79
   1  -6   7    2.14    1.07
  -1  -6  -7    2.22    1.58
  -1   6  -7    2.02    0.95
   1   6   7    1.25    2.12
   2  -6   7    0.14    0.44
  -2  -6  -7   -0.54    0.75
  -2  -6  -7    0.57    1.59
  -2   6  -7    0.60    0.78
   2   6   7    0.75    2.13
  -3  -6  -7   15.65    2.38
  -3  -6  -7   16.75    2.93
   3   6   7   13.67    3.18
  -3   6  -7   18.79    2.15
  -4  -6  -7    1.71    1.92
  -4  -6  -7    0.87    0.98
   4   6   7   -1.51    2.46
  -4   6  -7    0.22    0.89
  -4   6  -7    1.29    1.48
  -5  -6  -7    2.91    1.24
  -5  -6  -7    5.27    2.72
  -5   6  -7    5.25    1.18
  -5   6  -7    2.67    0.90
   5   6   7    3.90    2.64
  -5   6  -7    6.11    2.18
  -6  -6  -7    2.62    1.61
  -6  -6  -7    2.98    2.06
   6   6   7    4.18    2.68
  -6   6  -7    1.43    2.17
  -6   6  -7    2.02    0.87
  -7  -6  -7   -1.15    1.72
  -7   6  -7    0.90    0.90
   7   6   7   -0.53    2.46
  -7   6  -7    1.75    2.42
  -8  -6  -7    0.35    1.85
  -8   6  -7    0.41    1.62
  -8   6  -7   -0.55    1.02
  -8   6  -7    2.54    2.94
   8   6   7   -0.43    3.02
  -9   7   7    3.52    2.09
  -8  -7   7   -0.80    3.49
  -8   7   7    0.62    1.73
  -7  -7   7    0.05    2.81
  -7   7   7    1.07    1.61
  -6  -7   7    0.47    2.43
  -6   7   7    1.62    1.48
  -5  -7   7    3.75    2.52
   5  -7  -7    4.50    1.57
  -5  -7   7    3.60    1.65
   5   7  -7    7.06    2.60
  -5   7   7    4.40    1.48
   4  -7  -7    2.90    1.46
  -4  -7   7    0.74    1.24
  -4  -7   7    0.17    2.15
   4   7  -7    3.66    2.60
  -4   7   7    0.66    1.17
  -3  -7   7    1.16    1.03
  -3  -7   7   -0.72    1.88
   3  -7  -7    0.66    1.25
  -3   7   7    0.19    1.20
   3   7  -7    1.92    1.42
  -2  -7   7    1.45    0.92
   2  -7  -7    1.36    0.68
   2  -7  -7   -1.15    1.32
  -2  -7   7    0.81    1.77
  -2   7   7    1.09    1.38
   2   7  -7    1.17    1.26
  -1  -7   7    6.25    1.81
   1  -7  -7    3.51    1.58
   1  -7  -7    3.86    0.92
  -1  -7   7    5.29    0.92
  -1   7   7    4.44    1.63
   1   7  -7    4.37    1.40
   0  -7   7    5.79    1.32
   0  -7  -7    7.77    2.03
   0  -7   7    8.05    1.86
   0  -7  -7    6.26    1.13
   0   7  -7    7.05    1.43
   0   7   7    3.62    1.86
  -1  -7  -7    1.92    0.90
   1  -7   7    4.86    1.42
  -1  -7  -7    1.91    1.74
   1   7   7    0.98    1.87
  -1   7  -7    3.67    1.01
  -2  -7  -7   29.54    3.75
  -2  -7  -7   21.25    2.71
   2  -7   7   22.19    2.25
  -2   7  -7   21.69    2.60
   2   7   7   32.90    4.37
  -3  -7  -7   -0.40    0.89
   3  -7   7    1.72    0.50
  -3  -7  -7    2.51    1.90
   3   7   7    1.77    2.35
  -3   7  -7    1.98    0.99
  -4  -7  -7    6.21    1.59
   4   7   7    3.14    2.73
  -4   7  -7    7.90    1.40
  -5  -7  -7   -0.28    1.27
  -5  -7  -7    3.44    2.13
  -5   7  -7    1.32    1.78
   5   7   7   -0.35    2.26
  -5   7  -7   -0.62    0.89
  -5   7  -7   -0.29    0.99
  -6  -7  -7    6.84    2.16
  -6   7  -7   10.23    2.59
  -6   7  -7    5.98    1.47
   6   7   7    9.25    2.98
  -6   7  -7    4.57    1.14
  -7  -7  -7   -0.51    1.79
  -7   7  -7    0.60    0.99
   7   7   7    1.88    2.97
  -7   7  -7   -0.13    2.41
  -7   7  -7   -2.27    2.45
  -8  -7  -7    0.37    1.80
  -8   7  -7   -3.67    2.85
   8   7   7    3.88    3.16
  -8   7  -7    0.90    1.10
  -8  -8   7   -1.79    2.71
  -8   8   7    3.02    2.04
  -7  -8   7    1.82    2.80
  -7   8   7    0.68    1.92
  -6  -8   7   -1.84    2.41
  -6   8   7   -0.12    1.43
  -5  -8   7    2.18    1.90
  -5  -8   7   -0.59    2.51
   5  -8  -7    0.50    1.66
  -5   8   7    1.53    1.38
  -4  -8   7    3.76    1.45
   4  -8  -7    1.25    1.53
  -4  -8   7   -0.82    1.90
  -4   8   7   -0.15    1.29
   3  -8  -7    3.59    1.62
  -3  -8   7    4.56    1.36
  -3  -8   7    0.27    1.93
  -3   8   7    1.71    1.38
  -2  -8   7   12.92    1.67
   2  -8  -7   11.04    1.46
   2  -8  -7   10.27    2.24
  -2  -8   7    9.88    2.62
   2   8  -7    9.32    2.15
  -2   8   7    9.57    2.00
   1  -8  -7    5.88    1.18
  -1  -8   7    7.08    1.54
   1  -8  -7    5.49    2.01
  -1  -8   7    5.48    2.23
  -1   8   7    5.72    1.88
   1   8  -7    5.87    1.64
   0  -8   7   -0.40    1.61
   0  -8  -7    0.74    0.93
   0  -8   7    4.52    2.43
   0  -8  -7    1.71    1.82
   0   8   7   -0.29    1.57
   0   8  -7    1.26    1.08
   1  -8   7    0.95    1.38
  -1  -8  -7    0.57    1.86
  -1  -8  -7    1.12    0.90
  -1   8  -7    1.64    1.09
   1   8   7    1.76    2.02
  -2  -8  -7    0.44    1.02
   2  -8   7   -0.35    0.97
  -2  -8  -7    1.80    2.01
   2   8   7    3.69    2.48
  -2   8  -7    2.79    1.10
   3  -8   7    3.38    0.76
  -3  -8  -7    1.32    1.36
  -3  -8  -7    4.85    2.36
  -3   8  -7    4.07    1.20
   3   8   7    5.24    2.95
  -4  -8  -7    4.07    1.62
  -4  -8  -7    8.45    2.54
  -4   8  -7    5.50    1.22
   4   8   7    7.07    3.03
  -5  -8  -7    0.07    1.53
   5   8   7   -2.14    2.62
  -5   8  -7    0.71    1.16
  -5   8  -7    1.51    1.57
  -6  -8  -7    0.26    1.52
  -6   8  -7   -0.64    1.00
  -6   8  -7   -1.41    1.14
   6   8   7   -1.56    3.01
  -6   8  -7    1.84    2.19
  -7  -8  -7   -0.65    1.70
  -7   8  -7   -3.08    2.27
  -7   8  -7   -2.83    2.23
  -7   8  -7   -0.18    1.01
   7   8   7   -4.21    2.65
  -8  -8  -7    3.82    2.23
   8   8   7    8.34    4.19
  -8   8  -7   -2.43    3.14
  -8   8  -7    1.26    1.12
  -8   8  -7   -0.16    1.60
  -8  -9   7   -1.54    3.14
  -8   9   7    1.65    1.91
  -7  -9   7   -2.52    2.97
  -7   9   7    0.07    1.65
  -6   9   7    0.53    1.68
  -5  -9   7   11.75    2.35
  -5  -9   7    6.89    2.70
  -5   9   7    9.04    2.06
   4  -9  -7   13.85    2.78
  -4  -9   7    9.69    2.87
  -4  -9   7   13.28    2.20
  -4   9   7   11.02    2.15
   3  -9  -7   -1.18    1.71
  -3  -9   7   -0.38    2.05
  -3  -9   7    0.24    1.28
   3   9  -7    4.61    2.04
  -3   9   7   -0.07    1.62
   2  -9  -7   -1.72    2.28
   2  -9  -7    0.48    0.90
  -2  -9   7    0.67    1.08
  -2  -9   7    1.68    1.90
  -2   9   7   -0.34    1.53
   2   9  -7    3.07    1.80
   1  -9  -7   27.39    4.30
  -1  -9   7   26.37    4.05
   1  -9  -7   20.72    2.63
  -1  -9   7   23.51    3.03
   1   9  -7   21.07    3.18
  -1   9   7   24.77    3.40
   0  -9   7   40.42    4.05
   0  -9  -7   38.25    3.85
   0  -9   7   42.81    4.91
   0  -9  -7   42.46    5.60
   0   9  -7   36.08    4.00
   0   9   7   39.18    4.63
   1  -9   7   -1.00    1.51
  -1  -9  -7    0.03    2.84
  -1  -9  -7    0.54    1.04
   1  -9   7    1.34    1.80
   1   9   7    3.68    2.10
   1   9   7   -1.10    2.18
  -1   9  -7    0.87    1.15
   2  -9   7    7.17    1.60
  -2  -9  -7    4.96    1.47
  -2  -9  -7   10.61    2.64
  -2   9  -7    7.25    1.46
   2   9   7   15.56    3.17
  -3  -9  -7    7.23    2.34
  -3  -9  -7    2.02    1.37
   3  -9   7    3.94    1.02
  -3   9  -7    4.87    1.28
   3   9   7    4.86    2.54
  -4  -9  -7    7.33    1.96
  -4   9  -7   11.14    1.70
   4   9   7   15.91    3.78
  -5  -9  -7   -0.23    1.35
   5   9   7   -1.51    2.71
  -5   9  -7   -1.35    1.04
  -6  -9  -7   -0.04    1.76
   6   9   7    0.28    3.08
  -6   9  -7    1.70    2.01
  -6   9  -7   -1.12    1.16
  -7  -9  -7   -0.27    1.66
   7   9   7   -2.97    2.57
  -7   9  -7   -3.34    2.28
  -7 -10   7   -1.65    3.27
  -7  10   7   -1.23    1.86
  -6 -10   7    4.02    2.82
  -6  10   7    1.51    2.35
  -5 -10   7   -0.95    1.68
  -5 -10   7    1.59    2.66
  -5  10   7    0.03    1.75
  -4 -10   7    3.94    1.79
  -4 -10   7    8.06    2.94
  -4  10   7    3.74    1.90
   3 -10  -7    0.44    2.35
  -3 -10   7   -0.20    1.32
  -3 -10   7   -1.67    1.81
  -3  10   7   -0.25    1.54
   2 -10  -7   16.67    2.41
   2 -10  -7   13.33    3.20
  -2 -10   7   18.54    3.28
  -2 -10   7   19.30    2.87
   2  10  -7   22.07    3.39
   1 -10  -7    1.27    2.26
  -1 -10   7    3.50    1.54
  -1 -10   7    3.14    2.25
   1 -10  -7    0.45    1.11
   1  10  -7    3.20    1.53
  -1  10   7    2.06    1.80
   0 -10  -7    1.04    1.14
   0 -10   7    5.44    1.68
   0 -10   7   -1.48    1.80
   0  10   7    1.89    2.02
   0  10  -7    2.68    1.41
   1 -10   7    1.18    1.66
  -1 -10  -7   -0.71    1.11
   1  10   7   -2.76    2.06
  -1  10  -7    1.57    1.17
   1  10   7    3.15    2.20
  -2 -10  -7   10.28    2.11
  -2  10  -7   10.64    1.87
   2  10   7   12.25    2.90
  -3 -10  -7    3.45    1.46
   3 -10   7    3.12    1.21
  -3  10  -7    4.52    1.32
   3  10   7    5.06    2.81
  -4 -10  -7    3.92    1.77
   4 -10   7    8.66    1.25
   4  10   7    8.43    3.17
  -4  10  -7    4.66    1.48
  -5 -10  -7    0.22    1.62
  -5  10  -7    0.80    1.22
   5  10   7   -1.26    2.59
  -6 -10  -7    2.95    1.89
  -6  10  -7    1.93    1.51
   6  10   7    0.61    3.04
  -7 -10  -7    0.01    1.80
   7  10   7   -3.51    2.84
  -7  10  -7   -4.16    1.87
  -7 -11   7   -0.33    3.38
  -7  11   7   -3.16    1.83
  -6 -11   7   -1.47    2.68
  -6  11   7    0.25    1.91
  -5 -11   7   -1.07    2.29
  -5  11   7   -0.73    1.79
  -4 -11   7    2.10    1.77
  -4 -11   7    5.49    3.00
  -4  11   7    3.59    2.08
  -3 -11   7    1.14    2.20
  -3  11   7   -0.54    1.69
   2 -11  -7    6.93    1.55
  -2 -11   7    8.08    2.46
  -2 -11   7   10.20    2.15
   1 -11  -7    1.71    1.22
  -1 -11   7    2.73    2.11
  -1 -11   7    1.80    1.64
   1  11  -7    7.11    1.90
  -1  11   7    3.71    2.30
   0 -11  -7    4.19    1.51
   0 -11   7    6.24    2.44
   0 -11   7   11.23    2.20
   0  11   7    6.48    2.58
   0  11  -7    8.00    1.68
  -1 -11  -7    0.33    1.20
   1 -11   7    5.52    1.98
   1 -11   7   -1.32    1.98
  -1  11  -7    1.07    1.34
   1  11   7    1.99    2.41
   2 -11   7    4.27    1.95
  -2 -11  -7    1.03    1.29
   2  11   7    6.63    2.87
  -2  11  -7    5.41    2.26
   3 -11   7    8.59    1.85
  -3 -11  -7    4.36    1.65
  -3  11  -7    8.88    1.81
   3  11   7   12.67    3.49
  -4 -11  -7    0.62    1.38
   4 -11   7    0.29    1.15
   4  11   7   -1.94    2.50
  -4  11  -7   -0.34    1.27
  -5 -11  -7    0.55    1.69
  -5  11  -7   -0.19    1.45
   5  11   7   -1.21    3.04
  -6 -11  -7    2.17    1.73
   6  11   7   -1.24    2.96
  -6 -12   7    2.11    2.78
  -6  12   7    0.10    1.99
  -5 -12   7   -4.48    2.19
  -5  12   7   -0.75    1.84
  -4 -12   7    2.72    2.85
  -4  12   7   -1.95    2.80
  -3 -12   7   -0.26    2.27
  -3  12   7   -1.29    1.71
  -2 -12   7    5.90    2.21
   2 -12  -7    3.33    1.45
  -2 -12   7    3.56    2.33
  -2  12   7    3.76    2.22
  -1 -12   7   16.10    2.67
  -1 -12   7   17.74    3.31
   1 -12  -7   13.72    2.22
  -1  12   7   15.28    3.05
   0 -12  -7   -0.63    1.26
   0 -12   7   -0.37    2.27
   0 -12   7    5.54    1.84
   0  12   7   -0.35    2.17
   0  12   7    2.62    2.15
   1 -12   7    0.33    1.97
   1 -12   7   -0.53    2.21
  -1 -12  -7   -0.93    1.29
  -1  12  -7    4.65    1.47
   1  12   7    4.90    2.56
  -2 -12  -7    3.88    1.60
   2 -12   7    4.32    2.16
  -2  12  -7    3.28    1.40
   2  12   7   12.17    3.14
   3 -12   7    2.84    1.73
  -3 -12  -7    1.40    1.42
  -3  12  -7    1.48    1.30
   3  12   7    4.98    2.95
  -4 -12  -7   -0.60    1.58
   4 -12   7    0.46    1.34
  -4  12  -7    0.97    1.40
   4  12   7    2.15    2.93
  -5 -12  -7   -1.60    1.46
   5  12   7   -3.44    2.81
  -5  12  -7    3.38    1.51
  -6 -12  -7    2.46    2.18
   6  12   7   -3.52    3.32
  -6  12  -7    0.74    1.60
  -5 -13   7    1.95    2.51
  -5  13   7    4.20    2.30
  -4 -13   7   -3.58    2.58
  -4  13   7   -1.09    2.03
  -3 -13   7   -2.09    2.31
  -3  13   7   -0.60    2.01
  -2 -13   7    6.75    3.69
   2 -13  -7   -0.08    1.33
  -2  13   7    0.22    3.18
  -1 -13   7    7.91    2.29
  -1 -13   7    0.91    2.55
   1 -13  -7   -0.27    1.38
   0 -13   7    5.68    2.00
   0 -13   7   -3.11    2.12
   0 -13  -7   -1.15    1.33
   0  13   7    2.50    2.09
   0  13   7   -1.88    3.71
  -1 -13  -7   -0.04    1.39
   1 -13   7    4.36    2.11
   1 -13   7   -1.57    2.13
   1  13   7    0.98    2.30
  -2 -13  -7    0.49    1.50
   2 -13   7    1.90    2.22
   2  13   7    2.34    2.39
   3 -13   7    2.75    1.95
  -3 -13  -7   -1.36    2.37
   3  13   7   -1.43    2.32
  -3  13  -7    3.26    1.49
   4 -13   7   -2.21    1.65
  -4 -13  -7    0.27    1.81
  -4  13  -7    3.59    1.47
   4  13   7    3.52    3.13
  -5 -13  -7   -0.83    1.88
  -5  13  -7    3.76    1.52
   5  13   7   -3.05    2.78
  -4 -14   7    1.54    2.74
  -4  14   7    0.71    2.22
  -3 -14   7   -2.62    2.16
  -3  14   7    0.67    2.16
   2 -14  -7   -2.85    1.79
  -2 -14   7   -0.47    2.37
  -2  14   7   -0.71    2.21
   1 -14  -7    4.13    1.73
  -1 -14   7    1.63    3.31
  -1  14   7    5.10    2.53
  -1  14   7    4.34    2.40
   0 -14   7   -1.00    2.37
   0 -14  -7    0.88    1.61
   0  14   7    5.47    2.48
   1 -14   7    4.66    2.32
  -1 -14  -7    1.33    1.59
   1  14   7    1.27    2.09
  -2 -14  -7    4.35    2.05
   2 -14   7    8.90    4.50
   2  14   7    1.54    2.55
   3 -14   7   -4.17    2.19
  -3 -14  -7   -1.02    1.31
   3  14   7    0.07    2.72
  -4 -14  -7    2.30    1.69
   4  14   7    2.44    3.07
  -3 -15   7   -1.85    2.48
  -3  15   7   -0.70    2.07
  -2 -15   7   -3.10    2.20
   2 -15  -7   -1.91    1.50
  -2  15   7    2.71    2.37
   1 -15  -7    0.79    1.67
  -1 -15   7   -0.70    2.66
  -1  15   7    2.15    2.50
  -1  15   7    2.66    2.53
   0 -15   7   -2.75    2.38
   0 -15  -7    0.80    1.62
   0  15   7   -1.34    2.96
  -1 -15  -7    2.22    1.71
   1  15   7    0.97    2.05
  -2 -15  -7    0.67    1.66
   2 -15   7    7.34    3.08
   2  15   7    1.95    2.70
   3 -15   7   -6.74    3.00
  -9   0   8    0.57    1.73
  -9   0   8    1.55    1.85
  -8   0   8   13.33    2.42
  -8   0   8   12.22    2.61
  -7   0   8    1.83    1.39
   7   0  -8    0.68    1.41
  -7   0   8    0.14    1.49
  -6   0   8    1.84    2.36
   6   0  -8    0.74    1.26
  -6   0   8    3.89    1.31
  -6   0   8    1.90    1.34
  -5   0   8    9.64    1.82
   5   0  -8    6.41    2.02
  -5   0   8    9.28    1.64
  -5   0   8   13.64    2.06
  -4   0   8   32.06    3.10
  -4   0   8   35.06    3.17
  -3   0   8   49.73    4.21
   3   0  -8   48.79    4.51
  -3   0   8   53.92    4.26
  -2   0   8    5.60    0.90
   0   0   8    9.62    1.23
   0   0  -8    9.69    1.08
   1   0   8  252.30   20.86
  -1   0  -8  298.75   20.69
   2   0   8   56.53    5.09
  -2   0  -8   55.54    4.45
  -3   0  -8    3.66    1.14
   3   0   8    4.35    1.38
  -4   0  -8   29.40    3.54
   4   0   8   40.44    3.60
   5   0   8   74.87    5.75
  -5   0  -8   58.71    6.44
  -5   0  -8   58.07    5.80
   6   0   8   48.02    4.29
  -6   0  -8   35.20    4.42
   7   0   8    2.26    1.70
  -7   0  -8   -0.05    1.60
   8   0   8    5.88    2.06
  -8   0  -8    4.55    1.45
  -8   0  -8    0.64    1.68
   9   0   8    3.89    2.15
  -9   0  -8    1.11    1.85
  -9   0  -8   -1.98    2.15
  -9   0  -8    1.29    1.49
  -9  -1   8    3.62    1.97
  -9  -1   8   -0.15    1.95
  -9   1   8    1.86    1.54
  -9   1   8    0.78    1.77
  -8  -1   8    5.86    2.17
  -8  -1   8    3.18    2.64
   8   1  -8   -1.38    1.83
  -8   1   8    3.21    1.81
  -8   1   8    4.40    1.51
   7  -1  -8    0.81    1.16
  -7  -1   8    1.97    1.73
  -7  -1   8    0.79    1.40
  -7   1   8    2.70    1.20
  -7   1   8    0.51    1.34
   7   1  -8    1.20    1.58
  -6  -1   8   14.13    2.47
  -6  -1   8   11.96    2.00
  -6  -1   8   22.61    3.13
  -6   1   8   16.93    3.57
  -6   1   8   16.43    2.19
  -6   1   8   14.03    2.18
   6   1  -8   14.49    2.45
  -5  -1   8    2.12    1.44
   5  -1  -8    0.67    1.09
  -5  -1   8    2.96    1.22
  -5  -1   8    2.93    1.24
  -5   1   8    2.02    1.03
  -5   1   8    2.98    0.92
   5   1  -8    1.60    1.47
  -4  -1   8   91.57    7.21
  -4  -1   8   91.27    7.27
  -4  -1   8   88.57    7.08
  -4   1   8   85.04    7.05
  -4   1   8   86.94    6.94
   3  -1  -8    0.87    0.92
  -3  -1   8    0.68    0.77
  -3  -1   8    1.94    0.83
  -3   1   8    1.12    0.77
   3   1  -8    0.57    0.98
  -2  -1   8  223.90   17.29
   2  -1  -8  236.09   17.34
  -2  -1   8  234.00   17.40
   2  -1  -8  230.34   17.37
  -2   1   8  225.25   17.32
   2   1  -8  224.06   17.47
   1  -1  -8    5.27    0.86
  -1  -1   8    5.90    0.83
   1   1  -8    6.08    1.04
  -1   1   8    4.68    0.87
   0  -1   8  131.59   10.03
   0  -1  -8  132.76   10.09
   0   1  -8  134.92    9.99
   0   1   8  130.28   10.16
   1  -1   8   24.61    2.30
   1   1   8   23.09    2.70
  -1   1  -8   25.56    2.00
  -2  -1  -8  287.06   21.04
   2  -1   8  274.85   21.14
   2   1   8  261.35   21.45
  -2   1  -8  285.81   20.75
  -3  -1  -8   -0.60    1.11
   3  -1   8    0.58    0.93
   3   1   8    1.13    1.55
  -3   1  -8   -0.51    0.62
  -4  -1  -8   12.87    1.97
  -4   1  -8    9.51    1.60
   5  -1   8   66.53    5.33
  -5  -1  -8   53.81    6.19
  -5  -1  -8   60.25    5.72
  -5   1  -8   57.49    5.44
  -5   1  -8   55.77    6.11
   5   1   8   69.43    5.65
   6  -1   8   26.37    2.98
  -6  -1  -8   24.70    4.28
  -6  -1  -8   24.77    3.35
  -6  -1  -8   17.97    3.08
   6   1   8   27.69    3.42
  -6   1  -8   23.49    4.12
  -7  -1  -8   -0.95    1.73
  -7  -1  -8    1.74    1.65
   7  -1   8    2.98    1.54
  -7   1  -8    0.80    1.11
  -7   1  -8    0.92    1.60
  -7   1  -8   -2.13    2.33
   7   1   8    4.19    1.73
   8  -1   8    1.64    1.59
  -8  -1  -8    0.56    2.34
  -8   1  -8    0.30    1.18
  -8   1  -8    1.91    1.69
  -9  -1  -8   12.00    2.07
  -9  -1  -8    6.31    2.50
  -9   1  -8    7.64    2.38
  -9   1  -8   13.42    2.04
   9   1   8   14.31    2.96
  -9  -2   8    0.45    2.18
  -9  -2   8    0.86    1.87
  -9   2   8    0.74    1.73
  -8  -2   8    9.04    2.99
  -8  -2   8    8.20    2.45
  -8   2   8    7.50    1.99
  -8   2   8    7.87    1.44
   8   2  -8    4.54    2.38
  -7  -2   8    0.28    1.44
  -7  -2   8    1.34    1.92
   7   2  -8   -0.64    1.74
  -7   2   8    0.14    1.42
  -7   2   8    1.46    0.91
  -6  -2   8   13.16    2.12
  -6  -2   8   15.48    2.49
   6  -2  -8   12.48    1.93
  -6  -2   8   13.17    2.47
   6   2  -8   10.92    2.45
  -6   2   8   12.93    2.10
  -6   2   8   11.58    2.26
  -6   2   8   16.85    1.86
  -5  -2   8    7.43    1.56
  -5  -2   8    6.96    1.93
   5  -2  -8    6.74    1.26
  -5  -2   8    6.95    1.63
  -5   2   8    5.78    1.36
  -5   2   8    8.48    1.32
   5   2  -8    7.43    2.10
  -4  -2   8   12.38    1.82
  -4  -2   8    9.96    1.74
  -4  -2   8   11.45    1.74
   4  -2  -8    8.07    1.48
   4   2  -8    9.18    1.82
  -4   2   8   12.82    1.70
  -3  -2   8   18.40    1.93
   3  -2  -8   19.19    1.92
   3  -2  -8   15.93    2.08
   3   2  -8   14.79    2.39
  -3   2   8   16.74    1.93
  -2  -2   8   -0.13    0.54
  -2  -2   8    2.29    0.96
   2  -2  -8    1.32    0.65
   2  -2  -8    1.55    0.75
   2   2  -8    1.89    1.02
  -2   2   8    1.53    0.77
  -1  -2   8    8.98    1.02
   1  -2  -8    6.42    1.01
  -1   2   8    7.14    1.16
   1   2  -8    5.57    1.08
   0  -2   8    0.69    0.40
   0  -2  -8    0.21    0.59
   0   2  -8    1.49    0.72
   0   2   8    0.00    0.78
   1  -2   8   30.65    2.60
  -1  -2  -8   37.29    3.01
   1   2   8   28.04    3.31
   2  -2   8   62.53    5.00
  -2  -2  -8   62.62    5.28
   2   2   8   56.90    5.91
  -3  -2  -8    2.79    1.35
  -4  -2  -8    7.94    3.22
   4  -2   8    6.64    1.23
  -4   2  -8    6.32    0.78
   4   2   8    8.19    2.06
  -4   2  -8    2.93    1.06
   5  -2   8   12.54    1.84
  -5  -2  -8    7.84    2.15
   5   2   8   14.11    2.55
  -5   2  -8   11.33    1.31
  -5   2  -8   10.59    2.96
  -6  -2  -8   33.57    3.89
  -6  -2  -8   26.41    4.55
   6  -2   8   38.41    3.47
  -6  -2  -8   26.19    3.87
   6   2   8   37.42    4.14
  -6   2  -8   35.99    2.96
  -6   2  -8   26.66    4.22
   7  -2   8    1.58    1.39
  -7  -2  -8   -0.17    1.62
  -7  -2  -8   -0.48    1.82
  -7   2  -8   -4.91    2.56
  -7   2  -8    0.65    0.94
   7   2   8    2.36    1.82
  -8  -2  -8    1.19    2.10
  -8  -2  -8   -0.65    1.73
  -8   2  -8    0.22    1.16
  -8   2  -8    2.64    1.84
   8   2   8    4.16    2.35
  -9  -2  -8    1.06    1.92
  -9   2  -8   -0.41    1.37
   9   2   8    3.82    2.56
  -9   2  -8    0.93    1.85
  -9  -3   8    0.21    2.00
  -9  -3   8    0.30    2.46
  -9   3   8   -0.59    0.89
  -9   3   8    1.22    1.70
  -8  -3   8    0.09    1.68
  -8  -3   8   -0.87    2.22
  -8   3   8    1.62    0.88
  -8   3   8    1.37    2.23
  -7  -3   8   -0.56    2.12
  -7  -3   8   -0.10    1.48
  -7   3   8    1.84    0.77
  -7   3   8    0.87    1.35
   7   3  -8   -1.18    2.02
  -6  -3   8   50.22    4.94
  -6  -3   8   63.42    6.06
   6   3  -8   45.05    5.54
  -6   3   8   51.12    4.65
  -6   3   8   47.38    4.88
   5  -3  -8    1.37    0.67
  -5  -3   8    2.00    1.74
  -5  -3   8    0.73    1.34
   5   3  -8   -0.63    1.65
  -5   3   8    2.02    1.16
  -4  -3   8    7.41    1.50
  -4  -3   8   12.83    2.71
   4  -3  -8    7.53    1.26
   4  -3  -8    5.21    1.06
  -4   3   8    6.66    1.20
   4   3  -8    5.59    1.65
  -3  -3   8    8.21    1.37
   3  -3  -8    5.58    1.06
  -3  -3   8    5.36    1.45
   3  -3  -8    4.87    1.04
   3   3  -8    4.47    1.51
  -2  -3   8  132.18    9.94
   2  -3  -8  127.65    9.68
   2  -3  -8  120.75    9.54
  -2   3   8  122.90    9.67
   2   3  -8  119.63    9.88
  -1  -3   8    0.86    0.94
   1  -3  -8   -0.51    1.36
   1   3  -8    2.32    0.96
  -1   3   8    0.21    0.79
   0  -3  -8   12.98    1.73
   0  -3   8   11.62    1.16
   0   3   8   11.31    1.66
   0   3  -8   13.11    1.68
   1  -3   8    3.35    0.43
  -1  -3  -8    2.75    1.14
   1   3   8    0.49    1.44
  -1   3  -8    2.45    0.77
   2  -3   8   64.92    4.92
  -2  -3  -8   62.89    5.54
   2   3   8   58.34    6.11
   2   3   8   59.34    5.88
   3  -3   8    1.21    0.72
  -3  -3  -8    1.41    1.55
   3   3   8    2.78    2.10
  -4  -3  -8    3.50    1.70
   4  -3   8    3.90    1.00
   4   3   8    3.17    1.93
  -5  -3  -8    1.45    1.70
   5  -3   8    1.19    0.96
  -5  -3  -8    0.69    1.30
  -5   3  -8   -1.69    2.00
  -5   3  -8    0.22    0.47
   5   3   8    1.66    1.82
   6  -3   8    4.36    1.31
  -6  -3  -8   -0.17    1.62
  -6  -3  -8    1.89    1.35
  -6   3  -8    2.09    0.77
  -6   3  -8    2.11    2.43
   6   3   8    1.90    1.95
  -7  -3  -8   -0.93    1.53
  -7  -3  -8   -1.39    2.11
   7   3   8    2.27    2.12
  -7   3  -8    0.92    0.90
  -7   3  -8   -5.55    2.36
  -8  -3  -8    1.23    1.71
   8   3   8    3.81    2.21
  -8   3  -8   -0.64    1.49
  -8   3  -8    0.77    1.11
  -9  -3  -8    0.98    2.07
   9   3   8    4.59    2.33
  -9   3  -8    1.62    1.33
  -9   3  -8   -0.26    2.00
  -9  -4   8   -0.39    1.86
  -9   4   8   -0.09    1.78
  -8  -4   8    4.24    2.83
  -8  -4   8    2.19    1.90
  -8   4   8    2.42    2.36
  -7  -4   8    2.42    2.54
  -7   4   8    2.47    1.42
   7   4  -8    1.21    2.31
  -6  -4   8   20.82    3.09
  -6  -4   8   20.54    3.76
   6   4  -8   22.45    4.87
  -6   4   8   20.82    2.80
   5  -4  -8    2.64    1.14
  -5  -4   8   -0.29    1.72
  -5  -4   8    1.39    1.33
  -5   4   8    1.78    1.10
   5   4  -8    2.41    1.90
   4  -4  -8    2.86    1.00
   4  -4  -8    2.47    0.59
  -4  -4   8    5.66    2.02
  -4  -4   8    2.76    1.25
   4   4  -8    3.41    1.70
  -4   4   8    2.45    1.14
   3  -4  -8    0.65    0.87
   3  -4  -8    0.20    0.67
  -3  -4   8    0.73    0.87
  -3  -4   8    1.41    1.51
   3   4  -8    0.38    1.16
  -3   4   8    0.70    0.93
  -2  -4   8    3.47    1.39
   2  -4  -8    4.38    1.09
  -2  -4   8    3.35    0.91
   2   4  -8    3.40    1.29
  -2   4   8    3.13    1.01
   1  -4  -8   -0.56    0.91
  -1  -4   8    0.68    0.54
  -1  -4   8    0.58    0.93
   1   4  -8    1.08    0.90
  -1   4   8   -0.59    0.94
   0  -4  -8    1.78    1.16
   0   4   8    4.83    1.40
   0   4  -8    3.33    0.95
   1  -4   8   38.28    2.68
   1  -4   8   31.98    2.77
  -1  -4  -8   38.40    3.66
   1  -4   8   30.80    2.81
  -1   4  -8   39.58    3.21
   1   4   8   27.13    3.76
  -2  -4  -8   16.77    2.51
   2  -4   8   17.28    1.53
  -2   4  -8   19.33    2.05
   2   4   8   12.06    2.73
   2   4   8   20.46    5.91
  -3  -4  -8    3.04    1.69
   3  -4   8    3.23    0.72
   3   4   8    4.14    2.18
   4  -4   8    0.98    0.76
  -4  -4  -8    0.96    1.63
  -4  -4  -8    0.57    1.11
   4   4   8    0.15    1.94
  -5  -4  -8   10.75    2.52
   5  -4   8   11.88    1.66
  -5  -4  -8   12.63    2.16
  -5   4  -8    7.47    2.64
   5   4   8   13.24    2.99
  -6  -4  -8   13.48    2.65
  -6  -4  -8    8.14    2.10
  -6   4  -8   11.69    1.35
   6   4   8   10.06    2.50
  -6   4  -8   12.67    3.10
  -7  -4  -8    0.50    1.90
  -7  -4  -8   -0.27    1.41
   7   4   8    2.96    2.15
  -7   4  -8   -0.72    0.75
  -7   4  -8  -12.52    4.71
  -8  -4  -8   -0.31    1.52
  -8   4  -8    0.82    1.05
   8   4   8    3.63    2.75
  -8   4  -8   -1.47    1.55
  -9  -5   8   -2.72    2.72
  -9  -5   8   -2.96    1.94
  -9   5   8    0.34    1.91
  -8  -5   8   -2.66    2.72
  -8   5   8    2.78    1.76
  -7  -5   8   -3.88    2.48
  -7   5   8    2.89    1.72
  -6  -5   8   18.58    2.85
  -6  -5   8   12.75    3.12
   6   5  -8   12.93    3.13
  -6   5   8   19.38    2.63
  -5  -5   8    0.86    2.38
  -5  -5   8    2.47    1.34
   5  -5  -8    2.84    1.29
   5   5  -8    0.50    1.74
  -5   5   8    1.16    1.22
  -4  -5   8    3.75    1.31
  -4  -5   8    2.55    1.81
   4  -5  -8    4.53    1.32
  -4   5   8    4.36    1.24
   4   5  -8    3.96    1.74
   3  -5  -8   -0.80    0.87
   3  -5  -8    0.13    0.59
  -3  -5   8   -0.01    0.82
  -3  -5   8   -0.20    1.45
  -3   5   8   -0.78    0.88
   3   5  -8    1.48    1.27
  -2  -5   8   10.98    1.35
  -2  -5   8    6.77    1.66
   2  -5  -8   10.82    1.69
   2   5  -8    9.91    1.70
  -2   5   8    7.79    1.57
   1  -5  -8    0.62    1.06
  -1  -5   8    1.22    1.23
  -1  -5   8    1.54    0.62
   1   5  -8    1.17    0.90
  -1   5   8    1.10    1.16
   0  -5  -8    4.44    1.46
   0  -5   8    6.69    1.37
   0  -5   8    4.70    0.64
   0   5  -8    2.60    0.88
   0   5   8    4.57    1.53
  -1  -5  -8   -1.18    1.28
   1  -5   8    1.07    0.81
  -1   5  -8    1.17    0.87
   1   5   8   -0.93    1.46
  -2  -5  -8    0.46    1.51
  -2  -5  -8    1.36    0.78
   2   5   8    0.33    2.17
   2   5   8    1.53    2.30
  -2   5  -8    1.32    0.86
  -3  -5  -8    0.63    1.75
  -3  -5  -8    0.91    1.02
  -3   5  -8    0.05    0.77
   3   5   8   -0.93    2.28
  -4  -5  -8    5.21    2.11
  -4  -5  -8    4.05    1.25
   4   5   8    8.59    2.88
  -5  -5  -8    4.91    2.04
  -5  -5  -8    6.59    1.79
   5   5   8    5.83    2.76
  -5   5  -8    5.32    2.35
  -6  -5  -8    3.74    1.83
  -6  -5  -8   -1.12    1.26
  -6   5  -8   -0.81    0.62
  -6   5  -8   -1.59    2.02
   6   5   8    1.35    2.16
  -7  -5  -8   -0.17    1.58
   7   5   8    0.48    2.12
  -7   5  -8    0.86    0.78
  -7   5  -8   -1.94    2.52
  -8  -5  -8    0.99    1.67
   8   5   8    2.86    3.17
  -8   5  -8    1.43    0.93
  -9  -6   8   -6.54    2.93
  -9   6   8    1.31    1.88
  -8  -6   8    7.43    4.04
  -8   6   8   14.75    2.53
  -7  -6   8    1.55    2.98
  -7   6   8    3.14    1.72
  -6  -6   8    4.71    1.92
  -6  -6   8   -1.12    2.38
  -6   6   8    2.87    1.58
  -5  -6   8   15.48    2.32
  -5  -6   8   13.55    3.50
   5  -6  -8   13.33    2.15
   5   6  -8   15.36    3.03
  -5   6   8   12.20    2.14
  -4  -6   8    5.87    2.57
   4  -6  -8    9.36    1.72
  -4  -6   8   10.12    1.69
  -4   6   8    7.18    1.62
   4   6  -8    7.93    2.04
  -3  -6   8    6.09    2.12
   3  -6  -8    8.45    1.66
  -3  -6   8    8.79    1.43
   3   6  -8    5.03    1.50
  -3   6   8    7.33    1.49
   2  -6  -8    1.28    1.21
   2  -6  -8    1.88    0.60
  -2  -6   8    1.36    0.78
  -2  -6   8    0.73    1.34
   2   6  -8    1.70    1.08
  -2   6   8    0.68    1.23
  -1  -6   8   24.99    3.24
  -1  -6   8   20.64    1.94
   1  -6  -8   19.02    2.81
   1  -6  -8   22.81    2.11
  -1   6   8   17.12    2.71
   1   6  -8   23.39    2.73
   0  -6  -8    0.74    0.68
   0  -6   8    1.56    1.29
   0  -6  -8   -2.00    1.33
   0   6  -8    0.64    0.79
   0   6   8   -0.96    1.39
  -1  -6  -8    1.26    1.67
   1  -6   8    1.35    0.97
  -1  -6  -8    1.35    0.81
  -1   6  -8    1.40    0.83
   1   6   8    0.00    1.73
  -2  -6  -8    3.17    1.05
  -2  -6  -8    3.07    1.88
   2   6   8    1.89    2.22
  -2   6  -8    1.44    0.92
  -3  -6  -8    2.74    1.17
  -3  -6  -8    2.59    1.97
   3   6   8    3.56    2.84
  -3   6  -8    3.56    1.03
  -4  -6  -8   12.29    2.01
  -4  -6  -8   15.56    2.86
   4   6   8    9.67    3.10
  -4   6  -8   14.69    2.14
  -5  -6  -8    4.68    2.18
  -5  -6  -8    2.65    1.52
  -5   6  -8    4.12    2.06
   5   6   8    2.78    2.48
  -5   6  -8    0.81    1.10
  -6  -6  -8    4.86    1.90
  -6  -6  -8    4.71    2.95
  -6   6  -8    6.41    2.52
   6   6   8    4.14    2.79
  -7  -6  -8    0.12    1.54
   7   6   8   -1.46    2.36
  -7   6  -8   -2.23    2.42
  -7   6  -8   -1.17    0.71
  -8  -6  -8    9.05    2.47
  -8   6  -8    7.06    1.24
   8   6   8   16.34    3.82
  -8   6  -8    3.11    3.41
  -8  -7   8   -0.21    2.93
  -8   7   8    3.90    2.01
  -7  -7   8    2.76    2.97
  -7   7   8    1.74    1.64
  -6  -7   8   -2.03    2.67
  -6   7   8    0.56    1.48
   5  -7  -8   12.54    2.17
  -5  -7   8    8.52    3.20
  -5  -7   8   11.33    2.74
  -5   7   8   10.22    2.04
   5   7  -8   13.17    3.11
  -4  -7   8   32.34    3.28
  -4  -7   8   31.26    4.47
   4  -7  -8   30.40    3.52
  -4   7   8   27.60    3.39
   4   7  -8   33.80    4.26
  -3  -7   8   -0.66    1.98
  -3  -7   8    1.52    1.07
   3  -7  -8    2.15    1.47
  -3   7   8   -0.26    1.17
   3   7  -8    0.87    1.43
   2  -7  -8    0.84    1.49
  -2  -7   8    3.40    1.97
   2  -7  -8    1.97    0.71
  -2  -7   8    3.22    0.92
   2   7  -8    2.65    1.32
  -2   7   8    2.97    1.32
  -1  -7   8    6.75    1.00
   1  -7  -8    7.15    1.10
   1  -7  -8    8.06    2.04
  -1  -7   8    6.07    1.90
   1   7  -8    5.00    1.56
  -1   7   8    3.45    1.58
   0  -7   8   62.41    5.31
   0  -7   8   77.04    6.09
   0  -7  -8   68.24    5.28
   0  -7  -8   64.87    6.08
   0   7   8   48.11    5.79
   0   7  -8   59.78    5.50
   1  -7   8    2.18    1.24
  -1  -7  -8   -2.19    1.69
  -1  -7  -8    0.13    1.10
   1   7   8    1.20    1.89
  -1   7  -8    2.03    1.08
   2  -7   8    5.32    0.83
  -2  -7  -8    3.95    1.12
  -2  -7  -8    6.76    2.06
   2   7   8    5.99    2.65
  -2   7  -8    4.69    1.23
  -3  -7  -8    3.28    1.94
  -3  -7  -8    1.63    1.00
  -3   7  -8    0.84    1.02
   3   7   8    2.00    2.62
  -4  -7  -8   27.23    3.94
  -4  -7  -8   24.71    3.17
   4   7   8   14.39    3.61
  -4   7  -8   23.35    2.72
  -5  -7  -8    2.10    1.45
  -5  -7  -8    3.92    2.15
   5   7   8   -2.03    2.28
  -5   7  -8    1.92    1.13
  -6  -7  -8    0.65    2.25
   6   7   8    1.13    3.23
  -6   7  -8    0.97    2.25
  -7  -7  -8    3.09    2.02
  -7   7  -8   -2.19    1.45
   7   7   8   -0.33    2.83
  -7   7  -8   -0.47    2.57
  -8  -7  -8    1.54    2.14
   8   7   8    4.25    3.27
  -8  -8   8    8.23    4.24
  -8   8   8    9.35    2.38
  -7  -8   8    1.56    3.34
  -7   8   8   -0.02    1.90
  -6  -8   8    0.32    2.77
  -6   8   8    0.79    1.51
  -5  -8   8    2.40    2.30
  -5  -8   8    3.10    1.72
  -5   8   8    2.32    1.48
   4  -8  -8   17.17    2.68
  -4  -8   8   16.13    2.46
  -4  -8   8   14.16    2.98
  -4   8   8   12.34    2.22
   3  -8  -8    7.57    2.05
  -3  -8   8    9.16    1.58
  -3  -8   8    7.06    2.58
   3   8  -8    7.36    2.10
  -3   8   8    6.65    1.87
  -2  -8   8   -2.02    1.79
   2  -8  -8   -1.05    0.71
   2  -8  -8   -2.05    1.42
  -2  -8   8    0.81    0.95
  -2   8   8    0.34    1.53
   2   8  -8    1.77    1.47
   1  -8  -8   13.49    1.88
  -1  -8   8   11.22    2.44
   1  -8  -8   15.31    2.75
  -1  -8   8   11.35    1.52
  -1   8   8   12.07    2.23
   1   8  -8   14.53    2.27
   0  -8   8    1.60    1.62
   0  -8  -8    2.39    1.06
   0  -8   8    5.35    1.49
   0  -8  -8    2.73    2.02
   0   8   8    3.83    1.95
   0   8  -8    3.03    1.36
  -1  -8  -8   11.16    1.79
  -1  -8  -8   15.24    2.92
   1  -8   8   14.04    2.12
  -1   8  -8   14.57    2.28
   1   8   8   11.07    2.79
  -2  -8  -8    8.08    2.64
   2  -8   8    3.31    1.03
  -2  -8  -8    1.83    1.09
  -2   8  -8    3.34    1.16
   2   8   8    6.26    2.80
   3  -8   8   16.31    1.56
  -3  -8  -8   17.56    2.46
  -3  -8  -8   19.42    3.19
   3   8   8   20.56    4.02
  -3   8  -8   17.27    2.46
  -4  -8  -8   46.17    5.26
  -4  -8  -8   41.55    4.44
  -4   8  -8   40.43    3.91
   4   8   8   37.72    5.69
  -5  -8  -8    0.67    1.27
   5   8   8    2.85    3.06
  -5   8  -8    2.03    1.28
  -6  -8  -8    0.13    1.66
   6   8   8   -1.94    2.79
  -6   8  -8    2.23    1.53
  -7  -8  -8    1.31    1.98
  -7   8  -8   -0.20    1.45
  -7   8  -8   -3.04    2.39
   7   8   8   -1.41    2.72
  -8  -9   8    2.17    3.59
  -8   9   8    0.94    1.89
  -7  -9   8   -2.25    2.96
  -7   9   8    1.26    1.78
  -6  -9   8    0.61    2.70
  -6   9   8    3.21    1.91
  -5  -9   8    0.99    2.80
  -5  -9   8    3.01    1.74
  -5   9   8    2.52    1.77
  -4  -9   8   25.53    4.27
  -4  -9   8   27.44    3.19
  -4   9   8   25.01    3.49
  -3  -9   8   -0.15    1.89
   3  -9  -8   -0.46    1.83
  -3  -9   8    2.99    1.31
  -3   9   8   -0.38    1.55
   2  -9  -8   16.79    2.13
  -2  -9   8   17.11    3.35
   2  -9  -8   19.21    3.33
  -2  -9   8   15.47    2.10
  -2   9   8   16.23    2.77
   2   9  -8   24.14    3.28
   1  -9  -8    8.16    2.56
   1  -9  -8    9.31    1.57
  -1  -9   8   12.74    1.95
  -1  -9   8    7.40    2.23
  -1   9   8    6.53    2.16
   1   9  -8    9.84    3.18
   0  -9  -8   91.33    7.67
   0  -9   8   80.20    6.74
   0  -9   8   87.56    7.56
   0   9  -8   72.74    6.81
   0   9   8   67.15    7.21
  -1  -9  -8    3.09    2.17
  -1  -9  -8    2.15    1.17
   1  -9   8    1.92    1.48
   1   9   8   -2.22    2.24
  -1   9  -8    1.28    1.24
   1   9   8    5.06    2.45
  -2  -9  -8    4.97    1.50
  -2  -9  -8   13.40    2.81
   2  -9   8    9.31    1.62
  -2   9  -8    7.59    1.67
   2   9   8   14.96    3.16
  -3  -9  -8    1.55    2.86
   3  -9   8    0.48    0.73
  -3  -9  -8    0.95    1.20
   3   9   8   -0.31    2.28
  -3   9  -8    2.40    1.12
  -4  -9  -8   15.04    2.51
  -4   9  -8   13.15    1.98
   4   9   8   29.15    4.76
  -5  -9  -8    1.76    1.68
   5   9   8   -1.89    3.32
  -5   9  -8   -0.50    1.20
  -6  -9  -8    0.95    1.56
  -6   9  -8   -2.76    1.19
   6   9   8   -1.71    3.02
  -7  -9  -8    5.22    2.20
  -7   9  -8    1.68    1.62
   7   9   8    1.31    3.05
  -7 -10   8    0.42    3.41
  -7  10   8    1.07    2.07
  -6 -10   8    4.34    2.96
  -6  10   8    2.07    1.83
  -5 -10   8   -3.39    4.53
  -5 -10   8    1.15    1.81
  -5  10   8   -1.97    1.55
  -4 -10   8    2.37    2.33
  -4 -10   8    3.10    1.63
  -4  10   8    2.38    1.75
  -3 -10   8    7.21    2.86
  -3 -10   8    6.18    1.59
  -3  10   8    2.94    2.03
   2 -10  -8    2.19    3.73
  -2 -10   8    3.27    2.19
   2 -10  -8    2.38    1.11
  -2 -10   8    4.57    1.63
   2  10  -8    3.53    1.72
  -2  10   8    2.69    1.96
   1 -10  -8    1.85    1.15
  -1 -10   8    0.12    1.97
  -1 -10   8    3.11    1.51
  -1  10   8    0.82    1.91
   1  10  -8    3.93    1.53
   0 -10  -8    2.46    1.22
   0 -10   8    4.72    1.63
   0 -10   8   -0.61    2.01
   0  10   8    0.29    2.18
   0  10  -8    1.76    1.33
  -1 -10  -8    1.06    1.23
   1 -10   8    4.41    1.83
   1  10   8    1.52    2.28
  -1  10  -8    2.22    2.21
   1  10   8    3.96    2.18
   2 -10   8   10.20    2.03
  -2 -10  -8   11.05    2.14
  -2  10  -8   11.60    2.10
   2  10   8   16.30    3.23
   3 -10   8    8.30    1.38
  -3 -10  -8    6.77    1.80
   3  10   8    8.62    3.38
  -3  10  -8   10.16    1.86
  -4 -10  -8   10.58    2.33
   4  10   8   13.49    3.53
  -4  10  -8    8.65    2.66
  -5 -10  -8   -0.47    1.60
   5  10   8    0.03    2.84
  -5  10  -8   -0.34    1.24
  -6 -10  -8   -0.72    1.79
   6  10   8    2.12    3.10
  -6  10  -8    0.31    1.41
  -7 -10  -8    0.35    1.76
   7  10   8    1.18    3.42
  -7  10  -8   -3.32    1.59
  -7 -11   8   -3.63    3.18
  -7  11   8   -0.35    1.99
  -6 -11   8    4.17    2.87
  -6  11   8    3.07    2.27
  -5 -11   8    0.12    2.45
  -5  11   8    2.31    2.11
  -4 -11   8    6.00    2.03
  -4  11   8    7.40    2.15
  -3 -11   8    0.06    2.18
  -3  11   8   -0.97    1.90
  -2 -11   8   27.32    4.11
   2 -11  -8   25.02    2.89
  -2 -11   8   23.53    3.46
  -2  11   8   21.80    3.54
  -1 -11   8    0.31    2.29
  -1 -11   8    4.83    1.71
   1 -11  -8    2.58    1.51
  -1  11   8   -0.18    1.90
   0 -11   8   18.68    3.51
   0 -11   8   25.66    3.31
   0 -11  -8   17.25    2.56
   0  11   8   20.56    3.69
   0  11  -8   21.62    3.11
  -1 -11  -8    4.33    1.65
   1 -11   8    8.54    2.16
   1  11   8    7.12    2.78
  -1  11  -8    4.60    1.56
   1  11   8    3.91    2.55
  -2 -11  -8    4.31    1.61
   2 -11   8    7.70    2.06
  -2  11  -8    7.39    1.78
   2  11   8   13.42    3.38
   3 -11   8    5.26    1.41
  -3 -11  -8    7.95    2.10
   3  11   8    9.77    3.25
  -3  11  -8    4.47    1.50
   4  11   8    4.43    3.23
  -4  11  -8    2.13    1.48
  -5 -11  -8    0.30    1.58
  -5  11  -8    2.58    1.47
   5  11   8    2.92    3.57
  -6 -11  -8    1.58    1.77
   6  11   8   -2.10    3.07
  -6  11  -8   -1.29    1.46
  -6 -12   8    6.27    3.22
  -6  12   8    6.95    2.60
  -5 -12   8   -0.95    2.53
  -5  12   8    0.66    2.06
  -4 -12   8   -0.21    2.67
  -4  12   8    2.67    2.11
  -3  12   8    4.22    2.57
   2 -12  -8    6.83    1.57
  -2 -12   8    3.59    2.36
  -2 -12   8    6.78    2.16
  -2  12   8    1.59    2.02
  -1 -12   8    1.88    1.72
   1 -12  -8    0.89    1.24
  -1 -12   8    1.26    2.34
  -1  12   8    1.88    1.99
   0 -12  -8    6.63    1.73
   0 -12   8   12.91    2.29
   0 -12   8    4.84    2.70
   0  12   8    7.99    2.93
  -1 -12  -8    1.08    1.42
   1 -12   8    6.52    2.06
   1  12   8    1.99    2.61
  -2 -12  -8    0.40    1.49
   2 -12   8    1.91    1.93
   2  12   8    3.13    2.58
  -2  12  -8    4.94    1.71
  -3 -12  -8    0.16    1.54
   3 -12   8   -1.25    1.33
  -3  12  -8    1.31    1.38
   3  12   8    0.18    4.03
  -4 -12  -8   -0.37    1.57
   4 -12   8    1.78    1.33
  -4  12  -8    3.31    1.48
   4  12   8    5.27    3.46
  -5 -12  -8    0.07    1.87
  -5  12  -8   -0.36    1.46
   5  12   8   -1.47    3.09
  -5 -13   8   -0.50    2.56
  -5  13   8    0.94    2.13
  -4 -13   8    6.23    3.42
  -4  13   8    2.25    2.09
  -3 -13   8    3.29    2.62
  -3  13   8    3.49    2.17
   2 -13  -8   -0.64    1.27
  -2 -13   8   -2.41    2.38
  -2  13   8   -0.26    2.22
  -1 -13   8   14.76    3.63
   1 -13  -8   12.89    2.24
  -1 -13   8   17.09    2.88
  -1  13   8   14.01    3.20
   0 -13   8   -0.49    2.34
   0 -13   8    7.17    2.25
   0 -13  -8    1.46    1.46
   0  13   8    5.01    2.50
   0  13   8    2.75    2.67
   1 -13   8    6.91    2.46
  -1 -13  -8    1.62    1.48
   1  13   8    6.31    2.63
  -2 -13  -8    3.09    1.79
   2 -13   8    9.38    2.37
  -3 -13  -8    3.57    2.00
   3 -13   8    2.39    1.88
   3  13   8    6.65    2.91
   4 -13   8    0.15    1.67
  -4 -13  -8   -0.03    1.55
   4  13   8   -1.35    2.87
  -5 -13  -8    1.69    1.69
   5  13   8   -0.95    2.89
  -4 -14   8    1.64    2.98
  -4  14   8   -1.22    1.95
  -3 -14   8    1.15    2.54
  -3  14   8   -0.09    2.12
   2 -14  -8    5.02    1.93
  -2 -14   8    4.68    2.76
  -2  14   8    4.36    2.41
  -1 -14   8   -2.54    2.61
   1 -14  -8    0.08    1.46
  -1  14   8    0.04    2.49
   0 -14  -8    4.20    1.74
   0 -14   8   11.39    3.15
   0  14   8    5.05    2.76
   1 -14   8    9.73    2.66
   1  14   8    6.35    2.73
   2 -14   8    9.96    2.73
  -2 -14  -8    1.80    2.97
   2  14   8    5.64    2.82
  -3 -14  -8   -1.36    1.64
   3  14   8    0.08    2.89
  -4 -14  -8    1.55    1.79
   4 -14   8   -3.88    2.13
   4  14   8   -0.68    2.84
  -3 -15   8    0.85    2.54
  -3  15   8   -1.34    2.25
   2 -15  -8   -1.44    2.12
  -2 -15   8   -5.13    2.28
  -2  15   8    0.57    2.39
   1 -15  -8   -0.83    1.52
  -1 -15   8    2.21    2.79
  -1  15   8   -0.75    2.15
  -1  15   8    1.11    2.59
   0 -15  -8    1.68    1.63
   0 -15   8   -2.03    2.57
   0  15   8    3.36    2.42
  -1 -15  -8   -0.54    1.53
   1  15   8    3.63    2.39
   2 -15   8   -0.75    2.95
  -2 -15  -8    0.78    1.52
   2  15   8    4.95    2.92
  -9   0   9   -0.46    1.64
  -9   0   9    1.02    1.71
  -8   0   9    1.50    1.53
  -8   0   9    0.37    2.00
  -7   0   9    9.50    1.83
  -7   0   9    9.30    1.96
   7   0  -9    8.07    1.79
  -6   0   9    2.70    1.19
   6   0  -9    2.41    1.51
  -6   0   9    1.39    1.22
  -5   0   9    0.49    1.24
  -5   0   9    1.31    0.96
  -5   0   9    1.51    1.05
   5   0  -9    0.65    1.35
  -4   0   9    1.30    0.86
  -4   0   9    2.61    0.87
   4   0  -9    0.20    1.11
   3   0  -9    0.35    0.95
  -3   0   9    1.87    0.79
  -3   0   9    1.34    0.72
  -2   0   9   11.35    1.51
   2   0  -9   14.11    1.79
   1   0  -9    1.92    0.58
  -1   0   9    0.70    0.62
   1   0  -9    0.66    0.66
   0   0  -9    0.06    0.44
   0   0   9    0.10    0.60
  -1   0  -9    0.60    0.46
   1   0   9   -0.06    0.92
  -2   0  -9    4.91    0.78
   2   0   9    3.23    1.65
  -3   0  -9   -0.50    0.76
   3   0   9    0.42    1.23
   4   0   9    3.03    1.65
  -4   0  -9    0.51    1.26
  -5   0  -9   -0.40    1.46
   5   0   9    3.60    1.47
   6   0   9    2.93    1.47
  -6   0  -9   -1.82    1.50
  -7   0  -9    1.38    1.58
   7   0   9    2.74    1.64
  -7   0  -9   -3.39    1.55
  -8   0  -9    5.71    2.12
  -8   0  -9    3.11    3.69
  -8   0  -9    2.44    1.34
   8   0   9    6.77    2.60
  -9   0  -9    0.18    2.17
  -9   0  -9    1.37    1.85
  -9   0  -9    1.30    1.45
   9   0   9    1.74    1.97
  -9  -1   9    2.21    2.01
  -9  -1   9   -1.57    1.87
  -9   1   9   -1.03    1.78
  -9   1   9    2.07    1.50
  -8  -1   9    8.13    2.13
  -8  -1   9    5.45    1.97
  -8   1   9    8.85    1.69
   8   1  -9    7.98    2.74
  -8   1   9   10.88    2.62
  -7  -1   9    3.65    1.78
   7  -1  -9    2.79    1.34
  -7  -1   9    3.47    1.76
  -7   1   9    5.01    1.29
   7   1  -9    4.49    1.81
  -7   1   9    4.51    1.58
   6  -1  -9   48.91    4.66
  -6  -1   9   45.69    4.75
  -6  -1   9   45.32    4.56
  -6  -1   9   60.49    5.00
   6   1  -9   48.08    5.19
  -6   1   9   46.61    4.51
  -6   1   9   48.95    4.33
  -5  -1   9    0.58    1.13
   5  -1  -9   -0.23    1.19
  -5  -1   9    0.19    1.23
  -5  -1   9   -0.52    1.01
   5   1  -9   -0.41    1.41
  -5   1   9    0.59    1.04
  -5   1   9    0.55    0.78
   4  -1  -9   10.87    1.96
  -4  -1   9   16.55    2.25
  -4  -1   9   15.61    1.98
  -4   1   9   16.04    1.99
   4   1  -9   14.30    2.33
  -3  -1   9    0.79    0.73
   3  -1  -9    0.56    0.90
  -3  -1   9    1.85    0.88
  -3   1   9   -0.25    0.79
   3   1  -9    1.35    1.68
  -2  -1   9  214.21   16.13
   2  -1  -9  217.52   16.15
   2  -1  -9  212.61   16.22
   2   1  -9  211.34   16.35
  -2   1   9  208.81   16.16
   1  -1  -9    0.91    0.60
  -1  -1   9    0.97    0.57
  -1   1   9    0.37    0.65
   1   1  -9    0.26    0.75
   0  -1  -9    9.78    1.21
   0  -1   9    8.80    1.15
   0   1   9    8.66    1.29
   0   1  -9    8.92    1.00
   0   1  -9    9.63    2.08
   1  -1   9   39.24    3.57
  -1  -1  -9   46.53    3.54
   1   1   9   37.95    3.91
  -1   1  -9   44.37    3.32
   2  -1   9   32.23    3.35
  -2  -1  -9   33.41    2.95
  -2   1  -9   32.50    2.55
   2   1   9   28.50    3.93
  -3  -1  -9    1.93    1.19
   3  -1   9    3.65    1.19
  -3   1  -9    2.25    0.63
   3   1   9    3.10    1.70
   4  -1   9    1.59    1.04
  -4  -1  -9    0.30    1.40
  -4   1  -9   -0.40    0.96
   4   1   9    2.28    1.49
   5  -1   9   20.41    2.57
  -5  -1  -9   18.88    2.98
   5   1   9   22.14    3.09
  -6  -1  -9    2.06    1.78
   6  -1   9    1.95    1.34
  -6   1  -9   -0.74    1.51
  -6   1  -9    2.40    2.60
   6   1   9    1.99    1.50
  -7  -1  -9   -1.09    1.35
   7  -1   9    0.88    1.36
  -7  -1  -9    0.17    1.71
   7   1   9    2.35    1.77
  -7   1  -9   -2.17    1.63
  -7   1  -9   -0.38    0.96
   8  -1   9    2.46    1.64
  -8  -1  -9    0.12    1.64
  -8  -1  -9   -0.84    2.75
  -8   1  -9    1.99    1.97
   8   1   9    4.04    2.15
  -8   1  -9    1.46    1.75
  -8   1  -9    2.32    1.28
  -9  -1  -9    0.86    2.18
  -9  -1  -9   -0.58    1.38
  -9   1  -9    0.20    1.37
  -9   1  -9   -0.76    1.97
  -9   1  -9    1.08    2.32
   9   1   9    3.54    2.36
  -9  -2   9    3.47    2.34
  -9  -2   9    3.63    2.03
  -9   2   9    3.97    2.02
  -8  -2   9    1.65    1.73
  -8  -2   9    1.34    2.09
  -8   2   9    2.66    1.81
  -8   2   9    3.88    1.19
   8   2  -9    2.59    2.33
  -7  -2   9   14.19    2.85
  -7  -2   9   15.17    2.43
  -7   2   9   14.66    2.02
  -7   2   9   12.20    2.30
   7   2  -9   14.15    2.78
   6  -2  -9    4.83    1.22
  -6  -2   9    6.08    1.63
  -6  -2   9    3.26    1.66
  -6  -2   9    6.08    1.80
  -6   2   9    4.06    0.95
  -6   2   9    4.13    1.48
   6   2  -9    2.37    2.05
  -5  -2   9   28.65    3.01
   5  -2  -9   27.60    2.97
  -5  -2   9   30.07    3.17
  -5  -2   9   30.31    3.63
   5   2  -9   18.72    3.21
  -5   2   9   28.32    2.93
  -4  -2   9    1.71    1.04
   4  -2  -9    0.54    1.02
  -4  -2   9    1.52    1.18
  -4  -2   9    3.58    1.34
   4   2  -9    1.43    1.41
  -4   2   9    2.45    1.06
   3  -2  -9  140.57   11.42
  -3  -2   9  162.56   11.61
   3  -2  -9  144.52   11.35
  -3  -2   9  148.54   11.35
  -3   2   9  147.96   11.68
   3   2  -9  139.51   11.69
  -2  -2   9   88.53    6.91
   2  -2  -9   86.93    6.96
   2  -2  -9   86.57    6.96
  -2  -2   9   93.20    7.18
   2   2  -9   88.80    7.19
  -2   2   9   86.54    6.99
   1  -2  -9   11.14    1.50
  -1  -2   9   12.85    1.35
  -1   2   9   11.51    1.64
   0  -2  -9   28.38    2.49
   0  -2   9   25.96    2.24
   0   2   9   26.14    2.72
   0   2  -9   26.33    2.61
  -1  -2  -9  147.05   10.93
   1  -2   9  136.31   10.71
   2  -2   9  170.91   12.64
  -2  -2  -9  187.22   12.79
   2   2   9  144.75   13.31
   2   2   9  148.22   13.00
  -3  -2  -9    1.46    1.33
   3  -2   9    2.02    0.90
   3   2   9   -0.34    1.89
   4  -2   9   24.44    2.42
  -4  -2  -9   19.10    3.00
  -4   2  -9   25.16    1.83
  -4   2  -9   18.36    1.98
   4   2   9   24.48    3.47
  -5  -2  -9    2.91    1.79
   5  -2   9    6.96    1.44
   5   2   9    4.58    1.85
  -5   2  -9    1.45    1.21
  -5   2  -9    4.63    0.74
  -6  -2  -9   19.31    3.02
   6  -2   9   18.14    2.43
  -6  -2  -9   15.15    2.88
  -6   2  -9   11.36    2.27
  -6   2  -9   17.51    1.78
  -6   2  -9   13.30    3.63
   6   2   9   17.06    2.78
   7  -2   9    1.91    1.45
  -7  -2  -9    0.24    1.85
  -7  -2  -9    0.58    1.50
   7   2   9    0.90    1.73
  -7   2  -9    0.25    0.92
   8  -2   9    5.97    1.85
  -8  -2  -9    1.93    2.17
  -8  -2  -9    3.84    1.88
  -8   2  -9    7.04    2.12
  -8   2  -9   -0.52    1.88
   8   2   9    7.66    2.63
  -9  -2  -9    1.92    1.99
  -9   2  -9   -1.68    1.79
   9   2   9    3.06    2.22
  -9   2  -9   -1.71    2.48
  -9   2  -9   -0.47    1.27
  -9  -3   9   -1.54    2.34
  -9  -3   9    1.02    2.17
  -9   3   9    2.54    1.86
  -8  -3   9   10.56    2.92
  -8  -3   9    7.33    2.39
  -8   3   9    6.86    1.94
  -7  -3   9    2.14    1.54
  -7  -3   9    3.45    2.34
  -7   3   9    1.00    1.42
   7   3  -9    1.44    2.15
  -6  -3   9   79.79    7.02
  -6  -3   9   96.73    7.86
  -6  -3   9   82.16    6.93
  -6   3   9   78.63    6.79
   6   3  -9   67.38    7.59
  -5  -3   9    0.48    1.64
  -5  -3   9   -0.96    1.18
  -5  -3   9   -0.12    1.09
   5  -3  -9    0.18    0.76
   5   3  -9    0.58    1.65
  -5   3   9    1.77    1.16
  -4  -3   9   21.54    2.49
   4  -3  -9   18.77    2.38
  -4  -3   9   27.14    3.25
   4  -3  -9   21.07    2.30
   4   3  -9   16.53    2.72
  -4   3   9   20.84    2.38
  -3  -3   9    1.65    0.96
  -3  -3   9    1.91    1.41
   3  -3  -9    1.39    0.85
   3  -3  -9    1.71    0.88
   3   3  -9    0.64    1.09
  -3   3   9    1.25    0.99
  -2  -3   9  273.96   19.68
  -2  -3   9  261.99   19.36
   2  -3  -9  251.35   19.35
   2  -3  -9  259.37   19.45
   2   3  -9  238.10   19.61
  -2   3   9  251.73   19.45
   1  -3  -9    0.75    0.84
  -1  -3   9    1.75    0.58
  -1  -3   9    2.33    1.00
   1   3  -9    2.22    0.85
  -1   3   9    1.59    0.86
   0  -3  -9   24.63    3.53
   0  -3   9   24.74    2.03
   0   3   9   21.98    2.67
   0   3  -9   23.38    2.47
   1  -3   9   68.56    5.16
  -1  -3  -9   76.60    5.73
   1   3   9   54.70    5.87
  -1   3  -9   68.45    5.55
  -2  -3  -9   57.82    5.14
   2  -3   9   50.02    4.06
   2   3   9   41.04    5.07
   2   3   9   47.53    6.78
  -3  -3  -9    0.23    1.50
   3  -3   9    1.01    0.72
   3   3   9    0.46    2.09
  -4  -3  -9    1.59    1.74
   4  -3   9    3.54    1.03
   4   3   9    3.52    2.05
  -5  -3  -9   36.99    4.38
  -5  -3  -9   41.82    3.92
   5  -3   9   38.80    3.51
   5   3   9   35.01    4.45
  -5   3  -9   28.74    2.90
  -6  -3  -9    0.72    1.36
   6  -3   9    0.49    1.09
  -6  -3  -9    0.49    1.76
  -6   3  -9   -1.98    1.11
  -6   3  -9    0.65    0.60
   6   3   9    0.72    1.82
  -6   3  -9    0.45    2.52
   7  -3   9    0.82    1.25
  -7  -3  -9    0.79    1.73
  -7  -3  -9    0.64    2.18
  -7   3  -9   -1.58    1.41
  -7   3  -9   -0.96    2.98
  -7   3  -9    1.74    0.86
   7   3   9    5.01    2.28
  -8  -3  -9    2.22    1.78
   8   3   9    4.02    2.30
  -8   3  -9   -0.08    1.56
  -8   3  -9   -4.10    1.90
  -8   3  -9    2.12    1.09
  -9  -4   9    7.74    2.57
  -9  -4   9    2.35    4.33
  -9   4   9    7.25    2.15
  -8  -4   9   -0.57    1.74
  -8  -4   9   -2.52    2.55
  -8   4   9    2.38    1.79
  -7  -4   9    2.01    2.43
  -7  -4   9    0.18    1.62
  -7   4   9    1.26    1.61
   7   4  -9    4.50    2.84
  -6  -4   9    2.90    1.69
  -6  -4   9    0.11    2.26
  -6   4   9    2.76    1.36
   6   4  -9   -0.31    1.86
   5  -4  -9   34.27    3.40
  -5  -4   9   31.53    3.51
  -5  -4   9   33.21    4.71
   5  -4  -9   35.15    2.71
   5   4  -9   30.20    4.29
  -5   4   9   32.50    3.42
   4  -4  -9   -0.48    0.68
  -4  -4   9    0.55    1.19
   4  -4  -9    0.60    0.90
  -4  -4   9   -0.02    1.40
   4   4  -9    1.62    1.47
  -4   4   9    0.53    1.04
   3  -4  -9   17.55    1.93
   3  -4  -9   15.63    2.09
  -3  -4   9   16.97    1.98
  -3  -4   9   16.74    2.46
   3   4  -9   14.20    2.24
  -3   4   9   16.36    2.12
   2  -4  -9    9.47    1.52
  -2  -4   9   10.94    1.44
  -2  -4   9   11.61    3.00
  -2   4   9    9.71    1.84
   2   4  -9    9.58    1.75
  -1  -4   9   22.41    2.62
   1  -4  -9   16.51    2.26
  -1   4   9   17.70    2.36
   1   4  -9   20.83    2.39
   0  -4   9    2.50    0.56
   0  -4  -9    2.52    1.07
   0   4   9    3.33    1.34
   0   4  -9    3.25    1.03
  -1  -4  -9   35.14    3.28
   1  -4   9   24.15    2.41
   1  -4   9   28.97    2.19
   1   4   9   21.02    3.37
  -1   4  -9   30.09    2.82
   2  -4   9   13.47    1.37
  -2  -4  -9   12.47    2.22
   2   4   9    9.54    2.46
  -2   4  -9   15.99    1.95
   2   4   9   11.83    3.16
  -3  -4  -9    1.20    1.71
   3  -4   9    1.75    0.68
   3   4   9   -0.63    2.23
  -4  -4  -9   20.57    3.25
   4  -4   9   18.04    1.92
  -4  -4  -9   18.22    2.71
   4   4   9   15.36    3.21
  -5  -4  -9    4.37    2.07
   5  -4   9    4.93    1.16
  -5  -4  -9    3.28    1.37
   5   4   9    4.21    2.45
  -6  -4  -9    0.69    1.50
  -6  -4  -9   -1.56    1.69
   6   4   9    1.72    2.08
  -6   4  -9   -2.40    2.37
  -7  -4  -9    0.39    1.98
  -7  -4  -9    0.97    2.33
  -7   4  -9   -2.81    1.13
  -7   4  -9   -1.72    4.43
  -7   4  -9   -0.23    0.65
  -8  -4  -9    2.26    1.98
   8   4   9    6.19    3.05
  -8   4  -9    0.94    1.54
  -9  -5   9   -3.47    2.10
  -9  -5   9   -1.19    2.87
  -9   5   9    0.34    1.70
  -8  -5   9   -0.58    2.90
  -8   5   9    1.31    1.68
  -7  -5   9    1.03    2.89
  -7   5   9    2.09    1.55
  -6  -5   9    1.10    1.49
  -6  -5   9    0.38    2.15
   6   5  -9    2.86    2.32
  -6   5   9    2.53    1.38
   5  -5  -9    1.30    1.11
  -5  -5   9   -0.93    2.00
  -5  -5   9    0.93    1.40
  -5   5   9    0.45    1.23
   4  -5  -9    2.37    1.13
  -4  -5   9    0.75    1.67
  -4  -5   9   -0.49    1.05
  -4   5   9    1.85    1.30
   4   5  -9    2.21    1.60
   3  -5  -9    2.61    1.19
  -3  -5   9    3.61    1.11
   3  -5  -9    3.67    0.83
  -3  -5   9    1.08    1.65
   3   5  -9    1.52    1.29
  -3   5   9    4.69    1.34
  -2  -5   9   11.37    2.03
   2  -5  -9    9.44    1.66
  -2  -5   9   11.11    1.41
  -2   5   9   11.17    1.81
   2   5  -9    8.12    1.73
  -1  -5   9   11.33    1.85
   1  -5  -9   15.29    2.11
  -1  -5   9   10.87    1.30
  -1   5   9   10.16    1.82
   1   5  -9   13.31    2.07
   0  -5  -9    8.74    1.74
   0  -5   9    8.20    0.91
   0   5   9    6.33    2.95
   0   5  -9    9.00    1.44
   1  -5   9    1.95    0.74
  -1  -5  -9    1.53    1.50
  -1   5  -9    2.37    1.01
   1   5   9   -0.15    1.80
  -2  -5  -9    0.13    1.47
   2  -5   9    2.01    0.39
   2   5   9    1.57    2.36
  -2   5  -9    1.96    0.95
   2   5   9    1.45    2.40
  -3  -5  -9   18.55    2.41
  -3  -5  -9   15.09    2.93
   3   5   9   19.44    4.03
  -3   5  -9   15.54    2.27
  -4  -5  -9    6.07    2.19
  -4  -5  -9    5.15    1.52
   4   5   9    8.22    2.99
  -5  -5  -9    1.15    1.19
  -5  -5  -9    2.50    2.01
   5   5   9    1.92    2.62
  -6  -5  -9   -0.06    1.37
  -6  -5  -9    5.81    2.07
   6   5   9   -0.40    2.09
  -7  -5  -9    2.12    1.77
   7   5   9    0.38    1.99
  -7   5  -9   -5.05    2.82
  -8  -5  -9    0.43    1.97
  -8   5  -9   -1.48    0.93
   8   5   9   -0.82    2.82
  -9  -6   9    0.14    2.33
  -9  -6   9   -2.06    3.67
  -9   6   9    4.25    2.22
  -8  -6   9   -2.22    2.88
  -8   6   9    1.56    1.84
  -7  -6   9   -2.24    2.69
  -7   6   9   -0.23    1.61
  -6  -6   9   -0.61    2.39
  -6   6   9    1.23    1.42
  -5  -6   9   10.41    2.09
   5  -6  -9    8.72    1.91
  -5  -6   9    3.50    2.72
   5   6  -9    8.46    2.55
  -5   6   9    8.37    1.76
  -4  -6   9   -0.98    2.05
   4  -6  -9   -0.17    1.60
  -4  -6   9    0.35    1.13
  -4   6   9   -0.17    1.28
   4   6  -9    1.48    2.50
   3  -6  -9    7.21    0.97
  -3  -6   9    7.20    1.31
   3  -6  -9    6.21    0.99
  -3  -6   9    2.19    1.80
   3  -6  -9    8.06    1.65
   3   6  -9    3.90    1.54
  -3   6   9    6.75    1.64
   2  -6  -9   12.94    2.14
  -2  -6   9   12.15    1.52
  -2  -6   9    8.65    2.06
   2  -6  -9   12.03    1.41
  -2   6   9   12.31    2.02
   2   6  -9    9.07    1.77
  -1  -6   9   16.19    1.70
  -1  -6   9   21.02    3.13
   1  -6  -9   22.16    2.81
  -1   6   9   19.30    2.54
   1   6  -9   17.79    2.53
   0  -6  -9   10.01    1.58
   0  -6  -9   10.41    2.20
   0  -6   9    8.46    0.89
   0  -6   9   11.05    1.84
   0   6   9    8.19    1.94
   0   6  -9   10.35    1.62
   1  -6   9    8.00    1.30
  -1  -6  -9    6.52    1.94
   1   6   9    4.73    2.05
  -1   6  -9    6.25    1.21
  -2  -6  -9   34.90    3.26
  -2  -6  -9   26.95    4.05
  -2   6  -9   30.75    3.23
   2   6   9   30.72    4.30
   2   6   9   34.25    4.86
  -3  -6  -9    0.77    1.82
  -3  -6  -9    0.81    1.17
  -3   6  -9    0.24    0.96
   3   6   9    1.41    2.85
  -4  -6  -9   10.11    2.48
  -4  -6  -9    9.67    1.93
  -4   6  -9   11.31    1.76
   4   6   9    7.13    2.97
  -5  -6  -9   -0.23    1.15
  -5  -6  -9    2.36    2.08
   5   6   9   -0.81    2.23
  -5   6  -9   -0.84    1.06
  -6  -6  -9    2.61    1.73
   6   6   9    6.41    2.97
  -7  -6  -9    0.91    1.58
   7   6   9   -0.10    2.54
  -8  -6  -9    1.65    2.23
   8   6   9    7.70    3.50
  -8  -7   9    1.54    3.52
  -8   7   9    3.68    2.11
  -7   7   9    0.72    1.93
  -6  -7   9    5.21    2.79
  -6   7   9    7.31    2.00
  -5  -7   9   -3.49    2.31
  -5   7   9   -0.43    1.52
   4  -7  -9   16.68    2.54
  -4  -7   9   16.35    2.40
  -4  -7   9   15.88    3.46
  -4   7   9   16.18    2.46
   4   7  -9   15.89    2.81
  -3  -7   9    3.66    2.34
   3  -7  -9    3.88    0.71
   3  -7  -9    2.30    0.77
  -3  -7   9    4.81    1.28
   3  -7  -9    3.50    2.31
  -3   7   9    4.04    1.50
   2  -7  -9   31.54    2.63
  -2  -7   9   27.98    2.68
  -2  -7   9   30.76    4.23
   2  -7  -9   31.12    3.54
  -2   7   9   24.99    3.29
   2   7  -9   24.14    3.44
  -1  -7   9    9.32    1.32
   1  -7  -9   12.03    1.65
   1  -7  -9   14.47    2.36
  -1  -7   9   11.55    2.46
  -1   7   9    9.79    2.08
   1   7  -9   10.75    1.88
   0  -7   9    9.50    2.10
   0  -7  -9    8.77    2.23
   0  -7  -9    7.75    1.27
   0  -7   9    8.44    1.44
   0   7   9    6.39    2.09
   0   7  -9    7.99    1.63
   1  -7   9    1.15    1.15
  -1  -7  -9    0.10    0.83
  -1  -7  -9   -0.48    1.77
  -1   7  -9    1.11    1.03
   1   7   9   -0.36    2.05
  -2  -7  -9    3.98    1.16
  -2  -7  -9    4.67    2.09
   2  -7   9    4.23    0.60
  -2   7  -9    4.45    1.27
   2   7   9    5.83    2.59
  -3  -7  -9   20.21    2.89
  -3  -7  -9   26.82    3.77
  -3   7  -9   21.16    2.71
   3   7   9   25.36    4.30
  -4  -7  -9    3.68    2.14
  -4  -7  -9   -0.20    1.12
  -4   7  -9    0.47    1.13
   4   7   9   -0.92    2.38
  -5  -7  -9   -0.11    1.32
  -5  -7  -9    4.14    3.23
  -5   7  -9   -2.21    1.92
   5   7   9   -1.16    2.77
  -6  -7  -9    1.07    1.49
   6   7   9   -1.21    2.55
  -6   7  -9   -0.78    1.37
  -7  -7  -9   -0.50    1.76
   7   7   9    4.21    3.26
  -8  -7  -9   -0.20    2.12
   8   7   9    4.09    3.59
  -8  -8   9    0.85    3.84
  -8   8   9    0.79    1.94
  -7  -8   9   -2.64    3.30
  -7   8   9   -0.21    1.74
  -6  -8   9    0.64    2.87
  -6   8   9   -0.26    1.43
  -5  -8   9    1.73    1.59
  -5  -8   9   -2.77    2.64
  -5   8   9   -0.54    1.36
  -4  -8   9    9.78    1.85
   4  -8  -9    8.55    2.40
  -4  -8   9    6.17    2.79
  -4   8   9    6.50    1.78
   3  -8  -9    5.08    1.97
  -3  -8   9    5.35    1.33
  -3  -8   9    2.49    2.23
   3  -8  -9    3.01    0.74
  -3   8   9    1.23    1.53
  -2  -8   9   -0.75    1.65
   2  -8  -9   -0.75    1.91
   2  -8  -9    0.42    0.74
  -2  -8   9    0.81    0.90
  -2   8   9    0.15    1.49
   2   8  -9    0.63    1.61
  -1  -8   9    2.44    0.79
   1  -8  -9    2.57    1.84
  -1  -8   9    1.17    1.87
   1  -8  -9    0.99    0.87
  -1   8   9    2.34    1.75
   1   8  -9    2.57    1.44
   0  -8   9   43.90    4.56
   0  -8   9   33.73    3.53
   0  -8  -9   40.62    4.57
   0  -8  -9   37.42    3.52
   0   8   9   28.18    4.27
   0   8  -9   33.95    3.86
   1  -8   9    2.49    1.37
  -1  -8  -9    1.14    0.93
  -1  -8  -9   -2.19    2.00
  -1   8  -9    0.86    1.09
   1   8   9   -0.26    1.97
  -2  -8  -9    3.45    2.21
   2  -8   9    1.11    0.78
  -2  -8  -9    1.06    0.99
   2   8   9    3.10    2.41
  -2   8  -9    1.65    1.04
  -3  -8  -9    0.97    1.19
  -3  -8  -9   -0.02    2.08
  -3   8  -9    1.84    1.18
   3   8   9    1.40    2.97
  -4  -8  -9    7.80    3.58
  -4  -8  -9    3.52    1.38
  -4   8  -9    6.42    1.47
   4   8   9    6.42    3.16
  -5  -8  -9    3.39    1.71
   5   8   9   -0.43    2.97
  -5   8  -9   -0.43    1.24
  -6  -8  -9    1.03    1.69
   6   8   9   -1.88    2.85
  -6   8  -9    1.06    1.42
  -7  -8  -9    0.32    1.86
   7   8   9   -2.63    3.16
  -8   9   9    8.09    2.37
  -7  -9   9   -2.24    3.03
  -7   9   9   -0.22    1.73
  -6  -9   9    1.91    2.97
  -6   9   9   -0.28    2.14
  -5  -9   9   -2.43    2.34
  -5  -9   9    2.06    1.58
  -5   9   9    0.70    1.63
  -4  -9   9   24.18    2.98
  -4  -9   9   22.16    3.82
  -4   9   9   23.75    3.44
  -3  -9   9    1.49    1.17
  -3  -9   9    0.02    2.32
  -3   9   9   -0.23    1.50
  -2  -9   9    6.44    1.25
   2  -9  -9    4.43    1.10
  -2  -9   9    3.01    2.00
   2   9  -9    5.29    1.79
  -2   9   9    4.95    1.95
   1  -9  -9    0.51    0.94
  -1  -9   9   -3.22    1.96
  -1  -9   9    0.93    1.26
  -1   9   9   -0.60    1.70
   1   9  -9    3.15    1.52
   0  -9   9   12.96    1.96
   0  -9  -9   11.11    2.71
   0  -9  -9    9.47    1.65
   0  -9   9    9.01    2.48
   0   9   9   10.61    2.52
   0   9  -9   11.17    3.33
  -1  -9  -9   -0.46    1.95
   1  -9   9    1.81    1.44
  -1  -9  -9    0.18    1.08
   1   9   9   -0.98    2.05
  -1   9  -9    0.44    1.33
  -2  -9  -9    0.72    1.05
  -2  -9  -9    4.04    2.21
   2  -9   9    1.01    1.01
  -2   9  -9    1.24    1.18
   2   9   9    5.78    2.54
  -3  -9  -9   -0.07    1.15
   3   9   9    2.06    2.54
  -3   9  -9    1.46    1.32
  -4  -9  -9    1.07    1.36
   4   9   9    0.48    2.90
  -4   9  -9    0.34    1.31
  -5  -9  -9   -0.13    1.52
  -5   9  -9   -2.70    1.07
   5   9   9   -2.79    2.70
  -6  -9  -9    0.59    1.68
  -6   9  -9   -0.67    1.39
   6   9   9   -6.41    2.70
  -7  -9  -9    3.59    2.29
   7   9   9    1.09    3.24
  -7 -10   9   -2.31    3.20
  -7  10   9   -2.33    1.93
  -6 -10   9   -0.40    3.15
  -6  10   9   -1.33    1.71
  -5 -10   9    0.94    1.76
  -5 -10   9   -4.18    2.81
  -5  10   9   -0.85    1.95
  -4 -10   9    0.74    1.41
  -4 -10   9    2.26    2.58
  -4  10   9   -0.03    1.75
  -3 -10   9    2.22    2.29
  -3 -10   9    2.91    1.40
  -3  10   9    1.13    1.78
   2 -10  -9    1.24    1.02
  -2 -10   9    2.40    1.55
  -2 -10   9    1.85    2.27
  -2  10   9   -0.48    1.72
  -1 -10   9   -2.79    1.98
   1 -10  -9   -0.93    0.99
  -1 -10   9    2.12    1.36
   1  10  -9    3.82    1.63
  -1  10   9   -3.88    1.57
   0 -10   9   -1.14    2.07
   0 -10   9    2.32    1.43
   0 -10  -9   -0.30    1.03
   0  10   9    1.38    1.88
   0  10  -9    1.81    1.54
   1 -10   9    9.54    2.16
  -1 -10  -9    4.68    1.51
   1  10   9    2.30    2.68
   1  10   9    8.32    2.81
  -1  10  -9    4.21    1.63
   2 -10   9    3.45    1.44
  -2 -10  -9    3.55    1.50
   2  10   9    6.89    2.77
  -2  10  -9    4.43    1.41
   3 -10   9    0.54    0.75
  -3 -10  -9   -1.30    1.32
   3  10   9   -0.30    2.59
  -3  10  -9    1.91    1.28
  -4 -10  -9   -0.82    1.21
  -4  10  -9   -2.59    1.17
   4  10   9    2.62    3.95
  -5 -10  -9   -0.04    1.39
  -5  10  -9   -1.09    1.24
   5  10   9   -1.70    2.82
  -6 -10  -9   -0.85    1.68
   6  10   9    1.21    3.13
  -6 -11   9   -0.60    2.80
  -6  11   9    2.60    2.07
  -5 -11   9   -0.27    2.73
  -5  11   9   -2.42    1.82
  -4 -11   9   -0.82    2.31
  -4  11   9   -3.01    2.78
  -3 -11   9    5.09    1.72
  -3 -11   9    7.32    3.07
  -3  11   9    4.17    2.02
   2 -11  -9    0.52    1.04
  -2 -11   9    3.06    1.69
  -2 -11   9    1.53    2.50
  -2  11   9   -0.45    1.72
  -1 -11   9   -1.92    2.29
  -1 -11   9    3.61    1.62
   1 -11  -9   -0.59    1.74
  -1  11   9   -1.24    1.94
   0 -11  -9   -0.10    1.14
   0 -11   9   -2.07    2.26
   0 -11   9    3.22    1.60
   0  11   9    1.79    2.05
   1 -11   9   13.29    2.47
  -1 -11  -9    7.38    1.83
  -1  11  -9    7.19    2.02
   1  11   9   10.12    2.97
   1  11   9    8.71    2.81
  -2 -11  -9   -0.23    1.25
   2  11   9    1.23    2.72
  -2  11  -9    1.35    1.30
   3 -11   9    5.81    1.21
  -3 -11  -9    3.91    1.62
  -3  11  -9    3.04    1.57
   3  11   9    7.56    3.19
  -4 -11  -9    1.80    1.57
   4  11   9    3.47    3.28
  -4  11  -9    0.79    1.50
  -5 -11  -9    1.69    1.86
   5  11   9   -3.46    3.06
  -6 -11  -9    1.06    1.94
   6  11   9    3.15    3.46
  -6 -12   9   -1.32    2.85
  -6  12   9   -0.43    2.19
  -5 -12   9   -1.59    2.31
  -5  12   9    1.05    2.08
  -4 -12   9   -2.58    2.50
  -4 -12   9   -5.66    2.49
  -4  12   9    4.02    2.21
  -3 -12   9    0.52    2.31
  -3  12   9    2.84    2.08
   2 -12  -9    2.16    1.26
  -2 -12   9    5.33    2.11
  -2 -12   9   -0.75    2.38
  -2  12   9   -2.47    2.68
  -1 -12   9    2.87    2.07
  -1 -12   9   -0.43    2.29
   1 -12  -9    1.04    1.25
  -1  12   9   -1.70    2.05
   0 -12  -9   15.31    2.40
   0 -12   9   19.38    3.72
   0  12   9   19.63    3.50
   1 -12   9    3.88    2.03
  -1 -12  -9   -0.17    1.30
   1  12   9    2.82    2.56
   2 -12   9   14.27    2.42
  -2 -12  -9    9.88    2.23
   2  12   9   16.11    3.47
  -3 -12  -9   -0.77    1.56
   3 -12   9   -1.73    1.37
   3  12   9   -0.58    2.50
  -4 -12  -9    0.77    1.61
   4  12   9    2.93    3.18
  -5 -12  -9    1.03    1.67
   5  12   9    1.22    3.36
  -5 -13   9    0.91    3.00
  -5  13   9   -1.97    2.06
  -4 -13   9    5.45    3.30
  -4  13   9    2.59    2.21
  -3 -13   9    1.30    2.64
  -3  13   9    1.36    2.22
   2 -13  -9   11.75    1.93
  -2 -13   9   10.07    3.00
  -2  13   9    6.25    2.50
  -1 -13   9    8.02    2.10
   1 -13  -9   -0.02    1.28
  -1  13   9    1.72    2.27
   0 -13  -9    1.05    1.39
   0 -13   9   -1.26    2.31
   0 -13   9    8.73    3.71
   0  13   9    1.32    2.44
   0  13   9    2.67    2.53
  -1 -13  -9   -0.70    1.40
   1 -13   9    6.76    2.34
   2 -13   9    2.38    2.07
  -2 -13  -9    2.38    1.63
   2  13   9    8.69    3.24
   3 -13   9    0.04    1.56
  -3 -13  -9    1.29    1.53
   3  13   9    4.70    2.77
  -4 -13  -9   -1.77    1.58
   4  13   9    2.96    2.94
  -4 -14   9   -0.12    3.18
  -4  14   9   -1.30    2.16
  -3 -14   9    4.32    3.00
  -3  14   9    3.09    2.48
   2 -14  -9    0.90    2.13
  -2 -14   9    2.36    3.01
  -2  14   9   -0.36    2.22
   1 -14  -9    0.85    1.45
  -1 -14   9    1.37    2.90
  -1  14   9    0.70    2.29
   0 -14   9    0.02    2.80
   0 -14  -9   -0.34    1.35
   0 -14   9    5.16    2.32
   0  14   9    1.68    2.53
   0  14   9    4.07    2.67
   1 -14   9   12.65    4.50
  -1 -14  -9   -0.34    1.47
   1  14   9    3.86    2.78
  -2 -14  -9    3.35    1.89
   2 -14   9    9.46    2.65
   2  14   9    3.63    2.79
   3 -14   9   -4.46    2.00
  -3 -14  -9    0.30    1.58
   3  14   9    4.18    3.23
  -2 -15   9   -1.96    2.93
  -2  15   9   -1.08    2.49
   1 -15  -9   -0.95    1.52
  -1 -15   9   -2.77    2.65
  -1  15   9    0.62    2.49
  -1  15   9   -2.91    2.22
   0 -15  -9    2.49    1.71
   0 -15   9   -3.42    2.66
   0  15   9    1.34    2.26
   1 -15   9    4.07    2.81
  -1 -15  -9   -0.08    1.67
   1  15   9    1.13    2.34
  -9   0  10    0.54    1.69
  -9   0  10    1.05    1.88
   8   0 -10   -0.91    1.61
  -8   0  10    4.12    1.61
  -8   0  10    4.24    1.77
   7   0 -10    4.66    1.82
  -7   0  10    8.20    1.71
  -7   0  10    5.23    1.62
  -6   0  10   13.91    2.15
   6   0 -10   13.99    2.36
  -5   0  10   24.90    2.67
   5   0 -10   15.18    2.68
  -5   0  10   24.13    2.61
  -4   0  10  151.38   11.05
  -4   0  10  146.75   11.07
   4   0 -10  126.03   11.38
  -3   0  10    8.07    2.09
   2   0 -10   34.51    3.83
  -2   0  10   38.99    3.25
  -1   0  10   50.14    4.17
   1   0 -10   53.92    4.64
   1   0 -10   49.79    4.10
   0   0  10  529.57   39.66
   0   0 -10  529.39   39.57
   1   0  10    8.48    1.53
  -1   0 -10   11.49    1.21
  -2   0 -10    0.58    0.53
   2   0  10    0.47    1.71
  -3   0 -10    1.64    0.78
   3   0  10    1.17    1.55
  -4   0 -10  122.60    9.57
   4   0  10  119.13    9.81
   5   0  10    3.73    1.51
  -5   0 -10    1.25    1.53
   6   0  10    2.91    1.47
  -6   0 -10    0.76    1.73
  -7   0 -10    1.89    1.95
   7   0  10    2.27    1.61
  -7   0 -10    1.36    1.62
   8   0  10    4.65    2.62
  -8   0 -10    3.45    2.03
  -8   0 -10    2.64    1.35
  -8   0 -10    3.68    2.10
  -9  -1  10    2.14    2.08
  -9  -1  10    0.35    1.83
  -9   1  10    0.98    1.38
  -9   1  10    0.33    1.82
  -8  -1  10   25.59    3.69
  -8  -1  10   31.07    4.07
  -8   1  10   25.68    3.70
  -8   1  10   29.70    3.25
   7  -1 -10    0.64    1.27
  -7  -1  10    3.64    1.56
  -7  -1  10    2.67    1.49
   7   1 -10    0.35    1.74
  -7   1  10    2.03    1.51
  -7   1  10    3.27    1.23
  -6  -1  10   60.33    5.64
   6  -1 -10   64.59    5.78
  -6  -1  10   57.78    5.78
  -6  -1  10   72.34    5.91
  -6   1  10   64.08    5.63
   6   1 -10   59.17    6.17
  -6   1  10   67.50    5.38
  -5  -1  10   11.97    2.66
  -5  -1  10   11.03    1.68
  -5  -1  10    9.56    1.92
  -5   1  10   13.73    1.81
   5   1 -10    5.96    1.99
  -5   1  10    8.82    1.61
   4  -1 -10   70.83    6.93
  -4  -1  10   89.22    6.81
  -4  -1  10   89.31    6.70
   4   1 -10   75.25    7.14
  -4   1  10   83.45    6.67
   3  -1 -10   29.66    3.09
  -3  -1  10   26.98    3.61
  -3  -1  10   32.77    3.04
  -3   1  10   29.95    2.83
   3   1 -10   29.04    3.29
   2  -1 -10   35.59    3.26
  -2  -1  10   34.79    3.10
   2  -1 -10   35.54    3.08
  -2   1  10   35.61    3.16
   2   1 -10   35.36    3.38
  -1  -1  10   56.29    4.58
   1  -1 -10   59.95    4.62
  -1   1  10   57.76    4.69
   1   1 -10   54.43    4.80
   0  -1  10   16.24    1.64
   0  -1 -10   18.13    1.69
   0   1  10   16.09    1.94
   0   1 -10   13.94    1.47
   0   1 -10   15.82    1.93
  -1  -1 -10   26.06    2.36
   1  -1  10   24.61    2.52
   1   1  10   20.51    2.84
  -1   1 -10   28.94    2.15
   2  -1  10    0.22    1.35
  -2  -1 -10    0.22    0.71
   2   1  10   -0.66    1.33
  -2   1 -10    0.70    0.36
   2   1  10   -0.48    1.85
   3  -1  10   44.34    4.20
  -3  -1 -10   47.77    4.10
  -3   1 -10   44.77    3.57
  -4  -1 -10   23.13    2.87
   4  -1  10   19.19    2.76
  -4   1 -10   15.00    1.90
   4   1  10   20.98    3.03
   5  -1  10    4.20    1.39
  -5  -1 -10    4.06    1.94
  -5   1 -10    2.76    1.32
   5   1  10    7.90    1.94
   6  -1  10    2.16    1.35
  -6  -1 -10   -1.62    1.64
  -6   1 -10   -0.48    1.42
   6   1  10    2.85    1.78
  -7  -1 -10    2.06    1.64
  -7  -1 -10    0.69    1.87
   7  -1  10    5.68    1.62
  -7   1 -10    2.57    1.08
   7   1  10    3.19    1.83
  -7   1 -10    0.37    1.75
  -8  -1 -10    7.07    2.54
   8  -1  10   12.04    2.27
  -8  -1 -10    7.21    2.25
  -8   1 -10   13.21    2.14
  -8   1 -10    4.24    2.11
   8   1  10   15.63    2.94
  -8   1 -10    9.36    2.49
  -9  -2  10   -0.62    2.19
  -9  -2  10    1.01    1.93
  -9   2  10   -1.23    1.89
  -9   2  10    0.97    2.05
  -8  -2  10    0.68    1.86
  -8  -2  10    5.96    2.16
   8   2 -10   -1.46    2.25
  -8   2  10    0.19    1.56
  -8   2  10    1.87    1.10
  -7  -2  10    6.99    2.14
  -7  -2  10    4.82    1.70
  -7   2  10    6.25    1.16
   7   2 -10    3.63    2.73
  -7   2  10    5.40    1.80
   6  -2 -10   12.72    1.83
  -6  -2  10   10.64    1.96
  -6  -2  10   13.98    2.40
  -6  -2  10   13.64    2.36
  -6   2  10   12.77    1.96
   6   2 -10    8.47    2.44
   5  -2 -10    2.15    1.29
  -5  -2  10    4.00    1.62
  -5  -2  10    3.92    1.46
  -5  -2  10    5.63    1.70
   5   2 -10    4.05    1.88
  -5   2  10    3.89    1.31
   4  -2 -10   11.87    2.00
  -4  -2  10   17.70    2.10
  -4  -2  10   14.96    2.21
  -4  -2  10   15.42    2.23
  -4   2  10   14.88    2.06
   4   2 -10   13.71    2.30
   3  -2 -10   17.65    2.29
   3  -2 -10   18.84    2.06
  -3  -2  10   17.44    2.43
   3   2 -10   18.59    2.72
  -3   2  10   17.21    2.09
  -2  -2  10  102.39    8.00
  -2  -2  10  107.70    8.27
   2  -2 -10  106.08    8.11
   2  -2 -10  103.36    8.07
  -2   2  10  103.05    8.11
   2   2 -10   94.36    8.27
   1  -2 -10    1.75    0.78
  -1  -2  10    1.30    0.61
  -1   2  10    2.26    0.85
   1   2 -10    2.85    0.90
   0  -2 -10   28.17    2.51
   0  -2  10   24.25    2.27
   0   2 -10   28.22    2.68
   0   2  10   26.66    2.74
  -1  -2 -10    5.19    1.03
   1  -2  10    4.24    0.87
   1   2  10    3.10    1.42
   2  -2  10   42.76    3.93
  -2  -2 -10   50.30    3.97
   2   2  10   39.02    5.13
   2   2  10   36.15    4.51
  -3  -2 -10    2.71    1.34
   3  -2  10    2.43    1.09
   3   2  10    3.40    2.10
  -4  -2 -10   10.54    2.22
   4  -2  10   12.16    1.83
   4   2  10    8.40    2.29
  -5  -2 -10   -0.89    1.72
   5  -2  10    1.39    1.10
  -5   2 -10   -1.05    0.76
   5   2  10    0.18    1.65
  -5   2 -10    0.26    0.48
  -6  -2 -10    4.63    2.18
   6  -2  10    6.00    1.50
  -6  -2 -10    3.39    1.59
   6   2  10    4.67    2.09
  -6   2 -10    4.45    0.85
  -6   2 -10    1.93    1.33
  -7  -2 -10    2.82    1.77
  -7  -2 -10    0.19    2.08
   7  -2  10    1.98    1.38
   7   2  10    2.16    1.89
  -7   2 -10    1.42    1.55
  -7   2 -10    1.72    0.90
  -8  -2 -10    0.49    1.79
  -8  -2 -10    0.72    2.25
   8  -2  10    3.36    1.60
  -8   2 -10    0.23    1.67
  -8   2 -10   -0.14    1.71
   8   2  10    2.81    2.22
  -8   2 -10   -0.03    1.07
  -9  -3  10    2.50    2.17
  -9  -3  10   -0.41    2.35
  -9   3  10    1.69    2.03
  -8  -3  10   -0.26    2.03
  -8  -3  10   -0.49    1.62
  -8   3  10    0.51    1.54
  -7  -3  10   -0.20    1.91
  -7  -3  10    0.27    1.57
  -7   3  10    1.58    1.41
   7   3 -10   -0.93    2.25
  -6  -3  10   31.24    3.79
  -6  -3  10   36.56    3.77
  -6  -3  10   40.86    4.78
   6  -3 -10   35.36    3.12
   6   3 -10   28.59    4.69
  -6   3  10   32.44    3.62
  -5  -3  10    0.18    1.27
  -5  -3  10    0.26    1.50
   5  -3 -10    0.09    0.96
  -5  -3  10   -0.39    1.14
  -5   3  10    0.63    1.16
   5   3 -10    1.57    1.76
   4  -3 -10   11.95    1.82
   4  -3 -10   13.84    1.92
  -4  -3  10   15.18    2.15
  -4  -3  10   20.01    2.93
  -4  -3  10   12.85    1.80
  -4   3  10   11.44    1.74
   4   3 -10    9.80    2.00
  -3  -3  10    2.15    1.13
   3  -3 -10    2.45    0.98
  -3  -3  10    1.02    0.98
   3  -3 -10    1.12    0.95
  -3   3  10    0.83    1.03
   3   3 -10    2.94    1.27
   2  -3 -10   42.76    3.69
  -2  -3  10   40.78    3.59
  -2  -3  10   49.46    5.62
   2  -3 -10   42.68    3.75
   2   3 -10   41.35    4.05
   1  -3 -10    9.39    1.38
  -1  -3  10   10.21    1.25
   1   3 -10    7.38    1.26
  -1   3  10   10.73    1.55
   0  -3  10   11.69    1.32
   0  -3 -10   12.28    1.77
   0   3  10   12.82    1.82
   0   3 -10   15.18    1.90
   1  -3  10   15.11    1.47
  -1  -3 -10   16.86    2.17
  -1   3 -10   17.53    2.06
   1   3  10   12.81    2.25
   2  -3  10    0.79    0.85
  -2  -3 -10    1.01    1.21
   2   3  10   -0.07    2.21
   2   3  10   -3.33    1.55
  -3  -3 -10    6.85    1.97
   3  -3  10    9.72    1.36
   3   3  10    6.74    2.72
  -4  -3 -10   -0.49    1.76
   4  -3  10    2.34    0.99
   4   3  10    1.48    2.20
  -5  -3 -10   14.31    2.96
   5   3  10   22.68    3.56
   6  -3  10   14.49    2.16
  -6  -3 -10    9.60    2.64
  -6  -3 -10   11.05    2.42
   6   3  10   11.43    2.62
  -7  -3 -10   -0.38    1.52
  -7  -3 -10    3.26    2.54
   7  -3  10    1.53    1.29
   7   3  10    3.41    2.89
  -7   3 -10   -0.31    1.14
  -7   3 -10    1.01    0.68
  -8  -3 -10    0.51    1.86
   8   3  10    4.02    2.44
  -8   3 -10    2.34    1.44
  -8   3 -10    2.09    0.95
  -9  -4  10   -3.87    2.43
  -9  -4  10   -3.00    2.14
  -9   4  10    1.75    2.05
  -8  -4  10   -2.33    2.36
  -8  -4  10   -2.08    1.90
  -8   4  10    1.98    1.66
  -7  -4  10   -0.09    1.54
  -7  -4  10    0.32    2.22
  -7   4  10    2.38    1.61
  -6  -4  10    5.80    2.34
  -6  -4  10    1.86    1.58
  -6  -4  10    2.63    1.78
   6   4 -10    1.07    2.31
  -6   4  10    2.80    1.45
  -5  -4  10   21.92    2.79
   5  -4 -10   19.63    1.91
   5  -4 -10   18.37    2.56
  -5  -4  10   25.22    3.86
   5   4 -10   12.99    2.78
  -5   4  10   20.11    2.65
   4  -4 -10   11.17    1.57
  -4  -4  10   11.97    2.29
   4  -4 -10   11.13    1.66
  -4  -4  10   11.16    1.87
  -4   4  10    9.38    1.70
   4   4 -10   10.72    2.25
   3  -4 -10   10.00    1.56
  -3  -4  10    6.89    1.65
   3  -4 -10    9.46    1.36
  -3  -4  10    9.75    1.50
   3   4 -10    6.76    1.69
  -3   4  10    8.01    1.47
   2  -4 -10   62.43    5.28
  -2  -4  10   70.73    5.73
  -2  -4  10   63.19    5.05
   2   4 -10   56.36    5.50
  -2   4  10   60.44    5.29
  -1  -4  10   46.94    3.79
   1  -4 -10   47.43    4.16
  -1  -4  10   56.33    4.46
   1   4 -10   41.81    4.18
  -1   4  10   34.16    5.14
   0  -4  10   56.06    4.33
   0  -4 -10   59.44    4.85
   0   4  10   49.31    4.93
   0   4 -10   54.54    4.78
   1  -4  10   21.88    1.74
  -1  -4 -10   20.73    2.74
  -1   4 -10   22.03    2.44
   1   4  10   15.27    2.78
   2  -4  10  114.17    9.06
  -2  -4 -10  128.84    9.85
  -2   4 -10  120.32    9.40
   2   4  10  122.72   10.28
   2   4  10  109.37   10.46
   3  -4  10    7.64    1.21
  -3  -4 -10   10.32    2.25
   3   4  10    6.39    2.96
   4  -4  10    9.45    1.46
  -4  -4 -10    5.47    2.20
   4   4  10    7.79    2.80
   5  -4  10    3.23    1.06
  -5  -4 -10   -1.47    1.76
  -5  -4 -10    2.44    1.30
   5   4  10    0.44    2.12
  -6  -4 -10   19.88    3.85
   6  -4  10   25.66    2.71
  -6  -4 -10   26.90    3.66
   6   4  10   18.60    3.49
  -7  -4 -10    1.60    2.29
  -7  -4 -10    1.68    1.85
   7   4  10    4.33    2.34
  -8  -4 -10   -0.10    1.95
   8   4  10    0.82    2.52
  -9  -5  10   -0.83    2.14
  -9  -5  10   -3.33    3.05
  -9   5  10    3.79    2.26
  -8  -5  10   -1.57    2.07
  -8  -5  10   -4.67    2.97
  -8   5  10    0.96    1.90
  -7  -5  10   -2.18    2.41
  -7   5  10    2.17    1.61
  -6  -5  10    3.69    2.32
  -6   5  10    3.74    1.54
   6   5 -10    4.72    2.55
  -5  -5  10    2.48    2.08
  -5  -5  10    0.83    1.34
   5  -5 -10    2.06    1.19
  -5   5  10    1.93    1.41
   5   5 -10    1.18    1.92
   4  -5 -10    4.43    2.50
   4  -5 -10    3.98    0.88
  -4  -5  10    6.12    1.48
  -4  -5  10    5.56    2.00
   4   5 -10    5.15    1.91
  -4   5  10    4.04    1.38
   3  -5 -10    0.50    1.03
  -3  -5  10    1.48    1.00
  -3  -5  10    2.05    1.59
   3  -5 -10    0.93    0.84
  -3   5  10    0.26    1.08
   3   5 -10    2.41    1.37
  -2  -5  10   10.82    2.04
   2  -5 -10   11.66    1.81
  -2  -5  10   10.79    1.52
  -2   5  10   10.58    1.74
   2   5 -10   11.65    2.00
  -1  -5  10   16.09    2.28
   1  -5 -10    9.98    1.82
  -1  -5  10   11.84    1.35
  -1   5  10   14.03    2.05
   1   5 -10    8.83    1.54
   0  -5 -10    6.06    1.55
   0   5  10    6.52    1.69
   0   5 -10    7.04    1.30
   1  -5  10    1.24    0.47
   1  -5  10    1.57    0.69
   1  -5  10    0.86    0.40
  -1  -5 -10    0.43    1.38
   1   5  10    0.09    1.78
  -1   5 -10    0.47    0.86
   2  -5  10    1.17    0.43
  -2  -5 -10    1.98    1.66
   2   5  10    0.23    2.37
   2   5  10    0.13    2.18
  -2   5 -10    1.17    0.92
  -3  -5 -10    8.48    1.57
  -3  -5 -10    6.65    2.31
   3  -5  10    8.64    1.08
  -3   5 -10    7.08    1.40
   3   5  10   10.28    3.41
  -4  -5 -10    5.50    2.37
   4  -5  10   11.03    1.34
  -4  -5 -10    7.04    1.53
   4   5  10    7.87    3.36
  -5  -5 -10    9.25    1.93
  -5  -5 -10    7.53    2.42
   5   5  10    5.78    3.23
  -6  -5 -10   10.31    2.65
  -6  -5 -10   10.89    2.31
   6   5  10    9.05    2.86
  -7  -5 -10    2.53    1.95
   7   5  10    1.66    2.34
   8   5  10   11.83    3.56
  -8  -6  10   -3.12    3.18
  -8   6  10    1.07    1.90
  -7  -6  10   -3.78    2.42
  -7   6  10   -1.15    1.64
  -6  -6  10   -4.66    2.24
  -6   6  10    0.74    1.59
  -5  -6  10    1.31    2.13
   5   6 -10    1.70    2.15
  -5   6  10    1.92    1.46
   4  -6 -10   12.55    2.06
  -4  -6  10   14.73    2.12
  -4  -6  10   12.79    2.98
   4   6 -10   11.39    2.34
  -4   6  10   10.36    1.95
  -3  -6  10    2.14    1.04
   3  -6 -10    1.00    0.81
   3  -6 -10    0.19    1.21
  -3  -6  10    1.46    1.82
   3   6 -10    1.74    1.48
  -3   6  10    2.40    1.32
   2  -6 -10    6.19    1.68
  -2  -6  10    6.78    1.12
  -2  -6  10    8.81    1.89
   2   6 -10    4.41    1.54
  -2   6  10    5.92    1.65
   1  -6 -10   -0.47    1.23
  -1  -6  10    0.71    1.25
  -1  -6  10    1.28    0.66
  -1   6  10   -1.30    1.28
   1   6 -10    0.57    1.08
   0  -6 -10   92.47    7.37
   0  -6  10   86.09    6.34
   0   6 -10   83.88    6.97
   0   6  10   70.71    7.21
  -1  -6 -10   -0.33    1.65
   1  -6  10    1.00    0.89
   1   6  10   -1.29    1.80
  -1   6 -10    1.42    1.00
  -2  -6 -10   28.55    4.15
  -2  -6 -10   35.34    3.41
   2   6  10   34.75    5.05
  -2   6 -10   31.35    3.35
   2   6  10   36.30    4.81
  -3  -6 -10    2.68    1.13
  -3  -6 -10    4.00    2.08
   3   6  10    0.40    2.67
  -3   6 -10    2.70    1.19
  -4  -6 -10   38.48    5.14
  -4  -6 -10   40.91    4.21
  -4   6 -10   40.49    4.03
   4   6  10   43.03    5.84
  -5  -6 -10    0.41    1.40
  -5  -6 -10    0.73    1.85
   5   6  10   -2.51    2.25
  -5   6 -10   -1.61    1.17
  -6  -6 -10    8.50    2.23
  -6   6 -10    5.54    2.37
  -7  -6 -10    1.43    1.72
   7   6  10    3.24    2.88
  -8  -6 -10    2.29    2.12
   8   6  10    5.05    3.26
  -8  -7  10    8.81    4.40
  -8   7  10   16.92    2.77
  -7  -7  10   -4.01    2.91
  -7   7  10    1.38    1.85
  -6  -7  10   -1.52    2.79
  -6   7  10   -0.27    1.52
  -5  -7  10    3.77    1.60
  -5  -7  10   -0.01    2.33
  -5   7  10    2.85    1.58
  -4  -7  10   47.47    4.52
  -4  -7  10   56.84    6.15
   4  -7 -10   50.77    5.02
   4   7 -10   52.85    5.42
  -4   7  10   46.03    4.75
   3  -7 -10    1.88    0.65
  -3  -7  10    2.30    1.07
   3  -7 -10    2.40    1.46
  -3  -7  10    2.91    2.08
   3  -7 -10    0.67    0.80
  -3   7  10    3.07    1.54
   3   7 -10    1.67    1.57
  -2  -7  10    2.15    0.95
  -2  -7  10    0.94    1.73
   2  -7 -10    2.61    0.79
   2  -7 -10   -0.18    1.34
   2   7 -10    1.98    1.47
  -2   7  10    2.02    1.41
   1  -7 -10   24.09    3.14
   1  -7 -10   18.95    2.18
  -1  -7  10   14.87    2.62
  -1  -7  10   19.02    1.83
  -1   7  10   19.19    2.87
   1   7 -10   22.51    2.93
   0  -7 -10    3.14    1.05
   0  -7 -10    3.11    1.93
   0  -7  10    5.27    1.17
   0   7 -10    3.22    1.20
   0   7  10    2.01    1.72
   1  -7  10    7.82    1.36
  -1  -7 -10    3.90    1.08
  -1  -7 -10    4.24    2.04
   1   7  10    4.58    2.15
  -1   7 -10    3.87    1.34
  -2  -7 -10    1.72    1.02
  -2  -7 -10    3.38    2.15
   2   7  10    0.16    2.51
   2   7  10    2.62    2.86
  -2   7 -10    1.10    1.02
  -3  -7 -10   13.94    2.16
  -3   7 -10   12.91    1.92
   3   7  10   15.93    3.46
  -4  -7 -10   23.20    3.78
  -4  -7 -10   27.06    3.31
   4   7  10   20.78    4.27
  -4   7 -10   20.70    3.80
  -5  -7 -10    1.44    1.56
  -5   7 -10    1.34    1.28
   5   7  10    0.77    2.74
  -6  -7 -10    0.68    1.65
   6   7  10   -0.07    2.49
  -7  -7 -10    0.73    1.47
   7   7  10    0.46    2.80
  -8  -8  10    0.77    3.59
  -8   8  10    1.09    1.98
  -7  -8  10   -2.49    2.81
  -7   8  10    1.21    1.79
  -6  -8  10   -3.04    3.57
  -5  -8  10   19.01    2.81
  -5  -8  10   11.07    3.27
  -5   8  10   16.13    2.61
  -4  -8  10   80.24    6.47
  -4  -8  10   74.45    8.05
  -4   8  10   71.16    6.68
  -3  -8  10    1.31    1.09
   3  -8 -10    0.37    0.65
  -3  -8  10   -0.39    1.87
  -3   8  10   -1.03    1.43
  -2  -8  10   -3.74    1.80
  -2  -8  10    0.50    0.91
   2  -8 -10   -0.56    0.70
  -2   8  10   -0.45    1.37
   2   8 -10    0.97    1.49
   1  -8 -10   10.05    1.49
  -1  -8  10   10.47    1.33
  -1  -8  10   10.27    2.46
   1  -8 -10   10.30    2.64
   1   8 -10   13.54    2.46
  -1   8  10   11.04    2.40
   0  -8 -10  235.60   17.10
   0  -8 -10  249.57   18.35
   0  -8  10  203.80   16.97
   0   8 -10  204.63   17.50
  -1  -8 -10    1.94    1.04
   1  -8  10    3.23    1.41
  -1  -8 -10    2.08    2.13
  -1   8 -10    1.77    1.14
   1   8  10   -0.22    2.15
  -2  -8 -10   -0.17    1.98
  -2  -8 -10   -0.45    1.06
  -2   8 -10    0.41    1.09
   2   8  10    5.23    2.89
  -3  -8 -10    1.79    2.11
  -3  -8 -10    1.12    1.21
  -3   8 -10    3.32    2.28
   3   8  10    4.21    3.06
  -4  -8 -10   56.08    5.38
  -4   8 -10   51.54    5.01
   4   8  10   61.22    7.10
  -5  -8 -10    2.01    2.28
  -5   8 -10   -0.34    1.29
   5   8  10   -3.34    4.38
  -6  -8 -10    0.77    1.53
   6   8  10   -2.20    2.88
  -7  -8 -10    0.91    1.89
   7   8  10    3.63    3.54
  -7  -9  10   -3.44    3.36
  -7   9  10    0.59    1.83
  -6  -9  10   -1.07    2.73
  -6   9  10    4.20    1.99
  -5  -9  10    1.55    1.72
  -5  -9  10    1.36    2.89
  -5   9  10    2.18    1.80
  -4  -9  10   26.62    4.31
  -4  -9  10   29.63    3.19
  -4   9  10   22.54    3.64
  -3  -9  10    0.59    1.99
  -3  -9  10    4.07    1.30
   3  -9 -10    1.38    0.79
  -3   9  10    1.57    1.66
  -2  -9  10   -0.54    2.35
   2  -9 -10    0.31    0.88
  -2  -9  10    0.45    0.95
  -2   9  10   -0.93    1.58
   2   9 -10    4.33    2.22
  -1  -9  10   21.79    2.80
   1  -9 -10   23.36    2.54
  -1  -9  10   17.97    3.29
  -1   9  10   16.67    2.89
   1   9 -10   20.06    3.20
   0  -9  10    1.68    1.25
   0  -9 -10    1.34    1.05
   0  -9  10   -1.25    1.71
   0  -9 -10    0.36    2.04
   0   9 -10    2.27    1.46
   0   9  10    0.46    2.02
  -1  -9 -10   -0.07    1.04
   1  -9  10    1.46    1.37
  -1  -9 -10   -1.54    1.96
  -1   9 -10    1.24    1.28
   1   9  10   -2.03    1.95
   2  -9  10    1.57    0.89
  -2  -9 -10    0.34    1.09
  -2   9 -10    0.16    1.13
   2   9  10    3.65    2.85
  -3  -9 -10   10.23    1.97
  -3   9 -10    9.06    1.70
   3   9  10   16.66    3.76
  -4  -9 -10    0.80    1.51
  -4   9 -10    0.61    1.32
   4   9  10    5.70    3.35
  -5  -9 -10   -0.84    1.26
   5   9  10   -3.28    2.64
  -6  -9 -10    0.57    1.86
   6   9  10   -3.60    2.90
  -7  -9 -10    0.02    2.03
   7   9  10   -4.03    3.25
  -7 -10  10   -0.39    3.45
  -7  10  10   -0.82    1.97
  -6 -10  10    1.21    3.39
  -6  10  10    2.48    1.93
  -5 -10  10   -1.95    2.77
  -5 -10  10    1.68    1.72
  -5  10  10   -1.26    1.65
  -4 -10  10    9.59    3.22
  -4 -10  10   10.38    1.99
  -4  10  10    9.42    2.36
   3 -10 -10    0.57    0.87
  -3 -10  10    1.33    1.30
  -3 -10  10   -1.88    2.24
  -3  10  10    1.51    1.74
  -2 -10  10   15.13    3.58
   2 -10 -10   14.33    2.13
  -2 -10  10   14.63    1.91
  -2 -10  10   16.78    2.50
  -2  10  10   13.97    2.63
  -1 -10  10   -2.48    2.14
  -1 -10  10    4.08    1.49
   1 -10 -10    1.77    1.29
  -1  10  10   -1.33    1.83
   0 -10 -10    4.09    1.34
   0 -10  10   -0.40    2.18
   0 -10  10    6.15    1.62
   0  10  10    2.67    2.26
   0  10 -10    3.18    1.69
  -1 -10 -10    0.81    1.20
   1  10  10   -0.31    2.17
  -1  10 -10    1.78    1.38
   1  10  10    1.85    2.21
   2 -10  10    9.22    1.52
  -2 -10 -10    4.46    1.49
  -2  10 -10    6.84    1.70
   2  10  10   10.46    3.52
  -3 -10 -10   -0.77    1.19
   3  10  10   -1.61    2.55
  -3  10 -10   -0.22    1.17
  -4 -10 -10    0.24    2.17
   4  10  10   -0.59    2.97
  -5 -10 -10    0.91    1.62
   5  10  10    0.75    3.43
  -6 -10 -10   -0.37    1.53
   6  10  10   -2.55    3.16
  -6 -11  10    2.10    3.23
  -6  11  10    3.64    2.13
  -5 -11  10    1.18    3.00
  -5  11  10   -1.16    1.78
  -4 -11  10    0.26    1.59
  -4 -11  10   -0.67    2.49
  -4  11  10   -0.89    1.83
  -3 -11  10    1.98    3.68
  -3 -11  10   -1.95    1.36
  -3  11  10   -0.62    1.98
  -2 -11  10    3.89    1.79
  -2 -11  10   -1.30    2.29
   2 -11 -10    0.86    1.09
  -2  11  10    1.94    2.03
   1 -11 -10   -0.03    1.04
  -1 -11  10    3.48    1.64
  -1 -11  10   -0.89    2.36
  -1  11  10   -2.33    1.77
   0 -11  10    6.05    1.77
   0 -11  10   -1.87    2.29
   0 -11 -10    0.00    1.17
   0  11  10    0.19    2.30
   1 -11  10   14.47    2.48
   1  11  10    8.77    3.22
   1  11  10   11.88    3.39
   2 -11  10    3.89    1.48
  -2 -11 -10    4.00    1.70
   2  11  10    6.07    2.91
   3 -11  10    0.75    0.73
  -3 -11 -10   -0.82    1.42
   3  11  10   -0.49    2.77
  -4 -11 -10    3.36    1.86
   4  11  10    1.53    2.99
  -5 -11 -10    3.55    2.01
   5  11  10   -0.29    3.12
  -6 -12  10    5.15    3.63
  -6  12  10    3.47    2.35
  -5 -12  10   -3.47    2.33
  -5  12  10   -1.69    1.98
  -4 -12  10   -0.16    2.06
  -4 -12  10    1.19    2.86
  -4  12  10    1.19    2.13
  -3 -12  10   -0.23    2.42
  -3  12  10   -0.31    2.03
   2 -12 -10   20.78    2.68
  -2 -12  10   22.44    3.50
  -2 -12  10   15.00    4.48
  -1 -12  10    1.71    1.93
   1 -12 -10    1.86    1.26
  -1 -12  10   -1.01    2.26
  -1  12  10    2.27    2.34
   0 -12 -10    6.61    1.72
   0 -12  10   14.66    2.38
   0 -12  10    4.69    3.03
   0  12  10   10.80    3.57
   1 -12  10    4.26    2.00
  -1 -12 -10    0.67    1.42
   1  12  10    2.80    2.40
  -2 -12 -10    3.98    1.64
   2 -12  10    7.46    2.22
   2  12  10   11.53    3.46
   3 -12  10   -0.39    0.93
  -3 -12 -10    0.76    2.10
   3  12  10    2.79    2.72
  -4 -12 -10   -0.86    1.69
   4  12  10    1.13    2.79
  -5 -12 -10   -0.94    1.63
   5  12  10   -1.15    3.51
  -5 -13  10    1.14    3.05
  -5  13  10   -2.73    2.04
  -4 -13  10    0.22    3.14
  -4  13  10    3.09    2.48
  -3 -13  10    6.27    2.98
  -3  13  10    3.01    2.41
  -2 -13  10   -0.89    2.58
   2 -13 -10   -0.57    1.23
  -2  13  10   -1.16    2.18
  -1 -13  10    7.47    2.13
   1 -13 -10   -0.57    1.28
  -1 -13  10   -0.84    2.76
  -1  13  10    1.86    2.35
   0 -13  10   11.21    3.02
   0 -13 -10    7.99    1.88
   0  13  10    8.06    2.99
   0  13  10    8.65    4.10
   1 -13  10    8.27    2.33
  -1 -13 -10    0.80    1.39
   1  13  10    3.65    2.48
   2 -13  10    1.84    1.92
  -2 -13 -10    1.49    1.63
   2  13  10    4.04    3.04
   3 -13  10   -1.31    1.47
  -3 -13 -10   -1.91    1.37
   3  13  10    2.82    3.12
  -4 -13 -10   -1.20    1.66
   4  13  10    1.22    2.91
  -3 -14  10    0.93    3.10
  -3  14  10    0.74    2.28
  -2 -14  10    2.16    3.26
  -2  14  10   -0.20    2.18
   1 -14 -10    4.42    1.65
  -1 -14  10    0.00    2.64
  -1  14  10    1.15    2.61
   0 -14 -10    3.10    1.57
   0 -14  10   -2.20    2.66
   0 -14  10    9.01    2.54
   0  14  10    5.11    2.65
   0  14  10    0.62    2.46
   1 -14  10    9.16    2.37
  -1 -14 -10    2.63    1.50
   1  14  10    0.84    2.81
   2 -14  10    0.03    2.09
  -2 -14 -10    1.26    1.56
   2  14  10    3.88    2.82
   3 -14  10   -3.98    2.15
  -3 -14 -10    2.78    1.87
   3  14  10    4.89    3.29
  -1 -15  10   -2.86    2.60
   1 -15 -10   -0.98    1.44
  -1  15  10   -4.41    2.05
  -1  15  10   -1.33    2.59
   0 -15 -10    0.72    1.49
   0  15  10    4.15    2.59
   1 -15  10    1.59    3.14
  -9   0  11    1.25    1.59
  -9   0  11    2.33    2.05
  -8   0  11    4.18    1.58
   8   0 -11    0.97    1.87
  -8   0  11    4.97    1.86
   7   0 -11    1.22    1.65
  -7   0  11    1.37    1.54
  -7   0  11    1.83    1.28
  -6   0  11    4.53    1.26
  -6   0  11    2.54    1.34
   6   0 -11   -0.11    1.62
   5   0 -11    0.85    1.48
  -5   0  11   -0.41    1.16
  -5   0  11    2.44    1.08
   4   0 -11    2.62    1.43
  -4   0  11    3.79    1.12
   3   0 -11    0.84    1.04
  -3   0  11   -0.15    0.78
  -2   0  11    0.54    0.78
   2   0 -11   -0.04    0.84
   1   0 -11    1.08    0.81
   1   0 -11    0.74    0.58
  -1   0  11   -0.50    0.72
   0   0  11    2.46    0.84
   0   0 -11    3.48    0.71
  -1   0 -11   -0.68    0.47
   1   0  11   -1.56    0.99
   2   0  11    0.09    1.14
   2   0  11   -0.87    1.73
  -2   0 -11    0.11    0.53
   3   0  11   -1.29    1.79
  -3   0 -11   -0.46    0.62
  -4   0 -11   -0.45    0.92
   4   0  11    1.09    1.45
  -5   0 -11   -0.10    1.25
   5   0  11    1.54    1.36
   6   0  11    1.43    1.40
  -7   0 -11    0.02    1.79
   7   0  11    1.82    1.71
  -8   0 -11   -0.11    1.92
  -8   0 -11    0.41    1.19
  -8   0 -11   -0.71    1.80
   8   0  11    2.15    1.73
  -9  -1  11    1.01    2.23
  -9  -1  11   -0.62    1.67
  -9   1  11    1.38    2.01
  -9   1  11    0.27    1.36
   8  -1 -11    2.11    1.57
  -8  -1  11    4.26    1.82
  -8  -1  11    3.88    1.88
  -8   1  11    2.92    1.81
  -8   1  11    4.32    1.40
   8   1 -11    2.42    2.35
   7  -1 -11   -0.19    1.33
  -7  -1  11    1.01    1.46
  -7  -1  11    2.13    1.53
  -7   1  11   -0.36    1.51
  -7   1  11    0.72    1.58
   7   1 -11    0.07    1.83
   6  -1 -11    1.54    1.45
  -6  -1  11    4.65    1.47
  -6  -1  11    3.15    1.42
  -6   1  11    5.46    1.15
   6   1 -11    3.07    1.98
  -6   1  11    4.59    1.58
  -5  -1  11   15.92    2.38
  -5  -1  11   20.04    2.70
  -5  -1  11   20.80    3.87
  -5   1  11   16.55    2.37
   5   1 -11   12.52    2.65
   4  -1 -11    4.36    1.75
  -4  -1  11    8.21    2.44
  -4  -1  11    3.08    1.11
  -4   1  11    3.31    1.11
   4   1 -11    2.56    1.57
   3  -1 -11    3.41    2.00
  -3   1  11    2.10    0.88
   3   1 -11    2.44    1.18
  -2  -1  11    1.78    0.85
   2  -1 -11    1.62    1.03
   2  -1 -11    1.25    0.69
   2   1 -11    1.67    1.00
  -2   1  11    1.13    0.90
   1  -1 -11   12.91    1.80
   1  -1 -11   11.40    1.47
  -1  -1  11   11.68    1.50
   1   1 -11   10.81    1.54
  -1   1  11   11.99    1.58
   0  -1  11    4.57    0.93
   0  -1 -11    5.29    0.93
   0   1 -11    5.17    0.77
   0   1  11    4.76    1.11
   0   1 -11    4.88    1.07
   1  -1  11    1.08    0.93
  -1  -1 -11    0.85    0.66
  -1   1 -11    0.88    0.43
   1   1  11    0.23    1.20
  -2  -1 -11    3.50    0.88
   2  -1  11    1.65    1.71
   2   1  11    1.77    2.03
  -2   1 -11    4.73    0.62
   2   1  11    2.54    1.64
   3  -1  11    4.07    1.51
  -3  -1 -11    3.89    1.14
  -3   1 -11    3.67    0.60
   3   1  11    3.40    2.10
  -4  -1 -11    2.62    1.43
   4  -1  11    4.79    1.56
  -4   1 -11    6.01    0.87
   4   1  11    8.01    2.26
  -5  -1 -11   -0.06    1.55
   5  -1  11    1.49    1.20
  -5   1 -11   -0.13    0.86
   5   1  11    1.10    1.76
  -6  -1 -11   -1.91    1.63
   6  -1  11    1.89    1.48
   6   1  11    3.20    1.76
  -6   1 -11   -1.23    1.23
   7  -1  11    4.19    1.66
  -7  -1 -11   -0.43    2.04
  -7  -1 -11   -0.85    3.13
   7   1  11    2.69    1.83
  -7   1 -11    2.09    1.04
  -8  -1 -11    2.61    2.29
  -8  -1 -11    0.95    1.78
  -8   1 -11    2.06    1.87
   8   1  11    5.62    2.27
  -8   1 -11    1.55    1.41
  -8   1 -11    0.65    2.01
  -9  -2  11    0.54    1.86
  -9  -2  11   -0.57    2.04
  -9   2  11   -0.63    1.92
  -8  -2  11    3.07    1.89
  -8  -2  11    5.22    1.99
  -8   2  11    4.69    1.85
   8   2 -11   -0.66    2.49
  -7  -2  11    0.14    1.58
  -7  -2  11    1.34    1.88
   7  -2 -11    0.84    1.25
   7   2 -11   -2.46    2.26
  -7   2  11    0.08    1.47
  -6  -2  11   14.87    2.16
   6  -2 -11   13.76    2.44
  -6   2  11   10.80    1.95
   6   2 -11   12.76    2.79
  -5  -2  11    0.60    1.34
   5  -2 -11    0.40    1.24
  -5  -2  11    2.59    1.41
   5   2 -11    2.49    1.71
  -5   2  11    2.16    1.15
  -4  -2  11   10.10    1.51
   4  -2 -11    9.63    1.81
  -4   2  11    8.22    1.45
   4   2 -11    7.78    1.93
   3  -2 -11    0.29    0.79
  -3  -2  11    2.05    1.12
  -3  -2  11    0.50    0.85
   3  -2 -11    1.16    1.06
  -3   2  11    0.43    0.95
   3   2 -11    1.05    1.20
   2  -2 -11   19.26    2.14
   2  -2 -11   19.18    2.33
  -2  -2  11   20.20    2.08
   2   2 -11   23.14    2.63
  -1  -2  11    9.75    1.42
   1  -2 -11   12.51    1.61
  -1   2  11   12.14    1.78
   1   2 -11   10.46    1.65
   0  -2  11   -0.30    0.56
   0  -2 -11    0.49    0.80
   0   2 -11    1.02    0.89
   0   2  11    0.12    0.98
  -1  -2 -11    5.27    1.11
   1  -2  11    6.17    1.07
   1   2  11    5.70    1.64
  -2  -2 -11   -0.28    0.86
   2  -2  11    1.37    1.28
   2   2  11   -1.78    2.34
   2   2  11   -2.55    1.60
   3  -2  11    2.31    1.15
  -3  -2 -11    1.08    1.42
   3   2  11    1.54    2.28
  -4  -2 -11   -0.79    1.49
   4  -2  11    1.87    1.11
   4   2  11    3.72    2.03
  -5  -2 -11    9.25    2.46
   5  -2  11   11.98    1.87
   5   2  11   11.82    2.65
   6  -2  11    2.20    1.32
  -6  -2 -11   -3.16    1.84
  -6   2 -11   -0.47    0.56
  -6   2 -11   -0.34    0.81
   6   2  11    3.14    1.99
   7  -2  11    4.17    1.55
  -7  -2 -11    1.46    1.60
  -7  -2 -11   -0.12    2.09
  -7   2 -11    1.49    1.26
  -7   2 -11    3.79    0.90
   7   2  11    5.48    2.06
  -8  -2 -11    2.61    2.43
  -8  -2 -11    0.57    1.80
   8  -2  11    4.55    1.72
   8   2  11    3.35    2.19
  -8   2 -11    0.37    0.92
  -8   2 -11   -1.83    1.75
  -8   2 -11   -1.45    1.70
  -9  -3  11    0.46    2.36
  -9  -3  11   -0.26    1.95
  -9   3  11    2.58    2.12
  -8  -3  11    1.74    2.21
  -8  -3  11   -1.32    1.86
  -8   3  11    1.92    1.68
  -7  -3  11    0.05    1.82
  -7  -3  11   -0.02    1.51
   7   3 -11   -1.73    2.36
  -7   3  11    0.93    1.42
   6  -3 -11    1.97    0.99
  -6  -3  11    1.30    1.33
  -6  -3  11    1.23    1.80
  -6   3  11    0.86    1.38
  -5  -3  11   28.31    3.70
  -5  -3  11   25.39    2.84
   5  -3 -11   19.48    2.69
   5   3 -11   19.72    3.25
  -5   3  11   18.46    2.69
   4  -3 -11    2.67    1.37
   4  -3 -11    5.86    1.40
  -4  -3  11    6.00    1.58
  -4  -3  11    4.65    1.51
  -4  -3  11    5.11    1.29
  -4   3  11    5.49    1.30
   4   3 -11    5.02    1.77
  -3  -3  11    2.87    1.22
   3  -3 -11    0.96    0.96
   3  -3 -11    0.71    0.86
  -3  -3  11    0.64    0.78
  -3   3  11    0.01    1.04
   3   3 -11    1.83    1.42
   2  -3 -11    0.82    0.83
   2  -3 -11    2.16    0.97
  -2  -3  11    1.24    0.76
  -2  -3  11    2.60    1.02
  -2   3  11    1.52    1.09
   2   3 -11    1.72    1.07
   1  -3 -11   34.57    3.27
  -1  -3  11   36.76    3.03
   1   3 -11   36.24    3.45
  -1   3  11   33.19    3.36
   0  -3  11    8.24    1.19
   0  -3 -11   12.48    1.65
   0   3  11    9.08    1.66
   0   3 -11    9.95    1.56
   1  -3  11    2.97    0.72
  -1  -3 -11    3.58    1.13
   1   3  11    4.13    1.70
  -1   3 -11    5.63    1.22
   2  -3  11    1.00    0.95
  -2  -3 -11    1.62    1.18
   2   3  11    0.19    1.84
   2   3  11   -0.29    2.35
   3  -3  11    0.60    0.89
  -3  -3 -11    1.06    1.45
   3   3  11   -1.61    2.53
   4  -3  11    5.25    1.16
  -4  -3 -11    1.49    1.87
   4   3  11    5.99    2.59
   5  -3  11    2.28    1.14
  -5  -3 -11    2.65    2.04
   5   3  11    1.66    2.28
  -6  -3 -11    2.16    1.70
  -6  -3 -11    1.08    2.07
   6  -3  11    4.41    1.36
   6   3  11    5.63    2.36
  -7  -3 -11    0.92    1.52
  -7  -3 -11    0.32    2.58
   7  -3  11    1.23    1.31
   7   3  11    2.14    2.45
  -8  -3 -11    0.17    1.89
   8   3  11    6.11    2.72
  -9  -4  11    0.06    2.80
  -9  -4  11    0.26    2.01
  -9   4  11    1.41    2.02
  -8  -4  11    3.31    2.60
  -8  -4  11   -1.19    1.76
  -8   4  11    0.89    1.67
  -7  -4  11    0.11    2.25
  -7   4  11    0.10    2.29
  -6  -4  11    2.33    1.96
  -6  -4  11    0.97    1.48
   6   4 -11    3.82    2.31
  -6   4  11    3.95    1.48
  -5  -4  11    4.36    2.02
   5  -4 -11    2.26    0.94
  -5  -4  11    3.76    1.42
  -5   4  11    4.38    1.57
  -4  -4  11    4.11    1.28
   4  -4 -11    2.91    1.23
  -4  -4  11    4.08    1.35
  -4  -4  11    5.62    2.01
  -4   4  11    4.23    1.30
   4   4 -11    5.60    1.87
  -3  -4  11    1.94    1.37
  -3  -4  11    0.46    0.98
   3  -4 -11    1.93    1.05
   3  -4 -11    1.87    1.00
  -3  -4  11    1.31    0.90
   3   4 -11    1.31    1.36
  -3   4  11    1.37    1.19
   2  -4 -11   54.62    4.65
  -2  -4  11   52.92    4.39
  -2  -4  11   60.47    5.06
  -2   4  11   50.81    4.66
   2   4 -11   45.53    4.83
   1  -4 -11    4.33    1.17
  -1  -4  11    2.47    0.77
   1   4 -11    4.84    1.26
  -1   4  11    3.26    1.22
   0  -4 -11    2.28    1.24
   0  -4  11    2.06    0.61
   0   4 -11    2.09    1.07
  -1  -4 -11    1.22    1.29
   1  -4  11    0.42    0.48
   1   4  11    0.50    1.75
  -1   4 -11    0.83    1.02
   2  -4  11   39.43    3.42
  -2  -4 -11   45.87    4.37
  -2   4 -11   42.52    3.91
   2   4  11   44.31    6.14
   2   4  11   34.67    5.39
   3  -4  11    0.84    0.72
  -3  -4 -11    0.50    1.60
   3   4  11   -2.63    2.21
  -4  -4 -11   -0.05    1.92
   4  -4  11    1.15    0.87
   4   4  11   -1.61    2.30
   5  -4  11   10.47    1.53
  -5  -4 -11    5.26    2.38
  -5  -4 -11    8.84    1.90
   5   4  11   10.97    3.32
  -6  -4 -11    0.16    3.90
  -6  -4 -11    4.07    1.59
   6  -4  11    4.17    1.28
   6   4  11    4.00    2.24
  -7  -4 -11    0.50    1.86
  -7  -4 -11   -0.69    2.40
   7   4  11    5.13    2.57
  -8  -4 -11    0.04    1.96
   8   4  11    2.53    2.58
  -8  -5  11   -0.35    4.78
  -8  -5  11   -1.95    1.76
  -8   5  11    0.32    1.70
  -7  -5  11   -1.01    1.82
  -7  -5  11   -0.75    2.38
  -7   5  11    1.39    1.75
  -6  -5  11    0.00    2.06
  -6   5  11    4.95    1.81
  -5  -5  11   -0.10    1.98
  -5  -5  11   -1.33    1.58
  -5   5  11    0.86    1.29
   5   5 -11    0.96    1.94
  -4  -5  11   -0.17    1.66
   4  -5 -11   -0.81    0.88
   4  -5 -11    0.02    1.37
  -4  -5  11   -0.56    1.10
  -4   5  11    1.23    1.23
  -3  -5  11    2.47    1.11
   3  -5 -11    4.49    1.39
  -3  -5  11    3.59    1.86
   3  -5 -11    2.18    1.01
   3   5 -11    2.73    1.57
  -3   5  11    2.52    1.41
  -2  -5  11    4.94    1.56
  -2  -5  11    3.41    1.19
   2  -5 -11    5.78    1.38
   2   5 -11    3.09    1.40
  -2   5  11    5.29    1.48
   1  -5 -11   12.34    2.01
  -1  -5  11    9.94    1.34
  -1   5  11   12.57    2.09
   1   5 -11    9.54    1.57
   0  -5  11    2.05    0.66
   0  -5 -11    2.24    1.31
   0   5  11    1.23    1.43
   0   5 -11    1.08    0.95
   1  -5  11    9.67    0.96
  -1  -5 -11    8.90    1.98
   1  -5  11    6.82    1.14
  -1   5 -11    9.83    1.59
   1   5  11    5.08    2.14
  -2  -5 -11   48.67    5.04
   2  -5  11   46.64    3.71
   2   5  11   47.87    5.72
  -2   5 -11   47.05    4.39
   2   5  11   50.30    5.99
   3  -5  11   23.39    2.04
  -3  -5 -11   24.84    3.48
   3   5  11   15.62    3.90
  -3   5 -11   23.64    2.83
  -4  -5 -11    8.23    2.61
  -4  -5 -11    9.57    1.83
   4  -5  11    9.23    1.25
  -4   5 -11    8.24    1.86
   4   5  11   10.63    3.62
  -5  -5 -11    3.42    2.86
  -5  -5 -11    6.32    1.79
   5   5  11    9.11    3.31
  -6  -5 -11   24.39    4.20
  -6  -5 -11   19.62    3.58
   6   5  11   22.24    4.53
  -7  -5 -11    3.19    2.13
   7   5  11    6.61    3.05
  -8  -5 -11    0.54    2.16
   8   5  11    7.69    3.08
  -8  -6  11   -1.26    2.93
  -8  -6  11   -0.69    2.05
  -8   6  11    1.67    1.87
  -7  -6  11   -4.64    2.76
  -7   6  11    1.00    1.69
  -6  -6  11   22.27    4.26
  -6   6  11   24.98    3.40
  -5  -6  11    0.25    1.45
  -5  -6  11    1.48    2.02
  -5   6  11    0.86    1.43
  -4  -6  11    1.34    1.26
  -4  -6  11    0.35    2.11
  -4   6  11    0.92    1.48
   4   6 -11    1.91    1.89
  -3  -6  11    0.64    1.96
  -3  -6  11    1.44    1.04
   3  -6 -11    1.58    1.39
   3  -6 -11    0.45    0.92
   3   6 -11    1.63    2.34
  -3   6  11    1.74    1.32
  -2  -6  11   74.18    6.61
   2  -6 -11   75.35    6.13
  -2  -6  11   69.19    5.51
  -2   6  11   62.79    5.99
   2   6 -11   62.46    6.17
  -1  -6  11    2.61    1.62
   1  -6 -11   -0.61    1.29
  -1  -6  11    1.11    0.67
  -1   6  11    0.07    1.41
   1   6 -11   -0.07    1.13
   0  -6  11    4.39    0.67
   0  -6 -11    3.43    1.76
   0   6  11    5.93    2.03
   0   6 -11    5.20    1.45
   1  -6  11    6.22    1.15
   1  -6  11    6.58    0.89
  -1  -6 -11    6.50    2.04
   1   6  11    4.03    2.08
  -1   6 -11    7.22    1.50
  -2  -6 -11   37.64    4.60
  -2  -6 -11   41.31    3.78
   2   6  11   36.19    5.27
   2   6  11   36.07    5.43
  -2   6 -11   34.53    3.74
  -3  -6 -11    6.49    2.41
  -3  -6 -11    6.27    1.59
  -3   6 -11    7.26    1.89
   3   6  11    5.29    2.92
  -4  -6 -11    2.17    1.20
  -4   6 -11    2.37    1.35
   4   6  11    1.28    3.11
  -5  -6 -11    2.12    2.16
  -5  -6 -11    2.22    1.64
   5   6  11    5.58    3.16
  -5   6 -11    1.80    1.37
  -6  -6 -11    0.91    1.38
   6   6  11    2.63    3.22
  -7  -6 -11    7.93    2.34
   7   6  11   14.52    4.21
  -8  -7  11   -0.98    3.22
  -8   7  11    3.93    2.15
  -7  -7  11   -3.00    3.00
  -7   7  11    3.96    1.84
  -6  -7  11   -3.52    2.48
  -6   7  11    1.06    2.22
  -5  -7  11   -0.40    2.54
  -5  -7  11    1.33    1.49
  -5   7  11   -0.89    1.37
  -4  -7  11    8.55    1.72
  -4  -7  11    2.30    2.17
  -4   7  11    5.41    1.63
  -3  -7  11   14.81    2.02
   3  -7 -11   14.95    1.64
  -3  -7  11    7.79    2.47
   3  -7 -11   15.17    2.04
  -3   7  11   15.74    2.43
   3   7 -11   15.58    2.58
  -2  -7  11   18.37    2.99
   2  -7 -11   15.47    1.86
   2  -7 -11   13.76    2.47
  -2  -7  11   16.10    1.82
   2   7 -11   14.38    2.43
  -2   7  11   11.69    2.24
   1  -7 -11   -0.11    1.69
   1  -7 -11    0.29    0.79
  -1  -7  11    0.61    1.71
  -1  -7  11    0.61    0.65
  -1   7  11   -1.08    1.60
   0  -7 -11   22.73    2.59
   0  -7 -11   24.62    3.61
   0   7  11   23.30    3.28
   0   7 -11   21.82    3.05
   1  -7  11    6.16    1.28
  -1  -7 -11    5.90    1.37
  -1  -7 -11    2.16    1.97
  -1   7 -11    3.36    1.56
   1   7  11    2.23    2.29
  -2  -7 -11   19.30    4.87
  -2  -7 -11   22.12    2.77
   2   7  11   26.44    4.18
  -2   7 -11   17.67    3.72
   2   7  11   19.47    3.75
  -3  -7 -11    3.84    2.26
  -3  -7 -11    1.57    1.18
  -3   7 -11    1.80    1.22
   3   7  11    2.66    3.15
  -4  -7 -11   25.77    3.83
  -4  -7 -11   15.22    2.33
   4   7  11   19.85    4.71
  -4   7 -11   13.14    2.11
  -5  -7 -11   -0.75    1.30
   5   7  11   -1.12    2.73
  -6  -7 -11    6.05    2.14
   6   7  11    4.30    3.32
  -7  -7 -11    1.99    1.68
   7   7  11    0.90    2.92
  -8  -8  11   -1.86    3.45
  -8   8  11    2.82    2.35
  -7  -8  11   -5.30    3.05
  -7   8  11    1.84    1.82
  -6  -8  11    0.13    3.00
  -6   8  11    5.26    1.98
  -5  -8  11   10.38    1.98
  -5  -8  11    1.48    2.89
  -5   8  11    5.91    2.05
  -4  -8  11    1.35    2.52
  -4  -8  11    2.20    1.34
  -4   8  11    1.31    1.63
   3  -8 -11   10.24    1.51
   3  -8 -11   11.44    1.74
  -3  -8  11   13.65    1.95
  -3  -8  11    9.06    3.03
  -3   8  11    8.22    2.04
  -2  -8  11   -0.26    1.91
  -2  -8  11    1.01    0.88
   2  -8 -11    0.81    0.77
  -2   8  11   -1.70    1.44
   1  -8 -11   19.88    3.03
  -1  -8  11   19.95    3.24
   1  -8 -11   19.13    2.18
  -1  -8  11   14.28    1.59
  -1   8  11   11.80    2.51
   1   8 -11   12.45    2.25
   0  -8 -11   -0.16    0.90
   0  -8 -11    1.81    2.01
   0  -8  11    2.74    1.21
   0   8  11   -1.01    1.74
   0   8 -11    0.85    1.39
  -1  -8 -11   21.75    3.67
  -1  -8 -11   22.14    2.82
   1  -8  11   26.83    2.81
  -1   8 -11   19.94    3.01
   1   8  11   21.97    3.51
  -2  -8 -11   10.53    2.76
  -2  -8 -11   11.51    1.90
   2   8  11    9.28    3.09
   2   8  11   11.75    3.22
  -2   8 -11    9.48    1.89
  -3  -8 -11   12.30    3.17
  -3  -8 -11    8.83    1.75
   3   8  11   14.12    3.54
  -3   8 -11    6.64    1.60
  -4  -8 -11    1.61    1.43
  -4   8 -11   -0.45    1.27
   4   8  11   -0.59    2.71
  -5  -8 -11    0.51    1.32
   5   8  11   -0.01    2.85
  -6  -8 -11   -0.29    1.34
   6   8  11   -6.90    2.72
  -7  -8 -11    3.06    2.11
   7   8  11    0.02    3.38
  -7  -9  11    0.94    3.88
  -7   9  11    6.29    2.36
  -6  -9  11   -0.88    3.05
  -6   9  11    2.29    1.75
  -5  -9  11   -1.17    3.03
  -5  -9  11    1.77    1.72
  -5   9  11   -3.06    2.25
  -4  -9  11    5.40    1.63
  -4  -9  11    3.40    2.93
  -4   9  11    1.11    1.91
   3  -9 -11    6.30    1.04
  -3  -9  11    7.12    1.49
  -3  -9  11    4.84    2.70
  -3   9  11    2.81    1.81
   2  -9 -11    1.90    0.99
  -2  -9  11    1.16    2.25
  -2  -9  11    2.37    1.05
  -2   9  11    0.78    1.66
  -1  -9  11    1.73    1.96
  -1  -9  11    6.27    1.49
   1  -9 -11    4.76    1.34
   1   9 -11    6.51    2.43
  -1   9  11    3.13    1.99
   0  -9 -11    5.38    1.32
   0  -9  11    6.68    1.49
   0   9 -11    5.28    1.78
   0   9  11    2.74    1.99
  -1  -9 -11   -0.31    1.08
   1  -9  11    2.72    1.42
   1   9  11   -2.11    2.04
  -1   9 -11    0.39    1.38
  -2  -9 -11    3.43    1.41
  -2   9 -11    1.82    1.36
   2   9  11   10.88    3.04
  -3  -9 -11    5.32    1.65
  -3   9 -11    5.69    1.60
   3   9  11    9.13    3.60
  -4  -9 -11   -0.10    1.53
   4   9  11    0.15    4.20
  -5  -9 -11   -0.62    1.40
   5   9  11    3.15    3.62
  -6  -9 -11   -1.05    1.82
   6   9  11   -0.35    3.30
  -7 -10  11   -2.33    3.29
  -7  10  11   -0.03    2.20
  -6 -10  11    1.07    3.47
  -6  10  11   -1.81    1.72
  -5 -10  11   -1.94    2.43
  -5 -10  11   -0.07    1.72
  -5  10  11   -0.08    1.81
  -4 -10  11    2.13    1.53
  -4 -10  11   -7.33    3.00
   3 -10 -11    3.37    0.95
  -3 -10  11   -0.15    2.66
  -3 -10  11    5.51    1.39
  -3  10  11   -0.08    1.71
  -2 -10  11    5.92    2.87
   2 -10 -11   11.81    1.64
  -2 -10  11   11.17    1.61
  -2  10  11    8.16    2.38
  -1 -10  11    2.30    1.38
  -1 -10  11   -1.19    2.07
   1 -10 -11    1.14    1.07
  -1  10  11   -1.46    1.75
   0 -10  11    8.18    1.70
   0 -10 -11    4.40    1.40
   0  10  11    4.68    2.18
  -1 -10 -11    1.24    1.15
   1 -10  11    2.86    1.62
   1  10  11    2.05    2.70
   1  10  11    0.00    2.43
   2 -10  11    8.53    1.30
  -2 -10 -11    7.73    1.89
   2  10  11   13.36    3.30
  -3 -10 -11    0.53    1.34
   3  10  11    2.47    5.98
  -4 -10 -11    3.10    1.83
   4  10  11    4.67    3.60
  -5 -10 -11    2.42    1.86
   5  10  11    2.15    3.64
  -6 -10 -11   -0.72    1.52
   6  10  11   -1.83    3.47
  -6 -11  11    0.34    3.18
  -6  11  11    0.62    2.01
  -5 -11  11    1.53    3.30
  -5  11  11   -0.74    1.84
  -4 -11  11   -0.65    2.76
  -4 -11  11   -0.28    1.63
  -4  11  11    0.39    1.98
  -3 -11  11   -2.31    1.22
  -3 -11  11   -2.09    2.40
  -3  11  11   -0.62    1.92
   2 -11 -11    1.99    1.03
  -2 -11  11   -2.70    2.25
  -2 -11  11    6.11    1.86
  -2  11  11   -0.25    2.48
   1 -11 -11    0.76    1.10
  -1 -11  11    5.00    1.78
  -1 -11  11   -3.29    2.29
  -1  11  11    1.69    2.11
   0 -11 -11    2.64    1.30
   0 -11  11    5.54    1.85
   0  11  11    2.12    2.13
   1 -11  11    2.84    1.74
  -1 -11 -11    0.07    1.19
   1  11  11    4.20    2.51
   1  11  11    0.89    2.35
  -2 -11 -11    0.85    1.32
   2 -11  11    2.43    1.22
  -3 -11 -11   -0.66    1.32
   3  11  11    2.92    3.21
  -4 -11 -11    7.72    2.26
   4  11  11    7.65    3.99
  -5 -11 -11    1.06    1.76
   5  11  11   -1.46    3.26
  -5 -12  11   -3.53    2.69
  -5  12  11   -1.01    1.86
  -4 -12  11   -3.39    2.60
  -4 -12  11   -3.17    1.72
  -4  12  11    0.44    2.18
  -3 -12  11   -0.75    2.77
  -3  12  11    0.43    2.13
  -2 -12  11   -1.29    2.55
   2 -12 -11    2.55    1.22
  -2 -12  11   10.98    2.89
  -2  12  11    0.01    2.09
  -1 -12  11    6.33    3.21
   1 -12 -11    4.00    1.42
  -1 -12  11    2.32    4.09
  -1  12  11   -0.14    2.07
   0 -12 -11    2.48    1.40
   0  12  11    3.52    2.38
   1 -12  11    9.93    2.37
   1  12  11    5.40    2.86
   1  12  11   10.00    3.32
  -2 -12 -11    2.03    1.62
   2 -12  11    2.25    1.61
   2  12  11    4.20    3.04
  -3 -12 -11    1.31    1.57
   3  12  11    0.48    3.09
  -4 -12 -11    0.69    1.86
   4  12  11    0.80    3.14
  -4 -13  11    4.36    3.59
  -4  13  11   -0.96    2.19
  -3 -13  11   -2.01    2.75
  -3  13  11   -1.39    1.93
   2 -13 -11   -0.41    1.25
  -2 -13  11   -0.38    2.88
  -2  13  11   -2.90    1.99
   1 -13 -11    0.23    1.24
  -1 -13  11   -2.32    2.74
  -1 -13  11    3.16    2.08
  -1  13  11    0.40    2.16
   0 -13  11    6.03    2.13
   0 -13 -11    0.69    1.35
   0  13  11    1.03    2.44
   0  13  11    0.78    2.31
  -1 -13 -11    1.57    1.52
   1 -13  11    3.55    2.03
   1  13  11    3.17    2.90
   2 -13  11    2.82    2.02
   2  13  11    5.83    2.71
  -3 -13 -11   -0.27    1.64
   3  13  11   -2.79    2.68
  -3 -14  11   -5.72    2.94
  -3  14  11   -1.86    2.14
  -2 -14  11    1.17    3.24
  -2  14  11    3.62    2.55
   1 -14 -11    0.40    1.33
  -1 -14  11   -4.35    2.53
  -1  14  11   -0.82    2.16
   0 -14 -11    0.74    1.36
   0 -14  11    4.77    2.38
   0  14  11    7.12    2.99
   0  14  11   -1.97    2.48
   1 -14  11    6.20    2.42
  -1 -14 -11    0.02    1.39
   1  14  11   -1.35    2.42
  -2 -14 -11    1.68    1.68
   2 -14  11    1.40    2.27
   2  14  11    3.72    3.02
  -9   0  12    1.56    1.62
  -9   0  12    2.96    2.10
  -8   0  12   64.16    6.08
  -8   0  12   67.46    5.82
   8   0 -12   55.93    6.20
  -7   0  12    2.35    1.73
  -7   0  12    1.34    1.27
   7   0 -12   -1.16    1.77
   6   0 -12    0.12    1.83
  -6   0  12    2.89    1.56
  -6   0  12    3.64    1.26
  -5   0  12    4.29    1.23
   5   0 -12    0.92    1.67
  -5   0  12    2.63    1.30
   4   0 -12  103.04    9.10
  -4   0  12  112.24    8.66
   3   0 -12    4.13    1.38
  -3   0  12    4.12    1.12
  -2   0  12    0.54    0.83
   2   0 -12   -0.07    0.90
  -1   0  12    7.07    1.25
   1   0 -12    6.05    1.00
   1   0 -12    4.53    1.13
   0   0  12   16.19    1.96
   0   0 -12   15.63    1.66
  -1   0 -12    6.98    0.94
   1   0  12    4.64    1.44
  -2   0 -12    0.07    0.55
   2   0  12   -0.48    1.24
   2   0  12   -4.22    1.93
   3   0  12   -0.35    1.78
  -3   0 -12    0.16    0.61
   4   0  12    7.72    1.97
  -4   0 -12    5.37    1.10
   5   0  12   20.73    2.98
  -5   0 -12   17.15    2.41
  -6   0 -12   -2.39    1.56
   6   0  12    0.88    1.41
   7   0  12    2.58    1.83
  -7   0 -12   -0.77    1.57
  -8   0 -12    5.35    2.13
  -8   0 -12    8.27    1.73
   8   0  12    6.91    2.10
  -8   0 -12    9.68    2.82
  -9  -1  12    8.90    2.63
  -9  -1  12    4.80    2.11
  -9   1  12    8.09    2.42
  -9   1  12    5.58    1.64
   8  -1 -12    1.97    1.73
  -8  -1  12    6.25    1.83
  -8  -1  12    6.15    2.17
   8   1 -12    3.43    2.48
  -8   1  12    4.39    1.83
  -8   1  12    4.64    1.37
  -7  -1  12   -0.42    1.54
   7  -1 -12   -0.13    1.48
  -7  -1  12    1.69    1.46
   7   1 -12   -3.70    1.83
  -7   1  12    0.90    1.69
  -7   1  12    2.41    1.19
   6  -1 -12   -0.01    1.53
  -6  -1  12    0.69    1.33
  -6  -1  12   -0.22    1.41
  -6   1  12    0.23    1.26
   6   1 -12    0.32    1.87
  -5  -1  12   31.97    3.38
   5  -1 -12   24.91    3.52
  -5  -1  12   31.24    3.22
  -5   1  12   31.76    3.24
   5   1 -12   24.03    3.93
  -4  -1  12   22.50    2.48
   4  -1 -12   18.09    2.71
  -4   1  12   23.32    2.55
   4   1 -12   16.88    2.74
  -3  -1  12    0.55    0.87
   3  -1 -12    0.63    1.10
   3   1 -12    2.14    1.31
  -3   1  12    3.31    1.13
  -2  -1  12    1.89    0.83
   2  -1 -12    2.34    0.82
   2  -1 -12    1.93    1.03
   2   1 -12    2.07    0.97
  -2   1  12    2.07    1.45
  -1  -1  12   11.53    1.43
   1  -1 -12    9.33    1.42
   1  -1 -12   11.04    1.61
   1   1 -12    9.86    1.51
  -1   1  12    7.30    1.36
   0  -1  12   87.18    7.00
   0  -1 -12   95.83    7.17
   0   1  12   87.73    7.18
   0   1 -12   85.32    7.21
   1  -1  12    6.04    1.37
  -1  -1 -12    8.96    1.30
  -1   1 -12    8.90    1.03
   1   1  12    6.14    1.63
  -2  -1 -12    1.21    0.79
   2  -1  12   -0.32    1.74
  -2   1 -12    2.13    0.51
   2   1  12    0.28    1.60
   2   1  12    1.01    2.51
   3  -1  12    0.65    1.41
  -3  -1 -12    0.00    0.86
  -3   1 -12    0.33    0.41
   3   1  12    1.58    2.05
  -4  -1 -12   54.30    4.57
   4  -1  12   50.26    4.70
   4   1  12   49.73    5.28
  -4   1 -12   48.52    3.95
   5  -1  12    3.33    1.48
  -5  -1 -12   -0.49    1.64
   5   1  12    1.14    1.78
  -5   1 -12    0.05    0.69
   6  -1  12    2.89    1.56
  -6  -1 -12   -2.24    1.55
   6   1  12    0.92    1.72
  -6   1 -12   -0.70    0.91
   7  -1  12    2.57    1.57
  -7  -1 -12   -0.68    1.85
  -7  -1 -12    0.04    1.60
  -7   1 -12   -1.70    1.13
   7   1  12    2.17    1.76
  -7   1 -12    0.24    0.85
   8  -1  12   10.44    2.33
  -8  -1 -12   10.86    2.59
  -8  -1 -12    6.80    2.50
   8   1  12    9.78    2.47
  -8   1 -12    4.83    2.27
  -8   1 -12    4.05    2.43
  -8   1 -12    9.84    1.47
  -9  -2  12    1.40    2.14
  -9  -2  12    1.45    2.03
  -9   2  12    2.28    2.08
  -8  -2  12   25.71    3.74
  -8  -2  12   17.12    2.87
  -8   2  12   17.42    2.87
   7  -2 -12   -0.24    1.23
  -7  -2  12    0.10    2.40
  -7  -2  12    2.51    1.80
   7   2 -12   -2.05    2.30
  -7   2  12    1.19    2.16
  -6  -2  12    2.99    1.63
   6  -2 -12    0.83    1.38
  -6  -2  12    3.08    1.58
   6   2 -12    0.09    2.02
  -6   2  12    1.33    1.30
  -5  -2  12    2.76    1.43
  -5  -2  12    1.70    1.48
   5  -2 -12    3.15    1.91
  -5  -2  12    4.07    1.56
   5   2 -12    0.82    1.72
  -5   2  12    3.02    1.36
  -4  -2  12   50.54    4.46
  -4  -2  12   52.67    4.73
   4  -2 -12   42.07    6.35
  -4   2  12   50.71    4.53
   4   2 -12   49.26    5.17
  -3  -2  12    3.80    1.27
   3  -2 -12    1.57    0.98
  -3  -2  12    1.18    0.87
   3  -2 -12    1.49    1.21
   3   2 -12    1.82    1.31
  -3   2  12    1.50    1.07
  -2  -2  12    0.65    0.80
   2  -2 -12    2.32    0.98
   2  -2 -12    0.77    0.80
  -2   2  12   -0.12    0.92
   2   2 -12    1.01    1.04
  -1  -2  12   30.53    2.68
   1  -2 -12   29.95    2.78
   1   2 -12   27.12    3.05
  -1   2  12   29.02    2.92
   0  -2 -12   25.97    2.42
   0  -2  12   24.64    2.27
   0   2 -12   23.00    2.68
   0   2  12   20.82    2.71
   1  -2  12    6.75    1.20
  -1  -2 -12    7.36    1.41
   1   2  12    5.29    1.73
   2  -2  12   -0.42    1.38
   2   2  12    0.94    1.88
   2   2  12   -0.82    2.35
   3  -2  12   25.80    2.93
  -3  -2 -12   28.23    3.14
   3   2  12   30.71    4.68
  -4  -2 -12    1.64    1.42
   4   2  12   -1.64    1.97
   5  -2  12    4.25    1.33
  -5  -2 -12   -0.42    1.71
   5   2  12    3.72    2.12
  -6  -2 -12    0.83    2.00
   6  -2  12    4.00    1.44
   6   2  12    1.04    1.89
  -7  -2 -12    3.10    2.34
  -7  -2 -12    3.35    1.96
   7  -2  12    4.57    1.58
   7   2  12    8.38    3.18
   8  -2  12    6.59    1.91
  -8  -2 -12   -0.01    2.26
  -8  -2 -12    2.75    1.89
  -8   2 -12    3.31    0.93
   8   2  12    6.85    2.51
  -8   2 -12    4.36    0.86
  -9  -3  12    1.00    1.96
  -9   3  12    4.22    2.06
  -8  -3  12   -1.96    1.74
  -8  -3  12    0.73    2.02
  -8   3  12   -0.41    1.57
  -7  -3  12    2.57    2.49
  -7  -3  12    2.01    1.94
   7  -3 -12    1.12    0.98
  -7   3  12    1.02    2.06
   7   3 -12   -0.44    3.02
   6  -3 -12    1.11    1.06
  -6  -3  12   -0.19    1.42
  -6  -3  12    2.94    1.77
  -6   3  12    0.80    1.44
   6   3 -12   -1.55    2.05
   5  -3 -12   20.01    2.96
  -5  -3  12   23.67    2.85
  -5  -3  12   21.81    2.88
  -5  -3  12   31.43    3.72
  -5   3  12   21.33    2.81
   5   3 -12   17.14    3.09
   4  -3 -12    2.00    1.41
  -4  -3  12    4.84    1.51
  -4  -3  12    4.89    1.41
   4  -3 -12    3.85    1.38
  -4  -3  12    3.61    1.51
   4   3 -12    4.79    1.83
  -4   3  12    3.89    1.33
   3  -3 -12    2.31    1.11
  -3  -3  12    3.46    1.07
  -3  -3  12    3.46    1.25
   3  -3 -12    2.25    1.17
  -3   3  12    2.79    1.22
   3   3 -12    2.14    1.34
   2  -3 -12    4.71    1.18
  -2  -3  12    6.04    1.15
   2  -3 -12    6.14    1.26
  -2   3  12    6.37    1.50
   2   3 -12    6.67    1.49
   1  -3 -12   42.18    3.69
  -1  -3  12   41.15    3.46
  -1   3  12   39.39    3.82
   1   3 -12   38.95    3.88
   0  -3 -12   51.73    4.28
   0  -3  12   48.57    3.97
   0   3  12   45.07    4.50
   0   3 -12   49.64    4.42
   1  -3  12    1.74    0.78
  -1  -3 -12    0.46    0.92
   1   3  12    0.44    1.62
  -1   3 -12    0.68    0.85
   2  -3  12   15.08    2.05
  -2  -3 -12   16.00    2.07
   2   3  12   10.23    3.24
   2   3  12    8.75    2.57
  -3  -3 -12   -0.47    1.38
   3  -3  12    1.45    0.99
   3   3  12   -0.98    2.55
   4  -3  12   27.63    2.81
  -4  -3 -12   30.04    3.84
   4   3  12   29.70    4.37
   5  -3  12    1.24    1.06
  -5  -3 -12    0.24    1.89
   5   3  12   -0.37    2.30
   6  -3  12    6.56    1.55
  -6  -3 -12    9.48    2.63
  -6  -3 -12    7.00    2.57
   6   3  12    8.21    2.94
   7  -3  12    3.74    1.49
  -7  -3 -12    2.46    1.91
  -7  -3 -12    4.86    2.84
   7   3  12    4.80    2.40
  -8  -3 -12    1.38    2.01
   8   3  12   10.20    3.13
  -8  -4  12   -1.67    1.95
  -8  -4  12   -1.12    2.07
  -8   4  12    1.90    1.86
  -7  -4  12    0.17    2.28
  -7  -4  12   -0.60    1.68
  -7   4  12    0.85    1.57
   6  -4 -12    4.35    0.95
  -6  -4  12    5.79    1.74
  -6  -4  12    6.21    2.41
   6   4 -12    7.76    2.66
  -6   4  12    4.05    1.57
   5  -4 -12    0.08    1.01
  -5  -4  12    4.04    1.57
  -5  -4  12    4.05    2.08
  -5  -4  12    2.53    1.49
   5   4 -12    3.97    2.06
  -5   4  12    3.07    1.50
   4  -4 -12   16.86    2.36
  -4  -4  12   16.36    2.68
   4  -4 -12   11.71    2.05
  -4  -4  12   18.21    2.34
  -4  -4  12   14.62    2.08
  -4   4  12   13.33    2.04
   4   4 -12   14.37    2.52
   3  -4 -12    8.11    1.50
  -3  -4  12    4.77    1.20
  -3  -4  12    8.70    1.59
   3  -4 -12    8.26    1.69
  -3  -4  12    5.69    1.67
  -3   4  12    8.92    1.77
   3   4 -12    6.11    1.80
  -2  -4  12   11.64    2.03
  -2  -4  12   11.92    1.69
   2  -4 -12    9.75    1.64
   2   4 -12   10.77    1.94
  -2   4  12   11.35    1.81
  -1  -4  12   33.67    2.99
   1  -4 -12   33.67    3.35
  -1   4  12   32.90    3.53
   1   4 -12   36.65    3.60
   0  -4  12   30.72    2.74
   0  -4 -12   37.49    3.35
   0   4  12   25.76    3.49
   0   4 -12   34.63    3.40
   1  -4  12    1.65    0.61
  -1  -4 -12    0.81    1.19
   1   4  12    0.54    1.70
  -1   4 -12    1.31    1.05
   2  -4  12    3.02    0.98
  -2  -4 -12    2.68    1.47
  -2   4 -12    3.53    1.31
   2   4  12   -0.97    2.12
   2   4  12    5.09    2.80
  -3  -4 -12   64.34    5.55
   3  -4  12   51.64    4.38
   3   4  12   45.60    6.45
  -4  -4 -12    1.15    1.81
   4  -4  12    1.35    0.86
   4   4  12   -0.55    2.57
  -5  -4 -12   14.74    3.11
   5  -4  12   15.49    2.38
  -5  -4 -12   13.83    2.35
   5   4  12   17.04    3.83
  -6  -4 -12    7.08    2.05
   6  -4  12    8.14    1.58
  -6  -4 -12    5.99    4.46
   6   4  12   12.44    3.32
  -7  -4 -12    8.92    2.57
  -7  -4 -12    9.12    2.87
   7   4  12   11.67    3.39
  -8  -4 -12   -0.61    2.01
   8   4  12    5.47    3.23
  -8  -5  12   -1.09    2.75
  -8  -5  12   -2.27    2.05
  -8   5  12    1.53    1.75
  -7  -5  12   -0.21    1.70
  -7  -5  12    1.91    2.53
  -7   5  12    2.10    1.77
  -6  -5  12    1.19    1.68
  -6  -5  12    0.51    2.04
  -6   5  12    2.23    1.53
  -5  -5  12    2.25    2.27
   5  -5 -12    0.03    0.65
  -5  -5  12    0.48    1.36
  -5  -5  12    0.27    1.41
   5   5 -12    4.88    2.14
  -5   5  12    0.85    1.31
  -4  -5  12    7.36    1.60
  -4  -5  12    5.75    1.57
  -4  -5  12    6.85    1.96
  -4   5  12    4.58    1.68
   4   5 -12    5.94    2.16
  -3  -5  12    1.54    1.13
  -3  -5  12    1.76    1.09
   3  -5 -12   -0.14    1.58
  -3  -5  12    1.61    1.76
   3  -5 -12    1.48    1.08
  -3   5  12    1.19    1.20
   3   5 -12    1.81    1.91
  -2  -5  12   48.31    4.11
  -2  -5  12   47.71    4.20
  -2  -5  12   55.24    5.10
   2  -5 -12   49.53    4.54
  -2   5  12   42.22    4.52
   2   5 -12   49.15    4.83
  -1  -5  12    5.08    0.97
   1  -5 -12    4.99    1.49
  -1   5  12    3.84    1.52
   1   5 -12    5.20    1.41
   0  -5  12   37.08    3.02
   0  -5 -12   38.97    3.84
   0   5  12   30.40    4.01
   0   5 -12   34.46    3.64
   1  -5  12    1.83    0.88
  -1  -5 -12    0.03    1.38
   1  -5  12    2.17    0.55
   1   5  12   -0.72    1.71
  -1   5 -12    3.05    1.33
   2  -5  12   66.09    5.62
  -2  -5 -12   82.11    6.77
   2   5  12   81.71    7.88
  -2   5 -12   71.75    6.26
   2   5  12   75.41    7.33
   3  -5  12    2.30    0.73
  -3  -5 -12    0.33    1.84
  -3   5 -12    0.86    1.09
   3   5  12   -1.99    2.87
  -4  -5 -12   14.53    2.29
  -4  -5 -12   14.77    2.92
   4  -5  12   14.56    1.63
  -4   5 -12   12.22    2.05
   4   5  12   11.78    3.45
  -5  -5 -12    0.25    2.35
  -5  -5 -12    2.17    1.57
   5  -5  12    3.14    0.98
   5   5  12    2.74    2.78
  -6  -5 -12   11.21    3.02
  -6  -5 -12   12.01    2.59
   6   5  12   11.52    3.86
  -7  -5 -12    0.17    1.89
   7   5  12   -0.02    2.76
  -8  -6  12    1.73    3.35
  -8  -6  12    1.06    2.16
  -8   6  12    3.88    1.99
  -7  -6  12   -2.11    1.68
  -7  -6  12   -1.93    5.40
  -7   6  12    1.96    1.89
  -6  -6  12   17.99    3.56
  -6   6  12   26.95    3.70
  -5  -6  12    1.76    2.34
  -5  -6  12    1.82    1.53
  -5   6  12   -0.11    1.52
  -4  -6  12   13.86    2.77
  -4  -6  12   17.03    2.38
   4  -6 -12   15.00    2.06
   4   6 -12   14.85    2.66
  -4   6  12   12.28    2.10
   3  -6 -12    4.46    1.27
  -3  -6  12    4.98    1.29
  -3  -6  12    5.01    2.16
   3  -6 -12    6.95    1.82
   3   6 -12    4.99    1.85
  -3   6  12    4.04    1.61
  -2  -6  12   59.06    5.56
  -2   6  12   47.14    4.88
   2   6 -12   49.64    5.35
  -1  -6  12    4.31    0.84
   1  -6 -12    1.57    1.49
   1   6 -12    1.67    1.50
  -1   6  12    2.30    1.53
   0  -6 -12   11.74    2.34
   0  -6  12    8.47    1.01
   0  -6  12    9.09    1.16
   0   6  12    7.98    2.25
   0   6 -12    5.75    1.48
  -1  -6 -12   29.03    3.93
   1  -6  12   27.18    2.70
   1  -6  12   33.04    2.49
  -1   6 -12   29.82    3.96
   1   6  12   30.38    4.08
  -2  -6 -12    0.86    1.68
   2   6  12    0.44    2.56
   2   6  12    2.68    2.74
  -2   6 -12    1.99    1.40
  -3  -6 -12   -1.14    1.91
  -3  -6 -12    0.04    1.25
   3   6  12   -1.46    2.80
  -3   6 -12   -0.62    1.16
  -4  -6 -12    0.97    2.03
  -4  -6 -12    0.55    1.22
  -4   6 -12   -0.65    1.23
   4   6  12   -3.58    2.67
  -5  -6 -12   22.07    3.86
  -5  -6 -12   20.68    3.26
   5   6  12   20.21    4.75
  -6  -6 -12    2.61    1.62
   6   6  12    4.51    3.06
  -7  -6 -12   -0.18    1.73
   7   6  12    3.45    3.08
  -8  -7  12   -1.96    3.58
  -8  -7  12   -4.38    2.03
  -8   7  12    0.80    2.04
  -7  -7  12   -0.97    2.97
  -7   7  12    3.38    2.10
  -6  -7  12    0.74    2.98
  -6   7  12    1.02    1.71
  -5  -7  12   16.41    2.47
  -5  -7  12    8.25    3.15
  -5   7  12   10.66    2.24
  -4  -7  12    7.82    1.73
  -4  -7  12    5.93    2.85
  -4   7  12    7.67    2.03
  -3  -7  12    7.30    2.78
   3  -7 -12   11.03    1.47
  -3  -7  12    9.38    1.57
   3  -7 -12    8.00    1.51
   3   7 -12   14.29    3.38
  -3   7  12    7.67    1.90
  -2  -7  12   42.78    3.88
   2  -7 -12   49.25    4.78
   2  -7 -12   48.21    3.89
  -2  -7  12   44.25    5.30
  -2   7  12   39.51    4.58
  -1  -7  12   12.94    1.45
   1  -7 -12   13.76    2.60
  -1  -7  12   14.85    2.76
  -1   7  12   11.47    2.46
   1   7 -12   10.52    2.07
   0  -7 -12   16.27    2.28
   0  -7 -12   19.81    3.81
   0   7 -12   15.83    2.39
   0   7  12   15.72    2.89
   1  -7  12    0.49    0.52
  -1  -7 -12    0.32    0.95
   1  -7  12    0.97    1.00
  -1  -7 -12   -3.08    2.29
   1   7  12    1.05    2.04
  -1   7 -12    1.39    1.14
  -2  -7 -12   56.15    5.22
  -2  -7 -12   58.62    6.10
   2   7  12   63.34    6.70
   2   7  12   69.52    6.93
  -2   7 -12   51.48    5.28
  -3  -7 -12   -0.82    1.08
  -3  -7 -12    1.06    2.07
   3   7  12    0.87    2.83
  -3   7 -12   -1.82    1.07
  -4  -7 -12    5.09    1.49
  -4  -7 -12    6.95    2.76
   4   7  12    2.70    2.98
  -5  -7 -12    1.01    1.55
   5   7  12    1.11    3.55
  -6  -7 -12    5.85    2.13
   6   7  12    5.77    4.06
  -7  -7 -12    0.21    1.63
   7   7  12    0.63    3.84
  -7  -8  12   -3.82    3.25
  -7   8  12    0.09    1.78
  -6  -8  12   21.81    4.90
  -6   8  12   24.71    3.62
  -5  -8  12    3.53    1.72
  -5  -8  12   -1.67    2.31
  -5   8  12    0.34    2.22
  -4  -8  12    8.00    1.71
  -4  -8  12    4.24    2.53
  -4   8  12    4.87    1.85
  -3  -8  12   11.49    2.85
  -3  -8  12   18.49    2.24
   3  -8 -12   16.90    2.36
   3  -8 -12   18.09    1.91
  -3   8  12   14.83    2.53
   2  -8 -12   39.88    3.47
  -2  -8  12   45.06    5.28
  -2  -8  12   37.25    3.34
  -2   8  12   31.41    4.23
   1  -8 -12   15.13    2.90
   1  -8 -12   13.52    2.60
  -1  -8  12   13.24    1.43
  -1  -8  12   13.50    2.72
   1   8 -12   12.62    2.24
  -1   8  12    8.47    2.26
   0  -8  12    1.46    1.14
   0  -8 -12   -0.41    2.01
   0  -8 -12   -0.16    0.94
   0   8  12   -1.74    1.75
   0   8 -12    1.12    1.45
  -1  -8 -12   27.10    3.16
   1  -8  12   28.32    3.00
  -1  -8 -12   33.14    4.38
   1   8  12   27.82    3.99
  -1   8 -12   28.18    3.47
  -2  -8 -12    9.41    1.84
  -2  -8 -12   10.66    2.80
   2   8  12   13.53    3.93
   2   8  12   11.76    3.39
  -2   8 -12    7.63    1.72
  -3  -8 -12    8.93    2.03
   3   8  12   14.91    4.22
  -4  -8 -12    0.63    1.29
   4   8  12    2.78    4.22
  -5  -8 -12    1.15    1.36
   5   8  12    4.30    4.07
  -6  -8 -12   -0.37    1.50
   6   8  12   -4.39    3.49
  -7  -9  12   -0.56    3.32
  -7   9  12    3.32    2.15
  -6  -9  12   -2.83    3.17
  -6   9  12    1.03    1.82
  -5  -9  12    3.42    1.72
  -5  -9  12   -1.57    2.48
  -5   9  12   -0.43    1.66
  -4  -9  12   -2.37    2.26
  -4  -9  12    0.57    1.34
  -4   9  12    0.79    1.73
   3  -9 -12    8.72    1.29
  -3  -9  12   11.73    1.74
  -3  -9  12    5.96    2.82
  -3   9  12    7.48    2.19
  -2  -9  12   11.05    1.66
   2  -9 -12   10.47    1.51
  -2  -9  12    6.68    2.61
  -2   9  12   10.30    2.38
  -1  -9  12    3.29    2.28
   1  -9 -12    3.12    1.10
  -1   9  12    0.79    1.90
   0  -9  12    2.96    1.34
   0  -9 -12    0.87    0.97
   0   9  12   -0.33    1.87
   1  -9  12    3.53    1.47
  -1  -9 -12    1.10    1.13
   1   9  12    3.49    2.54
  -2  -9 -12    7.98    1.78
   2   9  12   20.64    4.05
  -3  -9 -12    0.48    1.20
   3   9  12    3.11    2.81
  -4  -9 -12   -0.15    1.78
   4   9  12    3.43    3.56
  -5  -9 -12   -1.23    1.34
   5   9  12   -1.83    3.50
  -6  -9 -12    4.24    2.13
   6   9  12    3.86    4.27
  -6 -10  12    3.44    3.49
  -6  10  12    5.75    2.24
  -5 -10  12   -0.98    1.88
  -5 -10  12   -5.12    2.75
  -5  10  12   -0.61    1.83
  -4 -10  12   -0.61    1.39
  -4 -10  12   -2.74    2.50
  -4  10  12    1.38    1.88
  -3 -10  12    1.13    3.43
  -3 -10  12    1.58    1.24
   3 -10 -12    1.46    0.84
  -3  10  12    0.89    2.06
   2 -10 -12    4.06    1.20
  -2 -10  12    4.33    1.14
  -2 -10  12    0.27    2.38
  -2  10  12    4.09    2.04
  -1 -10  12   -1.58    2.14
  -1 -10  12    0.86    1.40
   1 -10 -12    0.90    1.08
  -1  10  12   -2.01    1.71
   0 -10 -12    0.19    1.11
   0 -10  12    4.85    1.58
   0  10  12   -1.35    1.98
   1 -10  12    4.38    1.61
   1  10  12    0.39    2.28
   1  10  12    6.00    2.70
  -2 -10 -12    1.27    1.25
   2  10  12    3.62    3.02
  -3 -10 -12    0.29    1.47
   3  10  12    0.51    2.76
  -4 -10 -12    0.99    1.59
   4  10  12    5.52    3.51
  -5 -10 -12    0.51    1.84
   5  10  12    1.36    3.21
  -6 -11  12   -1.64    3.51
  -6  11  12    2.40    2.31
  -5 -11  12   -1.97    3.36
  -5  11  12    1.30    2.00
  -4 -11  12    0.98    3.35
  -4 -11  12   -0.86    1.50
  -4  11  12   -0.22    1.98
   3 -11 -12    4.57    1.05
  -3 -11  12   -0.80    2.53
  -3 -11  12    2.81    1.45
  -3  11  12   -0.17    2.05
   2 -11 -12    0.35    0.99
  -2 -11  12    3.56    1.74
  -2 -11  12   -6.28    3.15
  -2  11  12   -0.66    2.02
  -1 -11  12   -3.66    2.34
   1 -11 -12   -0.45    1.04
  -1 -11  12    5.23    1.70
   0 -11  12    2.78    1.66
   0 -11 -12    1.16    1.25
  -1 -11 -12    3.35    1.51
   1  11  12    4.84    3.51
   2 -11  12    1.76    0.91
  -2 -11 -12    2.52    1.53
   2  11  12    5.19    2.76
  -3 -11 -12   -0.01    1.47
   3  11  12    2.78    2.92
  -4 -11 -12   -0.42    1.56
   4  11  12   -0.61    3.26
  -5 -11 -12    0.55    1.84
   5  11  12    1.11    3.83
  -5 -12  12   -1.34    2.88
  -5  12  12    1.61    2.18
  -4 -12  12   -3.43    1.64
  -4 -12  12   -4.00    2.62
  -4  12  12    0.38    2.19
  -3 -12  12   -5.19    2.72
  -3  12  12   -0.25    2.20
   2 -12 -12    0.51    1.15
  -2 -12  12   -2.31    2.61
  -2  12  12   -1.69    2.01
  -1 -12  12    4.97    3.77
   1 -12 -12    3.10    1.38
  -1 -12  12    1.60    2.62
  -1  12  12    2.70    2.51
   0 -12  12    2.61    1.80
   0 -12 -12    0.12    1.27
   0  12  12    1.06    2.32
   1 -12  12    5.37    1.96
  -1 -12 -12   -0.84    1.35
   1  12  12    2.72    2.87
   1  12  12   -2.47    2.33
   2 -12  12    0.29    1.06
  -2 -12 -12   -0.92    1.33
   2  12  12   -0.01    2.76
  -3 -12 -12    0.47    1.46
   3  12  12    1.48    2.77
  -4 -12 -12    1.66    1.74
   4  12  12   -3.29    3.28
  -4 -13  12   -2.21    3.28
  -4  13  12   -2.25    1.94
  -3 -13  12   -3.58    2.74
  -3  13  12   -0.33    2.13
  -2 -13  12   -1.91    2.84
  -2  13  12   -0.13    1.95
  -1 -13  12    4.97    2.06
   1 -13 -12    0.81    1.28
  -1  13  12   -1.76    2.10
   0 -13 -12    2.98    1.51
   0 -13  12   10.63    2.30
   0  13  12    3.66    2.75
   0  13  12    2.84    2.85
   1 -13  12    2.13    2.06
  -1 -13 -12   -0.28    1.28
   1  13  12    2.11    2.40
   2 -13  12    2.23    1.62
  -2 -13 -12    1.33    1.57
   2  13  12    9.08    3.28
  -3 -13 -12   -0.66    1.51
   3  13  12    0.31    2.90
  -2 -14  12   -1.31    3.00
  -2  14  12    3.12    2.69
   1 -14 -12    1.00    1.39
  -1 -14  12   -3.77    2.96
  -1  14  12   -0.38    2.33
   0 -14 -12    0.67    1.38
   0 -14  12    3.35    2.42
   0  14  12    1.97    2.81
   0  14  12    0.42    2.79
  -1 -14 -12   -1.00    2.27
   1 -14  12   -0.79    2.30
   1  14  12    1.94    2.69
  -9   0  13    0.28    1.47
  -9   0  13    0.61    2.09
  -8   0  13    3.73    1.51
   8   0 -13   -0.65    2.45
  -8   0  13    3.46    2.05
  -7   0  13   -0.82    1.58
   7   0 -13   -2.84    1.93
  -7   0  13    2.82    1.33
   6   0 -13   -1.91    1.65
  -6   0  13   -0.71    1.24
  -5   0  13    0.31    1.19
   5   0 -13   -1.92    1.45
   4   0 -13    0.03    1.52
  -4   0  13    0.18    1.11
  -3   0  13    0.25    0.94
   3   0 -13    0.13    1.19
   2   0 -13    0.83    1.09
  -2   0  13    0.09    0.87
   1   0 -13    0.39    0.99
   1   0 -13    0.19    0.62
  -1   0  13    0.30    0.88
   0   0 -13    0.38    0.58
   0   0  13   -0.20    0.88
  -1   0 -13    0.42    0.60
   1   0  13    0.17    1.26
   2   0  13   -0.49    2.59
   2   0  13    0.36    1.43
  -2   0 -13    0.14    0.56
   3   0  13    0.27    1.84
  -3   0 -13    0.25    0.64
  -4   0 -13    0.08    0.69
   4   0  13    0.40    1.61
   5   0  13    1.54    1.57
  -5   0 -13   -0.03    0.87
   6   0  13    2.38    1.54
  -6   0 -13   -1.39    1.03
   7   0  13    0.60    1.79
  -7   0 -13    1.51    1.87
  -8   0 -13   -0.48    1.97
  -8   0 -13   -1.32    1.57
   8   0  13    1.73    1.91
  -9  -1  13    2.21    2.06
  -9  -1  13   -0.69    1.68
  -9   1  13    0.66    2.01
   8  -1 -13   -2.31    1.55
  -8  -1  13    1.01    1.76
  -8  -1  13    3.46    1.64
   8   1 -13   -4.08    2.35
  -8   1  13    1.95    1.77
   7  -1 -13    0.40    1.70
  -7  -1  13    0.81    1.51
  -7  -1  13    1.51    1.69
  -7   1  13    0.28    1.48
  -6  -1  13   -0.04    1.23
  -6  -1  13    1.93    1.38
   6  -1 -13   -1.94    1.61
  -6   1  13   -0.07    1.26
   6   1 -13    0.39    1.99
  -5  -1  13    4.25    1.32
  -5  -1  13    1.66    1.36
   5  -1 -13    0.13    1.59
   5   1 -13    0.88    1.75
  -5   1  13    1.85    1.26
  -4  -1  13    6.26    1.38
   4  -1 -13    5.54    1.79
   4   1 -13    5.89    1.83
  -4   1  13    4.23    1.30
   3  -1 -13    0.41    1.16
  -3  -1  13    1.82    0.94
  -3   1  13    0.54    0.99
   3   1 -13    1.46    1.31
   2  -1 -13    1.88    0.87
   2  -1 -13    1.33    1.13
   2   1 -13    3.04    1.28
  -2   1  13    2.62    1.01
   1  -1 -13    3.91    1.15
  -1  -1  13    5.17    1.09
   1  -1 -13    6.83    1.19
  -1   1  13    6.75    1.36
   1   1 -13    4.75    1.21
   0  -1 -13    7.28    1.14
   0  -1  13    7.50    1.28
   0   1 -13    8.32    1.51
   0   1  13    5.88    1.38
   1  -1  13    1.03    1.16
  -1  -1 -13    2.45    0.81
  -1   1 -13    2.42    0.63
   1   1  13    3.24    1.57
   2  -1  13    1.18    1.97
   2   1  13    0.44    2.63
   2   1  13   -0.19    1.67
   3  -1  13    0.33    1.82
  -3  -1 -13   -0.94    0.74
  -3   1 -13    0.27    0.45
   3   1  13   -2.84    1.91
   4  -1  13    2.59    1.44
  -4  -1 -13    2.17    1.07
  -4   1 -13    1.28    0.48
   4   1  13    1.32    1.92
   5  -1  13    5.77    1.74
  -5  -1 -13    3.34    1.72
   5   1  13    5.50    2.10
  -5   1 -13    4.88    0.76
  -6  -1 -13    0.45    1.50
   6  -1  13    2.99    1.54
   6   1  13    0.85    1.65
  -6   1 -13    0.90    0.68
  -6   1 -13    0.47    0.67
   7  -1  13    3.99    1.71
  -7  -1 -13   -1.38    1.63
  -7  -1 -13    0.02    2.01
  -7   1 -13    0.53    0.90
  -7   1 -13    0.73    0.77
   8  -1  13    1.63    1.60
  -8  -1 -13    1.45    1.97
  -8  -1 -13    0.09    2.08
   8   1  13    2.77    2.14
  -8   1 -13   -0.41    0.88
  -8   1 -13   -1.43    1.89
  -8   1 -13   -0.34    1.07
  -9  -2  13    1.73    2.21
  -9   2  13    0.90    2.01
  -8  -2  13    2.16    1.85
   8  -2 -13   -2.01    1.33
  -8  -2  13    0.31    1.90
  -8   2  13    0.88    1.72
  -7  -2  13    3.20    1.70
   7  -2 -13    0.63    1.32
  -7  -2  13    0.30    1.70
   7   2 -13    1.83    2.49
  -7   2  13    1.68    1.56
  -6  -2  13   -0.18    1.32
   6  -2 -13   -0.38    1.42
  -6  -2  13    1.03    1.50
   6   2 -13    3.35    3.84
  -6   2  13   -0.20    1.37
  -5  -2  13    5.97    1.74
  -5  -2  13    6.27    1.70
   5  -2 -13    2.19    1.64
  -5  -2  13    3.75    1.47
  -5   2  13    4.46    1.49
   5   2 -13    2.22    1.83
   4  -2 -13    3.48    1.65
  -4  -2  13    7.73    1.70
  -4  -2  13    4.84    1.34
   4   2 -13    4.64    1.92
  -4   2  13    5.03    1.40
  -3  -2  13   24.74    2.57
   3  -2 -13   23.33    2.57
   3  -2 -13   22.95    2.96
  -3   2  13   23.33    2.74
   3   2 -13   24.02    3.34
   2  -2 -13    1.11    0.85
   2  -2 -13    0.81    1.00
  -2  -2  13    0.49    0.94
   2   2 -13    1.09    1.12
  -2   2  13    1.70    1.08
   1  -2 -13    7.69    1.32
  -1  -2  13    6.20    1.12
   1   2 -13    5.49    1.32
  -1   2  13    7.93    1.71
   0  -2  13   -0.39    0.72
   0  -2 -13    0.05    0.78
   0   2  13   -0.01    1.07
   0   2 -13   -0.61    0.87
   1  -2  13   57.29    5.15
  -1  -2 -13   68.70    5.16
   1   2  13   55.33    5.70
  -1   2 -13   65.32    5.42
   2  -2  13    1.10    1.60
  -2  -2 -13    1.45    0.95
   2   2  13    0.55    1.93
   2   2  13   -2.03    2.55
  -3  -2 -13   16.01    2.15
   3  -2  13   17.94    2.44
   3   2  13   11.84    3.23
  -4  -2 -13    4.13    1.45
   4  -2  13    2.68    1.29
   4   2  13    0.11    2.49
   5  -2  13   15.17    2.28
  -5  -2 -13   15.36    2.58
   5   2  13   14.28    2.92
  -6  -2 -13   -1.66    1.75
   6  -2  13    1.46    1.38
   6   2  13    5.65    2.26
  -7  -2 -13    1.24    2.10
  -7  -2 -13    2.10    2.02
   7  -2  13    2.30    1.40
   7   2  13    5.91    2.58
  -8  -2 -13   -5.02    2.92
  -8  -3  13   -1.65    1.71
  -8  -3  13    0.06    1.95
  -8   3  13    0.19    1.83
   7  -3 -13   -0.10    1.01
  -7  -3  13    1.84    1.79
  -7  -3  13    1.24    1.65
  -7   3  13    0.68    1.53
   6  -3 -13    4.02    1.46
  -6  -3  13    4.20    1.84
  -6  -3  13    5.94    1.90
  -6   3  13    3.18    1.69
   6   3 -13    5.78    2.45
  -5  -3  13    0.70    1.37
  -5  -3  13    2.19    1.67
  -5  -3  13    2.15    1.54
   5  -3 -13    1.42    1.52
   5   3 -13    3.27    2.67
  -5   3  13    2.10    1.29
  -4  -3  13    6.71    1.65
  -4  -3  13    4.11    1.27
   4  -3 -13    5.05    2.84
   4  -3 -13    5.30    1.34
  -4  -3  13    6.98    1.65
  -4   3  13    5.27    1.57
   4   3 -13    5.00    1.82
  -3  -3  13   -0.17    0.93
   3  -3 -13   -1.21    1.04
   3  -3 -13    0.68    1.02
   3   3 -13    1.42    1.39
  -3   3  13    1.01    1.09
   2  -3 -13   26.44    2.74
  -2  -3  13   23.95    2.54
   2  -3 -13   26.21    2.91
  -2   3  13   25.06    2.90
   2   3 -13   24.81    3.22
  -1  -3  13    7.80    1.19
   1  -3 -13    8.73    1.53
   1   3 -13    7.79    1.67
  -1   3  13    6.77    1.48
   0  -3 -13   10.74    1.66
   0  -3  13    9.49    1.44
   0   3  13    8.02    1.79
   0   3 -13   10.89    1.84
   1  -3  13    6.56    1.24
  -1  -3 -13    9.15    1.60
   1   3  13    6.65    2.16
  -1   3 -13    9.46    1.65
  -2  -3 -13   24.41    2.72
   2  -3  13   24.34    2.63
   2   3  13   14.23    3.08
   2   3  13   16.66    3.92
   3  -3  13   -0.34    0.99
  -3  -3 -13   -1.58    1.22
   3   3  13   -1.22    2.94
  -4  -3 -13    1.99    1.62
   4  -3  13    2.19    1.07
   4   3  13    1.67    2.60
  -5  -3 -13    5.70    2.24
   5  -3  13    8.24    1.59
   5   3  13    7.75    2.70
  -6  -3 -13    1.77    1.60
   6  -3  13    1.99    1.28
  -6  -3 -13    0.48    2.12
   6   3  13    5.42    2.47
  -7  -3 -13   -2.26    2.34
   7  -3  13    0.90    1.27
  -7  -3 -13    0.04    2.03
   7   3  13   -0.19    1.97
  -8  -4  13   -1.49    1.77
  -8  -4  13    0.12    3.03
  -8   4  13    1.41    1.99
  -7  -4  13    1.19    2.20
  -7  -4  13    0.21    1.69
  -7   4  13    2.23    1.66
  -6  -4  13    6.48    1.79
  -6  -4  13    9.45    2.60
   6  -4 -13    7.21    1.21
  -6   4  13    7.32    1.82
  -5  -4  13    5.72    2.18
  -5  -4  13    5.35    1.69
  -5  -4  13    7.80    1.86
   5  -4 -13    4.96    1.44
  -5   4  13    4.10    1.69
   5   4 -13    4.06    1.97
   4  -4 -13    0.88    1.22
  -4  -4  13    2.37    1.37
  -4  -4  13    2.31    1.60
   4  -4 -13   -2.20    1.28
  -4  -4  13   -0.39    1.13
  -4   4  13   -0.41    1.19
   4   4 -13    2.31    1.68
   3  -4 -13   16.46    3.16
   3  -4 -13   15.88    3.15
  -3  -4  13    9.26    1.56
  -3  -4  13   10.55    1.68
  -3   4  13   13.40    2.09
   3   4 -13    6.65    1.88
  -2  -4  13    0.81    1.56
   2  -4 -13    2.09    1.12
   2  -4 -13    1.22    1.08
   2   4 -13    3.20    1.45
  -2   4  13    0.07    1.14
   1  -4 -13    1.28    1.16
  -1  -4  13    1.83    0.79
   1   4 -13    1.11    1.24
  -1   4  13    0.05    1.26
   0  -4 -13    1.28    1.22
   0  -4  13    1.43    0.72
   0   4  13    2.46    1.56
   0   4 -13    1.30    1.08
   1  -4  13    6.25    1.00
  -1  -4 -13    9.53    1.79
  -1   4 -13    4.59    1.30
   1   4  13    6.22    2.15
   2  -4  13    5.58    1.18
  -2  -4 -13    5.36    1.66
   2   4  13    1.99    2.35
  -2   4 -13    6.99    2.13
   2   4  13    4.84    2.88
  -3  -4 -13    4.91    1.82
  -3   4 -13    5.05    1.53
   3   4  13    4.00    3.03
   4  -4  13    1.54    0.90
  -4  -4 -13    0.55    1.80
   4   4  13    4.11    2.84
  -5  -4 -13   -0.69    1.96
   5  -4  13    2.44    1.47
   5   4  13    5.09    2.76
  -6  -4 -13    2.20    2.28
  -6  -4 -13   -0.12    1.79
   6  -4  13    1.39    1.15
   6   4  13    2.60    3.64
  -7  -4 -13    1.15    2.96
  -7  -4 -13    1.07    1.88
   7   4  13    3.30    2.52
  -8  -5  13   -2.27    2.35
  -8  -5  13   -1.62    1.83
  -8   5  13    1.51    2.06
  -7  -5  13    1.22    2.58
  -7  -5  13   -0.92    1.78
  -7   5  13    0.73    1.70
  -6  -5  13   13.15    2.51
  -6  -5  13    9.16    2.96
  -6   5  13   12.03    3.16
  -5  -5  13    9.36    1.91
  -5  -5  13   11.52    2.11
  -5  -5  13   11.89    2.72
   5  -5 -13   12.23    1.80
  -5   5  13    9.40    2.00
  -4  -5  13    1.93    1.28
  -4  -5  13    3.67    1.39
   4  -5 -13   -0.26    1.23
  -4  -5  13    6.19    2.06
   4   5 -13    4.72    1.93
  -4   5  13    3.40    1.57
   3  -5 -13    0.42    1.17
  -3  -5  13    0.20    1.10
  -3  -5  13    0.42    1.12
   3  -5 -13    0.79    1.27
  -3  -5  13    1.20    1.49
  -3   5  13    0.54    1.27
   3   5 -13    0.21    1.60
   2  -5 -13   35.87    3.89
  -2  -5  13   32.68    2.97
  -2  -5  13   28.84    3.31
  -2   5  13   30.50    3.54
   2   5 -13   28.28    4.62
  -1  -5  13    6.67    1.16
   1  -5 -13    5.35    1.57
  -1   5  13    6.46    1.77
   1   5 -13    6.97    2.24
   0  -5  13    2.86    0.79
   0  -5 -13    0.63    1.36
   0   5  13    3.26    1.65
   0   5 -13    2.48    1.50
   1  -5  13    0.00    0.93
   1  -5  13   -0.90    0.55
  -1  -5 -13    0.27    1.46
   1   5  13   -0.15    1.80
  -1   5 -13    0.84    1.71
  -2  -5 -13    9.11    2.13
   2  -5  13    9.92    1.24
   2   5  13    3.78    2.62
   2   5  13    7.94    3.26
  -2   5 -13    9.28    1.77
   3  -5  13    0.89    0.69
  -3  -5 -13    0.89    1.68
   3   5  13   -1.43    2.67
  -3   5 -13    0.85    1.39
   4  -5  13    0.05    0.73
  -4  -5 -13   -1.32    1.78
   4   5  13   -2.52    3.00
  -5  -5 -13    1.08    2.31
  -5  -5 -13    4.42    1.97
   5   5  13    2.97    3.42
  -6  -5 -13    2.29    2.88
  -6  -5 -13    1.65    1.70
   6   5  13    2.51    2.87
  -7  -5 -13   -0.44    1.83
   7   5  13    3.93    2.83
  -8  -6  13   -2.41    2.78
  -8  -6  13    2.88    2.47
  -8   6  13    6.36    2.47
  -7  -6  13   -2.03    2.81
  -7  -6  13   -2.49    1.77
  -7   6  13    1.01    1.74
  -6  -6  13   10.15    3.29
  -6  -6  13    5.99    3.03
  -6   6  13    9.63    2.27
  -5  -6  13    2.05    1.50
  -5  -6  13    0.75    2.32
  -5  -6  13   -0.81    1.59
  -5   6  13    0.65    1.53
  -4  -6  13    7.60    2.42
   4  -6 -13    4.23    1.47
  -4  -6  13    8.49    1.69
  -4   6  13    5.45    1.74
   3  -6 -13    0.41    1.19
  -3  -6  13    1.44    1.88
   3  -6 -13    1.53    1.57
  -3  -6  13    1.43    1.13
   3   6 -13    2.71    1.63
  -3   6  13    0.31    1.35
  -2  -6  13    2.86    1.96
   2  -6 -13    2.74    1.57
  -2  -6  13    4.22    1.05
  -2  -6  13    3.03    1.21
  -2   6  13    4.44    1.69
   2   6 -13    4.07    1.70
  -1  -6  13    2.24    0.94
  -1  -6  13    3.46    0.87
  -1   6  13    2.00    1.55
   1   6 -13    2.31    1.65
   0  -6  13    0.52    0.56
   0  -6  13   -0.28    0.65
   0  -6 -13   -0.91    1.45
   0   6 -13    0.39    1.31
   0   6  13    1.89    1.87
  -1  -6 -13   15.05    2.56
   1  -6  13   11.85    1.54
   1  -6  13   13.40    1.31
  -1   6 -13   11.98    1.95
   1   6  13   12.46    2.94
  -2  -6 -13    2.04    1.77
   2   6  13    2.05    2.82
  -2   6 -13    0.50    1.25
   2   6  13    0.75    2.37
  -3  -6 -13    6.15    3.31
  -3  -6 -13    6.85    1.74
   3   6  13    5.66    3.19
  -3   6 -13    2.00    1.42
  -4  -6 -13   -2.39    1.99
  -4  -6 -13    0.78    1.28
   4   6  13   -1.95    2.96
  -5  -6 -13    2.68    1.80
  -5  -6 -13    0.34    3.02
   5   6  13    0.17    5.80
  -6  -6 -13   -0.18    1.61
   6   6  13    0.78    3.29
  -7  -6 -13   -1.58    1.59
   7   6  13   -4.40    2.91
  -7  -7  13   -0.39    3.03
  -7  -7  13    3.28    2.20
  -7   7  13    3.09    2.02
  -6  -7  13   -0.24    2.77
  -6   7  13    3.32    1.98
  -5  -7  13    7.14    2.97
  -5  -7  13   10.89    2.00
  -5   7  13    4.92    1.96
  -4  -7  13    5.04    2.24
   4  -7 -13    2.39    0.64
  -4  -7  13    1.94    1.34
   4  -7 -13    1.19    1.00
  -4   7  13    3.53    1.62
  -3  -7  13    5.14    1.29
  -3  -7  13    4.28    2.29
   3  -7 -13    2.95    1.32
  -3   7  13    1.43    1.73
   2  -7 -13    5.33    2.01
  -2  -7  13   10.06    2.09
  -2  -7  13   12.40    2.74
  -2   7  13    6.47    1.97
   1  -7 -13   24.04    3.24
  -1  -7  13   20.68    2.02
  -1   7  13   21.68    3.10
   0  -7  13    4.13    0.94
   0  -7 -13    2.98    1.91
   0   7  13   -0.72    1.83
   0   7 -13    3.06    1.57
   1  -7  13   11.20    1.25
  -1  -7 -13   12.76    1.89
  -1  -7 -13   12.57    2.60
   1  -7  13   13.45    1.81
  -1   7 -13    9.88    2.07
   1   7  13    8.86    2.55
  -2  -7 -13    1.78    1.20
  -2  -7 -13    0.19    1.78
  -2   7 -13    0.66    1.37
   2   7  13   -1.26    2.44
   2   7  13    0.20    3.05
  -3  -7 -13    4.15    1.43
  -3  -7 -13    4.27    2.36
   3   7  13    8.01    3.83
  -4  -7 -13    1.59    1.31
   4   7  13   -2.41    2.83
  -5  -7 -13    7.23    2.18
   5   7  13    2.35    3.38
  -6  -7 -13    0.50    1.69
   6   7  13    0.95    3.29
  -7   8  13    0.93    1.76
  -6  -8  13   -4.96    2.61
  -6   8  13    0.10    1.75
  -5  -8  13    6.03    1.83
  -5  -8  13    2.52    3.86
  -5   8  13    2.95    1.92
  -4  -8  13    5.34    1.60
  -4  -8  13    3.49    2.87
  -4   8  13    4.08    1.81
   3  -8 -13   -1.41    1.12
   3  -8 -13    0.77    0.77
  -3  -8  13    0.68    1.14
  -3  -8  13    1.21    2.41
  -3   8  13   -1.55    1.64
  -2  -8  13   12.51    1.93
   2  -8 -13   13.90    1.93
  -2  -8  13   10.55    2.77
  -2   8  13    9.32    2.44
   1  -8 -13    1.18    0.98
  -1  -8  13    0.41    0.65
  -1   8  13   -0.74    1.76
   0  -8  13    8.51    1.57
   0  -8 -13   10.14    1.61
   0   8  13    6.11    2.44
  -1  -8 -13    0.73    1.02
   1  -8  13    0.97    1.11
   1  -8  13    0.53    0.57
   1   8  13   -1.15    1.97
  -2  -8 -13    9.89    1.83
   2   8  13   11.15    3.24
   2   8  13   17.26    3.84
  -3  -8 -13    5.14    1.77
   3   8  13    6.32    3.07
  -4  -8 -13    2.36    2.90
   4   8  13    5.68    3.89
  -5  -8 -13    0.20    1.52
   5   8  13   -0.37    3.12
  -6  -8 -13    0.03    1.69
   6   8  13   -1.96    3.06
  -7  -9  13   -3.65    3.31
  -7   9  13    0.13    1.90
  -6  -9  13   -1.91    3.04
  -6   9  13    1.72    2.10
  -5  -9  13    3.30    1.81
  -5  -9  13   -0.90    3.02
  -5   9  13    0.60    2.04
  -4  -9  13    3.37    1.58
  -4  -9  13    1.71    3.47
  -4   9  13    0.11    1.81
  -3  -9  13    6.64    1.46
   3  -9 -13    4.55    1.04
  -3  -9  13    2.23    2.43
   3  -9 -13    2.84    1.38
  -3   9  13    2.54    1.93
  -2  -9  13    9.44    1.38
   2  -9 -13    7.66    1.39
  -2  -9  13   10.04    2.99
  -2   9  13    6.07    2.14
   1  -9 -13    0.96    0.96
  -1   9  13    0.06    1.76
   0  -9 -13    1.84    1.16
   0  -9  13    4.69    1.72
   0   9  13   -0.63    1.97
   1  -9  13    4.08    1.37
  -1  -9 -13    1.18    1.25
   1  -9  13    1.66    0.77
   1   9  13    3.19    2.52
   2   9  13    6.89    3.24
  -3  -9 -13    0.81    1.25
   3   9  13    0.76    2.98
  -4  -9 -13    1.20    1.58
   4   9  13    2.29    3.01
  -5  -9 -13    0.59    1.42
   5   9  13   -3.73    3.08
  -6  -9 -13    1.98    1.89
   6   9  13   -1.06    3.57
  -6 -10  13   -4.77    2.58
  -6  10  13    0.72    2.19
  -5 -10  13   -3.57    3.27
  -5  10  13    3.89    2.29
  -4 -10  13    0.15    1.48
  -4 -10  13   -3.45    2.71
  -4  10  13   -1.49    1.77
   3 -10 -13    1.43    0.88
  -3 -10  13    1.08    1.23
  -3 -10  13   -1.70    2.41
  -3  10  13   -0.45    1.76
  -2 -10  13   -2.59    2.08
   2 -10 -13    1.03    1.00
  -2 -10  13   -0.05    0.92
  -2  10  13   -1.29    3.03
  -1 -10  13    2.92    1.48
   1 -10 -13    0.90    1.05
  -1  10  13   -1.95    1.68
   0 -10  13    7.86    1.74
   0 -10 -13    4.97    1.49
   0  10  13    5.85    2.47
   1 -10  13    7.52    1.70
  -1 -10 -13    3.96    1.37
   1  10  13    2.75    2.43
  -2 -10 -13   -0.29    1.13
   2  10  13    0.33    2.85
   3  10  13    1.94    3.29
  -4 -10 -13    4.65    1.96
   4  10  13    9.48    4.01
  -5 -10 -13   -0.54    1.72
   5  10  13    2.81    4.45
  -5 -11  13   -3.03    3.25
  -5  11  13   -0.03    2.17
  -4 -11  13    0.91    1.63
  -4 -11  13   -0.51    3.09
  -4  11  13   -1.25    1.92
   3 -11 -13    0.45    0.87
  -3 -11  13    0.25    1.31
  -3 -11  13   -5.27    2.29
  -3  11  13   -1.55    1.93
  -2 -11  13   -0.83    2.30
   2 -11 -13    2.10    1.41
  -2 -11  13    5.17    1.96
  -2  11  13    0.66    1.98
  -1 -11  13   -4.92    2.45
  -1 -11  13    5.85    1.81
   1 -11 -13    1.03    1.14
  -1  11  13   -3.19    2.00
   0 -11 -13    2.82    1.41
   0 -11  13    6.16    1.83
   0  11  13    5.89    2.56
  -1 -11 -13    0.03    1.22
   1 -11  13    3.06    1.67
   1  11  13    0.52    2.62
   1  11  13    1.69    2.75
  -2 -11 -13    1.42    1.57
   2  11  13    3.70    3.21
  -3 -11 -13    0.29    1.57
   3  11  13    1.01    3.15
  -4 -11 -13   -0.01    1.74
   4  11  13   -1.03    3.53
  -4 -12  13   -2.99    1.70
  -4 -12  13   -4.21    2.78
  -4  12  13    4.10    2.59
  -3 -12  13   -5.34    2.82
  -3  12  13   -1.59    2.13
  -2 -12  13   -4.29    2.38
  -2  12  13   -1.32    2.09
  -1 -12  13    3.89    3.85
  -1 -12  13   -4.40    2.58
   1 -12 -13   -0.35    1.20
  -1  12  13    0.08    2.31
   0 -12  13    3.46    1.84
   0 -12 -13   -0.32    1.25
   0  12  13    2.01    2.55
   1 -12  13    3.16    2.36
  -1 -12 -13   -0.71    1.27
   1  12  13    0.35    2.57
   1  12  13    0.55    2.54
  -2 -12 -13    1.23    2.47
   2  12  13    4.76    3.00
  -3 -12 -13   -0.86    1.33
   3  12  13    0.09    3.16
  -3 -13  13   -4.00    3.10
  -3  13  13   -4.38    1.89
   2 -13 -13    7.50    2.17
  -2 -13  13    5.43    3.68
  -2  13  13    0.94    2.28
   1 -13 -13    1.55    1.35
  -1 -13  13    4.97    2.09
  -1  13  13   -0.50    2.46
   0 -13  13    5.96    2.15
   0 -13 -13    0.36    1.26
   0  13  13    2.60    2.90
   0  13  13    0.37    2.75
  -1 -13 -13   -0.51    1.34
   1 -13  13    2.54    1.94
   1  13  13    3.88    2.81
  -2 -13 -13   -0.47    1.49
   2  13  13    3.85    3.08
   1 -14 -13    2.06    1.43
  -1  14  13    0.96    2.51
   0 -14 -13    0.06    1.26
   0 -14  13    3.67    3.09
   0  14  13    0.78    2.67
   0  14  13   -0.61    2.74
   8   0 -14   -0.20    2.72
  -8   0  14    3.86    2.05
  -7   0  14    2.75    1.77
   7   0 -14   -2.32    2.00
   6   0 -14    0.86    1.92
  -6   0  14    0.44    1.53
   5   0 -14    2.97    1.90
  -5   0  14    2.92    1.44
  -4   0  14    0.90    1.11
   4   0 -14    0.60    1.51
  -3   0  14   11.29    1.73
   3   0 -14   14.47    2.24
   2   0 -14    2.42    1.29
  -2   0  14    2.94    1.13
  -1   0  14    8.10    1.43
   1   0 -14    6.06    1.40
   1   0 -14    8.61    1.20
   0   0  14   16.32    2.36
   0   0 -14   19.10    1.90
  -1   0 -14   15.03    1.62
   1   0  14   12.56    2.19
  -2   0 -14   13.24    1.51
   2   0  14   15.77    3.26
   2   0  14   11.24    2.24
   3   0  14    1.00    1.95
  -3   0 -14    0.78    0.67
   4   0  14   10.30    2.41
  -4   0 -14   12.14    1.50
   5   0  14    3.19    1.78
  -5   0 -14    0.88    0.81
   6   0  14   15.49    2.67
  -6   0 -14   14.98    1.99
   7   0  14    1.70    1.75
  -7   0 -14    0.42    1.31
   8  -1 -14   -3.54    1.77
  -8  -1  14    3.39    1.64
  -8  -1  14    3.06    1.97
  -8   1  14    3.36    1.91
   8   1 -14   -2.61    3.03
  -7  -1  14    0.21    1.67
   7  -1 -14    0.06    1.82
  -7  -1  14    3.36    1.53
  -7   1  14    2.58    1.63
   7   1 -14   -3.92    2.15
  -6  -1  14    0.35    1.43
  -6  -1  14    1.44    1.35
   6  -1 -14    0.79    1.72
  -6   1  14   -0.23    1.45
   6   1 -14    0.04    1.98
  -5  -1  14    0.91    1.31
   5  -1 -14   -1.64    1.61
  -5   1  14    0.10    1.26
   5   1 -14    3.18    1.92
  -4  -1  14   15.92    2.26
   4  -1 -14   10.29    2.27
   4   1 -14    9.50    2.33
  -4   1  14   17.78    2.32
   3  -1 -14    5.73    1.71
  -3  -1  14    6.87    1.42
  -3   1  14    5.96    1.39
   3   1 -14    5.10    1.63
  -2  -1  14    4.02    1.20
   2  -1 -14    4.93    1.43
   2  -1 -14    3.09    0.98
  -2   1  14    2.18    1.20
   2   1 -14    1.66    1.20
  -1  -1  14    9.33    1.46
   1  -1 -14   10.73    1.56
   1  -1 -14    8.97    1.51
  -1   1  14    7.48    1.74
   1   1 -14   10.24    1.64
   0  -1  14   11.91    1.60
   0  -1 -14   10.00    1.54
   0   1  14   10.45    1.81
   0   1 -14    8.93    1.56
   1  -1  14    4.00    1.51
  -1  -1 -14    7.09    1.17
   1   1  14    4.34    1.75
  -1   1 -14    7.17    1.06
  -2  -1 -14    6.54    1.10
   2   1  14    2.76    1.99
  -2   1 -14    6.03    0.83
   2   1  14    3.60    2.93
  -3  -1 -14    8.75    1.27
   3  -1  14    6.36    2.10
   3   1  14    5.81    2.77
  -3   1 -14    6.77    0.94
  -4  -1 -14    0.53    0.94
   4  -1  14    2.32    1.53
   4   1  14    2.54    2.25
   5  -1  14   12.20    2.21
  -5  -1 -14   11.44    2.21
   5   1  14   12.90    2.76
   6  -1  14    1.24    1.48
  -6  -1 -14    0.32    1.22
   6   1  14    4.00    2.00
   7  -1  14    2.66    1.66
  -7  -1 -14    3.51    1.62
   7   1  14    3.10    2.07
   8  -2 -14   -2.39    1.38
  -8  -2  14    2.65    1.93
  -8  -2  14    2.45    1.96
  -8   2  14    1.29    1.73
  -7  -2  14    5.86    1.87
  -7  -2  14    4.29    1.79
   7  -2 -14    3.91    1.71
  -7   2  14    4.10    1.68
   7   2 -14    1.65    3.23
  -6  -2  14    1.09    1.51
  -6  -2  14    0.27    1.30
   6  -2 -14    1.03    1.54
  -6   2  14    1.30    1.53
   6   2 -14    2.88    2.25
  -5  -2  14    1.95    1.62
  -5  -2  14    3.16    1.38
  -5  -2  14    0.99    1.27
   5  -2 -14   -1.87    1.52
  -5   2  14    1.33    1.27
   5   2 -14    4.54    3.01
  -4  -2  14   -0.02    1.12
   4  -2 -14   -2.14    1.42
  -4   2  14   -0.09    1.12
   4   2 -14   -0.05    1.65
   3  -2 -14   12.88    2.03
   3  -2 -14   14.33    2.23
  -3  -2  14   14.00    2.08
   3   2 -14   12.51    2.21
  -3   2  14   16.46    2.23
  -2  -2  14   17.70    2.06
   2  -2 -14   16.95    2.56
   2  -2 -14   14.53    2.08
  -2   2  14   16.27    2.14
   2   2 -14   14.33    2.24
  -1  -2  14    3.16    1.02
   1  -2 -14    3.03    0.98
   1   2 -14    3.72    1.27
  -1   2  14    3.88    1.35
   0  -2 -14    2.33    0.97
   0  -2  14    2.02    0.95
   0   2  14    1.46    1.99
   0   2 -14    1.89    1.27
   1  -2  14    8.04    1.55
  -1  -2 -14   10.83    1.46
   1   2  14    4.68    1.90
  -1   2 -14   10.53    1.82
  -2  -2 -14   68.28    5.04
   2  -2  14   54.03    5.53
   2   2  14   46.71    6.71
   3  -2  14    0.25    2.62
  -3  -2 -14    1.37    1.05
   3   2  14   -2.15    2.55
   4  -2  14    4.43    1.52
  -4  -2 -14    3.27    1.41
   4   2  14    3.95    2.45
  -5  -2 -14    1.37    1.43
   5  -2  14    1.56    1.26
   5   2  14    3.41    2.45
  -6  -2 -14   22.69    3.61
   6  -2  14   26.69    3.19
   6   2  14   30.80    4.29
   7  -2  14    1.06    1.43
  -7  -2 -14   -0.99    1.79
  -7  -2 -14    1.02    1.94
   7   2  14   -0.69    1.91
  -8  -3  14    1.06    2.04
  -8  -3  14    2.16    2.10
  -8   3  14    3.05    2.07
  -7  -3  14    2.71    1.81
  -7  -3  14    4.58    2.12
  -7   3  14    2.42    1.64
  -6  -3  14   55.35    5.55
  -6  -3  14   49.30    5.07
   6  -3 -14   49.22    5.61
  -6   3  14   52.04    5.09
   6   3 -14   59.35    6.70
   5  -3 -14   -0.80    1.49
  -5  -3  14    1.26    1.51
  -5  -3  14    1.68    1.36
  -5  -3  14   -0.61    1.43
  -5   3  14    2.42    1.42
   5   3 -14    4.18    2.08
   4  -3 -14    0.65    1.55
   4  -3 -14    3.24    1.20
  -4  -3  14    2.66    1.23
  -4   3  14    1.67    1.40
   4   3 -14    1.52    2.75
  -3  -3  14   -0.77    0.87
   3  -3 -14    1.00    1.55
   3  -3 -14    0.34    1.24
   3   3 -14    0.52    1.49
  -3   3  14   -0.47    1.10
   2  -3 -14  129.64    9.88
  -2  -3  14  123.77    9.76
   2  -3 -14  129.26   10.01
   2   3 -14  118.75   10.16
  -2   3  14  120.85    9.97
  -1  -3  14    2.17    0.90
   1  -3 -14    1.57    1.04
   1   3 -14    2.50    1.23
  -1   3  14    1.62    1.33
   0  -3 -14    0.68    1.03
   0  -3  14    1.21    0.81
   0   3 -14    1.60    1.21
   0   3  14    1.34    1.49
  -1  -3 -14   32.25    2.98
   1  -3  14   24.80    2.68
   1   3  14   21.86    3.35
  -2  -3 -14   30.27    3.12
   2  -3  14   25.07    3.14
   2   3  14   26.53    4.93
   2   3  14   29.10    4.68
  -2   3 -14   30.59    3.44
  -3  -3 -14    1.52    1.29
   3  -3  14    2.56    1.18
   3   3  14    0.14    2.51
   4  -3  14    2.99    1.92
  -4  -3 -14   -0.20    1.41
   4   3  14    0.46    2.51
  -5  -3 -14   22.71    3.22
   5  -3  14   19.40    2.57
   5   3  14   27.94    4.65
  -6  -3 -14    2.05    1.98
   6  -3  14    2.64    1.34
  -6  -3 -14    1.89    2.15
   6   3  14    6.71    4.65
  -7  -3 -14   -4.33    2.29
  -7  -3 -14   -0.98    1.84
   7  -3  14    1.24    1.35
   7   3  14    4.10    2.60
  -8  -4  14    1.93    2.26
  -8  -4  14   -0.45    2.38
  -8   4  14    2.48    2.18
  -7  -4  14    5.95    2.42
  -7  -4  14    6.91    2.35
  -7   4  14    6.10    1.96
  -6  -4  14    1.87    2.07
  -6  -4  14    0.64    1.48
   6  -4 -14    2.60    1.07
  -5  -4  14    5.39    1.99
  -5  -4  14    6.34    1.84
   5  -4 -14    4.20    1.58
  -5  -4  14    2.81    1.57
   5   4 -14    7.95    2.56
  -5   4  14    3.72    1.69
   4  -4 -14   -2.09    1.78
  -4  -4  14    4.01    1.63
  -4  -4  14   -0.31    1.14
  -4  -4  14    1.12    1.36
   4   4 -14    1.78    1.85
  -4   4  14    1.44    1.30
  -3  -4  14   69.20    5.69
   3  -4 -14   66.17    5.94
   3  -4 -14   69.36    5.85
   3   4 -14   64.96    6.36
  -3   4  14   65.48    5.93
   2  -4 -14   31.50    3.42
   2  -4 -14   33.02    3.34
  -2  -4  14   30.98    3.03
  -2   4  14   31.03    3.50
   2   4 -14   26.90    4.31
  -1  -4  14    8.32    1.29
   1  -4 -14    6.39    1.46
  -1   4  14    4.79    1.62
   0  -4 -14    0.89    1.18
   0  -4  14    0.25    0.77
   0   4 -14    1.23    1.81
   0   4  14   -0.18    1.48
  -1  -4 -14   56.12    4.57
   1  -4  14   45.58    3.94
   1   4  14   37.73    5.02
  -1   4 -14   48.51    4.60
  -2  -4 -14   71.12    5.69
   2  -4  14   58.39    5.12
  -2   4 -14   62.78    5.63
   2   4  14   54.93    7.15
   2   4  14   59.27    6.55
   3  -4  14    1.38    0.94
  -3  -4 -14    0.03    1.42
   3   4  14   -4.52    2.76
  -4  -4 -14    1.75    1.71
   4  -4  14    1.42    0.96
   4   4  14   -1.55    3.02
  -5  -4 -14    0.15    1.95
   5  -4  14    2.10    1.09
   5   4  14   -1.13    2.94
   6  -4  14   18.27    2.26
  -6  -4 -14    6.72    2.89
  -6  -4 -14   13.30    2.84
   6   4  14   15.24    3.72
   7  -4  14    2.45    1.27
  -7  -4 -14   -0.06    1.72
   7   4  14    6.35    3.23
  -8  -5  14    3.81    2.50
  -8  -5  14    3.82    3.07
  -8   5  14    3.16    2.14
  -7  -5  14    0.18    2.01
  -7  -5  14   -0.46    4.35
  -7   5  14    2.39    1.84
  -6  -5  14   49.01    5.23
  -6  -5  14   53.86    6.18
  -6   5  14   43.91    4.89
  -5  -5  14    2.79    1.94
   5  -5 -14    1.73    1.14
  -5  -5  14    0.13    1.52
  -5  -5  14    1.20    1.46
  -5   5  14    0.47    1.58
  -4  -5  14   22.70    2.89
  -4  -5  14   20.22    2.78
   4  -5 -14   19.64    2.74
  -4  -5  14   26.31    3.97
  -4   5  14   20.74    3.05
   4   5 -14   19.18    4.28
  -3  -5  14    1.77    1.79
   3  -5 -14    1.95    1.34
   3  -5 -14   -0.99    1.20
  -3  -5  14    1.18    1.11
  -3  -5  14    0.14    1.08
   3   5 -14   -0.25    1.62
  -3   5  14    0.73    1.38
  -2  -5  14   60.20    5.15
  -2  -5  14   59.40    5.07
   2  -5 -14   63.54    5.54
   2   5 -14   62.56    5.82
  -2   5  14   60.88    5.59
   1  -5 -14   10.93    1.96
  -1  -5  14    8.08    1.29
   1   5 -14    5.44    1.64
  -1   5  14    8.32    1.94
   0  -5  14    9.88    1.31
   0  -5 -14   11.44    1.99
   0   5  14    6.74    2.22
   0   5 -14    9.21    2.18
   1  -5  14    9.51    1.22
  -1  -5 -14   13.04    2.10
   1  -5  14   10.37    1.61
  -1   5 -14   12.87    2.08
   1   5  14    6.58    2.34
  -2  -5 -14    6.66    1.86
   2  -5  14    7.81    1.12
   2   5  14    4.33    2.64
  -2   5 -14    6.34    1.58
   2   5  14    4.13    3.20
   3  -5  14   15.45    1.66
  -3  -5 -14   24.98    3.23
   3   5  14    5.06    3.72
  -4  -5 -14    3.50    3.96
   4  -5  14    0.11    0.73
   4   5  14   -0.43    2.87
   5  -5  14    5.24    1.13
  -5  -5 -14    2.46    1.70
  -5  -5 -14    4.63    2.45
  -6  -5 -14   -0.53    1.48
   6   5  14   -1.27    3.27
  -7  -5 -14    1.24    1.97
   7   5  14    3.45    3.29
  -8  -6  14    0.82    2.28
  -8   6  14    5.84    2.32
  -7  -6  14    1.91    2.75
  -7  -6  14   -1.84    2.05
  -7   6  14    4.46    2.09
  -6  -6  14   -0.77    2.77
  -6  -6  14   -1.10    1.98
  -6   6  14   -0.89    1.58
  -5  -6  14    4.94    1.79
  -5  -6  14    6.42    2.51
  -5  -6  14    5.12    1.70
  -5   6  14    3.61    1.84
  -4  -6  14    0.10    1.29
   4  -6 -14   -3.12    1.20
  -4  -6  14   -1.52    1.87
  -4  -6  14   -1.42    1.23
  -4   6  14    0.28    1.56
  -3  -6  14    1.15    1.20
   3  -6 -14    0.77    1.96
  -3  -6  14   -0.07    1.80
  -3  -6  14    1.11    1.11
  -3   6  14   -0.67    1.30
  -2  -6  14    4.72    1.15
   2  -6 -14    3.20    1.69
  -2  -6  14    3.59    1.16
  -2   6  14    1.15    1.54
  -1  -6  14   23.38    2.45
   1  -6 -14   24.27    3.27
  -1  -6  14   22.55    2.23
  -1   6  14   23.67    3.30
   0  -6  14   21.48    2.19
   0  -6 -14   24.62    3.19
   0   6  14   19.68    3.21
  -1  -6 -14    1.38    2.73
   1  -6  14    0.14    0.57
   1   6  14   -1.32    1.94
  -1   6 -14    0.12    1.21
  -2  -6 -14   -2.49    1.69
   2   6  14    2.77    3.00
   2   6  14   -2.66    2.21
  -3  -6 -14    5.29    2.27
   3   6  14    5.51    3.34
  -4  -6 -14   10.95    2.19
  -4  -6 -14   11.10    2.89
   4   6  14    7.56    3.47
  -5  -6 -14   -0.76    1.40
   5   6  14   -0.67    3.50
  -6  -6 -14   -1.19    1.80
   6   6  14   -0.75    3.12
  -7  -7  14    3.32    2.18
  -7  -7  14   -0.22    3.37
  -7   7  14    4.19    2.21
  -6  -7  14   -1.42    1.88
  -6  -7  14    1.90    3.08
  -6   7  14    2.19    1.75
  -5  -7  14    2.27    2.94
  -5  -7  14    0.17    1.70
  -5  -7  14    1.00    1.60
  -5   7  14    1.94    1.62
  -4  -7  14   59.57    6.71
  -4  -7  14   54.46    5.38
   4  -7 -14   59.30    4.60
  -4  -7  14   57.36    5.09
   4  -7 -14   54.69    5.08
  -4   7  14   56.97    5.56
  -3  -7  14    6.31    1.33
  -3  -7  14    0.77    2.12
   3  -7 -14    1.34    1.87
  -3  -7  14    4.73    1.58
  -3   7  14    3.05    1.69
  -2  -7  14    7.06    2.34
  -2  -7  14    5.50    1.14
  -2  -7  14    5.04    1.32
  -2   7  14    2.69    1.74
  -1  -7  14    0.59    0.92
  -1  -7  14    1.16    0.72
   1  -7 -14    1.19    1.72
  -1   7  14   -1.42    1.52
   0  -7 -14   43.72    4.78
   0  -7  14   40.21    3.20
   0  -7  14   44.94    3.54
   0   7  14   30.49    4.67
  -1  -7 -14    0.01    1.73
   1   7  14   -0.77    1.88
  -2  -7 -14    3.92    2.19
  -2  -7 -14    8.25    1.79
   2   7  14   15.00    3.89
   2   7  14    3.37    2.67
  -3  -7 -14    8.23    1.93
   3   7  14    8.09    3.82
   4   7  14    0.41    3.27
  -5  -7 -14    1.37    1.82
   5   7  14   -1.21    3.66
  -6  -7 -14   -1.26    1.46
   6   7  14    1.29    3.91
  -7  -8  14   -6.25    3.00
  -7  -8  14   -2.28    2.36
  -7   8  14    0.29    2.01
  -6  -8  14    0.49    3.18
  -6   8  14    1.32    1.74
  -5  -8  14    6.50    2.19
  -5  -8  14    3.46    2.93
  -5   8  14    3.43    1.87
  -4  -8  14    1.21    1.32
  -4  -8  14   -1.29    2.69
   3  -8 -14   10.74    2.05
  -3  -8  14   12.58    3.33
  -3  -8  14   14.41    2.08
   3  -8 -14   15.68    1.87
  -3   8  14   12.25    2.51
   2  -8 -14    1.34    1.00
  -2  -8  14    0.43    1.92
  -2   8  14   -0.93    1.66
   1  -8 -14   13.94    2.14
  -1  -8  14   12.70    2.38
  -1  -8  14   10.87    1.39
  -1   8  14   11.04    2.71
   0  -8 -14   17.46    2.23
   0  -8  14   15.45    2.24
   0  -8  14   14.45    1.87
   0   8  14    8.09    2.70
  -1  -8 -14    9.53    1.81
   1  -8  14   14.37    1.39
   1  -8  14   16.86    1.84
   1   8  14    9.32    2.91
  -2  -8 -14    4.40    1.46
   2   8  14    8.97    3.25
   2   8  14    3.08    2.79
  -3  -8 -14    8.25    2.00
   3   8  14    4.35    6.00
  -4  -8 -14   18.01    2.93
   4   8  14   17.02    4.72
  -5  -8 -14   -0.96    1.54
   5   8  14    2.05    3.82
  -6  -8 -14   -0.09    1.97
   6   8  14   -1.61    4.03
  -6  -9  14   -4.32    2.94
  -6   9  14    0.83    1.93
  -5  -9  14   -2.46    3.01
  -5   9  14   -0.17    1.79
  -4  -9  14    3.93    3.33
  -4  -9  14   14.01    2.12
  -4   9  14    9.00    2.62
  -3  -9  14   -1.91    2.90
   3  -9 -14   -2.09    1.27
   3  -9 -14   -0.02    0.79
  -3  -9  14    0.45    1.13
  -2  -9  14   -0.16    2.46
  -2  -9  14    2.04    0.98
  -2   9  14    1.78    2.00
   1  -9 -14    0.09    0.99
  -1   9  14   -1.46    1.70
   0  -9 -14   18.92    2.67
   0  -9  14   18.85    2.14
   0   9  14   10.68    2.98
   1  -9  14    2.33    1.14
   1  -9  14    0.02    0.60
  -1  -9 -14   -0.35    1.17
   1   9  14   -1.04    2.17
   2   9  14    6.62    4.41
  -3  -9 -14   -1.06    1.96
   3   9  14    2.14    3.29
  -4  -9 -14    1.62    1.72
   4   9  14    6.93    3.68
  -5  -9 -14   -0.67    1.49
   5   9  14    1.96    3.72
  -6 -10  14   -2.08    3.53
  -6  10  14    3.20    2.17
  -5 -10  14   -4.14    3.11
  -5  10  14    3.39    2.24
  -4 -10  14   -2.15    3.01
  -4 -10  14   -0.19    1.43
  -4  10  14    0.09    1.86
   3 -10 -14   -0.46    0.82
  -3 -10  14   -2.46    2.29
  -3 -10  14    0.42    1.21
  -3  10  14   -0.70    1.83
  -2 -10  14   -3.89    2.10
  -2 -10  14    0.42    0.92
  -2  10  14    1.27    2.03
  -1 -10  14    4.02    1.60
   1 -10 -14    0.71    1.08
  -1  10  14   -5.00    2.75
   0 -10  14    3.37    1.44
   0 -10 -14    0.69    1.18
   0  10  14   -2.18    2.69
   1 -10  14   -0.07    0.74
   1 -10  14   -0.77    1.28
  -1 -10 -14    0.14    1.20
  -2 -10 -14    6.92    1.80
   2  10  14   10.00    3.31
  -3 -10 -14    0.27    1.51
   3  10  14    1.10    3.14
  -4 -10 -14    6.86    2.32
   4  10  14    7.14    3.87
  -5 -10 -14    0.24    1.59
   5  10  14   -2.23    3.28
  -5 -11  14   -5.24    3.07
  -5  11  14    1.89    2.36
  -4 -11  14   -1.03    3.29
  -4 -11  14   -2.70    1.48
  -4  11  14   -1.07    1.93
  -3 -11  14   -1.74    2.51
  -3 -11  14    1.71    1.39
   3 -11 -14   -2.17    1.38
  -3  11  14    0.14    2.01
   2 -11 -14    8.43    1.66
  -2 -11  14   10.93    2.36
  -2 -11  14    0.22    2.47
  -2  11  14    7.53    2.59
  -1 -11  14    5.92    1.84
   1 -11 -14    0.65    1.25
  -1  11  14   -0.99    2.11
   0 -11 -14    1.27    1.28
   0 -11  14    4.88    1.77
   0  11  14    1.96    2.35
   1 -11  14    0.71    0.85
  -1 -11 -14    0.26    1.29
   1 -11  14    1.39    1.47
   1  11  14   -2.70    2.52
   1  11  14    1.27    2.88
   2  11  14   12.34    3.97
  -3 -11 -14    2.72    1.60
   3  11  14    4.41    3.39
  -4 -11 -14    0.99    1.79
   4  11  14    1.06    3.31
  -4 -12  14   -4.62    2.94
  -4  12  14    3.59    2.52
  -3 -12  14   -4.58    2.56
   3 -12 -14    2.24    1.03
  -3  12  14    0.83    2.35
  -2 -12  14   -4.92    2.44
   2 -12 -14    0.82    1.07
  -2  12  14   -3.41    1.93
   1 -12 -14    0.53    1.27
  -1 -12  14    6.18    3.64
  -1  12  14   -1.80    2.34
   0 -12  14   12.81    2.30
   0  12  14    8.50    3.06
   1 -12  14    6.75    2.02
  -1 -12 -14    3.88    1.63
   1  12  14    5.70    2.90
   1  12  14    4.63    2.75
  -2 -12 -14    2.50    1.62
   2  12  14    8.15    3.58
  -3 -12 -14    1.77    1.61
   3  12  14   -0.02    3.14
   2 -13 -14    4.65    1.40
  -2 -13  14    0.41    3.45
  -2  13  14    0.63    2.23
   1 -13 -14    2.76    1.40
  -1 -13  14    6.80    2.29
  -1  13  14    1.67    2.61
   0 -13  14    5.80    2.27
   0 -13 -14   -1.46    1.20
   0  13  14    2.02    2.74
   0  13  14   -2.15    2.45
   1 -13  14    0.73    2.71
   1  13  14    3.53    3.17
  -8   0  15    1.80    1.85
   8   0 -15   -3.46    2.32
  -7   0  15   -0.24    1.59
  -6   0  15    1.08    1.42
   6   0 -15    1.07    2.02
   5   0 -15    0.16    1.81
  -5   0  15   -0.17    1.21
  -4   0  15    0.68    1.09
   4   0 -15   -0.63    1.72
  -3   0  15   -0.05    0.98
   3   0 -15    0.11    1.33
  -2   0  15    0.48    1.12
   2   0 -15    2.35    1.38
   1   0 -15    0.66    1.21
  -1   0  15   -0.40    1.22
   1   0 -15    0.73    0.78
   0   0 -15    0.08    1.12
   0   0  15    0.09    1.11
   0   0 -15    0.78    0.71
   1   0  15   -1.75    1.37
  -1   0 -15    0.78    0.69
   2   0  15    1.13    1.56
   2   0  15    0.71    2.48
  -3   0 -15   -0.79    0.62
   3   0  15   -1.42    2.04
   4   0  15    2.53    2.03
  -4   0 -15    1.00    0.68
  -5   0 -15    0.28    0.71
   5   0  15    2.56    1.86
   6   0  15    3.18    1.73
  -6   0 -15    0.51    0.76
   7   0  15    2.33    1.93
  -7   0 -15   -0.06    0.80
   8  -1 -15    4.44    2.17
  -8  -1  15    5.47    2.35
  -8   1  15    8.49    2.41
   7  -1 -15   -1.57    1.84
  -7  -1  15   -0.34    1.70
  -7   1  15    1.24    1.79
   7   1 -15    4.18    2.68
   6  -1 -15    2.20    2.09
  -6  -1  15    1.68    1.58
   6   1 -15    2.70    2.41
  -6   1  15   -0.45    1.33
  -5  -1  15    2.51    1.40
   5  -1 -15    0.40    1.77
   5   1 -15    3.56    2.17
  -5   1  15    3.75    1.43
  -4  -1  15   23.08    2.78
   4  -1 -15   22.28    3.23
  -4   1  15   24.85    2.90
   4   1 -15   21.35    3.13
   3  -1 -15    0.91    1.37
  -3  -1  15    0.60    1.12
   3   1 -15    1.58    1.51
  -3   1  15    0.47    1.16
   2  -1 -15    4.31    1.43
   2  -1 -15    3.23    1.00
  -2  -1  15    4.48    1.25
  -2   1  15    3.24    1.20
   2   1 -15    3.79    1.36
   1  -1 -15   23.32    3.01
   1  -1 -15   25.74    2.54
  -1  -1  15   25.77    2.70
  -1   1  15   26.92    2.86
   1   1 -15   21.92    3.07
   0  -1  15    9.85    1.60
   0  -1 -15   10.13    1.44
   0   1  15    6.36    1.66
   0   1 -15    8.93    1.68
   1  -1  15    2.96    1.49
  -1  -1 -15    6.09    1.09
   1   1  15    3.28    1.77
   2  -1  15    0.28    2.18
  -2  -1 -15   -0.25    0.82
   2   1  15   -2.86    1.67
  -2   1 -15    0.66    0.55
   2   1  15   -0.89    2.86
  -3  -1 -15   14.51    2.13
   3  -1  15   15.22    2.75
   3   1  15   14.66    3.76
  -3   1 -15   15.18    1.44
   4  -1  15    0.02    1.56
   4   1  15    2.65    2.22
   5  -1  15   11.38    2.22
   5   1  15   12.36    2.91
   6  -1  15    0.34    1.49
  -6  -1 -15   -0.79    1.11
   6   1  15    1.83    1.96
  -7  -1 -15    0.14    1.26
   7  -1  15    2.51    1.67
   7   1  15    2.43    2.09
  -8  -2  15    0.37    1.99
   8  -2 -15   -1.39    1.60
  -8  -2  15    1.15    1.71
  -8   2  15    0.58    1.78
  -7  -2  15    2.20    1.74
   7  -2 -15    3.16    1.78
  -7  -2  15    1.53    1.77
  -7   2  15    1.04    1.68
   6  -2 -15    3.95    1.94
  -6  -2  15    4.75    1.69
  -6  -2  15    2.33    1.74
  -6   2  15    0.52    2.88
   6   2 -15    5.97    2.49
  -5  -2  15   45.35    4.47
   5   2 -15   43.82    5.51
  -5   2  15   46.60    4.51
   4  -2 -15   26.76    3.92
  -4  -2  15   29.33    3.20
  -4   2  15   28.80    3.30
   3  -2 -15    4.95    1.39
  -3  -2  15    4.26    1.21
   3  -2 -15    3.58    1.55
  -3   2  15    3.73    1.36
   3   2 -15    4.20    1.77
  -2  -2  15   43.75    3.96
   2  -2 -15   42.76    3.96
   2  -2 -15   42.30    4.32
  -2   2  15   43.07    4.18
   2   2 -15   46.33    4.49
   1  -2 -15   44.34    4.34
  -1  -2  15   46.60    3.98
   1  -2 -15   44.91    3.97
   1   2 -15   43.99    4.47
  -1   2  15   41.69    4.26
   0  -2 -15   95.46    7.33
   0  -2  15   94.78    7.33
   0   2  15   83.11    7.64
   0   2 -15   88.82    8.76
  -1  -2 -15   14.71    1.92
   1  -2  15   11.33    1.86
  -1   2 -15   11.01    1.93
   1   2  15    9.95    2.63
   2  -2  15   59.25    6.12
  -2  -2 -15   63.74    4.97
   2   2  15   43.02    6.80
   3  -2  15    2.02    1.55
  -3  -2 -15    2.33    1.14
   3   2  15    0.28    3.00
  -4  -2 -15   26.53    3.08
   4  -2  15   27.77    3.20
   4   2  15   36.81    5.03
   5  -2  15    0.16    1.27
  -5  -2 -15   -1.84    1.27
   5   2  15   -0.40    2.08
   6  -2  15    5.66    1.71
  -6  -2 -15    7.53    1.91
   6   2  15    7.44    3.82
   7  -2  15    1.77    1.51
  -7  -2 -15    2.82    1.66
  -7  -2 -15   -1.35    2.05
   7   2  15    0.46    2.28
  -8  -3  15   11.62    2.66
  -8  -3  15   13.97    4.12
  -8   3  15   17.77    2.98
  -7  -3  15    1.70    1.87
  -7  -3  15    2.02    1.83
   7  -3 -15    0.61    1.43
  -7   3  15    0.73    1.61
   6  -3 -15    4.22    1.65
  -6  -3  15    1.84    1.56
  -6  -3  15    5.89    1.98
  -6   3  15    3.22    1.76
   5  -3 -15    8.28    2.27
  -5  -3  15   12.85    2.38
  -5  -3  15   12.61    2.16
  -5   3  15   11.60    2.22
   5   3 -15   10.16    2.68
  -4  -3  15   34.40    3.60
   4  -3 -15   28.80    4.23
   4   3 -15   38.86    4.71
  -4   3  15   36.86    3.74
   3  -3 -15    1.20    1.37
  -3  -3  15    2.04    1.23
   3  -3 -15    0.04    1.01
  -3   3  15    1.40    1.34
   3   3 -15    0.72    1.61
  -2  -3  15   13.60    1.99
   2  -3 -15   14.55    2.09
   2  -3 -15   11.50    1.94
   2   3 -15    9.15    1.98
  -2   3  15    9.91    1.88
   1  -3 -15   62.14    5.14
  -1  -3  15   59.68    4.97
   1   3 -15   56.03    5.50
  -1   3  15   58.45    5.40
   0  -3  15    9.23    1.45
   0  -3 -15   10.62    1.67
   0   3 -15    6.41    1.61
   0   3  15    7.20    1.95
  -1  -3 -15   17.38    2.31
   1  -3  15   15.86    2.20
   1   3  15   11.98    2.63
  -2  -3 -15    0.90    1.11
   2  -3  15   -0.33    1.31
   2   3  15    1.49    2.96
   2   3  15   -1.09    2.07
  -3  -3 -15   22.59    2.83
   3  -3  15   21.47    2.56
   3   3  15   13.83    3.90
   4  -3  15    1.16    1.07
  -4  -3 -15   -0.39    1.32
   4   3  15    1.41    2.80
   5  -3  15   15.04    2.34
  -5  -3 -15   20.85    2.87
   5   3  15   16.26    3.57
  -6  -3 -15    2.90    2.01
   6  -3  15    3.25    1.38
   6   3  15    3.10    2.64
  -7  -3 -15   -0.98    2.52
  -7  -3 -15    1.59    2.23
   7  -3  15    2.30    1.39
   7   3  15    4.18    2.62
  -8  -4  15   -0.41    2.34
  -8  -4  15   -0.95    1.93
  -8   4  15    3.39    2.16
  -7  -4  15    6.12    2.41
  -7  -4  15    1.72    1.87
   7  -4 -15    2.45    0.96
  -7   4  15    3.68    1.76
  -6  -4  15    1.93    1.90
   6  -4 -15   -0.37    1.25
  -6   4  15    3.37    1.60
   5  -4 -15    9.34    2.43
  -5  -4  15   11.43    2.42
  -5  -4  15   10.05    2.01
  -5   4  15   13.57    2.42
   4  -4 -15    5.35    1.92
  -4  -4  15   10.08    2.40
  -4  -4  15   10.27    1.91
  -4  -4  15   10.34    2.23
  -4   4  15    7.08    1.81
   4   4 -15    7.66    2.46
  -3  -4  15    2.54    1.11
   3  -4 -15    0.64    1.18
   3  -4 -15    0.70    1.43
   3   4 -15    1.62    1.83
  -3   4  15    1.98    1.56
   2  -4 -15   24.53    3.07
  -2  -4  15   23.50    2.59
   2  -4 -15   22.92    2.81
   2   4 -15   24.32    3.44
  -2   4  15   19.55    3.06
   1  -4 -15    4.96    1.51
  -1  -4  15    2.78    1.05
  -1   4  15    3.22    1.63
   1   4 -15    3.28    1.44
   0  -4  15    8.04    1.28
   0  -4 -15   10.15    1.81
   0   4  15    4.74    2.00
   1  -4  15    0.32    0.92
  -1  -4 -15   -0.62    1.21
   1   4  15   -1.21    1.84
   2  -4  15   21.91    2.46
  -2  -4 -15   23.47    2.86
   2   4  15   15.96    3.53
   2   4  15   17.94    4.18
  -3  -4 -15    0.63    1.41
   3  -4  15    1.73    1.01
   3   4  15   -3.44    2.96
   4  -4  15    2.51    1.00
  -4  -4 -15    1.41    1.67
   4   4  15   -0.43    2.78
  -5  -4 -15    3.91    2.05
   5  -4  15    2.81    1.21
   5   4  15    3.06    3.39
  -6  -4 -15    3.08    2.25
  -6  -4 -15    1.47    1.83
   6  -4  15    3.25    1.25
   6   4  15    3.10    3.08
   7  -4  15    0.49    1.21
  -7  -4 -15    0.70    2.16
   7   4  15    1.48    2.74
  -7  -5  15    1.10    2.67
  -7  -5  15   -0.82    1.77
  -7   5  15    1.15    1.83
  -6  -5  15    6.44    2.58
   6  -5 -15    1.82    0.84
  -6  -5  15    0.72    2.00
  -6   5  15    1.46    1.59
  -5  -5  15    4.94    1.91
  -5  -5  15    5.61    2.39
   5  -5 -15    7.60    1.66
  -5   5  15    7.89    2.19
  -4  -5  15   -0.16    1.27
   4  -5 -15   -1.94    1.59
  -4  -5  15    0.73    1.78
  -4   5  15    0.26    1.45
   3  -5 -15   10.00    2.01
  -3  -5  15   11.08    1.87
  -3  -5  15    9.47    1.66
  -3   5  15   11.98    2.25
   2  -5 -15    2.46    1.38
  -2  -5  15    4.07    1.12
   2  -5 -15    3.72    1.52
   2   5 -15    2.51    1.68
  -2   5  15    0.36    1.35
   1  -5 -15    5.46    1.55
  -1  -5  15    3.56    1.10
  -1   5  15    2.76    1.76
   0  -5  15   -0.30    0.82
   0  -5 -15   -0.10    1.40
   0   5  15    0.09    1.69
   1  -5  15    6.61    1.43
   1  -5  15    4.90    1.00
  -1  -5 -15    6.77    1.84
   1   5  15    1.49    2.13
  -2  -5 -15    1.12    1.52
   2  -5  15    1.03    0.80
   2   5  15   -0.54    2.39
   2   5  15    0.65    2.96
   3  -5  15    0.57    0.73
  -3  -5 -15   -1.92    1.82
   3   5  15   -2.71    3.36
  -4  -5 -15   -1.96    1.83
   4  -5  15    1.84    0.88
   4   5  15   -0.33    3.13
  -5  -5 -15    0.15    1.82
   5  -5  15    0.47    0.90
  -5  -5 -15    2.26    2.27
   5   5  15    1.93    3.55
  -6  -5 -15    0.69    2.03
   6   5  15    1.15    3.14
  -7  -6  15    2.10    3.23
  -7  -6  15    1.91    2.18
  -7   6  15    4.18    2.32
  -6  -6  15    0.03    1.86
  -6  -6  15    1.31    2.68
  -6   6  15    0.03    1.76
  -5  -6  15    0.21    2.25
   5  -6 -15    0.67    0.97
  -5  -6  15   -0.86    1.48
  -5   6  15    0.91    1.81
   4  -6 -15   -1.92    1.42
  -4  -6  15    3.18    1.92
  -4  -6  15    2.70    2.25
  -4  -6  15    3.05    1.57
  -4   6  15    1.64    1.53
  -3  -6  15    1.60    1.14
  -3  -6  15    3.97    2.19
   3  -6 -15   -1.00    1.39
  -3  -6  15    1.65    1.23
  -3   6  15    3.35    1.84
  -2  -6  15   -0.60    0.91
  -2  -6  15    0.08    1.07
  -2   6  15   -1.69    1.38
  -1  -6  15    3.84    1.08
  -1  -6  15    2.30    0.90
   1  -6 -15    1.49    1.56
  -1   6  15    0.00    1.59
   0  -6 -15    5.12    1.86
   0  -6  15    8.60    1.27
   0   6  15    4.87    1.98
  -1  -6 -15    2.08    1.84
   1  -6  15    2.88    0.82
   1   6  15    1.53    2.17
   2  -6  15    3.18    0.60
  -2  -6 -15    1.54    1.80
   2   6  15    1.63    2.50
   2   6  15    9.54    3.68
   3  -6  15    1.27    0.53
  -3  -6 -15    2.30    2.02
   3   6  15   -5.52    2.78
  -4  -6 -15   -0.06    1.84
  -4  -6 -15   -1.78    2.19
   4   6  15   -3.22    6.18
  -5  -6 -15    0.90    1.70
   5   6  15   -0.95    3.36
  -6  -6 -15    1.32    1.70
   6   6  15    3.18    4.06
  -7  -7  15   -5.80    2.59
  -7  -7  15   -3.57    2.13
  -7   7  15    0.93    2.14
  -6  -7  15   -3.65    1.74
  -6  -7  15   -1.00    2.53
  -6   7  15    0.14    1.77
  -5  -7  15    0.52    1.58
  -5  -7  15    1.10    2.73
  -5   7  15    2.29    1.83
  -4  -7  15    0.90    1.34
   4  -7 -15   -2.53    1.36
  -4  -7  15    1.06    1.52
  -4  -7  15   -0.26    2.14
  -4   7  15    1.17    1.79
  -3  -7  15    0.97    1.09
  -3  -7  15    1.69    2.40
  -3  -7  15    1.16    1.35
   3  -7 -15   -0.55    1.43
  -3   7  15   -0.53    1.75
  -2  -7  15    1.29    0.96
  -2  -7  15    0.56    1.04
  -2   7  15    0.48    1.75
  -1  -7  15    1.79    0.82
  -1  -7  15    1.90    1.02
  -1   7  15   -0.31    1.93
   0  -7  15    1.03    0.88
   0  -7  15    1.89    0.58
   0   7  15    0.42    1.79
   1   7  15   -1.24    2.04
  -2  -7 -15    1.67    1.40
   2   7  15   -0.21    2.86
   2   7  15   -2.95    2.21
  -3  -7 -15    0.48    1.44
   3   7  15    0.25    3.95
  -4  -7 -15   -0.46    1.55
   4   7  15   -3.15    3.25
  -5  -7 -15    0.41    1.46
   5   7  15   -3.68    3.34
  -6  -7 -15    0.14    2.00
   6   7  15   -5.95    3.34
  -6  -8  15   -1.73    1.81
  -6  -8  15   -3.94    3.18
  -6   8  15    1.09    2.01
  -5  -8  15   -1.24    2.42
  -5   8  15    2.13    2.06
  -4  -8  15    2.55    1.63
   4  -8 -15    0.42    0.67
  -4  -8  15   -2.41    2.08
  -4  -8  15    0.32    1.46
   4  -8 -15   -2.11    1.16
  -4   8  15    0.29    1.65
   3  -8 -15    4.25    1.01
  -3  -8  15    4.85    2.82
  -3  -8  15    3.55    1.55
   3  -8 -15    1.09    1.61
  -3  -8  15    5.15    1.32
  -3   8  15    2.06    1.96
   2  -8 -15    1.33    0.96
  -2  -8  15    2.30    1.10
  -2  -8  15   -0.23    1.18
  -2   8  15    0.80    1.73
   1  -8 -15    1.87    1.13
  -1  -8  15    2.78    0.77
  -1   8  15    1.65    2.06
   0  -8  15   11.53    1.51
   0  -8  15   11.51    1.73
   0  -8 -15   11.26    1.92
   0   8  15    6.41    2.42
  -1  -8 -15    4.55    1.42
   1   8  15    1.10    2.23
  -2  -8 -15    3.47    1.55
   2   8  15   -4.87    2.36
   2   8  15    1.08    4.01
  -3  -8 -15    1.93    1.73
   3   8  15    0.66    3.29
  -4  -8 -15    8.99    2.26
   4   8  15   12.04    3.90
  -5  -8 -15    0.96    1.89
   5   8  15   -0.64    3.56
  -6  -9  15   -2.17    2.15
  -6   9  15    0.61    2.14
  -5  -9  15   -3.21    2.95
  -5   9  15    0.56    2.03
  -4  -9  15    4.60    1.73
  -4  -9  15    3.35    2.99
  -4   9  15    4.64    2.11
  -3  -9  15   -3.78    2.36
  -3  -9  15    1.03    1.19
   3  -9 -15    0.11    0.85
  -3   9  15   -1.89    1.67
   2  -9 -15    0.63    0.97
  -2  -9  15    1.31    0.99
  -1  -9  15   -0.99    1.09
   1  -9 -15    1.15    1.11
  -1   9  15   -3.09    1.65
   0  -9  15    6.45    1.26
   0  -9 -15    6.19    1.51
   0   9  15    2.02    2.16
  -1  -9 -15    0.10    1.26
   1   9  15    0.48    2.30
  -2  -9 -15    0.41    1.23
   2   9  15    2.63    2.73
  -3  -9 -15    3.43    1.65
   3   9  15    3.84    3.60
  -4  -9 -15    1.51    1.72
   4   9  15   -2.24    3.72
  -5  -9 -15    0.32    1.92
   5   9  15   -1.47    3.71
  -5 -10  15   -6.66    3.08
  -5  10  15    0.10    2.06
  -4 -10  15    7.52    1.95
  -4 -10  15    3.26    3.39
  -4  10  15    7.74    2.58
  -3 -10  15    0.88    1.24
  -3 -10  15   -2.00    2.33
   3 -10 -15    0.54    0.95
  -3  10  15   -0.37    2.03
  -2 -10  15    0.06    0.91
   2 -10 -15    1.02    1.07
  -2  10  15   -0.97    1.93
  -1 -10  15    3.79    1.57
   1 -10 -15    1.51    1.17
  -1  10  15   -0.98    1.95
   0 -10 -15   19.06    2.82
   0 -10  15   21.99    2.96
   0 -10  15   19.06    2.39
   0  10  15   17.74    3.51
  -1 -10 -15    1.58    1.46
   1  10  15    2.41    2.52
   1  10  15    6.45    2.95
  -2 -10 -15   -0.42    1.31
   2  10  15    5.62    3.03
  -3 -10 -15   -0.62    1.48
   3  10  15    6.57    3.48
  -4 -10 -15    7.01    2.15
   4  10  15    8.47    3.71
  -4 -11  15   -5.30    3.27
  -4 -11  15   -2.82    1.53
  -4  11  15   -2.94    1.91
  -3 -11  15   -2.64    1.21
  -3 -11  15   -3.38    2.48
   3 -11 -15   -0.10    0.93
  -3  11  15    0.16    2.00
   2 -11 -15    0.87    1.15
  -2 -11  15    0.89    1.97
  -2  11  15    0.18    2.24
  -1 -11  15    1.90    1.70
   1 -11 -15   -0.22    1.12
  -1  11  15    1.44    2.45
   0 -11 -15    0.58    1.26
   0 -11  15    1.11    1.61
   0 -11  15   -1.87    1.11
   0  11  15    2.46    2.43
  -1 -11 -15   -0.42    1.30
   1 -11  15    1.95    1.11
   1 -11  15    0.18    0.78
   1  11  15    2.28    2.89
   1  11  15    1.72    2.91
  -2 -11 -15    0.32    1.48
   2  11  15    4.55    3.33
  -3 -11 -15    1.14    1.46
   3  11  15    0.85    3.23
  -3 -12  15   -1.22    2.92
   3 -12 -15    2.08    1.02
  -3  12  15   -0.21    2.36
   2 -12 -15    3.09    1.28
  -2  12  15    0.24    2.34
  -1 -12  15    7.09    3.21
   1 -12 -15    1.74    1.37
  -1  12  15   -0.59    2.42
   0 -12  15    5.87    1.95
   0 -12 -15    1.28    1.36
   0  12  15   -0.53    2.52
   1 -12  15    0.25    1.39
  -1 -12 -15    0.05    1.52
   1 -12  15   -1.33    0.86
   1  12  15    3.44    2.81
   1  12  15    2.35    2.71
  -2 -12 -15    0.25    1.48
   2  12  15    3.76    3.37
   1 -13 -15    0.70    1.20
  -1 -13  15    4.87    2.56
  -1  13  15    2.82    2.55
   0 -13 -15    2.01    1.38
   0 -13  15    1.71    2.38
   0  13  15   -1.98    2.86
   0  13  15   -0.77    2.70
   8   0 -16   -5.20    2.81
  -8   0  16   -0.33    1.82
  -7   0  16    0.26    1.60
   7   0 -16    0.26    2.38
  -6   0  16    6.98    2.50
   6   0 -16   12.78    4.75
  -5   0  16    1.65    1.38
   5   0 -16    0.98    1.97
  -4   0  16    9.18    1.84
   4   0 -16   11.43    2.60
   3   0 -16   -1.63    1.39
  -3   0  16    1.57    1.20
   2   0 -16   20.76    3.19
  -2   0  16   24.39    2.79
   1   0 -16    1.60    1.41
  -1   0  16    1.45    1.26
   0   0 -16   26.46    3.43
   0   0  16   29.83    3.39
   0   0 -16   34.02    2.86
  -1   0 -16   10.50    1.36
   1   0  16    7.69    2.10
  -2   0 -16    5.24    0.96
   2   0  16    2.97    1.84
   2   0  16    2.24    2.89
   3   0  16    3.88    2.54
  -3   0 -16    6.83    1.04
   4   0  16   13.01    2.77
  -4   0 -16   10.55    1.41
  -5   0 -16   10.17    1.39
   5   0  16   10.81    2.56
   6   0  16    3.64    1.92
   7   0  16   11.10    2.39
   8  -1 -16   -3.35    3.61
  -8  -1  16    1.36    1.89
  -8   1  16    0.52    1.95
   7  -1 -16    0.59    2.22
  -7  -1  16    1.89    1.78
  -7   1  16    2.96    1.79
   6  -1 -16    2.88    2.28
  -6  -1  16    2.77    2.47
   6   1 -16    4.44    2.49
  -6   1  16    4.41    1.81
  -5  -1  16    6.31    1.59
   5  -1 -16    7.12    2.50
  -5   1  16    6.00    1.79
   5   1 -16    8.45    2.51
  -4  -1  16    1.55    1.31
   4  -1 -16    0.54    1.89
   4   1 -16   -1.84    3.24
  -4   1  16    1.91    1.31
   3  -1 -16    7.18    2.02
  -3  -1  16   10.43    1.82
  -3   1  16    7.30    1.62
   3   1 -16    8.06    2.99
   2  -1 -16    0.60    1.25
  -2  -1  16    0.50    1.00
   2  -1 -16    1.82    0.90
   2   1 -16    1.47    2.18
  -2   1  16    0.17    1.19
   1  -1 -16    1.79    1.34
   1  -1 -16    0.19    0.83
  -1  -1  16   -0.48    1.07
   1   1 -16    0.85    1.43
  -1   1  16    1.39    1.20
   0  -1  16   15.80    2.52
   0  -1 -16   18.04    2.14
   0   1  16   19.14    2.68
   0   1 -16   23.06    2.87
  -1  -1 -16   11.54    1.46
   1  -1  16    8.17    1.93
   1   1  16    4.97    2.09
  -2  -1 -16    2.21    0.92
   2  -1  16    2.98    2.45
   2   1  16   -1.30    1.80
   2   1  16   -0.93    3.05
   3  -1  16   18.83    3.26
  -3  -1 -16   15.94    2.39
   3   1  16   15.88    3.80
   4  -1  16   25.54    3.55
   4   1  16   24.18    4.10
   5  -1  16    6.19    1.86
   5   1  16    6.05    2.46
   6  -1  16   -0.35    1.41
  -6  -1 -16    0.77    1.54
   6   1  16    0.33    2.53
  -7  -1 -16    1.33    1.35
  -8  -2  16    0.92    2.16
  -8   2  16    0.75    1.90
   7  -2 -16    3.78    1.93
  -7  -2  16    3.62    2.01
  -7   2  16    3.12    1.96
  -6  -2  16   16.00    3.24
   6  -2 -16   11.49    2.70
  -6   2  16   13.02    2.40
  -5  -2  16    1.17    1.40
   5  -2 -16   -1.36    1.82
  -5   2  16    1.40    1.49
   5   2 -16    5.56    2.43
  -4  -2  16   15.77    2.17
   4  -2 -16   10.98    2.53
  -4   2  16    7.10    1.79
   4   2 -16   12.62    2.80
   3  -2 -16    0.93    1.48
   3  -2 -16    1.60    1.08
  -3  -2  16    0.45    1.10
   3   2 -16   -0.21    1.55
  -3   2  16    2.06    1.37
  -2  -2  16   47.84    4.29
   2  -2 -16   48.90    4.29
   2  -2 -16   50.07    4.77
   2   2 -16   46.08    4.86
  -2   2  16   44.14    4.51
  -1  -2  16    6.63    1.51
   1  -2 -16    3.70    1.44
   1  -2 -16    6.40    1.32
  -1   2  16    3.21    1.45
   1   2 -16    6.09    1.80
   0  -2  16   23.86    2.60
   0  -2 -16   22.86    2.48
   0   2  16   19.72    2.85
   0   2 -16   19.25    3.04
   1  -2  16    0.07    1.31
  -1  -2 -16    0.10    0.86
   1   2  16   -1.13    1.56
   2  -2  16   20.73    3.15
  -2  -2 -16   16.78    2.10
   2   2  16    9.62    3.73
   2   2  16    6.80    4.59
   3  -2  16   10.54    2.23
  -3  -2 -16   13.13    1.78
   3   2  16    9.90    3.78
  -4  -2 -16    3.92    1.27
   4  -2  16    1.99    1.52
   4   2  16    4.87    2.91
  -5  -2 -16    2.01    1.30
   5  -2  16    3.48    1.54
   5   2  16    4.10    2.52
  -6  -2 -16    0.90    1.37
   6  -2  16    1.16    1.41
   6   2  16    3.75    2.36
  -8  -3  16    5.82    2.41
  -8  -3  16    3.13    2.21
  -8   3  16    1.41    2.05
  -7  -3  16    0.34    1.81
  -7  -3  16    3.18    1.82
   7  -3 -16   -1.43    1.38
  -7   3  16    1.64    1.79
  -6  -3  16   11.61    2.32
  -6  -3  16    8.02    1.93
   6  -3 -16   10.48    2.31
  -6   3  16    6.03    1.89
   5  -3 -16    5.72    2.33
  -5  -3  16   12.83    2.18
  -5   3  16    7.95    2.01
   4  -3 -16   -2.00    1.54
  -4  -3  16    1.22    1.36
   4   3 -16    3.54    2.19
  -4   3  16    1.49    1.39
  -3  -3  16    5.55    1.37
   3  -3 -16    5.48    1.80
   3  -3 -16    4.47    1.42
   3   3 -16    5.95    2.09
  -3   3  16    7.75    1.91
   2  -3 -16   -1.10    1.27
  -2  -3  16    0.10    0.96
   2  -3 -16    1.27    1.17
   2   3 -16   -0.07    1.46
  -2   3  16    0.77    1.21
  -1  -3  16    7.19    1.37
   1  -3 -16    6.01    1.32
   1   3 -16    4.87    1.69
  -1   3  16    5.03    1.73
   0  -3  16    2.96    1.14
   0  -3 -16    3.49    1.26
   0   3  16    2.78    1.64
   0   3 -16    4.62    1.56
  -1  -3 -16    8.00    1.44
   1  -3  16    4.58    1.44
   1   3  16    1.21    1.98
   2   3  16    4.34    2.61
   2   3  16    2.05    3.00
  -3  -3 -16    0.67    1.22
   3  -3  16    1.76    1.55
   3   3  16   -0.88    2.89
   4  -3  16    6.93    1.55
  -4  -3 -16    5.27    1.65
   4   3  16    2.52    3.28
  -5  -3 -16    1.77    1.56
   5  -3  16    3.36    1.35
   5   3  16    3.35    2.99
  -6  -3 -16    4.65    1.92
   6  -3  16    6.92    1.66
   6   3  16    8.64    3.38
   7  -4 -16    2.21    1.19
  -7  -4  16    3.34    1.86
  -7  -4  16    2.94    2.24
  -7   4  16    3.62    1.90
   6  -4 -16   13.86    2.97
  -6  -4  16   12.43    2.47
  -6  -4  16   16.51    2.98
  -6   4  16    7.94    2.10
   5  -4 -16   -2.46    1.74
  -5  -4  16    2.33    1.81
  -5  -4  16   -1.20    1.30
  -5   4  16   -0.49    1.89
  -4  -4  16    8.21    1.73
  -4  -4  16   10.42    1.96
   4  -4 -16    8.38    2.27
  -4   4  16   10.36    2.07
  -3  -4  16    2.43    1.21
   3  -4 -16    1.88    1.53
  -3   4  16    2.83    1.69
  -2  -4  16   32.44    3.19
   2  -4 -16   35.82    3.52
   2  -4 -16   28.26    3.72
  -2   4  16   30.03    3.70
   2   4 -16   32.47    4.42
  -1  -4  16   12.41    1.70
   1  -4 -16   10.55    2.05
   1   4 -16    9.18    2.09
  -1   4  16   11.38    2.29
   0  -4 -16    5.80    1.56
   0  -4  16    8.02    1.35
   0   4  16    1.27    1.84
   1  -4  16   -0.69    1.00
  -1  -4 -16    0.66    1.19
   1   4  16   -1.97    1.75
  -2  -4 -16   20.56    2.60
   2  -4  16   17.11    2.31
   2   4  16   10.93    3.22
   2   4  16   14.57    4.00
  -3  -4 -16    5.70    1.72
   3  -4  16    5.88    1.27
   3   4  16    0.66    3.52
  -4  -4 -16   -0.58    1.60
   4   4  16    1.44    3.07
   5  -4  16    1.35    1.14
   5   4  16   -0.27    2.90
  -6  -4 -16    1.19    2.10
   6  -4  16    3.23    1.24
  -6  -4 -16    0.53    1.95
   6   4  16    2.00    3.57
  -7  -5  16    1.26    2.35
  -7  -5  16   -1.68    1.73
  -7   5  16    4.08    2.27
   6  -5 -16    5.01    1.16
  -6  -5  16    3.23    3.33
  -6  -5  16    6.74    2.21
  -6   5  16    3.90    1.93
  -5  -5  16   10.72    2.40
  -5  -5  16   11.49    2.64
  -5   5  16   13.38    2.67
  -4  -5  16    1.26    1.36
  -4  -5  16   -1.47    1.17
   4  -5 -16   -1.83    1.59
  -4   5  16    0.56    1.43
   3  -5 -16    4.06    1.86
  -3  -5  16    5.49    1.39
  -3   5  16    6.39    2.03
   2  -5 -16    1.53    2.35
  -2  -5  16   -1.08    0.95
   2  -5 -16    0.76    1.38
  -2   5  16   -1.77    1.41
  -1  -5  16    3.65    1.13
   1  -5 -16    2.81    1.55
  -1   5  16    1.60    1.61
   0  -5 -16   -0.12    1.25
   0  -5  16    1.00    0.95
   0   5  16    2.09    1.93
  -1  -5 -16    1.96    1.84
   1  -5  16    1.98    1.28
   1   5  16    1.68    2.30
  -2  -5 -16    5.56    2.64
   2  -5  16    5.20    1.13
   2   5  16    2.68    3.69
   2   5  16    4.00    2.72
   3  -5  16    3.21    0.91
  -3  -5 -16    1.32    1.81
   3   5  16   -2.72    3.33
   4  -5  16    1.66    0.93
  -4  -5 -16    2.17    2.06
   5  -5  16    1.66    1.40
  -5  -5 -16   -0.41    1.67
  -5  -5 -16   -0.95    2.05
   5   5  16    1.40    3.55
  -6  -5 -16    6.41    2.11
   6   5  16   11.44    4.17
  -7  -6  16   -2.16    2.64
  -7  -6  16    1.90    2.12
  -7   6  16    2.95    2.21
  -6  -6  16   -2.66    1.85
  -6  -6  16   -1.58    2.15
  -6   6  16    0.24    1.97
  -5  -6  16    0.55    4.13
  -5  -6  16    1.42    1.70
   5  -6 -16   -0.44    1.15
  -5   6  16    2.66    1.82
   4  -6 -16    1.00    1.86
  -4  -6  16    7.64    1.75
  -4  -6  16    5.40    2.15
  -4  -6  16    7.64    1.78
  -4   6  16    5.95    2.05
  -3  -6  16   -0.35    1.18
   3  -6 -16   -1.52    1.44
  -3  -6  16   -0.03    1.21
  -3   6  16   -1.62    1.47
  -2  -6  16    0.45    1.04
  -2  -6  16    1.49    1.04
  -2   6  16    0.73    1.78
  -1  -6  16   -0.54    0.95
  -1  -6  16    1.00    1.11
  -1   6  16   -1.82    1.71
   0  -6 -16    0.53    1.45
   0  -6  16    1.80    0.97
   0   6  16   -1.43    1.82
   1  -6  16    0.13    0.79
   1   6  16   -3.34    1.83
  -2  -6 -16    1.99    1.82
   2  -6  16    1.58    0.60
   2   6  16    0.76    2.97
   2   6  16   -0.83    2.42
  -3  -6 -16    0.92    1.94
   3  -6  16    0.78    0.56
   3   6  16   -0.95    3.07
  -4  -6 -16   -0.86    1.43
   4   6  16   -2.44    3.42
  -5  -6 -16    0.52    1.78
   5   6  16    1.17    3.22
  -6  -6 -16    6.03    2.52
   6   6  16   -1.07    3.58
  -6  -7  16   -0.77    2.62
  -6  -7  16   -1.59    1.85
  -6   7  16   -0.95    1.78
  -5  -7  16    0.25    2.16
  -5  -7  16    1.04    2.55
  -5   7  16    2.61    1.84
   4  -7 -16   -1.24    1.90
  -4  -7  16    0.45    1.36
  -4  -7  16    0.37    2.22
  -4  -7  16   -0.65    1.47
  -4   7  16   -1.64    1.56
  -3  -7  16    1.37    1.40
  -3  -7  16    0.93    1.18
   3  -7 -16   -1.45    1.55
  -3   7  16    0.67    1.60
  -2  -7  16    0.34    0.93
  -2  -7  16    0.01    1.14
  -2   7  16   -0.65    1.70
  -1  -7  16    3.34    1.24
  -1  -7  16    2.15    0.85
  -1   7  16    2.27    1.76
   0  -7  16    5.45    1.15
   0  -7  16    6.67    0.88
   0   7  16    4.22    2.27
   1   7  16   -4.05    2.05
   2   7  16   -1.71    2.34
   2   7  16    6.85    4.34
  -3  -7 -16    0.95    2.83
   3   7  16   -1.83    3.10
  -4  -7 -16    7.89    1.98
   4   7  16    5.88    4.17
  -5  -7 -16    3.06    1.99
   5   7  16   -0.06    3.42
  -6  -8  16   -2.94    2.98
  -6  -8  16   -4.01    1.69
  -6   8  16    0.29    1.76
  -5  -8  16    0.41    1.95
  -5  -8  16   -4.56    2.44
  -5   8  16    1.25    1.81
  -4  -8  16    9.58    2.22
  -4  -8  16    7.72    2.14
   4  -8 -16    8.22    1.15
   4  -8 -16    4.22    1.73
  -4  -8  16    5.56    2.97
  -4   8  16    6.60    2.35
   3  -8 -16   -0.23    0.89
   3  -8 -16   -3.28    1.49
  -3  -8  16   -2.56    1.23
  -3  -8  16    0.08    1.10
  -3   8  16   -1.42    1.76
  -2  -8  16    0.51    0.91
   2  -8 -16    0.06    0.95
  -2  -8  16   -0.19    1.20
  -2   8  16   -0.45    1.87
  -1  -8  16    0.86    0.73
  -1  -8  16    0.77    1.37
   1  -8 -16    1.15    1.11
  -1   8  16   -1.32    1.80
   0  -8  16   10.97    1.65
   0  -8  16    9.94    1.45
   0  -8 -16    9.89    1.87
   0   8  16    7.81    2.69
  -1  -8 -16   -0.87    1.23
   1   8  16   -1.43    2.03
  -2  -8 -16    0.33    1.39
   2   8  16    2.30    3.18
   2   8  16   -1.08    2.51
  -3  -8 -16    1.69    1.50
   3   8  16    4.88    3.97
  -4  -8 -16    1.60    1.58
   4   8  16   -0.14    3.05
  -5  -8 -16    0.09    1.65
   5   8  16   -1.23    3.33
  -5  -9  16    1.18    1.96
  -5  -9  16   -4.79    2.57
  -5   9  16   -1.39    1.88
  -4  -9  16    0.06    1.69
   4  -9 -16   -1.86    1.02
  -4  -9  16   -1.67    2.46
  -4   9  16    0.94    1.99
  -3  -9  16    0.92    1.56
  -3  -9  16    0.16    2.68
  -3  -9  16    1.50    1.17
   3  -9 -16    0.18    0.95
  -3   9  16    0.02    2.02
  -2  -9  16    0.61    1.13
   2  -9 -16    1.42    1.06
  -2  -9  16   -0.64    1.30
  -2   9  16    0.57    1.83
   1  -9 -16    3.96    1.33
  -1  -9  16    3.66    1.36
  -1   9  16    1.44    2.31
   0  -9  16    8.01    1.40
   0  -9 -16    8.15    1.74
   0  -9  16   11.18    1.96
  -1  -9 -16    0.82    1.34
  -2  -9 -16    0.86    1.84
   2   9  16    4.13    3.01
  -3  -9 -16    3.18    1.89
   3   9  16    5.08    3.59
   4   9  16   14.38    4.79
  -5 -10  16   -2.55    1.98
  -5 -10  16   -1.87    3.29
  -5  10  16   -2.63    2.03
  -4 -10  16    3.92    3.51
  -4  10  16    3.70    2.19
  -3 -10  16   -0.32    1.57
  -3 -10  16   -2.82    2.39
   3 -10 -16    0.64    0.97
  -3 -10  16   -0.05    1.23
  -3  10  16    0.07    1.96
   2 -10 -16    7.07    1.52
  -2 -10  16    6.99    1.22
  -2 -10  16    7.79    1.91
  -2  10  16    5.60    2.61
  -1 -10  16    4.51    1.70
   1 -10 -16    0.80    1.17
  -1 -10  16    0.53    1.28
  -1  10  16   -0.43    2.28
   0 -10  16   14.08    2.07
   0 -10  16   17.65    3.23
   0 -10 -16   11.47    2.04
   0  10  16   12.09    2.95
  -1 -10 -16    1.17    1.37
   1  10  16   -2.88    2.27
   1  10  16    4.51    3.20
   2  10  16   11.16    3.66
  -3 -10 -16    1.94    1.57
   3  10  16    6.92    3.44
  -4 -11  16   -2.86    3.23
  -4 -11  16   -1.32    1.95
  -4  11  16    2.68    2.42
   3 -11 -16    0.73    0.94
  -3 -11  16   -2.11    1.29
  -3 -11  16   -4.46    2.58
  -3  11  16    0.58    2.39
   2 -11 -16    2.68    1.28
  -2 -11  16    2.93    2.08
  -2  11  16   -0.40    2.17
  -1 -11  16    5.55    1.91
   1 -11 -16    1.85    1.37
  -1 -11  16   -0.42    1.38
  -1  11  16    3.27    2.65
   0 -11  16    0.49    1.17
   0 -11  16    1.24    1.74
   0 -11 -16   -0.52    1.24
   0  11  16   -1.99    2.11
  -1 -11 -16    0.51    1.46
   1  11  16    1.54    2.86
   1  11  16    1.95    3.11
  -2 -11 -16    8.30    2.12
   2  11  16   15.38    4.34
  -3 -11 -16    1.14    1.60
   3  11  16    1.44    3.06
   2 -12 -16    7.48    1.57
  -2  12  16    5.26    2.50
   1 -12 -16    0.15    1.28
  -1 -12  16    2.29    2.56
  -1  12  16    0.08    2.48
   0 -12 -16    4.11    1.58
   0 -12  16    9.60    2.35
   0  12  16    2.26    2.80
  -1 -12 -16    1.85    1.55
   1  12  16    3.41    2.77
   1  12  16    2.30    2.84
  -7   0  17    0.20    1.85
   7   0 -17    1.52    2.80
  -6   0  17    1.42    1.56
   6   0 -17    3.68    2.45
  -5   0  17    0.29    1.44
   5   0 -17    1.03    2.23
   4   0 -17   -0.23    1.99
  -4   0  17    1.36    1.44
  -3   0  17    1.36    1.31
   3   0 -17    0.52    1.81
   2   0 -17   -0.85    1.33
  -2   0  17    0.17    1.15
  -1   0  17    1.50    1.30
   1   0 -17    1.24    1.44
   0   0  17    1.79    2.59
   0   0 -17    1.42    1.43
   0   0 -17    1.19    0.82
   1   0  17   -0.93    1.55
  -1   0 -17    0.22    0.73
  -2   0 -17   -0.38    0.79
   2   0  17   -4.54    2.35
   2   0  17   -2.16    1.50
   3   0  17   -1.47    2.30
  -3   0 -17    0.95    0.70
   4   0  17    1.42    2.08
  -4   0 -17    0.07    0.65
   5   0  17    2.30    1.96
   6   0  17    2.49    1.92
   7  -1 -17    5.84    3.40
  -7  -1  17    1.16    1.82
  -7   1  17    1.15    1.70
  -6  -1  17    1.57    1.78
   6  -1 -17   -1.28    2.62
  -6   1  17    1.34    1.61
   5  -1 -17   10.68    2.59
  -5  -1  17    3.52    1.68
   5   1 -17    3.79    2.28
  -5   1  17    2.14    1.54
   4  -1 -17   -4.05    1.85
  -4  -1  17    0.82    1.35
  -4   1  17    1.12    1.46
   4   1 -17    0.48    2.09
  -3  -1  17    3.19    1.42
   3  -1 -17    2.11    1.84
   3   1 -17    0.62    1.80
  -3   1  17    2.19    1.42
  -2  -1  17    1.05    1.13
  -2   1  17    0.92    1.28
   2   1 -17    0.48    1.44
   1  -1 -17   13.85    1.87
   1  -1 -17   14.38    2.35
  -1  -1  17   15.98    2.21
   1   1 -17   14.58    2.48
  -1   1  17   12.35    2.20
   0  -1  17    1.10    1.26
   0  -1 -17    1.54    0.90
   0   1 -17    1.20    1.50
   0   1  17    0.42    1.48
  -1  -1 -17   -0.16    0.84
   1  -1  17   -1.78    1.53
   1   1  17   -4.97    2.83
   2  -1  17    1.70    2.52
  -2  -1 -17    1.97    0.90
   2   1  17    0.75    2.98
   2   1  17   -2.30    1.80
  -3  -1 -17    1.93    0.93
   3  -1  17    2.38    2.11
   3   1  17    1.21    2.88
   4  -1  17    1.15    1.72
   4   1  17    3.72    2.60
   5  -1  17    1.26    1.57
   5   1  17    0.37    2.08
   6  -1  17    3.29    1.71
   6   1  17    4.46    2.26
   7  -2 -17    0.65    2.13
  -7  -2  17    0.70    1.77
  -7   2  17    3.20    1.96
   6  -2 -17    3.47    2.10
  -6  -2  17    1.31    1.56
  -6   2  17    2.92    1.87
   5  -2 -17   -2.28    2.06
  -5  -2  17   -0.28    1.28
  -5   2  17    0.97    1.44
   4  -2 -17    5.81    2.19
  -4  -2  17    5.21    1.61
  -4   2  17    6.55    1.73
   4   2 -17    3.69    2.34
   3  -2 -17    6.88    2.03
  -3  -2  17    6.39    1.67
   3   2 -17    8.04    2.21
  -3   2  17   10.18    1.90
   2  -2 -17   11.49    2.25
  -2  -2  17   11.80    1.79
  -2   2  17    9.07    1.87
   2   2 -17    9.15    2.30
  -1  -2  17   18.09    2.44
   1  -2 -17   18.97    2.30
   1  -2 -17   20.65    3.24
   1   2 -17   16.21    2.57
  -1   2  17   17.04    2.55
   0  -2 -17   13.32    1.96
   0  -2  17   13.71    2.00
   0   2  17   10.46    2.24
   1  -2  17    0.76    1.42
  -1  -2 -17    2.10    1.08
   1   2  17   -0.28    1.85
  -2  -2 -17    7.30    1.39
   2  -2  17    6.32    2.42
   2   2  17    2.48    2.34
   2   2  17    5.40    3.75
  -3  -2 -17   34.01    3.26
   3  -2  17   29.18    3.86
   3   2  17   38.19    5.87
  -4  -2 -17    3.44    1.25
   4  -2  17    4.74    1.65
   4   2  17   -0.21    2.68
  -5  -2 -17   -0.38    1.12
   5  -2  17    0.46    1.29
   5   2  17    3.28    2.71
  -6  -2 -17   -1.44    1.17
   6  -2  17    0.03    1.37
   6   2  17    3.56    2.59
   7  -3 -17    4.18    1.81
  -7  -3  17    6.68    2.19
  -7   3  17    3.05    1.94
   6  -3 -17    3.24    2.01
  -6  -3  17    1.89    1.72
  -6   3  17    1.10    1.73
  -5  -3  17    3.92    1.78
   5  -3 -17   -0.95    2.00
   4  -3 -17   -2.40    1.82
  -4  -3  17    1.55    1.30
  -4   3  17    0.30    1.53
  -3  -3  17    6.40    1.55
   3  -3 -17    4.82    1.94
  -3   3  17    2.29    1.65
   2  -3 -17   -0.71    1.46
  -2  -3  17    1.59    1.20
   2  -3 -17    2.08    1.19
  -2   3  17    0.28    1.33
  -1  -3  17   18.12    3.23
  -1   3  17   15.05    2.44
   0  -3 -17    8.78    1.63
   0  -3  17    8.06    1.53
   0   3  17    4.27    1.90
   1  -3  17   -2.92    1.19
  -1  -3 -17    0.94    1.05
   1   3  17    0.36    2.00
   2  -3  17    7.33    2.09
  -2  -3 -17    7.12    1.48
   2   3  17    3.90    2.43
   2   3  17    2.18    3.44
  -3  -3 -17    1.53    1.26
   3  -3  17    4.26    1.52
   3   3  17   -2.70    2.86
  -4  -3 -17    2.25    1.44
   4  -3  17    3.74    1.43
   4   3  17    0.07    2.96
  -5  -3 -17    1.25    1.36
   5  -3  17   -0.54    1.17
   5   3  17    0.89    3.15
  -6  -3 -17    3.85    1.78
   6  -3  17    6.34    1.61
   6   3  17    1.38    2.74
  -7  -4  17    2.76    2.19
  -7  -4  17   -0.55    1.95
   7  -4 -17   -0.60    1.98
  -7   4  17    2.33    1.93
  -6  -4  17    1.26    1.87
   6  -4 -17    2.44    1.67
  -6   4  17    2.12    1.74
  -5  -4  17   -0.70    1.33
   5  -4 -17    0.33    1.94
  -5   4  17    1.63    1.63
   4  -4 -17    5.37    2.25
  -4  -4  17   11.70    2.16
  -4  -4  17    8.05    1.81
  -4   4  17    9.03    2.16
   3  -4 -17    0.07    1.72
  -3  -4  17    1.21    1.27
  -3   4  17    0.76    1.54
   2  -4 -17    3.01    1.66
  -2  -4  17    1.97    1.13
   2  -4 -17    1.38    1.31
  -2   4  17    1.58    1.50
  -1  -4  17    5.66    1.54
   1  -4 -17    4.61    1.64
  -1   4  17    3.69    1.90
   0  -4 -17    6.84    2.29
   0  -4  17    8.48    1.46
   0   4  17    4.01    2.02
   1  -4  17    0.13    1.08
  -1  -4 -17    1.45    1.25
   1   4  17   -1.02    1.98
   2  -4  17    1.89    1.29
  -2  -4 -17   -1.55    1.21
   2   4  17    1.12    3.51
   2   4  17   -0.89    2.39
  -3  -4 -17    7.44    1.84
   3  -4  17    9.96    1.61
   3   4  17    2.67    3.79
   4  -4  17    1.40    1.03
  -4  -4 -17    0.83    1.87
   5  -4  17    1.98    1.19
  -5  -4 -17    1.66    1.89
   5   4  17    0.28    3.05
  -6  -4 -17   -1.27    2.12
  -6  -4 -17   -1.51    1.94
   6  -4  17    1.10    1.21
   6   4  17    1.52    3.10
  -7  -5  17   -0.62    1.99
  -7  -5  17    0.04    2.36
  -7   5  17    1.01    2.21
  -6  -5  17   -1.55    1.78
   6  -5 -17    2.48    1.34
  -6  -5  17    0.86    2.27
  -6   5  17    0.47    1.82
   5  -5 -17   -2.41    1.61
  -5  -5  17   -0.75    1.43
  -5   5  17    1.24    1.84
  -4  -5  17    3.90    1.67
  -4  -5  17    2.51    1.44
   4  -5 -17   -3.01    1.84
  -4   5  17    0.39    1.59
  -3  -5  17    3.40    1.41
  -3  -5  17    3.03    1.41
   3  -5 -17    0.16    1.73
  -3   5  17   -0.02    1.67
  -2  -5  17    5.95    1.41
   2  -5 -17    3.62    1.71
  -2   5  17    3.74    1.89
   1  -5 -17    0.11    1.45
  -1  -5  17    0.10    1.08
  -1   5  17   -0.84    1.59
   0  -5 -17    6.30    1.71
   0  -5  17    8.66    1.45
   0   5  17    2.66    1.99
   1  -5  17   -0.29    1.29
  -1  -5 -17    3.44    1.50
   1   5  17    1.57    2.13
  -2  -5 -17    8.68    2.14
   2  -5  17    9.43    1.41
   2   5  17    2.37    2.70
   2   5  17    7.03    3.90
   3  -5  17    1.13    0.86
  -3  -5 -17    0.03    1.68
   3   5  17    0.38    3.54
   4  -5  17    2.20    0.99
  -4  -5 -17    3.88    2.03
   4   5  17    2.43    3.98
  -5  -5 -17   -0.43    1.95
   5   5  17   -1.23    3.13
  -6  -6  17    2.22    2.10
  -6  -6  17    0.92    2.48
  -6   6  17   -2.39    1.88
   5  -6 -17    0.26    1.80
  -5  -6  17   -0.06    2.04
  -5  -6  17    1.02    2.04
  -5   6  17    0.47    1.73
  -4  -6  17    0.47    1.45
   4  -6 -17   -2.75    1.78
  -4  -6  17    0.10    1.35
  -4   6  17    0.47    1.52
  -3  -6  17   -0.24    1.15
   3  -6 -17   -2.81    1.62
  -3  -6  17    0.52    1.21
  -3   6  17    0.89    1.65
   2  -6 -17   -2.50    1.46
  -2  -6  17    0.03    1.03
  -2  -6  17    0.36    1.17
  -2   6  17    0.50    1.68
  -1  -6  17   -0.95    1.09
  -1  -6  17    0.56    0.86
  -1   6  17   -0.55    1.62
   0  -6  17   -0.19    0.92
   0   6  17   -1.29    1.76
   1  -6  17    3.04    1.01
   1   6  17    0.46    2.27
   2  -6  17    1.74    0.66
   2   6  17   -2.15    2.96
   2   6  17    0.06    2.61
   3  -6  17    1.39    0.64
   3   6  17   -0.41    3.36
  -4  -6 -17    1.75    1.82
   4   6  17   -1.75    3.73
  -5  -6 -17    6.97    2.32
   5   6  17    2.01    3.65
  -6  -7  17   -1.51    1.79
  -6  -7  17    0.62    2.99
  -6   7  17   -1.99    1.65
  -5  -7  17   -1.33    1.75
  -5  -7  17   -0.40    2.25
   5  -7 -17    1.93    1.02
  -5   7  17    1.56    1.77
  -4  -7  17    0.51    1.44
  -4  -7  17    0.67    1.50
  -4   7  17   -1.48    1.73
  -3  -7  17   -0.32    1.34
   3  -7 -17   -1.10    1.77
  -3  -7  17    0.60    1.17
  -3   7  17   -0.27    1.85
  -2  -7  17    8.01    1.45
  -2  -7  17    7.78    1.64
  -2   7  17    5.35    2.21
  -1  -7  17    2.51    1.11
  -1   7  17    0.33    2.04
   0  -7  17    0.58    0.63
   0  -7  17    1.29    0.98
   0   7  17   -3.00    1.94
   1   7  17    0.34    2.17
   2   7  17    9.74    3.99
   2   7  17   12.11    3.50
  -3  -7 -17    0.92    1.76
   3   7  17    5.04    3.60
  -4  -7 -17    1.02    1.87
   4   7  17    1.45    4.11
  -5  -7 -17    1.28    1.72
   5   7  17   -2.35    3.52
  -6  -8  17    0.41    2.15
  -6   8  17    1.04    1.98
  -5  -8  17    0.10    3.04
  -5  -8  17   -1.42    1.60
  -5   8  17   -1.80    1.80
   4  -8 -17    0.54    2.84
  -4  -8  17    4.53    3.10
   4  -8 -17    5.13    1.06
  -4  -8  17    5.24    1.63
  -4  -8  17    2.94    1.84
  -4   8  17    4.71    2.23
  -3  -8  17    4.31    1.35
   3  -8 -17    4.31    1.17
  -3  -8  17    2.59    1.60
   3  -8 -17   -0.14    1.97
  -3   8  17    3.64    2.26
  -2  -8  17    1.49    1.27
  -2  -8  17    4.98    1.15
  -2   8  17   -0.65    1.89
  -1  -8  17    1.00    0.76
  -1  -8  17    0.79    1.20
  -1   8  17   -0.45    2.50
   0  -8 -17    2.56    1.37
   0  -8  17    4.08    1.30
   0  -8  17    2.17    1.08
   0   8  17   -3.31    2.04
  -1  -8 -17    6.17    1.63
   1   8  17    5.07    2.60
   2   8  17    3.44    2.91
   2   8  17    6.72    3.83
  -3  -8 -17   -0.15    1.49
   3   8  17    2.80    3.55
  -4  -8 -17    1.92    1.93
   4   8  17    1.77    3.44
  -5  -9  17   -2.40    1.94
  -5  -9  17   -5.16    2.57
  -5   9  17    0.07    2.21
   4  -9 -17    0.04    0.76
  -4  -9  17    1.05    1.60
  -4  -9  17   -0.42    1.86
  -4  -9  17   -2.93    2.43
  -4   9  17    2.67    2.09
  -3  -9  17    0.92    1.22
  -3  -9  17   -0.18    1.53
  -3   9  17   -0.26    1.81
  -2  -9  17    3.49    1.56
  -2  -9  17    3.72    1.79
   2  -9 -17    3.32    1.27
  -2   9  17    2.06    2.42
  -1  -9  17   -0.32    1.05
   1  -9 -17    1.26    1.21
  -1   9  17   -2.02    2.09
   0  -9  17    1.44    1.05
   0  -9 -17    1.65    1.35
   0  -9  17    4.94    1.42
   0   9  17    1.84    2.50
  -1  -9 -17    2.04    1.42
   1   9  17    1.62    2.57
   2   9  17   10.87    3.92
  -3  -9 -17   -0.48    1.52
   3   9  17    4.32    3.66
  -4  -9 -17    1.20    1.95
   4   9  17    2.91    3.90
  -4 -10  17   -0.95    3.11
  -4 -10  17   -1.10    3.37
  -4 -10  17    1.90    1.99
  -4  10  17    1.61    2.43
   3 -10 -17   -1.68    2.22
  -3 -10  17    6.09    1.50
  -3 -10  17    5.11    1.94
   3 -10 -17    5.43    1.61
  -3  10  17    4.55    2.48
  -2 -10  17    0.50    0.95
   2 -10 -17    1.24    1.14
  -2 -10  17    1.15    1.54
  -2  10  17   -0.24    2.18
   1 -10 -17    2.22    1.26
  -1 -10  17    4.06    1.66
  -1 -10  17    0.71    1.37
  -1  10  17   -1.33    2.16
   0 -10  17    0.60    1.05
   0 -10 -17    1.38    1.32
   0 -10  17    7.14    2.69
   0  10  17   -2.54    2.10
  -1 -10 -17    0.48    1.41
   1  10  17   -2.13    2.33
   1  10  17    2.36    3.07
  -2 -10 -17   -0.10    1.56
   2  10  17   -0.82    3.29
  -3 -10 -17    1.16    1.56
   3  10  17    3.18    3.36
  -3 -11  17   -1.65    1.81
  -3 -11  17   -3.39    1.38
   3 -11 -17    0.19    1.01
  -3  11  17    0.35    2.25
  -2 -11  17    0.17    1.69
   2 -11 -17    1.32    1.18
  -2 -11  17    1.19    2.19
  -2  11  17   -0.39    2.19
  -1 -11  17   -1.37    1.36
   1 -11 -17   -0.67    1.14
  -1 -11  17    6.17    1.95
  -1  11  17   -0.54    2.25
   0 -11  17    0.54    1.12
   0 -11 -17    0.72    1.29
   0  11  17   -0.49    2.24
  -1 -11 -17   -0.54    1.29
   1  11  17   -0.84    2.61
   1  11  17    0.96    3.03
  -2 -11 -17    0.44    1.39
   2  11  17    4.72    3.59
  -7   0  18   -0.21    1.62
  -6   0  18   -1.82    1.49
   6   0 -18    5.27    3.21
   5   0 -18   13.81    3.13
  -5   0  18   10.20    2.35
  -4   0  18   36.14    3.74
   4   0 -18   26.34    4.13
   3   0 -18    3.26    2.05
  -3   0  18    2.41    1.53
  -2   0  18   -0.23    1.20
   2   0 -18   -1.25    1.56
  -1   0  18   78.23    6.62
   1   0 -18   73.81    7.05
   0   0  18    0.02    1.36
   1   0  18    6.44    2.26
  -1   0 -18   13.71    1.68
   2   0  18   -5.52    2.49
   2   0  18    1.60    1.71
  -3   0 -18   39.76    3.32
   3   0  18   34.57    5.14
  -4   0 -18    8.26    1.11
   4   0  18    9.17    2.67
   5   0  18    1.70    2.04
   6   0  18    2.79    1.92
  -7  -1  18    2.03    1.98
   7  -1 -18    4.38    3.03
  -7   1  18    2.70    2.13
   6  -1 -18    4.99    2.60
  -6  -1  18   -0.27    1.47
  -6   1  18    0.98    1.71
  -5  -1  18   29.52    3.38
   5  -1 -18   17.65    3.78
   4  -1 -18   47.12    5.82
  -4  -1  18   48.75    4.72
  -4   1  18   49.33    4.86
  -3  -1  18    2.16    1.41
   3  -1 -18   -0.23    1.85
   3   1 -18    0.51    2.25
  -3   1  18    0.37    1.39
  -2  -1  18    0.41    1.23
   2  -1 -18    0.35    1.55
   2   1 -18   -2.49    2.11
  -2   1  18    3.35    1.46
  -1  -1  18   11.47    2.05
   1  -1 -18   12.58    2.24
   1  -1 -18   12.69    1.86
  -1   1  18   11.44    2.07
   0  -1  18   59.13    6.16
   0  -1 -18   63.42    5.08
   0   1  18   54.96    5.63
  -1  -1 -18    2.44    0.96
   1  -1  18    2.29    1.74
   1   1  18   -1.23    1.89
  -2  -1 -18    0.36    0.88
   2  -1  18   -0.51    2.42
   2   1  18   -4.28    2.95
   2   1  18   -1.62    1.92
   3  -1  18    3.74    2.25
  -3  -1 -18    3.36    1.05
   3   1  18    3.00    2.98
   4  -1  18   10.62    2.50
   4   1  18   11.79    3.45
   5  -1  18    1.88    1.73
  -5  -1 -18   -0.46    1.34
   5   1  18    3.11    2.28
  -6  -1 -18   -0.46    0.86
   6  -1  18    0.90    1.53
   6   1  18    1.15    1.99
  -7  -2  18   -0.56    1.87
   7  -2 -18    1.25    2.55
  -7   2  18    3.94    1.98
   6  -2 -18    3.49    2.61
  -6  -2  18    1.41    1.58
  -6   2  18    1.16    1.71
   5  -2 -18    6.07    2.93
  -5  -2  18    8.53    1.89
  -5   2  18   12.68    2.41
   4  -2 -18   13.37    3.48
  -4  -2  18   13.74    2.18
  -4   2  18   10.67    2.15
   3  -2 -18   -2.02    2.26
  -3  -2  18    2.76    1.39
  -3   2  18    1.65    1.49
   2  -2 -18    0.25    0.97
  -2  -2  18    0.75    1.22
   2  -2 -18   -0.26    1.52
  -2   2  18    0.35    1.38
   1  -2 -18   29.99    3.66
  -1  -2  18   26.31    3.11
   1  -2 -18   23.60    3.75
  -1   2  18   27.01    3.44
   0  -2  18    2.18    1.36
   0  -2 -18    0.46    0.99
   0   2  18   -0.50    1.66
  -1  -2 -18    1.08    0.95
   1  -2  18   -2.47    1.43
   1   2  18   -1.96    1.73
   2  -2  18    0.02    2.07
  -2  -2 -18    2.36    1.10
   2   2  18   -2.51    2.01
   2   2  18   -6.31    2.76
  -3  -2 -18   14.76    2.18
   3  -2  18   14.44    2.64
   3   2  18   15.09    4.28
   4  -2  18    4.35    1.75
  -4  -2 -18    2.68    1.14
   4   2  18    3.16    3.10
   5  -2  18    2.31    1.50
  -5  -2 -18    1.14    1.14
   5   2  18   -0.77    2.63
  -6  -2 -18    2.18    1.46
   6  -2  18   -0.26    1.40
   6   2  18    2.26    2.53
   7  -3 -18   -2.28    1.87
  -7  -3  18   -1.69    1.92
  -7   3  18    0.46    2.02
  -6  -3  18    0.76    1.87
   6  -3 -18    7.65    2.36
  -6   3  18    2.03    1.96
  -5  -3  18    1.04    1.52
   5  -3 -18   -2.46    2.29
  -5   3  18    0.28    1.54
   4  -3 -18    3.38    2.39
  -4  -3  18    5.65    1.57
  -4   3  18    8.39    2.14
   3  -3 -18   -2.33    1.67
  -3  -3  18    0.76    1.17
  -3   3  18   -1.69    1.36
   2  -3 -18    3.30    1.89
   2  -3 -18    7.45    1.84
  -2  -3  18    9.10    1.68
  -2   3  18    9.05    2.02
   1  -3 -18    0.19    1.45
   1  -3 -18   -0.07    0.97
  -1  -3  18    1.78    1.19
  -1   3  18    1.35    1.53
   0  -3 -18   16.56    2.62
   0  -3  18   17.76    2.49
   0   3  18   15.73    2.79
  -1  -3 -18   -0.37    1.06
   1  -3  18   -1.21    1.28
   1   3  18   -3.69    1.79
  -2  -3 -18    2.16    1.18
   2  -3  18    1.83    1.72
   2   3  18    0.15    2.43
   2   3  18   -3.22    3.28
  -3  -3 -18    1.06    1.15
   3  -3  18    3.27    1.55
   3   3  18    0.37    3.07
  -4  -3 -18    7.36    1.76
   4  -3  18   10.29    1.92
  -5  -3 -18   -0.10    1.37
   5  -3  18   -0.52    1.23
   5   3  18   -1.40    2.87
   7  -4 -18   -0.80    2.19
  -7  -4  18    3.14    2.13
  -7   4  18    3.26    1.97
   6  -4 -18    8.36    2.21
  -6  -4  18    4.05    2.03
  -6   4  18    6.29    2.10
  -5  -4  18    1.20    1.69
   5  -4 -18    1.06    2.32
  -5   4  18    2.73    1.75
  -4  -4  18    0.02    1.43
   4  -4 -18   -4.32    1.96
  -4   4  18    2.27    2.36
  -3  -4  18    0.82    1.17
   3  -4 -18   -3.22    1.62
  -3   4  18    2.91    1.70
   2  -4 -18   -4.26    2.88
  -2  -4  18    2.02    1.26
  -2   4  18    0.20    1.52
  -1  -4  18    0.23    1.05
   1  -4 -18    1.05    1.16
  -1   4  18   -2.34    1.55
   0  -4  18    0.39    1.09
   0  -4 -18    0.83    1.20
   0   4  18    0.16    1.81
  -1  -4 -18    2.90    1.36
   1  -4  18    1.36    1.14
   1   4  18   -0.19    2.09
  -2  -4 -18    4.53    2.75
   2  -4  18    4.86    1.98
   2   4  18    4.01    3.76
   2   4  18    2.44    2.73
   3  -4  18    1.54    1.97
   3   4  18   -6.24    3.02
   4  -4  18    0.29    1.07
  -4  -4 -18    0.48    1.79
   4   4  18   -3.39    2.86
  -5  -4 -18    2.12    1.63
   5  -4  18    1.88    1.19
   5   4  18   -1.33    3.03
  -6  -5  18    2.28    1.97
  -6   5  18    1.89    1.98
   5  -5 -18    0.04    2.13
  -5   5  18    2.59    2.02
   4  -5 -18   -2.70    1.99
  -4  -5  18    0.62    1.30
  -4   5  18   -0.99    1.49
  -3  -5  18    0.05    1.20
  -3  -5  18   -3.42    2.23
   3  -5 -18    1.03    2.03
  -3   5  18    1.11    1.86
  -2  -5  18    9.95    1.71
   2  -5 -18    4.67    3.83
  -2   5  18    6.29    2.28
  -1  -5  18    3.96    1.73
  -1   5  18   -0.25    1.79
   0  -5  18    5.14    1.37
   0   5  18    3.55    2.16
   1  -5  18   -1.25    1.24
  -1  -5 -18    1.08    1.39
   1   5  18   -4.38    1.92
   2  -5  18   11.04    1.58
  -2  -5 -18    8.49    2.14
   2   5  18    6.26    2.95
   2   5  18   10.55    4.18
   3  -5  18    1.59    0.90
  -3  -5 -18   -2.80    1.48
   3   5  18   -2.44    3.27
  -4  -5 -18    1.32    3.12
   4   5  18   -0.12    3.67
  -5  -5 -18    1.84    2.35
   5  -5  18    1.80    1.43
   5   5  18   -3.40    3.20
  -6  -6  18    1.04    2.63
  -6  -6  18    0.96    1.91
  -6   6  18    1.90    2.02
  -5  -6  18   -0.51    1.47
   5  -6 -18   -3.32    1.87
  -5   6  18    1.72    1.67
  -4  -6  18   -0.46    1.33
  -4  -6  18    0.69    1.52
   4  -6 -18   -4.43    1.94
  -4   6  18   -2.53    1.55
   3  -6 -18   -2.56    1.83
  -3  -6  18    1.73    1.36
  -3  -6  18    1.74    1.31
  -3   6  18   -0.81    2.74
   2  -6 -18   -0.80    1.99
  -2  -6  18    1.37    1.18
  -2  -6  18    3.09    1.20
  -2   6  18   -1.04    1.58
  -1  -6  18   -0.22    1.42
  -1   6  18   -1.78    1.73
   0  -6  18    0.35    1.01
   0   6  18    0.28    2.10
   1  -6  18    4.21    1.15
   1   6  18    0.46    2.21
   2  -6  18    2.42    0.78
   2   6  18   -2.65    2.41
   2   6  18    6.48    3.98
   3  -6  18    1.41    0.67
   3   6  18   -1.11    3.10
  -4  -6 -18    4.14    2.32
   4   6  18    1.30    3.99
  -5  -6 -18    1.48    1.90
   5   6  18    1.74    3.65
  -6  -7  18    0.12    1.96
  -6   7  18   -0.01    1.87
  -5  -7  18    0.18    1.54
   5  -7 -18    2.20    1.33
  -5   7  18    1.28    1.82
  -4  -7  18    1.53    1.52
  -4  -7  18    1.19    1.54
  -4   7  18    0.02    1.89
  -3  -7  18    2.74    1.37
  -3  -7  18    0.38    1.36
   3  -7 -18   -0.60    1.97
  -3   7  18   -0.79    1.96
   2  -7 -18    8.29    2.81
  -2  -7  18   10.14    1.84
  -2  -7  18    9.91    1.58
  -2   7  18   10.89    3.54
  -1  -7  18    2.54    1.61
  -1  -7  18    1.14    1.60
  -1   7  18   -0.56    1.83
   0  -7  18    3.09    0.78
   0  -7  18    3.35    1.19
   0   7  18    0.06    2.05
   1   7  18    0.83    2.31
   2   7  18   17.15    4.01
   2   7  18   13.95    4.03
  -3  -7 -18    0.00    1.59
   3   7  18   -1.67    3.57
  -4  -7 -18    3.14    2.03
   4   7  18    1.07    4.13
  -5  -8  18   -0.87    1.84
  -5  -8  18   -3.02    2.75
  -5   8  18    0.83    2.18
  -4  -8  18   -0.35    1.46
  -4  -8  18    1.00    1.64
   4  -8 -18    0.63    0.95
  -4   8  18   -0.78    1.78
  -3  -8  18   14.33    2.28
  -3  -8  18   14.11    2.20
   3  -8 -18   14.36    2.27
   3  -8 -18   10.44    2.77
  -3   8  18    9.75    2.60
  -2  -8  18    1.71    1.36
  -2  -8  18    2.09    1.05
  -2   8  18    1.37    2.04
  -1  -8  18    1.09    0.79
  -1  -8  18    1.87    1.18
  -1   8  18    0.02    1.98
   0  -8  18    2.92    1.23
   0  -8  18    0.90    1.00
   0   8  18    0.60    2.43
  -1  -8 -18   20.59    3.30
   1   8  18   23.14    6.62
  -2  -8 -18    1.21    1.52
   2   8  18    5.55    3.67
   2   8  18    2.32    3.50
  -3  -8 -18   -2.22    1.59
   3   8  18   -1.12    3.03
  -4  -8 -18    2.39    1.84
   4   8  18    3.47    3.58
   4  -9 -18    0.80    0.85
  -4  -9  18    0.26    1.66
  -4   9  18   -2.35    2.02
  -3  -9  18    1.41    1.67
   3  -9 -18    1.47    1.09
  -3  -9  18    0.80    1.26
  -3   9  18   -1.55    2.13
   2  -9 -18   23.38    2.91
  -2  -9  18   24.27    3.07
  -2   9  18   16.39    3.30
  -1  -9  18    1.29    1.26
   1  -9 -18    2.03    1.23
  -1   9  18   -1.11    2.00
   0  -9  18    1.49    1.05
   0  -9 -18    0.25    1.26
   0  -9  18    6.06    1.40
   0   9  18   -1.96    2.11
   1   9  18   -0.73    2.35
  -2  -9 -18   10.04    2.18
   2   9  18   21.26    4.96
  -3  -9 -18    0.63    1.81
   3   9  18    5.71    4.13
   3 -10 -18    7.03    1.44
  -3 -10  18    5.32    1.62
  -3 -10  18    1.92    1.88
  -3  10  18    3.18    2.45
   2 -10 -18    0.46    1.14
  -2 -10  18   -1.25    0.91
  -2 -10  18    0.01    1.42
  -2  10  18    0.64    2.18
  -1 -10  18    0.82    1.28
  -1 -10  18    1.56    1.66
   1 -10 -18   -0.28    1.14
  -1  10  18   -2.50    1.99
   0 -10 -18   -0.27    1.24
   0 -10  18    1.59    1.50
   0 -10  18    0.31    1.05
   0  10  18   -3.00    2.09
  -1 -10 -18    7.37    1.90
   1  10  18   14.00    3.63
   1  10  18   10.52    3.66
  -2 -10 -18    2.94    1.75
   2  10  18    2.54    3.39
   1 -11 -18    0.12    1.15
  -1 -11  18    6.05    1.98
  -1 -11  18   -0.51    1.30
  -1  11  18   -0.97    2.17
   0 -11  18    0.15    1.09
   0 -11  18    3.20    2.13
   0 -11 -18    0.56    1.32
   0  11  18    0.88    2.51
  -7   0  19    2.54    2.06
  -6   0  19    1.61    1.80
  -5   0  19    1.58    1.60
  -4   0  19    2.11    1.45
  -3   0  19    1.32    1.44
  -2   0  19   -0.69    1.29
  -1   0  19    1.11    1.44
   0   0  19   -0.07    1.54
   1   0  19   -3.49    2.81
   2   0  19   -1.54    2.83
  -2   0 -19    0.47    0.84
   3   0  19   -1.06    2.39
   4   0  19    0.60    2.23
   5   0  19    0.18    2.10
  -7  -1  19    1.36    1.89
  -7   1  19    2.70    2.03
  -6  -1  19    2.41    1.67
   6  -1 -19    7.83    3.13
  -6   1  19    2.36    1.76
   5  -1 -19    0.22    2.81
  -5  -1  19    1.25    1.52
  -5   1  19   -0.93    1.45
   4  -1 -19   -0.56    2.44
  -4  -1  19    2.18    1.57
  -4   1  19    0.37    1.49
   3  -1 -19   -1.55    1.99
  -3  -1  19    4.73    1.67
  -3   1  19    3.57    1.54
  -2  -1  19    5.28    1.68
  -2   1  19    6.78    1.90
   1  -1 -19    3.08    1.37
  -1  -1  19    3.17    1.51
  -1   1  19    4.05    1.79
   0  -1  19    7.29    1.88
   0  -1 -19    7.31    1.41
   0   1  19    8.79    2.17
   1  -1  19   -0.65    1.64
  -1  -1 -19   -1.39    0.78
   1   1  19   -0.31    1.87
  -2  -1 -19    3.15    1.04
   2  -1  19    1.04    2.61
   2   1  19   -1.21    3.03
   3  -1  19    2.01    2.06
  -3  -1 -19   -0.28    0.87
   3   1  19    1.03    2.80
   4  -1  19    1.56    1.85
   4   1  19   -1.58    2.57
  -5  -1 -19   -0.42    0.86
   5  -1  19    2.59    1.94
   5   1  19    1.37    2.26
  -6  -2  19    0.83    1.81
   6  -2 -19    5.80    2.94
  -6   2  19    0.85    1.79
  -5  -2  19    3.16    1.65
   5  -2 -19   -5.17    2.59
  -5   2  19   -0.42    1.49
  -4  -2  19    1.65    1.43
   4  -2 -19   -3.69    2.16
  -4   2  19   -0.93    1.54
   3  -2 -19   14.23    3.11
  -3  -2  19   21.00    2.84
  -3   2  19   20.69    2.97
  -2  -2  19    0.92    1.30
   2  -2 -19    0.28    1.47
   2  -2 -19   -0.33    1.66
  -2   2  19    1.66    1.44
   1  -2 -19   -0.61    1.00
  -1  -2  19    2.23    1.38
  -1   2  19   -1.40    1.46
   0  -2 -19    1.50    1.10
   0  -2  19    1.09    1.52
   0   2  19    1.31    1.75
  -1  -2 -19   19.24    2.21
   1  -2  19   12.76    2.37
   1   2  19    7.18    2.70
   2  -2  19   -0.34    2.10
  -2  -2 -19    1.69    1.04
   2   2  19   -3.34    3.34
   2   2  19    1.14    2.41
   3  -2  19    2.51    1.81
  -3  -2 -19    3.25    1.22
   3   2  19    0.87    3.23
   4  -2  19    4.47    1.74
  -4  -2 -19    2.80    1.19
   5  -2  19    2.89    1.55
  -5  -2 -19    0.76    1.15
   5   2  19    2.09    2.91
   6  -3 -19    7.45    2.55
  -6  -3  19    2.00    1.88
  -6   3  19    1.82    1.85
   5  -3 -19   -4.53    2.90
  -5  -3  19   -0.68    1.61
  -5   3  19    0.85    1.91
  -4  -3  19    0.19    1.41
   4  -3 -19   -5.80    2.55
  -3  -3  19    0.72    1.32
   3  -3 -19    1.34    2.03
  -3   3  19    4.12    1.79
   2  -3 -19   -1.80    1.76
  -2  -3  19    3.53    1.43
  -2   3  19   -0.09    1.54
   1  -3 -19    4.20    1.38
  -1  -3  19    1.89    1.35
  -1   3  19    4.06    1.89
   0  -3  19    5.85    1.66
   0  -3 -19    6.75    1.55
   0   3  19    3.23    2.08
   1  -3  19   -1.62    1.29
  -1  -3 -19   -0.51    1.31
   1   3  19   -0.26    2.20
   2  -3  19    1.98    1.81
  -2  -3 -19   -0.17    1.13
   2   3  19   -4.20    2.90
   2   3  19   -2.76    2.18
  -3  -3 -19   -0.12    1.14
   3  -3  19    1.83    1.58
   3   3  19   -4.91    3.33
   4  -3  19    2.94    1.49
  -4  -3 -19    1.57    1.28
   4   3  19   -0.69    3.11
   5  -3  19   -0.31    1.14
  -5  -3 -19   -2.09    1.24
   5   3  19    3.42    3.50
  -6  -4  19    1.78    1.93
   6  -4 -19   -3.51    2.01
  -6   4  19    1.96    2.05
  -5  -4  19    1.76    1.57
   5  -4 -19   -5.50    2.41
  -5   4  19    2.70    1.80
  -4  -4  19   -0.45    1.31
  -4   4  19   -0.98    1.70
  -3  -4  19   -0.63    1.27
   3  -4 -19   -4.35    1.91
  -3   4  19   -2.40    1.37
  -2  -4  19    1.91    1.30
   2  -4 -19   -2.36    1.76
  -2   4  19   -1.17    1.53
  -1  -4  19    2.94    1.35
  -1   4  19   -2.21    1.70
   0  -4 -19    0.29    1.22
   0  -4  19   -0.69    1.24
   0   4  19   -0.82    1.80
   1  -4  19   -3.07    1.74
  -1  -4 -19   -0.92    1.29
   1  -4  19    0.72    1.06
   1   4  19   -3.02    1.93
  -2  -4 -19    3.97    1.56
   2  -4  19    8.01    1.81
   2   4  19    4.46    2.96
   2   4  19   -0.55    3.62
  -3  -4 -19   -1.24    1.38
   3  -4  19    1.73    1.25
   3   4  19   -5.36    2.84
   4  -4  19    2.22    1.16
  -4  -4 -19   -1.95    1.45
   4   4  19    1.77    3.36
  -5  -4 -19   -4.33    1.58
   5  -4  19    1.51    1.26
   5   4  19    1.00    3.39
   6  -5 -19    5.86    2.06
  -6  -5  19    6.81    2.16
  -6   5  19    5.32    2.39
  -5  -5  19    2.80    1.62
   5  -5 -19   -3.90    2.25
  -5   5  19    0.07    1.88
   4  -5 -19   -3.22    2.39
  -4  -5  19    3.34    1.72
  -4   5  19    2.99    1.79
  -3  -5  19    0.42    1.30
   3  -5 -19   -5.11    3.91
  -3  -5  19   -0.33    1.39
   2  -5 -19   12.73    2.85
  -2  -5  19   14.50    2.15
  -2   5  19   15.75    2.85
  -1  -5  19    3.29    1.35
  -1   5  19    2.14    1.99
   0  -5  19    2.15    1.30
   0   5  19   -0.15    2.00
   1  -5  19   -0.33    1.40
   1   5  19   -1.36    2.07
   2  -5  19    6.87    1.42
   2   5  19    3.54    2.84
   2   5  19    3.70    4.05
   3  -5  19    1.12    0.98
   3   5  19   -2.41    3.31
   4  -5  19   -0.02    1.10
   4   5  19   -3.64    3.52
  -5  -6  19    2.19    1.59
   5  -6 -19   -1.12    2.06
  -5   6  19    0.83    1.73
  -4  -6  19    1.75    1.56
   4  -6 -19   -2.97    2.31
  -4   6  19    4.49    2.05
  -3  -6  19   16.91    2.45
  -3  -6  19   18.44    2.53
   3  -6 -19   11.49    3.06
  -3   6  19   10.73    2.61
   2  -6 -19   -3.42    1.86
  -2  -6  19    0.03    1.12
  -2  -6  19    0.02    1.24
  -1  -6  19    3.24    1.41
  -1   6  19    1.59    2.01
   0  -6  19    0.48    1.13
   0   6  19   -1.21    1.92
   1  -6  19   12.58    1.67
   1   6  19    8.36    3.07
   2  -6  19    2.75    0.83
   2   6  19    2.74    2.81
   2   6  19    2.49    3.56
   3   6  19   -0.31    3.59
  -4  -6 -19   -0.72    1.95
   4   6  19   -2.09    3.69
  -5  -7  19    0.61    1.76
  -5   7  19    0.56    2.13
  -4  -7  19    1.42    1.61
  -4   7  19   -1.61    1.77
  -3  -7  19    3.75    1.85
  -3  -7  19    6.03    1.70
   3  -7 -19   -4.84    2.23
  -3   7  19    1.01    2.07
   2  -7 -19    1.55    2.23
  -2  -7  19    7.70    1.49
  -2  -7  19    8.13    1.71
  -2   7  19    6.76    2.30
  -1  -7  19    6.14    1.21
  -1  -7  19    5.87    1.61
  -1   7  19    5.55    2.56
   0  -7  19    1.93    1.14
   0  -7  19    1.54    0.75
   0   7  19   -1.85    2.96
   1   7  19   -4.16    2.01
   2   7  19    7.05    4.08
   2   7  19    0.22    2.78
  -3  -7 -19    2.26    1.82
   3   7  19    0.40    4.00
  -4  -8  19    1.25    2.96
  -4  -8  19    3.00    1.95
  -4   8  19    2.18    2.24
  -3  -8  19    0.97    1.44
  -3  -8  19    2.41    1.38
  -3   8  19    0.17    2.05
  -2  -8  19    0.67    1.43
  -2  -8  19    2.90    1.15
  -2   8  19   -0.10    2.21
  -1  -8  19    0.68    1.21
  -1  -8  19    1.60    0.81
  -1   8  19   -0.94    2.07
   0  -8  19    4.41    1.26
   0  -8  19    5.42    1.35
   0   8  19    4.71    2.61
  -1  -8 -19    0.41    1.45
   1   8  19    1.14    2.37
  -2  -8 -19    3.83    1.92
   2   8  19   10.12    3.46
  -3  -8 -19    1.77    1.65
   3   8  19    1.53    3.30
  -3  -9  19    0.15    1.42
  -3  -9  19   -1.46    1.38
   3  -9 -19    1.10    1.12
  -3   9  19   -0.77    1.93
  -2  -9  19    3.51    1.59
   2  -9 -19    2.20    1.24
  -2   9  19    3.70    2.55
   1  -9 -19    2.45    1.39
  -1  -9  19    2.59    1.39
  -1   9  19   -0.09    2.19
   0  -9  19    5.48    1.44
   0  -9 -19    2.05    1.47
   0  -9  19    0.75    1.04
   0   9  19   -1.42    2.31
  -1  -9 -19    1.37    1.51
   1   9  19    1.05    2.64
  -2  -9 -19    0.55    1.51
   2   9  19    1.09    3.43
   2 -10 -19    1.43    1.15
  -2 -10  19    2.68    1.53
  -2  10  19   -0.66    2.21
   1 -10 -19   -0.52    1.22
  -1 -10  19    2.21    1.76
  -1 -10  19   -1.11    1.30
  -1  10  19   -1.02    2.41
   0 -10  19    3.20    1.10
   0 -10 -19    1.32    2.59
   0 -10  19    4.72    1.58
   0  10  19    2.22    2.36
  -6   0  20   -0.68    1.53
  -5   0  20    9.30    2.29
  -4   0  20    2.33    1.67
  -3   0  20    5.88    1.76
  -2   0  20    3.57    1.70
  -1   0  20    5.18    1.87
   0   0  20    6.97    2.05
   1   0  20   -0.17    1.95
   2   0  20    2.87    3.12
   3   0  20    2.13    2.74
   4   0  20    5.48    2.54
  -6  -1  20    8.86    2.34
  -6   1  20    5.09    2.10
  -5  -1  20    0.57    1.48
  -5   1  20   -2.15    1.46
  -4  -1  20    2.52    1.59
  -3  -1  20   14.37    2.47
  -3   1  20   13.45    2.57
  -2  -1  20    4.55    1.68
  -2   1  20    4.64    1.71
  -1  -1  20   -1.88    1.36
  -1   1  20    1.67    1.61
   0  -1  20    1.41    1.61
   0  -1 -20    0.86    0.99
   0   1  20   -1.34    1.67
   1  -1  20    4.05    2.08
   1   1  20    2.43    2.24
   2  -1  20   -3.15    2.39
  -2  -1 -20    0.39    0.97
   2   1  20   -2.70    3.15
   3  -1  20   -0.76    2.18
  -3  -1 -20    0.28    0.93
   3   1  20   -3.63    2.62
   4  -1  20    1.44    1.83
  -6  -2  20    3.36    1.86
   6  -2 -20    8.09    3.47
  -6   2  20   -0.71    1.89
   5  -2 -20   -3.52    3.55
  -5  -2  20    0.52    1.58
  -5   2  20    1.71    1.79
  -4  -2  20   -0.19    1.41
  -4   2  20    1.36    1.72
  -3  -2  20    6.22    1.69
  -3   2  20    6.23    1.88
  -2  -2  20   11.92    2.17
  -2   2  20    9.88    2.32
   1  -2 -20   -0.08    1.08
  -1  -2  20    1.35    1.36
  -1   2  20   -0.37    1.62
   0  -2 -20   -0.56    1.06
   0  -2  20   -0.12    2.30
   0   2  20    0.23    1.79
   1  -2  20   -2.78    1.52
  -1  -2 -20   -0.46    0.97
   1   2  20    0.35    2.09
   2  -2  20   12.75    3.04
  -2  -2 -20   15.47    1.96
   2   2  20   10.11    3.12
   2   2  20   11.54    4.41
  -3  -2 -20    0.20    1.03
   3  -2  20    1.85    1.78
   3   2  20    2.14    3.67
  -4  -2 -20   -1.52    1.03
   4  -2  20    0.09    1.58
   4   2  20    0.76    2.97
   6  -3 -20    8.21    3.84
  -6  -3  20    7.10    2.15
  -6   3  20    6.63    2.22
  -5  -3  20   -0.30    1.55
  -5   3  20   -0.92    1.74
  -4  -3  20    0.60    1.47
  -4   3  20    0.40    1.75
  -3  -3  20    3.81    1.62
   3  -3 -20   -3.29    2.51
  -3   3  20    2.80    1.84
  -2  -3  20    7.65    1.82
  -2   3  20    5.48    1.87
  -1  -3  20    1.31    1.40
  -1   3  20    0.05    1.80
   0  -3 -20    0.13    1.11
   0  -3  20   -1.11    1.37
   0   3  20   -1.37    1.76
   1  -3  20   11.22    1.92
  -1  -3 -20   10.04    1.78
   1   3  20    5.04    2.58
   2  -3  20   -1.99    1.67
   2   3  20   -1.28    2.46
   2   3  20   -3.14    4.38
   3  -3  20    2.06    1.61
  -3  -3 -20   -0.78    1.18
   3   3  20   -0.72    3.50
   4  -3  20    2.23    1.55
  -4  -3 -20    0.36    1.17
   4   3  20    1.18    3.34
  -6  -4  20    3.32    1.90
  -6   4  20    4.87    2.34
   5  -4 -20  -10.57    4.33
  -5  -4  20    2.99    1.77
  -5   4  20    0.09    1.87
  -4  -4  20    0.38    1.38
  -4   4  20   -0.48    1.66
   3  -4 -20   -2.88    2.35
  -3  -4  20    3.21    1.44
  -3   4  20    1.08    2.71
  -2  -4  20   30.10    3.38
  -2   4  20   23.09    3.55
  -1  -4  20    3.10    1.50
  -1   4  20    1.06    1.95
   0  -4  20    0.56    1.44
   0   4  20    0.90    1.99
   1  -4  20    0.86    2.06
  -1  -4 -20    4.28    2.04
   1   4  20   -1.15    2.19
   2  -4  20   21.85    2.98
  -2  -4 -20   23.74    3.12
   2   4  20   17.09    5.12
   2   4  20   17.40    3.88
   3  -4  20    1.62    1.35
  -3  -4 -20    0.92    1.44
   3   4  20   -0.14    4.01
  -4  -4 -20   -0.39    1.52
   4  -4  20    1.12    1.16
   4   4  20    2.61    3.66
  -5  -5  20    1.84    1.67
  -5   5  20    0.67    1.86
  -4  -5  20    1.38    1.48
  -4   5  20    6.14    2.12
  -3  -5  20    0.69    1.45
  -3  -5  20    3.25    1.56
  -3   5  20   -0.14    1.89
  -2  -5  20    4.38    1.60
  -2   5  20    3.92    2.90
  -1  -5  20    0.09    1.28
  -1   5  20   -2.68    1.88
   0  -5  20    0.30    1.30
   0   5  20   -1.50    2.08
   1   5  20    2.34    2.48
   2  -5  20    1.24    1.24
   2   5  20   -2.02    2.46
   2   5  20   -3.94    3.22
   3  -5  20    4.11    1.26
   3   5  20   -1.37    4.09
   4   5  20    1.99    3.64
   5  -6 -20   -3.35    2.61
  -5  -6  20    2.77    2.00
  -5   6  20    2.84    1.98
  -4  -6  20    0.15    1.49
  -4   6  20   -0.40    1.86
  -3  -6  20   -0.42    1.40
  -3  -6  20    2.22    1.53
  -3   6  20    1.38    1.91
  -2  -6  20    7.84    1.70
  -2  -6  20    9.23    1.89
  -2   6  20    6.18    2.33
  -1  -6  20    5.98    1.66
   0  -6  20   16.17    2.43
   1  -6  20    2.13    1.15
   1   6  20    1.11    2.39
   2  -6  20    3.02    0.95
   2   6  20    0.35    2.69
   2   6  20    4.50    3.82
   3  -6  20    0.29    0.69
   3   6  20    2.63    4.07
   4  -7 -20    4.62    3.33
  -4   7  20   11.07    2.56
  -3  -7  20    0.77    1.50
  -3  -7  20    0.40    1.43
  -3   7  20    1.51    1.96
  -2  -7  20    0.57    1.35
  -2  -7  20   -1.72    1.05
  -2   7  20   -1.22    1.83
  -1  -7  20    7.45    1.35
  -1  -7  20    8.94    1.80
  -1   7  20    3.99    2.56
   0  -7  20    9.15    1.20
   0  -7  20   10.32    1.62
   0  -7  20    6.40    1.46
   0   7  20    6.33    2.83
   1   7  20    5.11    2.87
   2   7  20    6.04    3.98
  -3  -7 -20   10.61    2.62
   3   7  20   11.05    4.45
  -3  -8  20    1.25    1.76
  -3  -8  20    1.34    1.65
  -3   8  20    1.52    2.28
  -2  -8  20    0.21    1.07
  -2  -8  20   -0.86    1.32
  -2   8  20   -0.52    2.02
  -1  -8  20    8.25    1.31
  -1  -8  20    9.51    1.78
  -1   8  20    5.67    2.79
   0  -8  20   29.84    2.85
   0  -8  20   34.53    2.98
   0   8  20   19.57    3.96
  -1  -8 -20    1.20    1.61
   1   8  20    5.05    2.98
  -2  -8 -20    0.47    1.78
   2   8  20    5.77    3.91
   2  -9 -20   -0.56    1.11
  -2  -9  20   -1.87    1.31
  -2   9  20    1.00    2.35
  -1  -9  20   11.30    2.01
   1  -9 -20    8.56    1.85
  -1   9  20    7.27    2.70
   0  -9 -20    1.17    1.48
   0   9  20    1.89    2.37
   1   9  20    1.42    2.67
  -5   0  21   -0.02    1.46
  -4   0  21    0.55    1.78
  -3   0  21    1.49    1.59
  -2   0  21    0.69    1.60
  -1   0  21   -2.13    1.47
   0   0  21    0.06    1.83
   1   0  21   -2.62    1.89
   2   0  21   -2.60    2.85
   3   0  21    2.07    2.64
   4   0  21    1.12    3.79
  -5  -1  21    0.77    1.57
  -5   1  21    1.89    1.91
  -4  -1  21    1.65    2.89
  -4   1  21    1.23    1.70
  -3  -1  21    1.38    1.63
  -3   1  21    1.62    1.73
  -2  -1  21    2.23    1.63
  -2   1  21    0.45    1.47
  -1  -1  21    2.12    1.69
  -1   1  21    2.59    1.80
   0  -1  21    0.74    1.74
   0   1  21    2.08    1.97
   1  -1  21   -0.20    1.90
  -1  -1 -21   -0.40    0.98
   1   1  21   -2.07    1.92
  -2  -1 -21    0.54    1.06
   2  -1  21    2.32    2.67
   2   1  21   -3.33    2.96
  -3  -1 -21    3.68    1.23
   3  -1  21    5.31    2.49
   3   1  21    5.04    4.19
   4  -1  21    3.58    2.15
   4   1  21    1.06    2.54
  -5  -2  21    0.77    1.72
  -5   2  21   -0.59    1.74
  -4  -2  21    4.51    2.36
  -4   2  21    7.90    2.21
  -3  -2  21   -0.21    1.37
  -3   2  21    0.58    1.63
  -2  -2  21    5.68    1.74
  -2   2  21    3.35    1.80
  -1  -2  21   -0.86    1.40
  -1   2  21   -1.86    1.65
   0  -2  21    4.15    1.85
   0  -2 -21    3.48    1.36
   0   2  21    2.65    2.10
   1  -2  21   -0.02    1.69
   1   2  21    0.31    2.16
  -2  -2 -21    4.44    1.32
   2  -2  21    2.45    2.31
   2   2  21   -5.72    6.50
  -3  -2 -21   -1.28    0.98
   3  -2  21    4.15    1.99
   3   2  21    0.00    3.14
  -4  -2 -21   -1.08    1.11
   4  -2  21    1.68    1.62
   4   2  21    1.92    3.12
  -5  -3  21    1.39    1.78
  -5   3  21    2.97    1.91
  -4  -3  21    3.56    2.32
  -4   3  21    1.33    1.87
  -3  -3  21    2.99    1.57
  -3   3  21    2.45    1.91
  -2  -3  21    2.76    1.61
  -2   3  21   -1.47    1.64
  -1  -3  21   12.12    2.20
  -1   3  21    8.22    2.49
   0  -3  21   -0.86    2.40
   0   3  21    1.30    1.96
  -1  -3 -21    0.77    1.28
   1  -3  21   -4.21    2.28
   1  -3  21    1.87    1.37
   1   3  21   -4.42    1.94
   2  -3  21    2.65    2.02
  -2  -3 -21    3.06    1.44
   2   3  21   -0.32    3.89
   2   3  21    1.24    2.68
   3  -3  21    8.52    2.09
   3   3  21    4.70    3.84
  -5  -4  21    1.45    1.75
  -5   4  21   -1.02    1.94
  -4  -4  21   10.31    3.65
  -4   4  21    5.90    2.02
  -3  -4  21   -0.77    1.38
  -3   4  21   -1.65    1.54
  -2  -4  21    6.56    1.81
  -2   4  21    5.93    2.81
  -1  -4  21   -1.81    1.33
  -1   4  21    1.94    2.09
   0  -4  21   14.88    2.31
   0   4  21    9.00    2.79
   1  -4  21   -1.72    1.95
   1   4  21   -1.58    2.22
   2  -4  21    1.95    1.59
   2   4  21   -4.88    3.47
   2   4  21    1.95    2.73
  -3  -4 -21    1.01    1.80
   3  -4  21    4.32    1.52
   3   4  21   -0.49    3.44
  -4   5  21    3.81    2.19
  -3  -5  21    4.77    1.71
  -3   5  21    6.20    2.39
  -2  -5  21    0.50    1.48
  -2   5  21   -0.38    1.97
  -1  -5  21   11.32    2.16
  -1   5  21    9.12    3.49
   0  -5  21    1.03    1.50
   0   5  21    0.34    2.21
   1  -5  21    1.37    1.58
   1   5  21    3.04    2.48
   2   5  21    0.04    4.06
   2   5  21   -5.29    2.53
   3   5  21   -1.67    3.76
  -4  -6  21    2.89    1.86
  -4   6  21   -0.21    2.09
  -3  -6  21   -0.32    1.43
  -3  -6  21    0.63    2.32
  -3   6  21   -0.70    1.83
  -2  -6  21   -0.05    2.18
  -2  -6  21    3.85    1.59
  -2   6  21    2.81    2.10
  -1  -6  21   -0.01    1.42
  -1   6  21   -2.43    1.95
   0  -6  21    4.32    1.57
   0   6  21    4.32    2.96
   1  -6  21    0.37    1.09
   2  -6  21    2.80    0.94
   2   6  21    4.94    4.08
  -3  -7  21   -3.31    1.48
  -3  -7  21    1.99    1.54
  -3   7  21    1.05    2.06
  -2  -7  21    0.34    1.27
  -2  -7  21    2.69    1.60
  -2   7  21    0.25    2.16
  -1  -7  21    0.84    1.42
  -1  -7  21   -0.15    1.04
  -1   7  21   -0.99    1.94
   0  -7  21    1.05    1.15
   0  -7  21    2.37    1.28
   0  -7  21    1.75    1.00
   0   7  21    2.69    2.61
   1   7  21    0.15    2.42
  -2  -8  21    1.56    1.53
  -2  -8  21    1.20    1.31
  -2   8  21   -1.25    2.08
  -1  -8  21    1.66    1.41
  -1  -8  21    3.42    1.79
  -1   8  21   -0.75    2.00
   0   8  21    1.01    2.37
  -5   0  22    1.27    1.81
  -4   0  22    0.26    1.75
  -3   0  22    1.24    1.77
  -2   0  22   10.53    2.36
  -1   0  22   -0.74    1.70
   0   0  22   -1.46    1.74
   1   0  22    3.41    2.39
   2   0  22    4.20    3.35
   3   0  22   -1.30    3.01
  -5  -1  22    0.88    1.84
  -5   1  22    1.76    1.73
  -4  -1  22   -1.10    1.49
  -4   1  22    2.18    1.98
  -3  -1  22    5.83    2.06
  -2  -1  22    2.05    1.63
  -2   1  22    5.09    2.07
  -1  -1  22    1.21    1.72
  -1   1  22    0.79    1.75
   0  -1  22    2.64    2.02
   0   1  22    0.92    1.98
   1   1  22   -0.60    2.12
   2  -1  22    6.08    3.00
   2   1  22    1.08    5.71
   3  -1  22    1.08    2.27
   3   1  22   -1.75    2.73
  -5  -2  22    1.03    1.90
  -5   2  22   -0.32    1.87
  -4  -2  22    2.72    1.68
  -4   2  22    0.70    1.82
  -3  -2  22    1.06    1.54
  -3   2  22   -0.74    1.55
  -2  -2  22    3.29    1.76
  -2   2  22    4.18    2.17
  -1  -2  22    1.24    1.76
  -1   2  22    1.04    1.90
   0  -2  22    0.27    1.88
   0  -2 -22   -0.19    1.43
   0   2  22   -0.79    1.81
  -1  -2 -22   -1.06    1.16
   1  -2  22    1.25    1.71
   1   2  22    1.50    2.36
  -2  -2 -22   -2.90    1.20
   2  -2  22   -3.32    1.98
   2   2  22   -3.60    3.14
  -3  -2 -22    1.15    1.17
   3  -2  22    4.99    2.13
   3   2  22   -1.99    3.31
  -4  -3  22    0.68    1.65
  -4   3  22   -0.13    1.56
  -3  -3  22    3.36    1.73
  -3   3  22    4.01    2.13
  -2  -3  22    1.81    1.65
  -1  -3  22    3.48    1.79
  -1   3  22    0.69    1.97
   0   3  22   -0.80    2.06
   1  -3  22    3.97    1.52
   1  -3  22   -0.74    2.62
   1   3  22   -0.55    2.22
   2  -3  22    1.83    1.98
  -2  -3 -22    0.63    1.34
   2   3  22    0.77    3.82
   3  -3  22    2.75    1.61
  -3  -3 -22   -2.05    1.32
   3   3  22    1.43    3.76
  -4  -4  22    7.32    2.14
  -4   4  22    6.15    2.24
  -3  -4  22    0.63    1.55
  -3   4  22   -0.79    1.92
  -2  -4  22    2.98    1.64
  -2   4  22    0.23    1.88
  -1  -4  22   10.25    2.15
  -1   4  22    8.78    2.82
   0  -4  22    3.09    1.79
   0   4  22    0.92    2.26
   1  -4  22   -0.97    2.04
   1   4  22    0.11    2.30
   2  -4  22   -0.14    1.47
   2   4  22   -2.22    3.39
  -3  -5  22    1.95    1.64
  -3   5  22   -0.47    1.87
  -2  -5  22   -0.61    1.44
  -2   5  22    2.33    2.18
  -1  -5  22    4.42    1.77
  -1   5  22    5.94    2.55
   0  -5  22    7.09    1.87
   1  -5  22    1.61    1.69
   1   5  22    6.50    2.66
   2  -5  22    2.82    1.34
   2   5  22    0.44    3.68
  -3  -6  22    0.87    1.59
  -3   6  22   -1.80    1.85
  -2  -6  22    5.79    1.86
  -2   6  22    5.37    2.43
  -1  -6  22    4.17    1.46
  -1  -6  22    5.67    1.83
  -1   6  22    6.20    2.61
   0  -6  22    0.54    1.39
   0   6  22   -2.12    2.17
   1  -6  22    2.81    1.24
   1   6  22    1.44    2.59
  -1  -7  22   -1.00    1.26
  -1  -7  22    0.58    1.60
  -1   7  22   -2.85    1.98
  -4   0  23    0.02    1.68
  -3   0  23    0.79    1.82
  -2   0  23    0.94    1.70
  -1   0  23    0.54    1.78
   0   0  23    1.88    2.11
   1   0  23    0.27    2.25
   2   0  23   -5.98    3.83
  -4  -1  23    2.37    1.73
  -4   1  23   -0.62    1.67
  -3   1  23    1.39    1.83
  -2  -1  23    1.96    1.65
  -2   1  23   -0.78    1.72
  -1  -1  23    1.91    1.83
  -1   1  23    1.94    1.97
   0  -1  23    0.31    2.02
   0   1  23    0.22    2.09
   1   1  23    0.51    2.20
   2  -1  23   -3.16    2.48
   2   1  23   -1.83    3.47
  -3  -2  23    7.04    2.19
  -3   2  23    5.25    2.10
  -2  -2  23    0.19    1.57
  -1  -2  23    0.73    1.88
  -1   2  23    0.60    1.89
   0  -2  23    0.92    2.03
   0   2  23    2.82    2.35
   1  -2  23    5.12    1.91
  -1  -2 -23    2.16    1.33
   1  -2  23    0.20    3.06
   1   2  23    3.48    2.52
   2  -2  23   -2.69    2.16
   2   2  23   -2.70    3.50
  -3  -3  23    2.66    1.82
  -3   3  23    0.01    1.75
  -2  -3  23    2.22    1.70
  -2   3  23    1.15    1.87
  -1  -3  23   -0.46    1.70
  -1   3  23   -0.95    1.89
   0  -3  23    3.73    2.75
   0   3  23    1.96    2.36
   1  -3  23   -4.99    2.21
   1   3  23   -2.70    2.14
  -3  -4  23    5.98    2.02
  -3   4  23    0.96    2.06
  -2  -4  23   -0.17    1.55
  -2   4  23    1.38    2.02
  -1  -4  23    2.50    1.84
  -1   4  23    4.42    2.25
   0  -4  23   -0.35    1.70
   0   4  23   -2.03    2.14
   1  -4  23    5.58    2.32
   1   4  23    5.93    2.85
  -2  -5  23    5.05    1.87
  -2   5  23    2.92    2.15
  -1  -5  23    0.46    1.68
  -1   5  23    0.68    2.18
   0  -5  23    6.98    1.86
   0   5  23    1.49    2.50
  -2   0  24    2.27    1.86
  -1   0  24   19.70    3.24
   0   0  24    4.79    2.37
  -2  -1  24    1.65    1.83
  -2   1  24   -0.80    2.27
  -1  -1  24    1.28    1.93
  -1   1  24    0.43    2.02
   0  -1  24   17.18    3.23
   0   1  24   15.85    3.24
  -2  -2  24    2.23    1.70
  -2   2  24   -0.64    1.89
  -1  -2  24    7.31    2.23
  -1   2  24    6.14    2.38
   0  -2  24    2.02    2.20
   0   2  24   -0.18    2.12
   0   0   0    0.00    0.00
;
_shelx_hkl_checksum              7476
loop_
_space_group_symop_operation_xyz
'x, y, z'
'-x, y+1/2, -z+1/2'
'-x, -y, -z'
'x, -y-1/2, z-1/2'
loop_
_atom_site_label
_atom_site_type_symbol
_atom_site_fract_x
_atom_site_fract_y
_atom_site_fract_z
_atom_site_U_iso_or_equiv
_atom_site_adp_type
_atom_site_occupancy
_atom_site_site_symmetry_order
_atom_site_calc_flag
_atom_site_refinement_flags_posn
_atom_site_refinement_flags_adp
_atom_site_refinement_flags_occupancy
_atom_site_disorder_assembly
_atom_site_disorder_group
In1 In 0.4770(3) 0.75651(18) 0.15692(11) 0.0305(5) Uani 0.5 1 d . . P . .
Ge1 Ge 0.4770(3) 0.75651(18) 0.15692(11) 0.0305(5) Uani 0.5 1 d . . P . .
In2 In -0.0278(3) 0.75400(18) 0.14741(11) 0.0312(6) Uani 0.5 1 d . . P . .
Ge2 Ge -0.0278(3) 0.75400(18) 0.14741(11) 0.0312(6) Uani 0.5 1 d . . P . .
In3 In 0.2383(3) 0.7961(2) -0.17613(12) 0.0362(6) Uani 0.5 1 d . . P . .
Ge3 Ge 0.2383(3) 0.7961(2) -0.17613(12) 0.0362(6) Uani 0.5 1 d . . P . .
In4 In 0.2181(4) 0.6804(2) -0.01641(13) 0.0442(7) Uani 0.5 1 d . . P . .
Ge4 Ge 0.2181(4) 0.6804(2) -0.01641(13) 0.0442(7) Uani 0.5 1 d . . P . .
Se1 Se -0.0117(5) 0.6270(3) 0.2538(2) 0.0593(10) Uani 1 1 d . . . . .
Se2 Se 0.4622(5) 0.6144(3) 0.0595(2) 0.0557(9) Uani 1 1 d . . . . .
Se3 Se 0.5177(4) 0.6586(3) 0.27805(19) 0.0546(9) Uani 1 1 d . . . . .
Se4 Se 0.2147(5) 0.6069(2) -0.13842(19) 0.0534(9) Uani 1 1 d . . . . .
Se5 Se 0.2494(5) 0.8685(2) -0.04840(16) 0.0504(9) Uani 1 1 d . . . . .
Se6 Se 0.7222(4) 0.8833(2) 0.14486(17) 0.0464(8) Uani 1 1 d . . . . .
Se7 Se -0.0604(4) 0.6458(3) 0.02951(19) 0.0510(9) Uani 1 1 d . . . . .
Se8 Se 0.2243(4) 0.8805(3) 0.15693(17) 0.0451(8) Uani 1 1 d . . . . .
N1 N 0.746(4) 0.932(3) 0.3306(17) 0.085(11) Uani 1 1 d . . . . .
N2 N -0.250(6) 0.882(2) -0.0457(19) 0.100(15) Uani 1 1 d . . . . .
loop_
_atom_site_aniso_label
_atom_site_aniso_U_11
_atom_site_aniso_U_22
_atom_site_aniso_U_33
_atom_site_aniso_U_23
_atom_site_aniso_U_13
_atom_site_aniso_U_12
In1 0.0248(10) 0.0432(13) 0.0237(10) -0.0011(9) 0.0037(8) -0.0042(9)
Ge1 0.0248(10) 0.0432(13) 0.0237(10) -0.0011(9) 0.0037(8) -0.0042(9)
In2 0.0259(11) 0.0422(12) 0.0256(11) 0.0019(9) 0.0031(8) 0.0062(9)
Ge2 0.0259(11) 0.0422(12) 0.0256(11) 0.0019(9) 0.0031(8) 0.0062(9)
In3 0.0368(12) 0.0449(14) 0.0277(11) -0.0006(10) 0.0073(9) 0.0001(10)
Ge3 0.0368(12) 0.0449(14) 0.0277(11) -0.0006(10) 0.0073(9) 0.0001(10)
In4 0.0511(15) 0.0521(16) 0.0302(12) -0.0023(10) 0.0087(11) -0.0024(12)
Ge4 0.0511(15) 0.0521(16) 0.0302(12) -0.0023(10) 0.0087(11) -0.0024(12)
Se1 0.0485(19) 0.056(2) 0.073(2) 0.0158(18) 0.0072(17) -0.0028(15)
Se2 0.0482(19) 0.058(2) 0.061(2) -0.0119(16) 0.0112(16) -0.0009(15)
Se3 0.0364(16) 0.077(2) 0.0511(19) 0.0209(17) 0.0064(14) 0.0113(15)
Se4 0.074(2) 0.0346(16) 0.0508(19) -0.0118(13) -0.0017(16) 0.0000(15)
Se5 0.086(2) 0.0313(15) 0.0346(16) -0.0031(12) 0.0070(16) -0.0063(15)
Se6 0.0561(19) 0.0363(16) 0.0468(18) 0.0008(13) 0.0047(14) -0.0010(13)
Se7 0.0416(17) 0.059(2) 0.0527(19) -0.0146(15) 0.0087(14) -0.0035(14)
Se8 0.0339(15) 0.0526(18) 0.0490(17) 0.0029(14) 0.0044(13) -0.0003(13)
N1 0.07(2) 0.13(3) 0.06(2) 0.002(19) 0.046(18) 0.00(2)
N2 0.18(4) 0.029(15) 0.08(2) 0.000(15) -0.06(3) 0.001(19)
loop_
_atom_type_symbol
_atom_type_description
_atom_type_scat_dispersion_real
_atom_type_scat_dispersion_imag
_atom_type_scat_source
N N 0.0061 0.0033 'International Tables Vol C Tables 4.2.6.8 and 6.1.1.4'
H H 0.0000 0.0000 'International Tables Vol C Tables 4.2.6.8 and 6.1.1.4'
Ge Ge 0.1547 1.8001 'International Tables Vol C Tables 4.2.6.8 and 6.1.1.4'
Se Se -0.0929 2.2259 'International Tables Vol C Tables 4.2.6.8 and 6.1.1.4'
In In -0.7276 1.3100 'International Tables Vol C Tables 4.2.6.8 and 6.1.1.4'
loop_
_geom_angle_atom_site_label_1
_geom_angle_atom_site_label_2
_geom_angle_atom_site_label_3
_geom_angle
_geom_angle_site_symmetry_1
_geom_angle_site_symmetry_3
Se8 In1 Se6 101.42(13) . .
Se8 In1 Se2 117.22(14) . .
Se6 In1 Se2 112.01(13) . .
Se8 In1 Se3 109.72(13) . .
Se6 In1 Se3 110.69(13) . .
Se2 In1 Se3 105.82(15) . .
Se8 In2 Se6 100.28(13) . 1_455
Se8 In2 Se1 111.43(14) . .
Se6 In2 Se1 114.05(13) 1_455 .
Se8 In2 Se7 114.46(13) . .
Se6 In2 Se7 108.21(13) 1_455 .
Se1 In2 Se7 108.35(15) . .
Se1 In3 Se3 113.99(16) 4_575 4_575
Se1 In3 Se4 117.07(15) 4_575 .
Se3 In3 Se4 114.01(16) 4_575 .
Se1 In3 Se5 108.09(15) 4_575 .
Se3 In3 Se5 106.31(14) 4_575 .
Se4 In3 Se5 94.77(13) . .
Se1 In3 In4 123.44(13) 4_575 .
Se3 In3 In4 121.57(13) 4_575 .
Se4 In3 In4 47.06(10) . .
Se5 In3 In4 47.73(9) . .
Se2 In4 Se7 114.30(16) . .
Se2 In4 Se4 110.48(16) . .
Se7 In4 Se4 108.61(16) . .
Se2 In4 Se5 112.68(16) . .
Se7 In4 Se5 111.52(16) . .
Se4 In4 Se5 97.99(14) . .
Se2 In4 In3 125.17(13) . .
Se7 In4 In3 120.43(14) . .
Se4 In4 In3 48.79(10) . .
Se5 In4 In3 49.22(9) . .
In3 Se1 In2 98.06(14) 4_576 .
In4 Se2 In1 98.67(15) . .
In3 Se3 In1 98.41(13) 4_576 .
In4 Se4 In3 84.15(12) . .
In4 Se5 In3 83.05(12) . .
In1 Se6 In2 99.77(13) . 1_655
In4 Se7 In2 100.28(14) . .
In1 Se8 In2 101.77(14) . .
loop_
_geom_bond_atom_site_label_1
_geom_bond_atom_site_label_2
_geom_bond_distance
_geom_bond_site_symmetry_2
In1 Se8 2.474(4) .
In1 Se6 2.477(4) .
In1 Se2 2.504(4) .
In1 Se3 2.517(4) .
In2 Se8 2.483(4) .
In2 Se6 2.497(4) 1_455
In2 Se1 2.498(4) .
In2 Se7 2.530(4) .
In3 Se1 2.400(4) 4_575
In3 Se3 2.429(4) 4_575
In3 Se4 2.469(4) .
In3 Se5 2.491(4) .
In3 In4 3.265(3) .
In4 Se2 2.366(5) .
In4 Se7 2.396(4) .
In4 Se4 2.403(4) .
In4 Se5 2.434(4) .
