#------------------------------------------------------------------------------
#$Date: 2021-04-01 10:57:20 +0300 (Thu, 01 Apr 2021) $
#$Revision: 263515 $
#$URL: file:///home/coder/svn-repositories/cod/cif/1/56/14/1561400.cif $
#------------------------------------------------------------------------------
#
# This file is available in the Crystallography Open Database (COD),
# http://www.crystallography.net/
#
# All data on this site have been placed in the public domain by the
# contributors.
#
data_1561400
loop_
_publ_author_name
'Sanjeewa, Liurukara D.'
'McGuire, Michael A.'
'Smith Pellizzeri, Tiffany M.'
'McMillen, Colin D.'
'Ovidiu Garlea, V.'
'Willett, Daniel'
'Chumanov, George'
'Kolis, Joseph W.'
_publ_section_title
;
 Synthesis and characterization of new fluoride-containing manganese
 vanadates A2Mn2V2O7F2 (A=Rb, Cs) and Mn2VO4F
;
_journal_name_full               'Journal of Solid State Chemistry'
_journal_page_first              30
_journal_page_last               37
_journal_paper_doi               10.1016/j.jssc.2016.05.008
_journal_volume                  241
_journal_year                    2016
_chemical_formula_sum            'F2 Mn2 O7 Rb2 V2'
_chemical_formula_weight         532.70
_space_group_crystal_system      orthorhombic
_space_group_IT_number           60
_space_group_name_Hall           '-P 2n 2ab'
_space_group_name_H-M_alt        'P b c n'
_atom_sites_solution_hydrogens   .
_atom_sites_solution_primary     direct
_atom_sites_solution_secondary   difmap
_audit_creation_method           SHELXL-2014/7
_cell_angle_alpha                90
_cell_angle_beta                 90
_cell_angle_gamma                90
_cell_formula_units_Z            4
_cell_length_a                   7.4389(17)
_cell_length_b                   11.574(3)
_cell_length_c                   10.914(2)
_cell_measurement_reflns_used    8875
_cell_measurement_temperature    293(2)
_cell_measurement_theta_max      26.10
_cell_measurement_theta_min      3.26
_cell_volume                     939.7(4)
_computing_cell_refinement       'CrystalClear (Rigaku, 2008)'
_computing_data_collection       'CrystalClear (Rigaku, 2008)'
_computing_data_reduction        'CrystalClear (Rigaku, 2008)'
_computing_molecular_graphics    'DIAMOND (Brandenburg, 1999)'
_computing_publication_material  'SHELXL-2014/7 (Sheldrick, 2014)'
_computing_structure_refinement  'SHELXL-2014/7 (Sheldrick, 2014)'
_computing_structure_solution    'SHELXS-2014 (Sheldrick, 2014)'
_diffrn_ambient_temperature      293(2)
_diffrn_measured_fraction_theta_full 1.000
_diffrn_measured_fraction_theta_max 1.000
_diffrn_measurement_device_type  'Rigaku AFC8-S, Mercury CCD'
_diffrn_measurement_method       '\w scans'
_diffrn_radiation_type           MoK\a
_diffrn_radiation_wavelength     0.71073
_diffrn_reflns_av_R_equivalents  0.0583
_diffrn_reflns_av_unetI/netI     0.0239
_diffrn_reflns_Laue_measured_fraction_full 1.000
_diffrn_reflns_Laue_measured_fraction_max 1.000
_diffrn_reflns_limit_h_max       8
_diffrn_reflns_limit_h_min       -8
_diffrn_reflns_limit_k_max       13
_diffrn_reflns_limit_k_min       -13
_diffrn_reflns_limit_l_max       12
_diffrn_reflns_limit_l_min       -13
_diffrn_reflns_number            7407
_diffrn_reflns_point_group_measured_fraction_full 1.000
_diffrn_reflns_point_group_measured_fraction_max 1.000
_diffrn_reflns_theta_full        25.239
_diffrn_reflns_theta_max         25.239
_diffrn_reflns_theta_min         3.255
_diffrn_source                   'fine-focus sealed tube'
_exptl_absorpt_coefficient_mu    14.887
_exptl_absorpt_correction_T_max  1.0000
_exptl_absorpt_correction_T_min  0.5177
_exptl_absorpt_correction_type   multi-scan
_exptl_absorpt_process_details   'REQAB, CrystalClear'
_exptl_crystal_colour            orange
_exptl_crystal_density_diffrn    3.766
_exptl_crystal_density_meas      .
_exptl_crystal_density_method    .
_exptl_crystal_description       column
_exptl_crystal_F_000             976
_exptl_crystal_size_max          0.220
_exptl_crystal_size_mid          0.040
_exptl_crystal_size_min          0.040
_exptl_transmission_factor_max   .
_exptl_transmission_factor_min   .
_refine_diff_density_max         1.114
_refine_diff_density_min         -1.148
_refine_diff_density_rms         0.240
_refine_ls_extinction_coef       0.0013(4)
_refine_ls_extinction_expression Fc^*^=kFc[1+0.001xFc^2^\l^3^/sin(2\q)]^-1/4^
_refine_ls_extinction_method     'SHELXL-2014/7 (Sheldrick 2014'
_refine_ls_goodness_of_fit_ref   1.127
_refine_ls_hydrogen_treatment    undef
_refine_ls_matrix_type           full
_refine_ls_number_parameters     72
_refine_ls_number_reflns         848
_refine_ls_number_restraints     0
_refine_ls_restrained_S_all      1.127
_refine_ls_R_factor_all          0.0405
_refine_ls_R_factor_gt           0.0379
_refine_ls_shift/su_max          0.001
_refine_ls_shift/su_mean         0.000
_refine_ls_structure_factor_coef Fsqd
_refine_ls_weighting_details
'w=1/[\s^2^(Fo^2^)+(0.0560P)^2^+2.4936P] where P=(Fo^2^+2Fc^2^)/3'
_refine_ls_weighting_scheme      calc
_refine_ls_wR_factor_gt          0.0971
_refine_ls_wR_factor_ref         0.0996
_reflns_Friedel_coverage         0.000
_reflns_Friedel_fraction_full    .
_reflns_Friedel_fraction_max     .
_reflns_number_gt                776
_reflns_number_total             848
_reflns_threshold_expression     'I > 2\s(I)'
_cod_data_source_file            mmc5.cif
_cod_data_source_block           cd1267a
_cod_original_cell_volume        939.6(4)
_cod_database_code               1561400
_shelx_shelxl_version_number     2014/7
_shelx_space_group_comment
;
The symmetry employed for this shelxl refinement is uniquely defined
by the following loop, which should always be used as a source of
symmetry information in preference to the above space-group names.
They are only intended as comments.
;
_shelx_estimated_absorpt_t_min   0.138
_shelx_estimated_absorpt_t_max   0.587
_shelx_res_file
;

    cd1267a.res created by SHELXL-2014/7


TITL cd1267a in Pbcn
CELL 0.71073   7.43890  11.57360  10.91400  90.0000  90.0000  90.0000
ZERR    4.00   0.00170   0.00312   0.00228   0.0000   0.0000   0.0000
LATT  1
SYMM 0.5-X, 0.5-Y, 0.5+Z
SYMM -X, Y, 0.5-Z
SYMM 0.5+X, 0.5-Y, -Z
SFAC O F V MN RB
UNIT 28 8 8 8 8

L.S. 16
BOND
FMAP 2
PLAN 20
ACTA
SIZE 0.22 0.04 0.04
omit -3 50.5
WGHT    0.056000    2.493600
EXTI    0.001251
FVAR       0.17570
RB1   5    0.009105    0.327484    0.935878    11.00000    0.02856    0.02472 =
         0.02691    0.00434    0.00001   -0.00305
MN1   4    0.000000    0.153429    1.250000    10.50000    0.01884    0.01203 =
         0.01479    0.00000   -0.00135    0.00000
MN2   4    0.000000    0.000000    1.000000    10.50000    0.01923    0.01442 =
         0.01430   -0.00048   -0.00043   -0.00040
V1    3    0.219165    0.415184    1.252850    11.00000    0.01616    0.01164 =
         0.01459   -0.00052    0.00175   -0.00215
F1    2   -0.113581    0.148995    1.075808    11.00000    0.02569    0.02153 =
         0.02141   -0.00181   -0.00380    0.00499
O1    1    0.346510    0.505625    1.167050    11.00000    0.02191    0.01942 =
         0.02018    0.00202    0.00032   -0.00564
O2    1    0.293563    0.407325    1.397658    11.00000    0.03936    0.03155 =
         0.02303    0.00503   -0.00549   -0.01585
O3    1    0.201235    0.282060    1.192791    11.00000    0.02952    0.01889 =
         0.02903   -0.00520    0.00683   -0.00517
O4    1    0.000000    0.482481    1.250000    10.50000    0.01762    0.01686 =
         0.06898    0.00000    0.00763    0.00000

HKLF 4

REM  cd1267a in Pbcn
REM R1 =  0.0379 for     776 Fo > 4sig(Fo)  and  0.0405 for all     848 data
REM     72 parameters refined using      0 restraints

END

WGHT      0.0560      2.4935

REM Highest difference peak  1.114,  deepest hole -1.148,  1-sigma level  0.240
Q1    1   0.0675  0.4151  1.2170  11.00000  0.05    0.77
Q2    1   0.0573  0.4360  1.2970  11.00000  0.05    0.72
Q3    1   0.1295  0.1524  1.0770  11.00000  0.05    0.71
Q4    1   0.1530  0.3267  0.9027  11.00000  0.05    0.70
Q5    1  -0.2770  0.0891  1.1233  11.00000  0.05    0.67
Q6    1  -0.1250  0.3270  0.9204  11.00000  0.05    0.60
Q7    1   0.3466  0.1585  1.2414  11.00000  0.05    0.59
Q8    1  -0.2349  0.1685  1.0744  11.00000  0.05    0.57
Q9    1   0.3520  0.5108  1.3396  11.00000  0.05    0.56
Q10   1   0.4991  0.3460  1.3748  11.00000  0.05    0.52
Q11   1   0.2235  0.5386  1.4750  11.00000  0.05    0.52
Q12   1   0.2152  0.2730  1.3011  11.00000  0.05    0.51
Q13   1  -0.0019  0.3220  1.0586  11.00000  0.05    0.49
Q14   1   0.1377  0.2981  0.9773  11.00000  0.05    0.47
Q15   1   0.2162  0.5900  1.1257  11.00000  0.05    0.47
Q16   1   0.3495  0.4160  1.2463  11.00000  0.05    0.46
Q17   1   0.5000  0.3672  1.2500  10.50000  0.05    0.45
Q18   1   0.5032  0.5018  1.1266  11.00000  0.05    0.42
Q19   1   0.2904  0.2317  1.1766  11.00000  0.05    0.42
Q20   1   0.2453  0.4843  1.1550  11.00000  0.05    0.41
;
_shelx_res_checksum              19870
_shelx_hkl_file
;
   0  -2   0   31.85    1.63
   0   2   0   30.62    1.48
   0  -2   0   30.63    1.85
   0   2   0   33.34    1.92
   0  -3   0    4.20    1.29
   0   3   0    5.08    1.74
   0  -3   0    3.04    1.06
   0   3   0    3.36    1.54
   0  -4   0  417.95    9.98
   0   4   0  425.09   10.34
   0  -4   0  438.36   11.17
   0   4   0  402.66   10.05
   0  -5   0   -1.12    0.92
   0   5   0   -1.23    1.27
   0  -5   0    0.21    0.66
   0   5   0    0.62    0.79
   0  -6   0 1564.87   43.76
   0   6   0 1633.45   45.86
   0  -6   0 1538.87   43.17
   0   6   0 1550.00   43.86
   0  -7   0    0.34    1.17
   0   7   0   -0.22    1.61
   0  -7   0   -0.35    1.03
   0   7   0   -1.43    1.43
   0  -8   0   73.53    4.62
   0   8   0   70.69    4.65
   0  -8   0   87.14    4.84
   0   8   0   69.98    6.09
   0  -9   0   -2.07    1.46
   0   9   0    3.26    2.37
   0   9   0    2.03    1.31
   0 -10   0   61.57    4.95
   0  10   0   61.00    5.36
   0  10   0   62.33    7.02
   0 -11   0   -0.78    1.38
   0  11   0   -1.18    1.90
   0 -12   0 1254.50   43.05
   0  12   0 1341.54   18.89
   0  12   0 1304.77   20.50
   0 -13   0   -0.28    1.50
   0  13   0    0.74    1.85
   0  13   0    1.27    1.20
   0 -14   0   26.46    3.46
   0  14   0   17.60    4.12
   0 -14  -1    4.07    1.73
   0  14   1    2.18    2.23
   0  14   1    6.15    2.68
   0 -13  -1    0.29    1.59
   0  13   1    1.70    2.46
   0  13   1   -0.51    1.95
   0 -12  -1   13.39    2.79
   0  12   1   16.98    3.06
   0  12   1   17.12    4.67
   0 -11  -1   -1.34    1.46
   0  11   1   -1.55    1.76
   0  11   1    0.56    1.70
   0 -10  -1    0.68    1.52
   0  10   1   -0.53    1.68
   0 -10  -1    3.33    1.98
   0  10   1    2.56    0.87
   0  -9  -1    1.21    1.63
   0   9   1    0.23    1.69
   0  -9  -1    0.09    1.25
   0   9   1    2.18    1.17
   0  -8  -1 1569.60   48.87
   0   8   1 1530.04   48.06
   0  -8  -1 1452.13   45.22
   0   8   1 1569.41   49.65
   0  -7  -1    0.49    1.25
   0   7   1    0.94    1.70
   0  -7  -1   -0.21    1.09
   0   7   1    0.72    0.77
   0  -6  -1   72.47    3.85
   0   6   1   71.40    4.10
   0  -6  -1   70.69    5.43
   0   6   1   67.86    6.01
   0  -5  -1   -0.02    1.08
   0   5   1   -1.74    1.55
   0  -5  -1    1.49    0.78
   0   5   1   -0.63    1.19
   0  -4  -1 1998.99   42.35
   0   4   1 2022.71   43.14
   0  -4  -1 1990.21   42.03
   0   4   1 1883.05   40.12
   0  -3  -1    4.22    1.40
   0   3   1    2.61    1.50
   0  -3  -1    0.87    0.73
   0   3   1    2.89    2.01
   0  -2  -1    2.87    1.39
   0   2   1    2.55    1.10
   0  -2  -1    5.85    1.39
   0   2   1    4.45    1.07
   0   1   1    0.72    0.90
   0   1  -1    1.18    0.48
   0  -2   1    4.09    1.17
   0   2  -1    2.56    0.93
   0   2  -1    2.59    0.91
   0  -3   1    0.28    0.81
   0   3  -1    3.10    1.37
   0  -3   1    0.23    0.93
   0   3  -1    6.03    1.52
   0  -4   1 2118.00   44.44
   0   4  -1 1995.10   42.01
   0  -4   1 2103.01   44.74
   0   4  -1 2029.24   43.32
   0  -5   1    0.77    0.99
   0   5  -1    0.37    1.08
   0  -5   1   -0.87    1.10
   0   5  -1   -0.37    1.23
   0  -6   1   75.97    3.60
   0   6  -1   66.62    7.93
   0  -6   1   75.79    4.23
   0   6  -1   70.37    6.78
   0  -7   1    0.47    1.29
   0   7  -1    0.22    1.55
   0   7  -1   -0.48    1.59
   0  -8   1 1555.96   48.19
   0   8  -1 1504.47   46.96
   0   8  -1 1504.75   47.62
   0  -9   1    0.02    1.33
   0   9  -1    0.25    1.55
   0   9  -1    1.61    0.71
   0 -10   1    2.52    1.51
   0  10  -1    0.46    1.61
   0  10  -1    2.77    1.37
   0 -11   1    2.15    1.85
   0  11  -1    0.42    1.81
   0 -12   1   12.22    2.23
   0  12  -1   17.50    3.09
   0 -13   1    0.24    1.39
   0  13  -1    0.49    1.47
   0  13  -1    1.53    1.47
   0 -14   1    5.38    1.78
   0  14  -1    8.60    2.89
   0  14  -1    6.55    1.26
   0  14   2   66.63    6.32
   0  14   2   75.93    7.74
   0 -13  -2    0.94    1.70
   0  13   2    2.21    2.82
   0  13   2    7.31    3.83
   0 -12  -2    1.81    1.65
   0  12   2    4.99    2.77
   0  12   2    4.44    2.57
   0 -11  -2    0.27    1.53
   0  11   2   -0.98    1.93
   0  11   2    0.21    1.54
   0 -10  -2    1.04    1.77
   0  10   2    0.26    1.82
   0 -10  -2    0.73    1.21
   0  10   2    0.68    1.35
   0  -9  -2    0.51    1.64
   0   9   2   -0.78    1.77
   0  -9  -2    0.45    0.63
   0   9   2   -0.90    1.54
   0  -8  -2    2.55    1.58
   0   8   2    0.56    1.82
   0  -8  -2    2.27    1.20
   0   8   2   -0.16    1.47
   0  -7  -2    0.61    1.38
   0   7   2    1.13    1.77
   0  -7  -2    0.85    0.39
   0   7   2   -0.96    1.49
   0  -6  -2 1657.93   46.58
   0   6   2 1611.77   45.60
   0  -6  -2 1608.41   44.89
   0   6   2 1500.15   42.46
   0  -5  -2   -0.29    1.29
   0   5   2   -0.65    1.70
   0  -5  -2    0.13    0.53
   0   5   2   -0.89    1.29
   0  -4  -2   69.25    2.76
   0   4   2   72.15    3.35
   0  -4  -2   72.93    6.86
   0   4   2   64.27    2.93
   0  -3  -2   -1.41    0.97
   0   3   2   -0.84    1.35
   0  -3  -2   -0.32    0.51
   0  -2  -2  164.22    4.58
   0   2   2  178.03    5.02
   0  -1  -2    1.00    0.79
   0   1   2    0.43    0.85
   0   0  -2   41.11    1.56
   0   0  -2   38.44    1.10
   0   1  -2    2.58    0.68
   0   2  -2  181.41    4.23
   0  -3   2    0.25    0.51
   0   3  -2   -0.52    0.64
   0   3  -2   -0.39    1.10
   0  -4   2   68.20    2.04
   0   4  -2   70.26    2.89
   0   4  -2   68.56    3.17
   0  -5   2   -0.59    0.91
   0   5  -2    1.09    0.92
   0   5  -2    0.00    1.44
   0  -6   2 1653.84   45.82
   0   6  -2 1701.37   47.35
   0   6  -2 1643.36   46.75
   0  -7   2    0.44    1.11
   0   7  -2    1.90    1.48
   0   7  -2   -0.04    1.13
   0  -8   2    0.35    1.11
   0   8  -2    1.72    2.21
   0   8  -2    2.18    1.27
   0  -9   2   -0.50    1.14
   0   9  -2    1.84    2.17
   0   9  -2    1.26    1.48
   0 -10   2   -1.52    1.18
   0  10  -2   -1.11    1.56
   0  10  -2    0.94    1.27
   0 -11   2   -0.47    1.15
   0  11  -2   -0.87    1.78
   0  11  -2    2.67    1.84
   0 -12   2    4.82    1.88
   0  12  -2    1.46    1.73
   0  12  -2    2.01    1.39
   0 -13   2   -0.01    1.30
   0  13  -2    0.43    1.55
   0  13  -2   -0.56    1.83
   0 -14   2   82.91    5.61
   0  14  -2   72.32    5.63
   0  14  -2   60.20   21.30
   0 -13  -3    2.16    2.61
   0  13   3    1.32    2.26
   0 -12  -3   78.70    5.23
   0  12   3   80.28    6.18
   0 -11  -3    2.66    1.76
   0  11   3   -0.66    1.96
   0 -11  -3    0.37    1.26
   0 -10  -3  575.74   22.34
   0 -10  -3  521.01   19.80
   0  10   3  525.83   21.40
   0  -9  -3   -0.49    1.62
   0   9   3   -2.41    1.95
   0  -9  -3    0.36    0.63
   0   9   3   -1.19    1.78
   0  -8  -3    1.14    2.31
   0   8   3    1.71    1.96
   0  -8  -3    2.52    1.10
   0   8   3   -0.25    1.65
   0  -7  -3   -0.72    1.42
   0   7   3   -1.23    1.77
   0  -7  -3   -0.68    0.82
   0  -6  -3  145.57    5.66
   0   6   3  136.46    5.67
   0  -6  -3  133.92    9.85
   0  -5  -3   -1.10    1.40
   0   5   3   -2.54    1.54
   0  -5  -3    1.09    0.63
   0  -4  -3  233.79    6.96
   0   4   3  217.24    6.64
   0  -4  -3  245.12    6.84
   0  -3  -3    0.04    0.94
   0   3   3    1.62    1.93
   0  -3  -3    0.54    0.85
   0  -2  -3 1900.33   40.19
   0   2   3 1977.18   41.73
   0  -1  -3    0.39    0.80
   0   1   3    3.26    1.54
   0   0  -3    2.85    0.96
   0   0  -3    4.93    1.23
   0   1  -3    0.73    0.47
   0   2  -3 1913.55   39.19
   0  -3   3   -0.40    0.41
   0   3  -3   -0.46    0.43
   0   3  -3   -0.71    1.24
   0  -4   3  216.50    5.47
   0   4  -3  218.19    5.46
   0   4  -3  216.99    7.06
   0  -5   3    0.34    0.58
   0   5  -3    0.48    0.77
   0   5  -3    0.43    1.16
   0  -6   3  131.14    4.10
   0   6  -3  131.52    4.29
   0   6  -3  126.20    6.82
   0  -7   3   -0.13    1.02
   0   7  -3    1.68    1.72
   0   7  -3    1.19    1.37
   0  -8   3    1.75    1.17
   0   8  -3    3.78    1.91
   0   8  -3    3.09    1.41
   0  -9   3    1.71    1.52
   0   9  -3   -2.29    1.35
   0   9  -3    0.02    1.12
   0 -10   3  542.15   20.15
   0  10  -3  554.45   21.00
   0  10  -3  533.85   21.53
   0 -11   3    1.73    1.30
   0  11  -3    2.28    2.28
   0  11  -3   -0.62    1.23
   0 -12   3   77.40    4.74
   0  12  -3   69.70    4.81
   0  12  -3   68.48   17.24
   0 -13   3    0.44    1.50
   0  13  -3   -0.33    1.38
   0  13  -3    3.42    1.15
   0 -13  -4   -0.21    1.78
   0  13   4    2.17    3.29
   0 -12  -4  269.78   14.55
   0  12   4  238.59   13.67
   0 -11  -4   -1.13    1.76
   0  11   4    1.57    1.86
   0 -11  -4    0.24    1.11
   0 -10  -4   25.98    3.64
   0  10   4   18.88    3.50
   0 -10  -4   17.56    4.77
   0  -9  -4   -1.87    1.63
   0   9   4    1.09    2.06
   0  -9  -4   -0.45    0.98
   0  -8  -4   10.94    2.73
   0   8   4   10.26    2.53
   0  -8  -4    9.52    1.91
   0  -7  -4    1.27    1.44
   0   7   4    1.33    1.83
   0  -7  -4    0.25    0.51
   0  -6  -4    0.27    1.52
   0   6   4    6.58    1.97
   0  -6  -4    1.27    0.50
   0  -5  -4    2.29    1.49
   0   5   4   -0.43    1.62
   0  -5  -4    0.10    0.46
   0  -4  -4    4.28    3.14
   0   4   4    7.12    1.68
   0  -4  -4    9.84    1.93
   0  -3  -4    0.01    0.91
   0   3   4    1.62    1.88
   0  -2  -4  293.70    7.63
   0   2   4  318.80    8.46
   0  -1  -4    1.28    1.23
   0   1   4   -0.05    0.94
   0   0  -4 1522.36   31.60
   0   0  -4 1586.35   33.18
   0   1  -4    0.97    0.35
   0   1  -4    0.07    0.33
   0   2  -4  259.63    5.60
   0   3  -4   -0.34    0.25
   0  -4   4    3.12    0.90
   0   4  -4    4.41    0.80
   0   4  -4    5.58    2.01
   0  -5   4    0.05    0.52
   0   5  -4    0.88    0.68
   0   5  -4    1.98    1.57
   0  -6   4    1.33    0.93
   0   6  -4    1.02    0.86
   0   6  -4   -1.27    1.65
   0  -7   4    0.03    0.87
   0   7  -4    2.81    1.40
   0   7  -4   -0.36    1.76
   0  -8   4   12.36    1.99
   0   8  -4   11.41    2.22
   0   8  -4   10.72    2.27
   0  -9   4   -0.37    1.05
   0   9  -4   -0.13    1.19
   0   9  -4    0.68    1.84
   0 -10   4   25.08    2.67
   0  10  -4   26.63    2.83
   0  10  -4   18.23    5.30
   0 -11   4    0.55    1.18
   0  11  -4    1.23    1.39
   0  11  -4    0.09    1.09
   0 -12   4  265.87   13.61
   0  12  -4  232.73   12.27
   0  12  -4  231.68   22.94
   0 -13   4    0.92    1.31
   0  13  -4    1.14    1.31
   0  13  -4    1.45    1.28
   0  13   5   -0.03    2.53
   0 -12  -5   12.52    2.88
   0 -12  -5   18.66    3.25
   0 -11  -5   -2.81    1.78
   0  11   5    2.56    1.93
   0 -11  -5   -0.83    0.84
   0 -10  -5   75.01    5.17
   0  10   5   64.66    5.11
   0 -10  -5   65.86    9.51
   0  -9  -5    2.51    1.81
   0   9   5   -2.09    1.85
   0  -9  -5   -0.04    0.91
   0  -8  -5 1168.54   62.82
   0   8   5 1281.45   17.51
   0  -8  -5 1177.02   62.68
   0  -7  -5    2.89    2.30
   0   7   5   -0.53    2.13
   0  -7  -5    0.42    1.01
   0  -6  -5    6.12    2.12
   0   6   5    9.12    2.84
   0  -6  -5    6.78    1.76
   0  -5  -5    0.17    1.55
   0   5   5   -0.93    2.00
   0  -5  -5   -0.31    0.89
   0  -4  -5 2937.05   58.26
   0   4   5 2975.40   59.17
   0  -3  -5    0.55    1.01
   0   3   5   -0.12    1.34
   0  -2  -5  540.77   15.93
   0   2   5  536.94   15.98
   0  -1  -5   -0.24    0.61
   0  -1  -5   -0.25    0.70
   0   0  -5   -0.14    0.44
   0   0  -5   -0.20    0.63
   0   1  -5   -0.06    0.37
   0   1  -5   -0.06    0.39
   0   2  -5  536.00   14.65
   0   4  -5 2619.76   49.59
   0   4  -5 2818.34   57.00
   0  -5   5    0.42    0.47
   0   5  -5   -0.04    0.46
   0   5  -5   -1.21    1.63
   0  -6   5    5.34    1.20
   0   6  -5    4.01    0.95
   0   6  -5   10.04    2.49
   0  -7   5    0.21    0.72
   0   7  -5    1.16    0.83
   0   7  -5    3.12    2.27
   0  -8   5 1046.03   55.61
   0   8  -5 1176.21   62.47
   0   8  -5 1132.26   61.38
   0  -9   5    0.64    0.90
   0   9  -5    1.73    1.72
   0   9  -5    0.17    1.17
   0 -10   5   61.57    3.44
   0  10  -5   59.06    3.17
   0  10  -5   64.42    9.29
   0 -11   5    0.18    1.08
   0  11  -5    1.07    1.59
   0  11  -5    0.48    1.32
   0 -12   5   11.86    2.19
   0  12  -5    8.70    1.77
   0 -13   5    1.00    0.84
   0 -13   5    0.35    1.24
   0  13  -5    0.73    2.10
   0 -12  -6  240.24   13.11
   0  12   6  235.44   13.54
   0 -12  -6  240.18   11.66
   0 -11  -6    1.72    2.11
   0  11   6   -1.70    1.93
   0 -11  -6   -0.07    0.89
   0 -10  -6  116.15    6.71
   0  10   6  100.73    6.21
   0 -10  -6   95.62    6.55
   0  -9  -6    0.63    1.78
   0   9   6   -0.52    1.80
   0  -9  -6    0.21    0.36
   0  -8  -6  589.06   32.42
   0   8   6  564.06   31.42
   0  -8  -6  617.10    8.74
   0  -7  -6   -0.43    1.66
   0   7   6    0.32    1.73
   0  -7  -6   -0.24    0.93
   0  -6  -6    5.27    1.74
   0   6   6    4.35    1.60
   0  -6  -6    2.76    0.88
   0  -5  -6    0.83    1.49
   0   5   6   -0.47    1.54
   0  -5  -6    0.29    0.93
   0  -4  -6 2064.02   15.83
   0   4   6 2005.93   61.72
   0  -3  -6   -0.79    1.08
   0   3   6   -0.95    1.25
   0  -2  -6  404.40    9.77
   0  -2  -6  393.83    9.50
   0  -1  -6    0.15    0.48
   0  -1  -6   -0.76    1.29
   0   0  -6 1963.61   53.41
   0   0  -6 2115.93   57.73
   0   1  -6    0.53    0.41
   0   1  -6   -1.10    0.45
   0   4  -6 2089.21   18.59
   0   5  -6   -0.31    1.51
   0  -6   6    1.46    0.59
   0   6  -6    1.47    0.67
   0   6  -6    2.08    1.90
   0  -7   6   -0.07    0.63
   0   7  -6   -0.29    0.57
   0   7  -6    2.48    1.47
   0  -8   6  537.22   28.87
   0   8  -6  509.65   27.14
   0   8  -6  570.98   32.05
   0  -9   6    3.62    2.07
   0   9  -6    0.43    0.92
   0   9  -6    0.69    1.34
   0 -10   6   92.23    4.07
   0  10  -6   90.92   12.12
   0 -11   6    0.40    0.63
   0 -11   6    0.11    0.90
   0  11  -6   -0.76    2.03
   0 -12   6  272.44   13.43
   0 -12   6  218.78   10.83
   0  12  -6  211.55   15.67
   0 -12  -7   72.05    4.36
   0 -11  -7    3.12    3.67
   0  11   7   -1.97    2.11
   0 -11  -7   -0.07    0.70
   0 -10  -7  163.28    8.52
   0  10   7  146.56    7.93
   0 -10  -7  145.79    6.18
   0  -9  -7    0.56    1.79
   0   9   7    1.78    2.04
   0  -9  -7    1.04    0.58
   0  -8  -7  146.16    6.49
   0   8   7  142.48    6.79
   0  -8  -7  138.04    5.83
   0  -7  -7    1.77    1.72
   0   7   7    0.89    1.85
   0  -7  -7    0.47    0.68
   0  -6  -7   -0.83    1.58
   0   6   7    4.55    2.51
   0  -6  -7    3.29    1.10
   0  -5  -7    0.61    1.59
   0   5   7    0.33    1.65
   0  -5  -7   -0.37    1.03
   0  -4  -7  356.87   13.11
   0  -3  -7    0.52    0.45
   0  -3  -7   -1.03    1.04
   0  -2  -7  233.87   10.09
   0  -2  -7  230.45    8.43
   0  -1  -7   -0.15    0.69
   0  -1  -7    0.70    0.82
   0   0  -7    0.22    0.31
   0   0  -7    0.25    0.68
   0   1  -7    0.17    0.20
   0   1  -7    0.31    0.64
   0   2  -7  202.44    6.42
   0   2  -7  223.87    7.03
   0   4  -7  345.43   13.32
   0   5  -7   -0.27    1.46
   0   6  -7    2.79    1.90
   0  -7   7   -0.20    0.22
   0  -7   7   -0.11    0.22
   0   7  -7    1.13    1.74
   0   8  -7  135.88    9.17
   0  -9   7    0.51    0.33
   0  -9   7    1.53    0.99
   0   9  -7    2.85    1.96
   0 -10   7  157.12    5.71
   0 -10   7  125.39    5.14
   0  10  -7  128.23   11.81
   0 -11   7   -0.48    0.61
   0 -11   7   -0.18    0.82
   0  11  -7   -0.74    2.08
   0 -12   7   74.43    6.77
   0 -12   7   72.31    4.58
   0  12  -7   47.92   17.76
   0 -11  -8   -1.16    1.68
   0 -11  -8    2.25    2.11
   0 -11  -8   -0.38    0.77
   0 -10  -8   73.79    5.94
   0 -10  -8   73.91    6.00
   0 -10  -8   64.62    8.10
   0  -9  -8   -1.60    1.72
   0  -9  -8    0.11    0.35
   0  -8  -8  173.39    7.43
   0  -8  -8  157.35    5.26
   0  -7  -8   -1.58    1.52
   0  -7  -8    1.17    0.84
   0  -6  -8  423.41   16.45
   0  -6  -8  427.52   16.74
   0  -6  -8  446.74   16.68
   0  -5  -8   -0.04    1.23
   0  -5  -8   -1.10    1.35
   0  -4  -8    2.19    1.18
   0  -4  -8    1.29    1.31
   0  -3  -8    1.07    0.73
   0  -3  -8    1.09    1.47
   0  -2  -8  941.76   30.17
   0  -2  -8  895.88   28.91
   0  -1  -8   -0.22    0.72
   0  -1  -8    1.58    1.16
   0   0  -8    9.38    1.78
   0   1  -8    0.37    0.60
   0   1  -8   -0.02    0.42
   0   2  -8  834.36   25.87
   0   2  -8  899.91   27.83
   0   4  -8    2.04    2.17
   0   5  -8    1.09    1.06
   0   6  -8  494.22   20.48
   0   7  -8    1.50    1.71
   0   8  -8  157.72    8.10
   0   9  -8    0.18    1.02
   0 -10   8   72.80    3.84
   0 -10   8   53.47    2.92
   0  10  -8   49.06   16.87
   0 -11   8   -0.13    0.38
   0 -11   8   -0.10    0.49
   0  11  -8    2.07    2.09
   0 -10  -9  135.60   10.26
   0 -10  -9  147.27    7.02
   0 -10  -9  135.54    4.28
   0  -9  -9    0.44    0.71
   0  -9  -9    2.76    2.03
   0  -9  -9   -0.39    0.75
   0  -8  -9   21.47    5.35
   0  -8  -9   27.84    3.25
   0  -8  -9   20.45    5.49
   0  -7  -9    0.60    1.14
   0  -7  -9    2.03    2.18
   0  -7  -9   -0.64    0.81
   0  -6  -9    2.53    1.70
   0  -6  -9    3.89    2.05
   0  -6  -9    2.09    1.01
   0  -5  -9   -0.29    1.08
   0  -5  -9    0.23    1.23
   0  -4  -9   38.85    2.96
   0  -4  -9   32.16    2.73
   0  -3  -9    0.05    0.45
   0  -3  -9    0.48    0.98
   0  -2  -9  168.19    9.64
   0  -2  -9  178.24   10.43
   0  -1  -9    1.42    0.92
   0  -1  -9   -0.01    0.77
   0   0  -9    0.17    0.52
   0   0  -9   -0.44    0.66
   0   1  -9    0.67    0.72
   0   1  -9    1.21    1.00
   0   2  -9  159.78    8.63
   0   2  -9  168.94    9.07
   0   4  -9   28.46    3.25
   0   5  -9    0.52    0.78
   0   6  -9    1.63    1.44
   0   7  -9    1.01    0.97
   0   8  -9   20.99    6.33
   0   9  -9    1.05    2.33
   0  10  -9  105.88   17.77
   0  -9 -10   -0.45    1.47
   0  -9 -10    1.15    1.82
   0  -9 -10    0.19    0.33
   0  -8 -10  127.16   19.71
   0  -8 -10  150.59    7.54
   0  -8 -10  130.02    4.97
   0  -7 -10   -0.84    1.20
   0  -7 -10    4.41    2.76
   0  -7 -10    0.40    0.71
   0  -6 -10    6.67    1.75
   0  -6 -10    9.01    2.48
   0  -6 -10    3.97    1.50
   0  -5 -10   -0.28    1.05
   0  -5 -10   -0.01    1.16
   0  -4 -10  382.63   13.84
   0  -4 -10  364.97    8.81
   0  -3 -10   -0.62    0.76
   0  -3 -10   -0.05    0.92
   0  -2 -10   42.17    7.81
   0  -2 -10   38.27    2.61
   0  -1 -10    0.93    0.63
   0  -1 -10    0.31    0.80
   0   0 -10  398.73   14.48
   0   0 -10  446.11   16.13
   0   1 -10    0.29    0.51
   0   1 -10   -0.55    0.41
   0   3 -10   -1.29    1.39
   0   4 -10  371.87   10.52
   0   5 -10   -0.70    1.53
   0   6 -10    8.18    3.42
   0   7 -10    1.41    1.54
   0   8 -10  126.19    7.50
   0   9 -10    1.72    1.79
   0  -8 -11  352.08   24.13
   0  -8 -11  345.45   14.10
   0  -8 -11  334.41   11.57
   0  -7 -11    2.69    1.85
   0  -7 -11    1.51    1.65
   0  -7 -11    0.81    0.70
   0  -6 -11    1.30    0.75
   0  -6 -11   -0.27    1.31
   0  -6 -11    1.50    1.39
   0  -5 -11   -0.12    0.90
   0  -5 -11   -2.29    1.27
   0  -4 -11  669.66   19.25
   0  -4 -11  683.41   10.66
   0  -3 -11    0.11    0.35
   0  -3 -11    1.24    1.06
   0  -2 -11  165.87    5.56
   0  -2 -11  169.65    5.76
   0  -1 -11   -0.29    0.69
   0  -1 -11   -0.33    0.86
   0   0 -11    0.06    0.63
   0   1 -11   -0.01    0.45
   0   1 -11   -0.15    0.41
   0   3 -11    0.41    1.40
   0   4 -11  674.21   21.44
   0   5 -11   -3.05    1.76
   0   6 -11    2.36    2.15
   0   7 -11    1.01    1.11
   0   8 -11  331.52   15.10
   0  -6 -12   15.28    3.86
   0  -6 -12   16.69    2.69
   0  -6 -12   14.75    4.05
   0  -5 -12    1.02    0.57
   0  -5 -12    0.38    1.21
   0  -4 -12    8.05    2.38
   0  -4 -12    6.97    1.89
   0  -3 -12    0.34    0.79
   0  -3 -12   -2.09    1.01
   0  -2 -12   70.74    6.25
   0  -2 -12   78.82    4.82
   0  -1 -12    1.47    0.57
   0  -1 -12    1.16    0.87
   0   0 -12  656.77    6.71
   0   0 -12  626.69   28.04
   0   1 -12    0.03    0.37
   0   1 -12   -0.72    0.36
   0   2 -12   81.46    5.98
   0   3 -12    2.08    1.39
   0   4 -12    6.75    2.44
   0   5 -12    0.30    1.12
   0   6 -12   12.43    3.62
   0  -3 -13    0.12    0.52
   0  -3 -13    0.38    0.95
   0  -2 -13  130.20    3.95
   0  -2 -13  150.79    4.84
   0  -1 -13   -0.13    0.60
   0  -1 -13    1.00    1.20
   0   0 -13    0.04    0.43
   0   0 -13    0.47    0.62
   0   0 -13   -0.44    1.07
   0   1 -13    0.82    1.11
   0   2 -13  138.03    6.13
   0   3 -13    2.99    1.51
   1   1 -13  170.21    4.15
   1   1 -13  160.87    3.92
   1   0 -13   -0.14    0.58
   1   0 -13    0.04    0.77
   1  -1 -13  146.38    4.30
   1  -1 -13  153.34    4.94
   1  -2 -13    0.99    0.74
   1  -2 -13    1.00    0.91
   1  -3 -13    0.90    0.79
   1  -3 -13    0.84    0.96
   1   5 -12   29.21    4.15
   1   2 -12    2.26    0.67
   1   1 -12   59.75    3.50
   1   1 -12   58.50    3.53
   1   0 -12    7.09    1.33
   1   0 -12    7.57    1.75
   1  -1 -12   53.80    5.17
   1  -1 -12   54.24    3.80
   1  -2 -12    1.03    0.35
   1  -2 -12    1.95    0.98
   1  -3 -12    1.02    0.82
   1  -3 -12    2.12    1.60
   1  -4 -12   -0.07    0.97
   1  -4 -12   -0.04    1.05
   1  -5 -12   23.49    5.41
   1  -5 -12   26.21    3.41
   1  -6 -12   -1.33    1.19
   1  -6 -12    0.31    1.28
   1   8 -11   -0.58    2.48
   1   7 -11   51.91   16.81
   1   6 -11    7.13    3.37
   1   5 -11   11.73    2.87
   1   3 -11   23.38    0.70
   1   2 -11    0.66    0.61
   1   2 -11    2.43    0.91
   1   1 -11   29.17    1.77
   1   1 -11   29.08    2.14
   1   0 -11   -0.49    0.73
   1   0 -11    0.29    0.83
   1  -1 -11   25.63    5.93
   1  -1 -11   28.28    2.53
   1  -2 -11    2.55    0.89
   1  -2 -11    1.80    1.43
   1  -3 -11   36.26    7.00
   1  -3 -11   37.68    3.19
   1  -4 -11    1.64    0.76
   1  -4 -11    3.01    1.68
   1  -5 -11   11.50    2.88
   1  -5 -11   14.48    2.53
   1  -6 -11    0.74    0.89
   1  -6 -11    3.15    2.08
   1  -7 -11   59.77   11.83
   1  -7 -11   69.42    4.74
   1  -7 -11   66.75    8.21
   1  -8 -11   -0.22    1.02
   1  -8 -11    1.49    1.62
   1  -8 -11    0.20    0.51
   1   9 -10    2.76    2.09
   1   8 -10   -0.44    2.31
   1   7 -10    3.50    2.02
   1   6 -10    8.15    3.00
   1   3 -10    1.40    0.80
   1   3 -10    3.32    0.79
   1   2 -10    9.71    1.33
   1   2 -10    8.19    1.17
   1   1 -10  102.71    3.39
   1   1 -10  106.88    3.60
   1   0 -10    5.79    1.20
   1   0 -10    4.50    1.45
   1  -1 -10  105.49    3.76
   1  -1 -10   99.35    3.89
   1  -2 -10   10.09    2.27
   1  -2 -10    7.86    1.58
   1  -3 -10    5.41    1.20
   1  -3 -10    3.24    1.75
   1  -4 -10    5.24    1.31
   1  -4 -10    7.44    2.06
   1  -5 -10   60.64    9.49
   1  -5 -10   67.89    4.38
   1  -6 -10    6.80    1.81
   1  -6 -10    4.67    1.70
   1  -7 -10    6.61    1.04
   1  -7 -10    6.11    2.47
   1  -7 -10    3.40    1.47
   1  -8 -10   -0.53    1.31
   1  -8 -10   -1.05    1.70
   1  -8 -10    0.66    0.74
   1  -9 -10    0.86    1.26
   1  -9 -10   -1.26    1.59
   1  -9 -10    0.61    0.69
  -1 -10   9    3.23    0.72
   1  10  -9    3.22    2.29
   1   9  -9    2.19    1.95
   1   8  -9    5.37    2.80
   1   7  -9   55.49   12.47
   1   6  -9    9.67    3.72
   1   4  -9    0.97    0.53
   1   3  -9    4.19    1.06
   1   3  -9    7.28    0.93
   1   2  -9   31.95    1.78
   1   2  -9   31.97    1.77
   1   1  -9  160.57    9.09
   1   1  -9  167.56    9.57
   1   0  -9    0.39    0.89
   1   0  -9   -0.93    0.81
   1  -1  -9  175.61   10.08
   1  -1  -9  166.48    9.79
   1  -2  -9   35.92    7.39
   1  -2  -9   33.67    2.40
   1  -3  -9    7.40    1.91
   1  -3  -9    3.01    1.25
   1  -4  -9    0.90    0.57
   1  -4  -9   -0.87    1.29
   1  -5  -9   76.51    5.14
   1  -5  -9   83.41    4.45
   1  -6  -9    2.03    0.97
   1  -6  -9    1.36    1.55
   1  -7  -9   64.42    7.02
   1  -7  -9   67.15    5.18
   1  -7  -9   54.08    6.04
   1  -8  -9    6.96    2.29
   1  -8  -9    3.90    2.53
   1  -8  -9    6.09    2.09
   1  -9  -9    3.49    1.68
   1  -9  -9    3.38    1.92
   1  -9  -9    3.62    1.58
   1 -10  -9    5.25    1.44
   1 -10  -9    3.15    1.93
   1 -10  -9    1.87    1.07
  -1 -11   8   72.96    3.42
   1  11  -8   87.23    4.33
   1  11  -8   51.42   18.48
  -1 -10   8    3.88    1.39
   1  10  -8    2.45    1.21
   1  10  -8    5.43    1.38
  -1  -9   8  105.44    4.10
   1   9  -8  133.74    4.91
   1   9  -8  105.51   12.98
  -1  -8   8    0.94    0.66
   1   8  -8    0.43    0.54
   1   8  -8    1.68    1.39
  -1  -7   8  210.74    4.80
   1   7  -8  215.82    4.88
   1   7  -8  195.40    8.15
  -1  -6   8    0.65    0.23
   1   6  -8   -0.06    0.33
   1   6  -8    2.02    2.52
  -1  -5   8  510.72   26.73
   1   5  -8  487.30   25.62
  -1  -4   8    5.07    0.98
   1   4  -8    2.76    0.80
   1   3  -8  418.80   14.68
   1   3  -8  440.67   15.15
   1   2  -8   22.90    1.55
   1   2  -8   20.57    1.67
   1   1  -8  336.73   11.29
   1   1  -8  347.92   11.80
   1   0  -8   81.07    4.52
   1   0  -8   79.58    3.88
   1  -1  -8  337.14   12.24
   1  -1  -8  343.46   12.12
   1  -2  -8   29.90    6.96
   1  -2  -8   23.78    2.12
   1  -3  -8  485.84   17.87
   1  -3  -8  478.14   17.62
   1  -4  -8    6.18    1.24
   1  -4  -8    6.70    2.08
   1  -5  -8  495.05   26.90
   1  -5  -8  491.36   27.10
   1  -6  -8   -1.16    1.20
   1  -6  -8    0.86    1.64
   1  -6  -8    3.89    1.83
   1  -7  -8  248.84    9.26
   1  -7  -8  239.50    8.43
   1  -7  -8  209.54    7.94
   1  -8  -8    1.30    0.99
   1  -8  -8    0.48    1.62
   1  -8  -8    1.52    1.03
   1  -9  -8  132.46   11.95
   1  -9  -8  134.60    7.40
   1  -9  -8  114.00   13.24
   1 -10  -8    9.53    3.11
   1 -10  -8    6.74    1.76
   1 -11  -8   88.25    9.89
   1 -11  -8   72.05   15.36
  -1 -12   7    3.05    1.81
   1  12  -7    1.64    1.11
   1  12  -7    1.92    2.14
   1  11  -7   92.78    4.94
   1  11  -7   61.35   19.60
  -1 -10   7    1.35    1.29
   1  10  -7    0.88    0.91
   1  10  -7   -0.37    2.64
  -1  -9   7    3.60    1.43
   1   9  -7    6.61    1.41
   1   9  -7    2.08    3.15
  -1  -8   7    5.47    1.60
   1   8  -7    8.05    1.42
   1   8  -7    9.77    3.16
  -1  -7   7   61.23    3.96
   1   7  -7   67.76    4.33
   1   7  -7   65.49    5.73
  -1  -6   7    1.20    0.83
   1   6  -7    1.12    0.88
   1   6  -7    2.22    2.01
  -1  -5   7  177.07    6.48
   1   5  -7  189.80    7.10
  -1  -4   7   43.74    3.01
   1   4  -7   40.28    1.84
  -1  -3   7   28.47    2.69
   1   3  -7   23.77    1.71
  -1  -2   7    7.17    1.29
   1   2  -7    2.97    0.72
   1   1  -7  226.80    7.65
   1   1  -7  231.52    8.06
   1   0  -7    0.65    0.54
   1   0  -7   -0.32    0.83
   1  -1  -7  240.41    8.58
   1  -1  -7  233.42    8.44
   1  -2  -7    9.26    1.95
   1  -2  -7    7.81    1.75
   1  -3  -7   29.04    2.22
   1  -3  -7   28.05    2.63
   1  -4  -7   42.57    3.84
   1  -4  -7   37.51    2.98
   1  -5  -7  185.75   12.88
   1  -5  -7  177.27    8.18
   1  -6  -7    1.49    1.07
   1  -6  -7    0.47    1.64
   1  -6  -7    1.74    1.72
   1  -7  -7   75.83   10.19
   1  -7  -7   72.76    5.96
   1  -7  -7   69.42   12.31
   1  -8  -7   11.05    2.88
   1  -8  -7    9.60    2.91
   1  -8  -7   11.24    2.10
   1  -9  -7    7.05    2.06
   1  -9  -7    7.48    2.48
   1  -9  -7    9.97    1.93
   1 -10  -7    2.20    1.08
   1 -10  -7    5.60    2.74
   1 -10  -7    3.43    1.40
   1 -11  -7   75.74    7.79
   1 -11  -7   85.07    5.79
   1 -11  -7   64.57    8.45
   1 -12  -7   -0.58    1.76
   1 -12  -7   -0.57    1.09
  -1 -12   6    1.33    1.26
   1  12  -6    0.47    1.32
   1  12  -6    1.32    1.59
  -1 -11   6  417.00   20.11
   1  11  -6  391.76   18.72
   1  11  -6  336.02   18.14
  -1 -10   6    4.73    2.21
   1  10  -6    1.24    1.49
   1  10  -6    1.27    1.08
  -1  -9   6    2.84    1.46
   1   9  -6    2.07    1.06
   1   9  -6    4.22    2.03
  -1  -8   6    0.43    1.15
   1   8  -6    0.49    0.97
   1   8  -6    2.34    2.14
  -1  -7   6    2.64    1.22
   1   7  -6    6.53    1.55
   1   7  -6    3.03    1.61
  -1  -6   6    4.58    1.34
   1   6  -6    8.09    1.49
   1   6  -6    4.00    2.11
  -1  -5   6  425.00   13.85
   1   5  -6  489.61   15.93
  -1  -4   6    6.35    1.28
   1   4  -6    2.66    1.22
  -1  -3   6   77.31    2.52
   1   3  -6   63.77    2.33
  -1  -2   6    5.16    1.23
   1   2  -6    3.14    0.99
  -1  -1   6  397.54    8.65
   1   1  -6  352.91    7.85
   1   0  -6   12.47    2.47
   1   0  -6   10.80    1.57
   1  -1  -6  377.73    8.68
   1  -1  -6  407.00    9.96
   1  -2  -6    6.65    1.69
   1  -2  -6    5.70    1.81
   1  -3  -6   80.09    3.46
   1  -3  -6   77.81    3.81
   1  -4  -6    6.83    1.38
   1  -4  -6    7.18    2.13
   1  -5  -6  500.40   18.03
   1  -5  -6  501.29   17.71
   1  -6  -6    9.49    2.00
   1  -6  -6    2.48    1.58
   1  -6  -6   10.57    2.09
   1  -7  -6    6.70    1.62
   1  -7  -6    8.16    2.80
   1  -7  -6    7.58    1.71
   1  -8  -6    1.30    0.97
   1  -8  -6    3.26    2.79
   1  -8  -6    2.50    1.31
   1  -9  -6    5.68    1.38
   1  -9  -6    3.36    1.93
   1  -9  -6    2.77    1.25
   1 -10  -6    0.91    1.12
   1 -10  -6    0.74    1.66
   1 -10  -6    1.36    1.17
   1 -11  -6  418.29   22.87
   1 -11  -6  396.48   19.96
   1 -11  -6  413.55   20.07
   1 -12  -6    0.25    1.18
   1 -12  -6    4.32    1.91
   1 -12  -6    1.25    0.74
  -1 -13   5   81.48    5.24
   1  13  -5   90.89    6.21
   1  13  -5   56.54   17.38
  -1 -12   5    1.82    1.29
   1  12  -5   -0.09    1.25
   1  12  -5    0.60    1.38
  -1 -11   5    1.65    1.15
   1  11  -5    0.99    1.26
   1  11  -5    2.68    1.84
  -1 -10   5    1.17    1.66
   1  10  -5    1.51    1.26
   1  10  -5    0.81    1.31
  -1  -9   5   75.47    4.33
   1   9  -5   84.17    4.80
   1   9  -5   78.04   12.79
  -1  -8   5   37.95    2.89
   1   8  -5   41.65    3.46
   1   8  -5   46.62    6.61
  -1  -7   5  291.73   11.58
   1   7  -5  289.74   11.04
   1   7  -5  245.11   13.07
  -1  -6   5    5.75    1.38
   1   6  -5   10.34    1.61
   1   6  -5    8.66    2.58
  -1  -5   5   55.94    2.26
   1   5  -5   62.94    2.38
  -1  -4   5    0.01    0.48
   1   4  -5    1.75    1.11
  -1  -3   5  112.63    3.74
   1   3  -5  108.97    4.02
  -1  -2   5    2.20    0.69
   1   2  -5    1.84    1.01
  -1  -1   5  129.96    4.86
   1   1  -5  128.55    4.31
  -1   0   5   -0.28    0.51
   1   0  -5    0.09    0.36
   1  -1  -5  145.49    4.99
   1  -1  -5  130.13    4.94
   1  -2  -5    2.33    0.89
   1  -2  -5    2.87    1.44
   1  -3  -5  130.17    4.89
   1  -3  -5  126.06    5.17
   1  -4  -5    0.84    1.03
   1  -4  -5   -0.49    1.25
   1  -5  -5   67.96    4.87
   1  -5  -5   71.17    4.23
   1  -5  -5   66.28    3.63
   1  -6  -5   10.21    2.17
   1  -6  -5    7.61    1.98
   1  -6  -5   11.11    2.22
   1  -7  -5  290.79   14.99
   1  -7  -5  280.54   11.75
   1  -7  -5  276.80   12.60
   1  -8  -5   44.29    6.34
   1  -8  -5   45.46    4.71
   1  -8  -5   38.46    7.94
   1  -9  -5   90.80    6.27
   1  -9  -5   91.27    6.12
   1  -9  -5   80.70    6.54
   1 -10  -5    1.00    0.90
   1 -10  -5    5.27    2.03
   1 -10  -5    1.47    0.92
   1 -11  -5    1.57    0.81
   1 -11  -5    3.41    1.98
   1 -11  -5    2.44    1.89
   1 -12  -5   -0.18    1.43
   1 -12  -5    2.89    2.71
   1 -12  -5    1.08    0.62
   1 -13  -5   54.78   15.33
   1 -13  -5   47.10   14.37
  -1 -13   4   33.91    3.31
   1  13  -4   32.18    3.22
   1  13  -4   25.82    7.38
  -1 -12   4   -0.29    1.29
   1  12  -4    1.57    1.41
   1  12  -4    2.47    1.89
  -1 -11   4    3.53    1.40
   1  11  -4    0.32    1.35
   1  11  -4    5.11    2.73
  -1 -10   4    4.05    1.99
   1  10  -4    3.03    2.02
   1  10  -4    1.12    1.06
  -1  -9   4    3.10    1.92
   1   9  -4   -0.44    1.25
   1   9  -4   -0.45    1.66
  -1  -8   4    6.17    1.47
   1   8  -4    5.11    2.38
   1   8  -4    4.72    2.18
  -1  -7   4  231.98    8.88
   1   7  -4  252.04    9.49
   1   7  -4  239.47   12.72
  -1  -6   4   20.37    1.96
   1   6  -4   26.66    2.02
   1   6  -4   24.86    3.39
  -1  -5   4  196.07    6.03
   1   5  -4  191.79    5.44
  -1  -4   4    4.90    0.91
   1   4  -4    6.26    1.23
  -1  -3   4   10.61    1.03
   1   3  -4    9.08    1.26
  -1  -2   4   10.43    2.71
   1   2  -4    6.01    0.94
  -1  -1   4   72.21    2.34
   1   1  -4   70.16    2.39
  -1   0   4  516.42   11.47
   1   0  -4  493.70   11.11
   1  -2  -4   12.15    2.42
   1  -2  -4    9.75    1.49
   1  -3  -4   13.88    2.96
   1  -3  -4   14.23    1.87
   1  -4  -4    7.96    2.19
   1  -4  -4    5.78    1.88
   1  -5  -4  203.34    9.67
   1  -5  -4  215.21    7.20
   1  -5  -4  203.07    6.75
   1  -6  -4   27.06    2.26
   1  -6  -4   23.47    2.99
   1  -6  -4   27.63    5.55
   1  -7  -4  262.78   10.47
   1  -7  -4  305.76   13.91
   1  -8  -4    6.89    2.58
   1  -8  -4    5.70    1.99
   1  -9  -4   -2.93    1.81
   1  -9  -4   -0.05    1.28
   1 -10  -4    3.58    1.58
   1 -10  -4   -0.29    1.75
   1 -10  -4    0.89    1.23
   1 -11  -4    1.44    2.21
   1 -11  -4    5.27    2.52
   1 -11  -4    1.76    1.05
   1 -12  -4    0.73    0.98
   1 -12  -4    0.94    1.85
   1 -12  -4    2.09    0.84
   1 -13  -4   21.74    5.84
   1 -13  -4   38.99    5.09
   1 -13  -4   21.45    7.35
  -1 -13   3  188.22    9.96
   1  13  -3  176.92   10.04
   1  13  -3  169.11   12.68
  -1 -12   3    4.52    2.06
   1  12  -3    7.62    2.42
   1  12  -3    2.97    2.00
  -1 -11   3  157.75    6.23
   1  11  -3  157.86    6.67
   1  11  -3  156.83   10.53
  -1 -10   3    5.17    1.75
   1  10  -3    4.71    1.72
   1  10  -3    3.83    3.51
  -1  -9   3   29.66    2.64
   1   9  -3   25.50    2.75
   1   9  -3   25.02    6.34
  -1  -8   3    7.66    1.59
   1   8  -3    7.75    1.66
   1   8  -3    6.60    2.16
  -1  -7   3  623.24   20.20
   1   7  -3  706.56   22.96
   1   7  -3  751.28   25.63
  -1  -6   3   13.02    1.67
   1   6  -3   13.73    1.65
   1   6  -3   14.08    2.85
  -1  -5   3  538.33   16.00
   1   5  -3  626.84   18.32
  -1  -4   3   33.07    1.89
   1   4  -3   37.04    1.85
  -1  -3   3   11.29    1.21
   1   3  -3   13.49    1.38
  -1  -2   3    6.59    0.72
   1   2  -3    4.03    1.06
  -1  -1   3 1580.26   32.89
   1   1  -3 1634.04   34.02
  -1   0   3    0.16    0.24
   1   0  -3    0.75    0.48
  -1   1   3 1752.81   36.56
   1  -1  -3 1850.25   38.67
   1  -2  -3   10.62    2.52
   1  -2  -3    5.04    1.21
   1  -3  -3   18.27    3.49
   1  -3  -3   12.75    1.81
   1  -4  -3   48.02    2.45
   1  -4  -3   42.26    2.47
   1  -4  -3   43.08    2.66
   1  -5  -3  635.00   19.30
   1  -5  -3  596.11   18.30
   1  -6  -3   16.44    2.29
  -1   6   3   12.96    2.38
   1  -6  -3   16.55    3.07
   1  -7  -3  677.87   22.51
  -1   7   3  673.21   22.81
   1  -7  -3  674.53   22.35
   1  -8  -3   10.31    2.59
  -1   8   3    6.85    2.17
   1  -8  -3    9.67    2.15
   1  -9  -3   29.58    3.82
  -1   9   3   28.90    3.68
   1  -9  -3   27.41    5.96
   1 -10  -3    8.27    2.03
   1 -10  -3    3.48    1.81
   1 -11  -3  158.29    6.57
   1 -11  -3  154.98    7.01
   1 -11  -3  150.83   11.93
   1 -12  -3    2.18    1.98
   1 -12  -3    2.33    1.28
   1 -13  -3  187.43   14.41
   1 -13  -3  177.14   10.48
   1 -13  -3  177.92    9.91
  -1 -14   2    1.98    1.70
   1  14  -2    2.70    2.81
   1  14  -2    0.22    1.57
  -1 -13   2    2.26    2.26
   1  13  -2   -0.12    1.64
   1  13  -2    2.44    2.29
  -1 -12   2    2.33    1.59
   1  12  -2   -0.02    1.45
   1  12  -2    2.68    0.92
  -1 -11   2    0.00    1.49
   1  11  -2    4.50    2.24
   1  11  -2    1.72    1.57
  -1 -10   2    5.82    2.12
   1  10  -2    4.36    2.28
   1  10  -2    4.11    1.65
  -1  -9   2  834.59   29.53
   1   9  -2  789.29   28.21
   1   9  -2  769.66   28.44
  -1  -8   2    8.21    2.12
   1   8  -2    9.42    2.52
   1   8  -2    8.89    1.81
  -1  -7   2   37.51    2.78
   1   7  -2   35.80    3.31
   1   7  -2   33.39    4.35
  -1  -6   2   14.84    1.95
   1   6  -2   12.32    1.78
   1   6  -2   15.53    4.21
  -1  -5   2   35.41    2.08
   1   5  -2   41.08    2.66
   1   5  -2   35.73    2.99
  -1  -4   2  308.48    7.92
   1   4  -2  313.85    7.91
  -1  -3   2 2003.86   42.15
  -1  -2   2    1.56    0.84
   1   2  -2    2.23    1.52
  -1  -1   2   11.40    1.15
   1   1  -2   10.28    1.18
  -1   0   2   27.32    3.23
   1   0  -2   26.25    2.74
  -1   1   2   10.96    1.97
   1  -1  -2    9.64    1.83
   1  -2  -2    0.56    0.69
   1  -3  -2 2773.21   15.49
   1  -4  -2  321.22    8.19
   1  -4  -2  332.92    8.85
   1  -4  -2  320.72    8.81
   1  -5  -2   39.66    2.65
  -1   5   2   39.29    3.23
   1  -5  -2   36.94    8.42
   1  -6  -2   15.99    2.27
  -1   6   2   14.39    2.26
   1  -6  -2   15.09    2.48
   1  -7  -2   32.61    2.94
  -1   7   2   29.51    2.83
   1  -7  -2   30.84    7.18
  -1   7   2   34.94    3.80
   1  -8  -2    9.69    2.55
  -1   8   2    7.10    2.15
   1  -8  -2    7.50    2.85
  -1   8   2    6.69    2.23
   1  -9  -2  827.39   29.72
  -1   9   2  796.36   29.11
   1  -9  -2  789.53   28.61
  -1   9   2  789.89   29.43
   1 -10  -2    1.30    1.64
  -1  10   2    3.50    1.95
   1 -10  -2    4.74    1.71
  -1  10   2    2.75    2.60
   1 -11  -2    0.43    1.71
   1 -11  -2    2.46    1.28
  -1  11   2    5.79    2.77
   1 -12  -2    3.14    1.92
   1 -12  -2    3.32    1.91
   1 -12  -2    3.01    1.76
   1 -13  -2    1.20    1.19
   1 -13  -2    3.32    2.67
   1 -13  -2    4.07    2.34
   1 -14  -2    1.92    0.89
  -1 -14   1    0.42    1.49
   1  14  -1   -0.09    2.04
   1  14  -1    3.22    2.32
  -1 -13   1   13.67    2.75
   1  13  -1   15.66    3.18
   1  13  -1   12.37    1.58
  -1 -12   1    8.20    2.19
   1  12  -1    7.98    2.22
  -1 -11   1    5.57    2.37
   1  11  -1    8.96    2.60
   1  11  -1    4.54    1.96
  -1 -10   1    0.47    1.31
   1  10  -1    1.42    1.74
   1  10  -1    1.88    0.89
  -1  -9   1   79.62    3.91
   1   9  -1   79.75    4.38
   1   9  -1   83.24    4.73
  -1  -8   1   21.54    2.66
   1   8  -1   16.34    2.47
   1   8  -1   20.80    5.47
  -1  -7   1   24.60    2.68
   1   7  -1   20.58    2.76
   1   7  -1   21.20    6.65
  -1  -6   1    1.50    1.22
   1   6  -1    1.42    1.52
   1   6  -1    1.55    1.23
  -1  -5   1    0.19    0.94
   1   5  -1   -0.34    1.11
   1   5  -1   -0.12    1.12
  -1  -4   1  159.94    4.79
   1   4  -1  155.61    4.91
  -1  -3   1   91.29    3.07
   1   3  -1   96.27    3.36
  -1  -2   1    9.86    1.75
   1   2  -1    6.93    1.76
  -1  -1   1   29.91    1.54
   1   1  -1   28.45    1.34
  -1   0   1    2.84    0.95
   1   0  -1    1.61    0.81
  -1   1   1   35.32    1.20
   1  -1  -1   33.00    1.62
  -1   2   1    5.57    1.02
   1  -2  -1    7.21    1.17
   1  -3  -1   96.73    5.45
   1  -3  -1  107.40    3.94
   1  -3  -1  100.33    3.78
   1  -4  -1  142.17    4.50
   1  -4  -1  148.19    4.71
   1  -4  -1  155.33    5.21
  -1   4   1  149.37    5.43
   1  -5  -1    1.77    1.29
  -1   5   1    5.20    1.31
   1  -5  -1    1.20    0.80
  -1   5   1    2.60    2.00
   1  -6  -1    0.94    1.32
  -1   6   1    3.29    2.49
   1  -6  -1    0.14    0.75
  -1   6   1    1.16    1.05
   1  -7  -1   19.54    2.48
  -1   7   1   18.00    2.36
   1  -7  -1   17.05    3.69
  -1   7   1   21.00    4.13
   1  -8  -1   22.49    2.51
  -1   8   1   19.15    3.11
   1  -8  -1   16.46    4.64
  -1   8   1   23.02    6.12
   1  -9  -1   82.57    4.20
  -1   9   1   76.58    4.53
   1  -9  -1   88.98    7.90
  -1   9   1   77.85    7.70
   1 -10  -1    2.28    2.11
  -1  10   1    1.00    1.72
   1 -10  -1   -0.19    1.55
  -1  10   1    1.34    0.76
   1 -11  -1    4.31    2.27
   1 -11  -1    3.28    1.56
  -1  11   1    0.55    1.73
   1 -12  -1    7.91    2.55
   1 -12  -1    3.70    2.06
   1 -12  -1    6.97    2.45
  -1  12   1    9.37    3.34
   1 -13  -1   10.07    3.70
   1 -13  -1   13.46    2.89
  -1  13   1    9.90    3.25
   1 -14  -1   -0.18    1.43
   1 -14  -1    1.69    1.83
  -1  14   1    1.01    2.35
  -1 -14   0    0.20    1.53
   1  14   0   -2.64    2.29
   1  14   0    0.68    1.31
  -1 -13   0  104.92    7.23
   1  13   0   99.44    7.39
   1  13   0   87.98   15.97
  -1 -12   0   -1.83    1.49
   1  12   0    1.02    1.66
   1  12   0    3.03    2.27
   1  11   0  136.67   11.06
  -1 -10   0    1.03    1.31
   1  10   0    0.38    1.69
   1  10   0    1.98    0.56
  -1  -9   0  476.00   17.84
   1   9   0  489.99   18.83
   1   9   0  478.82   18.64
  -1  -8   0   -0.83    1.37
   1   8   0    1.56    1.65
   1   8   0    0.38    0.67
  -1  -7   0  443.64   11.06
   1   7   0  463.83   12.03
   1   7   0  471.43   12.27
  -1  -6   0    0.23    1.33
   1   6   0    6.54    2.99
   1   6   0   -0.83    1.29
  -1  -5   0   67.59    2.92
   1   5   0   65.84    3.18
   1   5   0   67.21    3.59
  -1  -4   0    1.01    1.03
   1   4   0    1.10    1.46
   1   4   0   -0.39    1.10
  -1  -3   0 1373.66   29.42
   1   3   0 1240.47   26.69
  -1  -2   0    9.15    1.90
   1   2   0    4.66    1.75
  -1  -1   0   37.33    1.46
   1   1   0   35.86    1.68
   1   0   0    0.44    0.76
  -1   1   0   43.93    1.15
   1  -1   0   45.12    2.88
  -1   2   0    0.64    0.38
   1  -2   0    0.32    0.24
   1  -2   0    3.88    1.40
  -1   2   0    2.14    1.47
   1  -3   0 1323.04   27.86
   1  -3   0 1401.21   30.05
   1  -3   0 1417.92   30.81
  -1   3   0 1331.05   29.11
   1  -4   0   -0.47    0.87
   1  -4   0   -0.23    0.90
   1  -4   0    0.35    0.56
  -1   4   0   -1.05    1.33
   1  -5   0   71.46    3.30
  -1   5   0   59.88    2.98
   1  -5   0   72.41    3.61
  -1   5   0   70.22    3.81
   1  -6   0    0.42    1.18
  -1   6   0   -1.75    1.64
   1  -6   0   -0.42    1.13
  -1   6   0   -1.06    1.71
   1  -7   0  482.38   12.07
  -1   7   0  440.26   11.34
   1  -7   0  460.84   12.04
  -1   7   0  454.21   12.65
   1  -8   0    0.21    1.28
  -1   8   0    0.19    1.78
   1  -8   0   -1.30    1.48
  -1   8   0    0.78    1.22
   1  -9   0  509.42   19.02
  -1   9   0  478.56   18.33
   1  -9   0  539.35   20.58
  -1   9   0  479.36   18.96
   1 -10   0    0.28    1.45
  -1  10   0    3.67    2.49
   1 -10   0   -1.14    1.47
  -1  10   0    1.10    0.98
   1 -11   0  145.01    6.21
   1 -11   0  117.54    6.02
   1 -12   0   -0.39    1.30
   1 -12   0    0.35    1.73
   1 -12   0    4.76    2.67
   1 -13   0  108.75    8.30
   1 -13   0  108.24    7.53
  -1  13   0   88.78   18.41
   1 -14   0    1.03    0.54
   1 -14   0   -0.20    1.47
  -1  14   0    1.42    2.14
  -1 -14  -1    0.74    1.71
   1  14   1   -1.52    2.55
   1  14   1    3.41    2.22
  -1 -13  -1   15.22    2.98
   1  13   1   10.98    2.82
   1  13   1   14.94    4.91
  -1 -12  -1    3.27    1.75
   1  12   1    4.39    1.97
   1  12   1    5.76    1.24
  -1 -11  -1    4.01    1.66
   1  11   1    3.05    1.89
   1  11   1    6.95    1.53
  -1 -10  -1    2.08    2.08
   1  10   1   -0.52    1.62
   1  10   1   -1.18    1.52
  -1  -9  -1   80.02    4.17
   1   9   1   85.28    4.81
   1   9   1   82.82   10.84
  -1  -8  -1   21.45    2.69
   1   8   1   17.63    2.59
   1   8   1   22.27    6.99
  -1  -7  -1   19.85    2.16
   1   7   1   19.09    2.85
   1   7   1   19.72    2.28
  -1  -6  -1    2.50    1.94
   1   6   1    0.93    1.66
   1   6   1    0.82    1.22
  -1  -5  -1    1.08    1.19
   1   5   1    0.46    1.62
   1   5   1    0.08    0.74
  -1  -4  -1  145.61    4.71
   1   4   1  150.17    4.92
   1   4   1  148.30    5.82
  -1  -2  -1    8.23    1.65
   1   2   1   10.99    1.81
  -1  -1  -1   34.16    1.72
   1   1   1   37.70    1.83
  -1   0  -1    2.70    0.99
   1   0   1    2.33    0.98
   1   0   1    4.02    1.19
  -1   1  -1   35.96    1.04
   1  -1   1   34.78    1.18
   1  -1   1   45.21    2.49
  -1   2  -1    5.40    0.79
   1  -2   1    5.88    1.06
   1  -2   1    8.17    1.39
  -1   2  -1    5.02    2.28
   1  -3   1  115.53    3.76
  -1   3  -1  115.10    5.22
   1  -4   1  175.83    5.14
   1  -4   1  159.11    4.72
   1  -4   1  158.00    6.47
  -1   4  -1  163.71    8.42
   1  -5   1    0.99    0.91
   1  -5   1   -0.36    1.08
  -1   5  -1    4.56    2.00
   1  -6   1    0.93    1.00
  -1   6  -1    2.36    2.02
   1  -6   1   -1.10    1.20
  -1   6  -1    1.01    0.97
   1  -7   1   20.58    2.28
  -1   7  -1   15.70    2.03
   1  -7   1   23.12    5.15
  -1   7  -1   27.22    6.71
   1  -8   1   20.81    2.38
  -1   8  -1   18.87    2.23
   1  -8   1   24.18    5.38
  -1   8  -1   20.59    4.64
   1  -9   1   87.45    4.03
  -1   9  -1   70.63    4.04
   1  -9   1   79.94   10.11
  -1   9  -1   84.37   12.64
   1 -10   1   -0.45    1.33
  -1  10  -1    1.47    1.59
   1 -10   1    4.44    2.42
  -1  10  -1   -0.11    2.09
   1 -11   1    7.05    2.57
   1 -11   1    3.58    2.49
  -1  11  -1    5.96    2.36
   1 -12   1    6.79    2.44
  -1  12  -1    4.73    1.98
   1 -13   1   11.92    3.57
   1 -13   1   14.36    2.41
  -1  13  -1   16.55    2.50
   1 -14   1    1.06    1.65
   1 -14   1   -0.38    1.35
  -1  14  -1    2.11    1.95
   1  14   2    0.10    2.77
   1  14   2    3.17    2.50
  -1 -13  -2   -1.59    1.61
   1  13   2    0.67    2.18
   1  13   2    2.55    1.83
  -1 -12  -2    1.50    1.58
   1  12   2    2.92    2.00
   1  12   2    5.62    2.78
  -1 -11  -2    2.45    1.69
   1  11   2    3.09    2.03
   1  11   2   -0.29    1.55
  -1 -10  -2    1.55    1.63
   1  10   2    1.01    1.76
   1  10   2    3.36    1.30
  -1  -9  -2  768.35   27.53
   1   9   2  822.51   30.05
   1   9   2  823.34   29.89
  -1  -8  -2    7.70    1.94
   1   8   2    6.51    2.15
   1   8   2    7.91    2.83
  -1  -7  -2   32.12    2.68
   1   7   2   34.73    2.94
   1   7   2   39.37    6.87
  -1  -6  -2   12.01    1.94
   1   6   2   15.60    2.32
   1   6   2   15.39    3.03
  -1  -5  -2   38.81    2.71
   1   5   2   42.99    3.27
   1   5   2   35.10    4.76
  -1  -4  -2  345.20    8.97
   1   4   2  349.90    9.42
   1   4   2  363.62    8.81
  -1  -3  -2 2405.37   50.50
   1   3   2 2451.88   13.60
   1   3   2 2424.18   50.08
  -1  -2  -2    3.04    1.47
   1   2   2   -0.58    1.25
  -1  -1  -2   14.99    1.83
   1   1   2   13.83    1.65
  -1   0  -2   22.96    1.48
   1   0   2   31.70    1.72
   1   0   2   25.75    1.66
  -1   0  -2   28.78    2.41
  -1   1  -2    9.79    0.74
   1  -1   2   11.34    1.02
   1  -1   2   14.06    2.40
  -1   1  -2   13.51    3.00
  -1   2  -2    0.10    0.15
   1  -2   2    1.49    0.57
   1  -2   2   -0.07    0.96
  -1   2  -2    0.57    0.78
   1  -3   2 2610.14   14.87
  -1   3  -2 2627.45   15.09
   1  -4   2  346.05    8.02
   1  -4   2  340.90    8.16
   1  -4   2  344.79    9.41
  -1   4  -2  346.10   18.49
   1  -5   2   42.42    4.72
   1  -5   2   38.39    1.86
   1  -5   2   46.07    8.93
  -1   5  -2   39.04    9.76
   1  -6   2   16.83    1.86
   1  -6   2   17.39    4.70
  -1   6  -2   17.78    4.59
   1  -7   2   30.92    2.34
  -1   7  -2   31.43    2.50
   1  -7   2   33.27    9.18
  -1   7  -2   34.52    4.10
   1  -8   2    8.01    1.73
  -1   8  -2    4.60    2.24
   1  -8   2    2.86    1.58
  -1   8  -2    6.96    2.09
   1  -9   2  821.36   28.88
   1  -9   2  800.41   29.28
  -1   9  -2  897.27   33.21
   1 -10   2    3.77    1.98
  -1  10  -2    6.26    1.67
   1 -11   2    5.32    1.99
   1 -11   2    1.22    1.40
  -1  11  -2    1.95    1.68
   1 -12   2    2.44    1.18
   1 -12   2    0.96    1.56
  -1  12  -2    4.47    2.16
   1 -13   2    0.54    0.78
   1 -13   2    1.90    1.50
  -1  13  -2    7.39    2.49
   1 -14   2    1.87    1.44
   1 -14   2    0.89    1.49
  -1  14  -2    0.51    1.82
  -1 -13  -3  183.38   10.20
   1  13   3  193.45   11.95
   1  13   3  168.06   11.23
  -1 -12  -3    5.12    1.98
   1  12   3    5.06    2.30
   1  12   3    5.79    2.75
  -1 -11  -3  154.11    6.87
   1  11   3  150.56    7.46
   1  11   3  148.59    7.18
  -1 -10  -3    3.89    1.90
   1  10   3    3.32    2.71
   1  10   3    4.54    1.67
  -1  -9  -3   27.97    2.97
   1   9   3   28.14    3.12
   1   9   3   27.11    4.61
  -1  -8  -3    7.56    2.21
   1   8   3   10.90    2.82
   1   8   3    7.13    3.65
  -1  -7  -3  666.53   22.05
   1   7   3  691.45   23.37
   1   7   3  649.33   21.57
  -1  -6  -3   14.27    2.88
   1   6   3   11.43    2.21
  -1  -6  -3   15.42    1.63
   1   6   3   10.62    1.74
  -1  -5  -3  609.84   18.37
   1   5   3  603.78   18.40
  -1  -5  -3  588.46   16.67
   1   5   3  561.50   16.57
  -1  -4  -3   42.82    2.51
   1   4   3   46.70    3.02
  -1  -4  -3   42.80    1.42
  -1  -3  -3   12.96    1.47
   1   3   3   14.95    2.21
  -1  -2  -3    9.95    1.44
   1   2   3    8.95    1.66
  -1  -1  -3 1898.91   39.72
   1   1   3 1945.95   40.73
  -1  -1  -3 2174.28   44.71
  -1   0  -3    3.01    1.32
   1   0   3    0.00    0.67
  -1   0  -3   -0.34    0.61
   1  -1   3 1852.42   38.14
   1  -2   3    4.88    0.53
   1  -2   3    9.49    1.60
  -1   2  -3   12.02    3.35
   1  -3   3   15.39    1.49
   1  -3   3   13.33    0.85
   1  -3   3   14.33    1.90
  -1   3  -3   16.17    4.65
   1  -4   3   41.13    1.44
   1  -4   3   45.17    1.57
   1  -4   3   40.44    2.81
  -1   4  -3   46.58    3.45
   1  -5   3  618.58   17.36
   1  -5   3  618.61   17.59
   1  -5   3  606.51   18.67
  -1   5  -3  648.13   20.11
   1  -6   3   17.63    2.70
   1  -6   3   13.98    1.43
   1  -6   3   15.30    3.22
  -1   6  -3   15.62    4.75
   1  -7   3  714.08   22.38
   1  -7   3  682.45   21.68
   1  -7   3  675.95   23.00
  -1   7  -3  668.16   22.90
   1  -8   3    7.46    1.97
   1  -8   3    5.08    1.37
  -1   8  -3   10.21    2.41
   1  -9   3   27.69    5.81
   1  -9   3   32.20    2.62
  -1   9  -3   29.66    8.65
   1 -10   3    5.36    1.53
   1 -10   3    5.28    1.72
  -1  10  -3    5.85    2.30
   1 -11   3  170.90    7.16
   1 -11   3  152.21    5.83
  -1  11  -3  141.42   13.94
   1 -12   3    5.15    1.32
   1 -12   3    3.83    1.39
  -1  12  -3    6.00    1.73
   1 -13   3  196.41   11.22
   1 -13   3  194.91   10.23
  -1  13  -3  187.82   21.20
  -1 -13  -4   25.27    4.21
   1  13   4   41.25    4.91
  -1 -12  -4    0.23    1.56
   1  12   4    4.12    2.96
  -1 -11  -4    2.24    1.83
   1  11   4    7.49    2.86
  -1 -10  -4    2.51    1.75
   1  10   4    1.03    1.87
  -1  -9  -4    1.32    1.72
   1   9   4   -2.00    1.76
  -1  -8  -4    6.51    2.53
   1   8   4    3.76    2.58
  -1  -7  -4  261.54   10.48
   1   7   4  262.66   10.92
  -1  -7  -4  288.62   10.08
  -1  -6  -4   26.68    2.64
   1   6   4   24.17    2.67
  -1  -6  -4   24.81    1.75
  -1  -5  -4  211.34    6.94
   1   5   4  192.00    6.59
  -1  -5  -4  207.03    5.04
  -1  -4  -4    7.69    1.58
   1   4   4    6.90    1.79
  -1  -4  -4    6.83    1.41
  -1  -3  -4   12.25    1.82
   1   3   4   12.40    1.95
  -1  -3  -4   12.14    1.92
  -1  -2  -4    9.97    1.44
   1   2   4   10.23    1.68
  -1  -1  -4   75.34    2.88
   1   1   4   68.68    2.68
  -1   0  -4  557.13   12.31
   1   0   4  573.56   12.62
  -1   0  -4  566.96   12.74
  -1   2  -4   14.25    3.62
  -1   3  -4   11.48    3.37
   1  -4   4    7.95    1.35
   1  -4   4    6.30    0.78
  -1   4  -4    8.32    3.32
   1  -5   4  184.57    4.86
   1  -5   4  204.42    4.94
  -1   5  -4  206.67    7.30
   1  -6   4   28.11    1.71
   1  -6   4   22.73    1.59
  -1   6  -4   31.63    8.19
   1  -7   4  263.32    8.98
   1  -7   4  263.95    9.32
  -1   7  -4  258.75   10.97
   1  -8   4    6.53    1.23
   1  -8   4    3.05    1.36
  -1   8  -4    2.72    0.95
   1  -9   4    0.35    0.79
   1  -9   4    0.57    1.00
  -1   9  -4    1.29    1.17
   1 -10   4    1.32    0.48
   1 -10   4    2.68    1.46
  -1  10  -4    1.50    1.24
   1 -11   4    2.25    0.88
   1 -11   4    3.95    1.79
  -1  11  -4    1.26    1.85
   1 -12   4   -0.08    0.89
   1 -12   4    2.83    1.81
  -1  12  -4    3.74    2.41
   1 -13   4   31.30    7.01
   1 -13   4   37.31    3.27
  -1  13  -4   29.84    7.72
   1  13   5   86.03    7.24
  -1 -12  -5    0.05    1.69
   1  12   5    0.82    2.42
  -1 -11  -5    3.32    2.43
   1  11   5    4.71    2.98
  -1 -10  -5    3.76    2.55
   1  10   5    1.22    1.76
  -1  -9  -5   85.60    5.48
   1   9   5   83.43    5.89
  -1  -8  -5   39.58    4.01
   1   8   5   39.78    4.30
  -1  -8  -5   40.08    3.03
  -1  -7  -5  278.84   11.61
   1   7   5  276.64   11.97
  -1  -7  -5  272.25    9.91
  -1  -6  -5   13.72    2.44
   1   6   5   10.71    2.35
  -1  -6  -5    8.83    1.69
  -1  -5  -5   67.09    3.77
   1   5   5   66.32    3.77
  -1  -5  -5   66.73    2.23
  -1  -4  -5    1.94    1.66
   1   4   5   -0.73    1.46
  -1  -4  -5   -0.02    0.31
  -1  -3  -5  137.04    5.37
   1   3   5  135.96    5.64
  -1  -2  -5    1.41    0.87
   1   2   5    2.13    1.21
  -1  -1  -5  142.31    4.99
   1   1   5  146.38    5.28
  -1   0  -5    0.49    0.79
   1   0   5    1.18    0.92
  -1   0  -5   -0.59    0.73
  -1   1  -5  141.90    5.71
  -1   2  -5    2.44    1.09
  -1   3  -5  146.40    6.26
  -1   4  -5   -0.03    1.61
   1  -5   5   62.25    1.52
  -1   5  -5   62.23    5.85
   1  -6   5   12.46    2.05
   1  -6   5   10.26    1.13
  -1   6  -5    7.69    3.24
   1  -7   5  265.97    9.48
   1  -7   5  268.12    9.76
  -1   7  -5  305.45   13.40
   1  -8   5   43.06    3.40
   1  -8   5   40.30    3.05
  -1   8  -5   41.27   12.11
   1  -9   5   90.99    5.11
   1  -9   5   89.03    4.65
  -1   9  -5   79.67   12.28
   1 -10   5    1.90    0.66
   1 -10   5    3.02    1.45
  -1  10  -5    1.69    0.82
   1 -11   5    1.65    0.84
   1 -11   5    3.09    1.45
  -1  11  -5   -1.09    2.13
   1 -12   5   -0.31    0.84
   1 -12   5   -0.31    1.11
  -1  12  -5    2.98    2.12
   1 -13   5   75.35    8.30
   1 -13   5   87.52    5.20
  -1  13  -5   80.73   11.25
  -1 -12  -6    3.31    1.89
   1  12   6    4.18    2.82
  -1 -11  -6  399.68   20.00
   1  11   6  407.88   21.37
  -1 -10  -6    2.35    1.84
   1  10   6    4.73    3.16
  -1  -9  -6    4.19    1.78
   1   9   6    4.85    2.90
  -1  -8  -6   -2.53    1.62
   1   8   6   -0.32    1.65
  -1  -8  -6   -0.30    0.49
  -1  -7  -6    8.21    1.68
   1   7   6    7.34    2.37
  -1  -7  -6    6.57    1.47
  -1  -6  -6    8.31    2.39
   1   6   6    6.30    2.32
  -1  -6  -6    8.12    1.92
  -1  -5  -6  510.34   17.81
   1   5   6  496.00   17.60
  -1  -5  -6  483.70   15.39
  -1  -4  -6    2.45    1.32
   1   4   6    5.85    2.34
  -1  -4  -6    7.30    1.19
  -1  -3  -6   84.60    3.67
   1   3   6   76.26    3.76
  -1  -2  -6    2.48    1.25
   1   2   6    4.54    1.63
  -1  -1  -6  372.50    8.66
   1   1   6  379.85    8.96
  -1   0  -6   11.65    1.39
   1   0   6   12.69    1.56
  -1   0  -6    9.49    1.49
  -1   1  -6  387.27    7.90
  -1   1  -6  335.20    7.16
  -1   1  -6  378.72    9.62
  -1   2  -6    5.57    2.42
  -1   3  -6   82.44    4.65
  -1   4  -6    4.59    1.96
  -1   5  -6  514.32   18.59
   1  -6   6    6.11    0.43
  -1   6  -6   10.54    2.51
   1  -7   6    7.15    0.98
   1  -7   6    3.77    1.07
  -1   7  -6    5.47    2.21
   1  -8   6    0.30    0.23
   1  -8   6    1.32    0.81
  -1   8  -6    1.00    1.01
   1  -9   6    1.57    0.85
   1  -9   6    2.72    1.30
  -1   9  -6    3.25    1.43
   1 -10   6    1.49    0.79
   1 -10   6    1.08    0.94
  -1  10  -6    4.12    2.02
   1 -11   6  394.91   18.00
   1 -11   6  383.92   18.01
  -1  11  -6  392.71   20.72
   1 -12   6    1.72    0.78
   1 -12   6    1.32    0.93
  -1  12  -6    1.34    2.06
   1  12   7    1.45    2.35
  -1 -11  -7   82.72    5.78
   1  11   7   78.75    6.35
  -1 -10  -7    2.10    2.54
   1  10   7    5.27    2.41
  -1  -9  -7    7.79    2.37
   1   9   7    2.82    2.13
  -1  -8  -7    8.32    2.37
   1   8   7    7.85    2.38
  -1  -8  -7    6.71    1.73
  -1  -7  -7   66.15    3.97
   1   7   7   82.19    6.52
  -1  -7  -7   66.55    4.03
  -1  -6  -7    1.67    2.02
   1   6   7   -0.83    1.69
  -1  -6  -7    0.66    0.39
  -1  -5  -7  183.30    8.16
   1   5   7  192.64    8.99
  -1  -5  -7  201.70    7.41
  -1  -4  -7   42.68    2.87
   1   4   7   42.84    3.13
  -1  -3  -7   28.44    2.19
   1   3   7   29.23    2.80
  -1  -2  -7    7.21    1.52
   1   2   7    8.04    2.14
  -1  -1  -7  240.33    8.38
   1   1   7  256.51    9.12
  -1   0  -7   -0.07    0.63
  -1   0  -7   -0.09    0.97
  -1   1  -7  235.12    7.46
  -1   1  -7  217.50    7.12
  -1   1  -7  247.74    9.22
  -1   2  -7    7.50    2.66
  -1   3  -7   34.12    9.34
  -1   4  -7   47.77    4.23
  -1   5  -7  173.75    9.76
  -1   6  -7    1.47    1.29
  -1   7  -7   72.72   13.35
  -1   8  -7    4.68    1.78
   1  -9   7    8.33    1.56
   1  -9   7    2.33    1.03
  -1   9  -7    7.90    2.72
   1 -10   7    1.10    0.35
   1 -10   7    1.43    1.22
  -1  10  -7    3.38    1.52
   1 -11   7   77.12    3.03
  -1  11  -7   54.48   19.77
   1 -12   7    0.57    0.55
  -1  12  -7   -0.10    2.62
   1  11   8   85.09    6.28
  -1 -10  -8    3.45    1.91
   1  10   8    0.54    2.04
  -1  -9  -8  119.60    6.50
   1   9   8  122.88    7.49
  -1  -8  -8    0.14    1.47
   1   8   8    0.98    2.09
  -1  -7  -8  229.36    7.84
  -1  -7  -8  229.06    4.92
  -1  -6  -8   -0.95    1.24
   1   6   8    0.72    1.94
  -1  -6  -8    0.23    0.11
  -1  -5  -8  487.92   26.78
   1   5   8  570.92   31.59
  -1  -5  -8  536.93   28.36
  -1  -4  -8    6.74    2.36
   1   4   8    8.85    2.42
  -1  -3  -8  483.15   17.50
   1   3   8  496.05   18.36
  -1  -2  -8   21.98    2.11
   1   2   8   26.80    2.23
  -1  -1  -8  351.58   12.08
  -1  -1  -8  349.15   11.96
  -1   0  -8   89.30    4.07
  -1   0  -8   98.35    4.12
  -1   0  -8   89.90    4.70
  -1   1  -8  336.63   10.81
  -1   1  -8  314.97   10.30
  -1   1  -8  336.74   12.21
  -1   2  -8   23.72    6.91
  -1   3  -8  571.66   21.48
  -1   4  -8    4.73    2.36
  -1   5  -8  534.73   29.79
  -1   6  -8    0.43    0.73
  -1   7  -8  225.22   13.72
  -1   8  -8    2.23    1.41
  -1   9  -8   94.70   11.25
  -1  10  -8    5.91    2.90
  -1  11  -8   85.00   14.20
  -1 -10  -9    8.45    2.47
   1  10   9    8.37    2.62
  -1  -9  -9    5.00    2.56
  -1  -8  -9    4.82    2.43
   1   8   9    4.30    1.90
  -1  -7  -9   71.40    5.00
   1   7   9   59.73    4.58
  -1  -6  -9    1.39    1.29
   1   6   9    0.66    1.55
  -1  -6  -9    0.41    0.23
  -1  -5  -9   73.08    4.06
   1   5   9   83.55    4.81
  -1  -5  -9   69.94    2.42
  -1  -4  -9    1.11    1.24
   1   4   9    1.54    1.22
  -1  -3  -9    8.32    1.70
   1   3   9    6.81    1.69
  -1  -2  -9   37.29    7.73
  -1  -2  -9   33.94    2.27
  -1  -1  -9  174.92   11.22
  -1  -1  -9  178.53   10.28
  -1   0  -9   -0.05    0.39
  -1   0  -9    3.20    1.25
  -1   0  -9   -0.47    0.98
  -1   1  -9  168.17    9.16
  -1   1  -9  152.45    8.44
  -1   1  -9  178.66   10.90
  -1   2  -9   33.68    4.49
  -1   3  -9   16.06    3.67
  -1   4  -9    1.78    1.49
  -1   5  -9   65.33   12.97
  -1   7  -9   56.19   17.79
  -1   8  -9    7.16    2.32
  -1   9  -9    2.78    1.94
  -1  10  -9    6.75    2.68
  -1  -9 -10    0.82    1.45
  -1  -8 -10    0.93    1.33
   1   8  10   -1.64    1.90
  -1  -7 -10    2.88    2.07
   1   7  10    6.28    2.94
  -1  -6 -10    5.12    1.87
  -1  -6 -10    3.35    0.71
  -1  -5 -10   63.67    3.63
  -1  -5 -10   57.24    2.80
  -1  -4 -10    5.16    1.38
  -1  -4 -10    8.25    2.19
  -1  -3 -10    4.58    1.12
  -1  -3 -10    5.05    1.67
  -1  -2 -10    8.46    2.00
  -1  -2 -10    6.41    1.55
  -1  -2 -10    6.99    1.56
  -1  -1 -10  103.09    3.98
  -1  -1 -10  113.86    4.12
  -1  -1 -10  100.84    4.12
  -1   0 -10    6.68    1.22
  -1   0 -10    6.94    1.35
  -1   0 -10    4.69    1.64
  -1   1 -10  104.82    2.50
  -1   1 -10   95.98    2.77
  -1   1 -10  119.39    5.18
  -1   2 -10   10.72    2.76
  -1   3 -10    5.54    2.36
  -1   4 -10    4.02    1.70
  -1   5 -10   52.93   13.59
  -1   6 -10    5.73    3.08
  -1   7 -10    4.43    2.15
  -1   8 -10   -0.17    1.88
  -1   9 -10    2.09    1.29
  -1  -8 -11    1.25    1.59
  -1  -8 -11    0.00    1.54
  -1  -7 -11   71.53   11.89
  -1  -7 -11   64.72    4.33
  -1  -6 -11    0.47    0.64
  -1  -6 -11    1.40    1.25
  -1  -5 -11   13.53    2.92
  -1  -5 -11    9.73    1.99
  -1  -5 -11   10.15    2.37
  -1  -4 -11    0.51    0.65
  -1  -4 -11    0.04    0.93
  -1  -4 -11   -0.08    0.44
  -1  -3 -11   36.12    8.42
  -1  -3 -11   35.92    2.61
  -1  -3 -11   24.90    4.82
  -1  -2 -11    0.29    0.77
  -1  -2 -11    6.35    2.07
  -1  -2 -11    1.13    0.48
  -1  -1 -11   29.90    5.24
  -1  -1 -11   31.85    2.60
  -1  -1 -11   19.35    4.86
  -1   0 -11    0.23    0.34
  -1   0 -11   -0.15    0.59
  -1   0 -11    0.71    0.71
  -1   1 -11   26.31    1.02
  -1   1 -11   31.78    1.45
  -1   1 -11   25.32    4.35
  -1   2 -11    3.79    1.21
  -1   3 -11   37.82   11.70
  -1   4 -11    1.09    0.70
  -1   5 -11   11.06    2.89
  -1   6 -11   -1.48    1.67
  -1   7 -11   53.64   18.93
  -1   8 -11    5.30    5.80
  -1  -6 -12    0.44    0.83
  -1  -6 -12    0.41    1.23
  -1  -5 -12   21.52    5.62
  -1  -5 -12   13.53    2.71
  -1  -4 -12   -0.76    0.78
  -1  -4 -12    1.30    1.09
  -1  -4 -12    0.05    0.28
  -1  -3 -12    0.97    0.43
  -1  -3 -12    0.44    0.95
  -1  -3 -12    1.76    0.65
  -1  -2 -12    1.84    0.57
  -1  -2 -12    2.20    1.78
  -1  -2 -12    0.82    0.57
  -1  -1 -12   51.68    5.69
  -1  -1 -12   59.45    3.92
  -1  -1 -12   35.79    7.23
  -1   0 -12    7.23    1.67
  -1   0 -12    7.43    1.28
  -1   0 -12    6.38    2.43
  -1   1 -12   51.34   10.15
  -1   2 -12    0.95    0.76
  -1   3 -12    2.36    1.30
  -1   4 -12   -0.32    1.32
  -1   5 -12   22.04    7.51
  -1   6 -12   -0.05    0.94
  -1  -3 -13    0.95    0.55
  -1  -3 -13    1.40    1.60
  -1  -3 -13    1.71    1.08
  -1  -2 -13   -0.04    0.42
  -1  -2 -13   -0.43    0.91
  -1  -2 -13    0.25    0.41
  -1  -1 -13  144.30    3.51
  -1  -1 -13  149.63    4.42
  -1  -1 -13  149.13    5.20
  -1   0 -13    1.21    0.61
  -1   0 -13    0.27    0.57
  -1   0 -13    0.39    0.71
  -1   1 -13  164.56    6.05
  -1   2 -13    0.95    0.71
  -1   3 -13    2.01    0.94
   2   2 -13   10.85    2.01
   2   2 -13   13.45    1.82
   2   1 -13    3.27    1.47
   2   1 -13    4.69    1.55
   2   0 -13    1.30    1.17
   2   0 -13    2.38    1.45
   2  -1 -13    4.96    1.52
   2  -1 -13    7.65    1.89
   2  -2 -13    9.84    1.57
   2  -2 -13   10.27    2.17
   2   4 -12   25.35    2.40
   2   4 -12   30.24    1.50
   2   3 -12    0.12    0.58
   2   3 -12    0.16    0.48
   2   2 -12    6.62    1.36
   2   2 -12    5.74    1.30
   2   1 -12    2.34    1.14
   2   1 -12    0.15    0.83
   2   0 -12    8.24    1.40
   2   0 -12    9.15    1.79
   2  -1 -12    1.13    1.24
   2  -1 -12    1.43    1.36
   2  -2 -12    3.81    1.31
   2  -2 -12    5.52    1.75
   2  -3 -12   -0.69    0.91
   2  -3 -12    0.48    1.05
   2  -4 -12   21.29    5.50
   2  -4 -12   27.26    2.91
   2  -5 -12   -0.03    1.00
   2  -5 -12    1.58    1.32
   2   7 -11    0.94    3.31
   2   5 -11    3.58    0.89
   2   5 -11    1.85    0.63
   2   4 -11   73.20    4.22
   2   4 -11   67.25    3.68
   2   3 -11    0.91    0.83
   2   3 -11   -0.01    0.57
   2   2 -11  558.80   19.54
   2   2 -11  503.80   17.61
   2   1 -11    1.01    1.13
   2   1 -11    0.37    0.87
   2   0 -11    0.04    0.81
   2   0 -11   -1.30    0.88
   2  -1 -11   -0.24    0.84
   2  -1 -11    0.98    0.98
   2  -2 -11  554.88   19.72
   2  -2 -11  539.76   19.68
   2  -3 -11    1.26    0.55
   2  -3 -11   -0.98    1.12
   2  -4 -11   62.79   12.18
   2  -4 -11   61.81    4.81
   2  -5 -11    2.75    1.07
   2  -5 -11    5.66    2.23
   2  -6 -11    1.80    1.34
   2  -6 -11    0.83    1.61
   2  -7 -11   -0.23    0.99
   2  -7 -11    1.00    1.78
   2  -7 -11    3.02    1.98
   2   9 -10    0.92    2.23
  -2  -8  10   18.24    3.01
   2   8 -10   27.38    1.76
   2   8 -10   27.48    4.37
  -2  -7  10    1.00    0.41
   2   7 -10   -1.08    2.22
  -2  -6  10  244.52   11.09
   2   6 -10  235.16   10.93
   2   5 -10    2.85    1.30
   2   4 -10   87.41    3.55
   2   4 -10   80.45    3.17
   2   3 -10    4.08    1.44
   2   3 -10    9.44    1.59
   2   2 -10  388.79    8.04
   2   2 -10  422.46    8.92
   2   1 -10   -0.44    0.76
   2   1 -10   -0.30    0.94
   2   0 -10   16.89    1.93
   2   0 -10   12.64    1.91
   2  -1 -10    1.51    0.60
   2  -1 -10   -0.70    0.90
   2  -2 -10  388.35    8.47
   2  -2 -10  376.64    9.13
   2  -3 -10   12.85    2.87
   2  -3 -10   10.19    2.23
   2  -4 -10   78.88    7.94
   2  -4 -10   86.60    4.87
   2  -5 -10    6.60    1.29
   2  -5 -10    4.92    1.73
   2  -6 -10  235.26   22.73
   2  -6 -10  219.53   12.07
   2  -7 -10   -1.22    1.38
   2  -7 -10   -0.06    1.66
   2  -7 -10    0.29    1.37
   2  -8 -10   20.13    4.78
   2  -8 -10   26.94    3.89
   2  -8 -10   19.99    6.39
   2  -9 -10    1.74    1.23
   2  -9 -10    6.67    2.78
   2  -9 -10    1.04    0.68
  -2 -10   9    5.53    1.56
   2  10  -9    5.65    4.09
  -2  -9   9    1.05    0.92
   2   9  -9   -0.11    0.57
   2   9  -9    4.00    2.53
  -2  -8   9   17.96    3.55
   2   8  -9   22.88    2.19
   2   8  -9   19.22    3.88
  -2  -7   9    4.35    0.86
   2   7  -9    6.55    1.63
  -2  -6   9   63.20    4.66
   2   6  -9   56.50    2.70
  -2  -5   9    0.16    0.27
   2   5  -9    1.26    0.90
  -2  -4   9  180.18    6.30
   2   4  -9  173.83    5.41
  -2  -3   9    2.36    1.00
   2   3  -9    0.44    1.06
   2   2  -9   43.27    2.46
   2   1  -9    1.54    1.20
   2   1  -9    0.52    0.91
   2   0  -9    0.02    0.95
   2   0  -9    0.64    1.07
   2  -1  -9    1.57    0.68
   2  -1  -9   -0.55    1.01
   2  -2  -9   50.57    5.28
   2  -2  -9   47.66    3.32
   2  -3  -9    0.77    0.93
   2  -3  -9   -0.90    1.38
   2  -4  -9  169.14    6.49
   2  -4  -9  176.08    6.95
   2  -5  -9   -0.12    0.86
   2  -5  -9    1.88    1.64
   2  -6  -9   61.68    4.94
   2  -6  -9   52.22    4.05
   2  -7  -9    2.13    0.84
   2  -7  -9    3.47    1.92
   2  -7  -9    3.23    1.60
   2  -8  -9   18.59    3.99
   2  -8  -9   21.71    3.66
   2  -8  -9   16.46    4.94
   2  -9  -9    1.55    0.69
   2  -9  -9    0.31    1.93
   2  -9  -9   -0.14    1.37
   2 -10  -9    5.59    2.38
   2 -10  -9    7.04    2.35
   2  11  -8    1.34    1.41
  -2 -10   8    2.87    1.52
   2  10  -8    6.20    2.02
   2  10  -8    4.44    2.06
  -2  -9   8    1.04    1.01
   2   9  -8   -0.62    0.80
   2   9  -8    1.11    1.39
  -2  -8   8  448.91   16.08
   2   8  -8  513.56   18.10
   2   8  -8  479.44   20.09
  -2  -7   8   10.58    2.83
   2   7  -8   10.69    1.73
  -2  -6   8   43.44    4.05
   2   6  -8   46.23    2.67
  -2  -5   8    2.26    0.81
   2   5  -8    1.52    1.33
  -2  -4   8  416.35   22.63
   2   4  -8  382.37   21.06
  -2  -3   8    0.72    0.61
   2   3  -8    1.16    1.69
  -2  -2   8  113.16    6.11
   2   2  -8   84.41    2.95
  -2  -1   8   24.05    4.52
   2   1  -8   20.37    1.74
   2   0  -8  265.12   10.09
   2   0  -8  272.07   10.77
   2  -1  -8   24.36    5.65
   2  -1  -8   21.74    2.23
   2  -2  -8  104.71    3.86
   2  -2  -8  116.47    4.97
   2  -3  -8   -1.22    1.04
   2  -3  -8   -0.49    1.39
   2  -4  -8  407.66   23.16
   2  -4  -8  392.59   22.20
   2  -5  -8    1.48    0.63
   2  -5  -8    1.00    1.69
   2  -6  -8   47.29    9.73
   2  -6  -8   47.14    4.00
   2  -7  -8    9.85    1.94
   2  -7  -8    8.95    2.32
   2  -7  -8    9.42    2.70
   2  -8  -8  487.03   27.88
   2  -8  -8  485.61   18.94
   2  -8  -8  496.55   19.29
   2  -9  -8    1.04    1.07
   2  -9  -8    1.60    1.94
   2  -9  -8    1.60    1.49
   2 -10  -8    3.52    1.62
   2 -10  -8    1.53    1.91
   2 -10  -8    2.78    1.19
   2 -11  -8   -0.48    1.68
   2 -11  -8    0.46    1.15
  -2 -11   7    1.82    1.64
   2  11  -7    0.21    1.18
   2  11  -7    1.54    1.24
  -2 -10   7   32.49    3.22
   2  10  -7   32.94    3.08
   2  10  -7   32.62    8.32
  -2  -9   7    5.69    2.04
   2   9  -7   11.32    1.93
   2   9  -7    8.29    2.91
  -2  -8   7   56.79    3.29
   2   8  -7   61.16    3.23
   2   8  -7   59.17    5.17
  -2  -7   7    2.25    2.09
   2   7  -7    0.44    1.07
  -2  -6   7   43.80    2.43
   2   6  -7   46.34    2.67
  -2  -5   7    5.60    0.89
   2   5  -7    6.39    2.36
  -2  -4   7  220.27    8.54
   2   4  -7  218.99    8.81
  -2  -3   7   13.57    2.47
   2   3  -7   10.03    1.74
  -2  -2   7  262.44    9.10
   2   2  -7  229.06    8.36
  -2  -1   7    1.69    0.82
   2   1  -7    0.58    1.02
  -2   0   7   -0.85    0.92
   2   0  -7    0.11    1.16
   2  -1  -7    0.80    1.30
   2  -1  -7    0.69    1.09
   2  -2  -7  267.78    9.78
   2  -2  -7  266.38   10.34
   2  -3  -7   13.67    2.57
   2  -3  -7    9.66    2.45
   2  -4  -7  268.61   14.34
   2  -4  -7  233.91   10.07
   2  -5  -7    7.38    1.24
   2  -5  -7    5.73    1.90
   2  -6  -7   53.36   11.02
   2  -6  -7   49.39    4.52
   2  -7  -7    2.15    0.86
   2  -7  -7    1.99    1.80
   2  -7  -7    1.05    1.63
   2  -8  -7   52.24   10.72
   2  -8  -7   62.63    4.77
   2  -8  -7   58.63    5.58
   2  -9  -7    9.23    1.79
   2  -9  -7    7.89    2.13
   2  -9  -7    7.92    2.38
   2 -10  -7   31.77    4.99
   2 -10  -7   37.20    4.57
   2 -10  -7   23.69    6.18
   2 -11  -7   -0.65    1.44
   2 -11  -7    7.88    3.04
   2 -11  -7    1.28    1.55
  -2 -12   6   10.40    2.38
   2  12  -6    8.81    2.19
   2  12  -6    4.67    1.54
  -2 -11   6    5.74    1.68
   2  11  -6    3.89    1.91
   2  11  -6    0.68    1.43
  -2 -10   6  306.23   10.76
   2  10  -6  299.48   10.37
   2  10  -6  289.22   12.82
  -2  -9   6    0.31    1.28
   2   9  -6    1.54    1.75
   2   9  -6    1.85    1.45
  -2  -8   6   80.13    4.50
   2   8  -6   86.91    4.69
   2   8  -6   94.82    6.85
  -2  -7   6    0.18    1.11
   2   7  -6    1.65    1.70
  -2  -6   6  879.99   30.40
   2   6  -6  955.56   32.87
  -2  -5   6    3.87    1.44
   2   5  -6    0.42    1.11
  -2  -4   6   72.99    3.41
   2   4  -6   75.17    3.94
  -2  -3   6    0.72    0.28
   2   3  -6   -1.18    1.20
  -2  -2   6  972.77   19.99
   2   2  -6  909.86   18.93
  -2  -1   6    2.70    0.79
   2   1  -6    3.32    1.30
  -2   0   6   56.26    2.37
   2   0  -6   60.91    2.59
  -2   1   6    2.42    1.26
   2  -1  -6    4.46    1.16
   2  -2  -6 1014.12   22.37
   2  -2  -6 1060.89   23.09
   2  -3  -6    0.53    0.54
   2  -3  -6    0.90    1.53
   2  -4  -6   94.02    9.91
   2  -4  -6   87.40    5.11
   2  -5  -6    1.34    0.72
   2  -5  -6    1.34    1.61
   2  -6  -6 1019.33   35.59
   2  -6  -6 1058.98   14.04
   2  -6  -6 1057.41   14.77
   2  -7  -6    1.75    1.30
   2  -7  -6    1.14    1.93
   2  -7  -6   -0.14    0.96
   2  -8  -6   91.42    5.34
   2  -8  -6   94.19    6.22
   2  -8  -6   86.51   19.79
   2  -9  -6    0.96    1.01
   2  -9  -6    0.69    1.77
   2  -9  -6    0.19    0.73
   2 -10  -6  302.54   10.81
   2 -10  -6  333.02   12.83
   2 -10  -6  286.61   15.75
   2 -11  -6    3.61    1.76
   2 -11  -6    3.79    2.17
   2 -11  -6    4.37    2.08
   2 -12  -6    4.84    2.08
   2 -12  -6    7.17    2.52
  -2 -12   5    0.76    1.34
   2  12  -5    1.97    1.45
   2  12  -5    1.36    1.24
  -2 -11   5    2.27    1.85
   2  11  -5    0.54    1.27
   2  11  -5    1.89    1.63
  -2 -10   5  665.29   11.55
   2  10  -5  603.01   14.61
   2  10  -5  565.70   16.63
  -2  -9   5   14.80    2.46
   2   9  -5   13.84    2.31
   2   9  -5   11.86    2.67
  -2  -8   5   71.68    5.10
   2   8  -5   75.20    5.42
   2   8  -5   75.59    6.52
  -2  -7   5    1.88    1.80
   2   7  -5    1.13    1.31
  -2  -6   5    1.74    1.12
   2   6  -5    3.10    1.94
  -2  -5   5    1.86    1.50
   2   5  -5    2.65    1.32
  -2  -4   5  225.75    6.14
   2   4  -5  238.89    6.82
  -2  -3   5    6.73    1.10
   2   3  -5    3.42    1.67
  -2  -2   5 1878.12   51.52
   2   2  -5 1911.09   52.59
  -2  -1   5   15.13    3.44
   2   1  -5   10.38    1.46
  -2   0   5    1.27    0.51
   2   0  -5    0.04    0.90
  -2   1   5   16.86    4.43
   2  -1  -5   13.84    2.38
  -2   2   5 2204.31   60.66
   2  -2  -5 2018.41   55.64
   2  -3  -5   11.91    2.97
   2  -3  -5   13.22    2.34
   2  -4  -5  268.73   11.86
   2  -4  -5  313.26    9.75
   2  -5  -5    4.84    1.26
   2  -5  -5    2.31    1.60
   2  -6  -5    6.18    1.14
   2  -6  -5    7.80    2.57
   2  -6  -5    2.63    1.74
   2  -7  -5    0.84    0.91
   2  -7  -5    2.78    1.85
   2  -7  -5   -0.35    1.70
   2  -8  -5   70.12    6.17
   2  -8  -5   78.92    6.39
   2  -8  -5   81.34   17.09
   2  -9  -5   10.23    2.27
   2  -9  -5   10.45    2.09
   2  -9  -5   12.48    2.67
   2 -10  -5  600.07   14.59
   2 -10  -5  603.55   15.95
   2 -10  -5  602.08   15.71
   2 -11  -5    0.48    1.14
   2 -11  -5    0.00    1.87
   2 -11  -5   -0.11    1.00
   2 -12  -5    2.14    1.84
   2 -12  -5    1.02    1.98
   2 -12  -5    0.36    0.83
  -2 -13   4    4.20    1.69
   2  13  -4    4.07    2.33
   2  13  -4    7.54    2.99
  -2 -12   4    3.44    2.06
   2  12  -4    5.76    2.33
   2  12  -4    4.90    1.12
  -2 -11   4    0.78    1.36
   2  11  -4    1.20    2.37
  -2 -10   4   20.87    2.46
   2  10  -4   18.36    2.57
   2  10  -4   18.40    4.99
  -2  -9   4    2.65    1.78
   2   9  -4    3.03    1.66
   2   9  -4    1.31    1.26
  -2  -8   4  238.57   13.89
   2   8  -4  269.94   15.55
   2   8  -4  261.30   15.89
  -2  -7   4   61.27    4.13
   2   7  -4   65.58    4.24
  -2  -6   4  905.81   28.93
   2   6  -4  901.44   28.63
  -2  -5   4    3.48    1.07
   2   5  -4    5.73    1.99
  -2  -4   4  118.70    4.29
   2   4  -4  120.42    4.33
  -2  -3   4   12.07    1.24
   2   3  -4   13.56    1.70
  -2  -2   4   32.07    1.71
   2   2  -4   33.52    1.97
  -2  -1   4   77.39    3.18
   2   1  -4   75.68    3.22
  -2   0   4  119.10    5.57
   2   0  -4  121.03    3.89
  -2   1   4   77.58    3.11
   2  -1  -4   84.68    3.51
  -2   2   4   40.23    3.04
   2  -2  -4   34.38    2.30
   2  -3  -4   17.91    3.61
   2  -4  -4  137.70    5.82
   2  -4  -4  136.77    5.50
   2  -5  -4    7.57    1.60
   2  -5  -4    4.15    1.58
   2  -5  -4    7.03    2.43
   2  -6  -4  944.16   30.25
   2  -6  -4  968.05   31.30
   2  -6  -4  997.59   32.52
   2  -7  -4   64.96    4.30
   2  -7  -4   65.30    4.73
   2  -7  -4   66.75   10.60
   2  -8  -4  270.64   18.56
   2  -8  -4  272.38   16.24
   2  -8  -4  299.02   27.59
   2  -9  -4   -0.42    1.34
   2  -9  -4    2.00    1.84
   2  -9  -4    1.84    1.74
   2 -10  -4   19.18    5.90
   2 -10  -4   22.79    3.40
   2 -10  -4   19.85    5.81
   2 -11  -4    0.24    0.91
   2 -11  -4    2.91    1.91
   2 -11  -4    4.16    1.80
   2 -12  -4    0.66    0.65
   2 -12  -4    0.19    1.96
   2 -12  -4   -0.16    0.89
   2 -13  -4    4.21    2.17
   2 -13  -4    4.36    2.17
  -2 -13   3    2.96    2.41
   2  13  -3    0.74    1.70
   2  13  -3    0.18    1.25
  -2 -12   3  107.23    6.95
   2  12  -3  111.80    7.52
   2  12  -3   98.10    9.43
  -2 -11   3    3.24    1.56
   2  11  -3    1.59    1.58
   2  11  -3    2.38    1.63
  -2 -10   3   46.08    3.54
   2  10  -3   42.79    3.56
  -2  -9   3    1.00    1.38
   2   9  -3    0.75    1.58
   2   9  -3    1.76    1.77
  -2  -8   3  329.78   12.98
   2   8  -3  355.58   13.93
   2   8  -3  339.82   14.21
  -2  -7   3    0.18    1.23
   2   7  -3   -0.71    1.64
  -2  -6   3   82.21    4.12
   2   6  -3   90.11    4.24
  -2  -5   3    3.78    2.08
   2   5  -3    2.83    1.36
  -2  -4   3  744.28   21.72
   2   4  -3  792.79   23.08
  -2  -3   3    0.80    0.82
   2   3  -3    2.99    1.62
  -2  -2   3   15.79    1.26
   2   2  -3   13.55    1.68
  -2  -1   3   16.28    1.19
   2   1  -3   14.54    1.39
  -2   0   3    1.01    0.64
   2   0  -3    1.61    1.31
  -2   1   3   19.63    4.33
   2  -1  -3   16.54    2.21
  -2   2   3   17.59    3.56
   2  -2  -3   17.52    3.58
  -2   3   3    0.53    0.70
   2  -3  -3    0.68    0.53
   2  -4  -3  883.61   25.19
   2  -4  -3  873.47   25.64
   2  -5  -3    4.89    1.18
   2  -5  -3    3.57    2.37
   2  -5  -3    4.45    2.09
   2  -6  -3   89.48    3.71
   2  -6  -3   92.05    4.43
   2  -6  -3   91.86    7.26
   2  -7  -3    1.94    1.09
   2  -7  -3   -0.78    1.58
   2  -7  -3    0.80    0.78
   2  -8  -3  361.35   13.80
   2  -8  -3  366.34   14.71
   2  -8  -3  336.97   14.17
   2  -9  -3   -0.34    1.34
   2  -9  -3    0.28    1.60
   2  -9  -3    1.62    1.22
   2 -10  -3   50.76    4.03
   2 -10  -3   49.34    4.45
   2 -10  -3   46.59    9.56
   2 -11  -3    3.57    0.78
   2 -11  -3    5.10    2.08
   2 -11  -3    0.63    0.73
   2 -12  -3  110.62   10.30
   2 -12  -3  113.08    8.07
   2 -12  -3  108.91   16.27
   2 -13  -3    1.70    1.36
   2 -13  -3    1.06    1.85
   2 -13  -3    1.11    0.94
  -2 -13   2    0.60    1.42
   2  13  -2   -0.20    1.80
   2  13  -2    1.77    0.79
  -2 -12   2  386.90   19.29
   2  12  -2  389.30   19.80
   2  12  -2  355.52   24.40
  -2 -11   2   17.01    2.33
   2  11  -2   14.23    2.40
   2  11  -2   17.21    3.62
  -2 -10   2  310.16   12.90
   2  10  -2  307.84   13.21
   2  10  -2  308.22   13.76
  -2  -9   2   -0.31    1.45
   2   9  -2    2.97    2.36
   2   9  -2   -1.31    1.72
  -2  -8   2  102.44    4.45
   2   8  -2   94.21    4.41
   2   8  -2  102.11    6.95
  -2  -7   2    2.62    1.26
   2   7  -2    4.95    2.45
   2   7  -2    2.07    1.67
  -2  -6   2   11.68    1.94
   2   6  -2    9.03    2.37
  -2  -5   2   48.36    2.86
   2   5  -2   52.09    2.93
  -2  -4   2   12.01    2.04
   2   4  -2   11.29    2.20
  -2  -3   2  117.66    4.14
   2   3  -2  128.34    4.59
  -2  -2   2   27.14    1.63
   2   2  -2   29.72    2.28
  -2  -1   2   -0.33    0.88
   2   1  -2    0.50    1.15
  -2   0   2 2031.02   42.58
   2   0  -2 2237.76   46.82
  -2   1   2   -1.63    0.73
   2  -1  -2   -0.64    0.98
  -2   2   2   26.68    1.41
   2  -2  -2   27.64    1.70
  -2   3   2  143.28    4.80
   2  -3  -2  156.55    5.34
   2  -4  -2    8.81    2.45
   2  -4  -2   10.84    1.90
   2  -4  -2    4.70    1.50
   2  -5  -2   50.07    3.26
   2  -5  -2   59.90    4.12
   2  -5  -2   52.14   10.73
   2  -6  -2    9.94    2.35
   2  -6  -2    8.22    2.05
   2  -6  -2   13.03    3.23
   2  -7  -2    1.47    1.00
   2  -7  -2    3.75    1.99
   2  -7  -2    2.64    1.25
   2  -8  -2  110.00    6.66
   2  -8  -2  108.46    5.03
   2  -8  -2   99.82   13.72
   2  -9  -2    1.42    0.74
   2  -9  -2   -0.90    1.43
   2  -9  -2    2.41    1.86
   2 -10  -2  310.26   14.39
   2 -10  -2  302.78   13.38
   2 -10  -2  322.67   29.72
   2 -11  -2   14.84    4.16
   2 -11  -2   20.15    2.74
   2 -11  -2   12.48    4.65
   2 -12  -2  402.35   19.57
   2 -12  -2  380.79   19.21
   2 -12  -2  385.33   19.70
   2 -13  -2   -2.04    1.21
   2 -13  -2   -1.26    1.71
   2 -13  -2    3.05    1.49
  -2 -13   1    6.13    2.32
   2  13  -1    4.41    2.10
   2  13  -1    5.35    1.44
  -2 -12   1    9.33    2.37
   2  12  -1    5.64    1.78
   2  12  -1    4.72    2.15
  -2 -11   1    4.44    2.32
   2  11  -1    6.26    1.22
  -2 -10   1  340.77   14.02
   2  10  -1  329.44   14.05
   2  10  -1  334.59   14.57
  -2  -9   1   17.10    2.33
   2   9  -1   19.94    3.05
   2   9  -1   20.33    5.04
  -2  -8   1   19.56    2.30
   2   8  -1   16.87    2.40
   2   8  -1   18.39    4.14
  -2  -7   1    1.44    1.72
   2   7  -1    1.06    1.61
   2   7  -1    1.68    1.32
  -2  -6   1   10.59    1.85
   2   6  -1    9.28    2.36
  -2  -5   1   25.97    2.52
   2   5  -1   27.60    2.77
  -2  -4   1   49.39    2.54
   2   4  -1   55.32    3.12
  -2  -3   1    2.27    1.80
   2   3  -1    2.83    1.66
  -2  -2   1 1913.97   40.65
   2   2  -1 1808.55   38.56
  -2  -1   1    1.12    0.97
   2   1  -1    2.17    1.37
  -2   2   1 2113.58   44.37
   2  -2  -1 2100.50   43.90
  -2   3   1    2.66    1.07
   2  -3  -1    2.49    1.21
   2  -3  -1    0.95    1.26
   2  -4  -1   55.31    3.57
   2  -4  -1   50.23   11.31
   2  -5  -1   28.53    2.84
   2  -5  -1   28.84    2.79
   2  -5  -1   30.10    6.28
   2  -6  -1    7.61    2.09
   2  -6  -1    2.29    1.56
   2  -6  -1    9.46    2.00
   2  -7  -1    0.26    0.47
   2  -7  -1    0.60    1.38
   2  -7  -1    1.31    1.72
  -2   7   1    2.48    2.26
   2  -8  -1   16.67    3.61
   2  -8  -1   18.75    2.92
   2  -8  -1   16.65    3.40
  -2   8   1   22.15    3.14
   2  -9  -1   21.45    5.09
   2  -9  -1   21.34    2.91
   2  -9  -1   20.18    4.51
  -2   9   1   22.53    4.07
   2 -10  -1  344.98   13.58
   2 -10  -1  336.83   14.11
   2 -10  -1  339.52   14.55
  -2  10   1  334.13   15.23
   2 -11  -1    4.83    1.56
   2 -11  -1   -0.24    1.82
   2 -11  -1    3.64    1.24
  -2  11   1    0.83    2.15
   2 -12  -1    6.72    2.20
   2 -12  -1    9.81    2.48
   2 -12  -1    6.25    2.57
   2 -13  -1    7.69    1.96
   2 -13  -1    3.30    1.84
   2 -13  -1    4.23    1.68
  -2 -13   0    0.28    1.59
   2  13   0    1.24    2.10
   2  13   0    2.34    2.78
  -2 -12   0  150.36    7.60
   2  12   0  138.21    7.48
   2  12   0  115.04    9.39
  -2 -11   0   -0.33    1.52
   2  11   0   -0.71    1.62
   2  11   0    0.19    0.76
   2  10   0  171.25    8.64
   2  10   0  181.07   11.52
  -2  -9   0    0.77    1.53
   2   9   0    3.67    2.01
   2   9   0    0.28    0.51
  -2  -8   0    2.96    1.68
   2   8   0    1.43    1.81
   2   8   0    3.54    1.94
  -2  -7   0    0.21    1.43
   2   7   0    1.18    1.72
   2   7   0    1.35    0.86
  -2  -5   0    0.26    1.28
   2   5   0    1.56    1.59
  -2  -4   0    0.24    1.15
   2   4   0    3.45    2.42
  -2  -3   0   -0.40    1.05
   2   3   0    0.79    1.66
   2   2   0  317.28    8.36
  -2   0   0  922.53   19.86
   2   0   0  917.04   19.83
  -2   1   0    0.25    0.48
   2  -1   0    1.18    1.07
  -2   2   0  378.26    8.79
   2  -2   0  361.25    8.47
   2  -2   0  358.78    9.51
  -2   3   0   -0.04    0.64
   2  -3   0    0.40    0.26
   2  -3   0   -0.06    1.20
  -2   4   0    1.78    0.90
   2  -4   0    1.49    0.74
   2  -4   0   -0.45    1.29
  -2   4   0    3.70    2.05
   2  -5   0   -0.15    0.89
   2  -5   0    0.90    1.24
   2  -5   0    0.45    0.74
  -2   5   0   -1.09    1.77
   2  -6   0 4579.10   87.90
   2  -6   0 4636.42   89.80
   2  -6   0 4729.09   27.61
  -2   6   0 4782.07   28.09
   2  -7   0    1.40    1.09
   2  -7   0    1.25    1.27
   2  -7   0   -1.45    1.67
  -2   7   0    1.37    1.93
   2  -8   0    4.62    1.39
   2  -8   0    0.91    1.35
   2  -8   0    1.58    0.99
  -2   8   0    7.09    2.96
   2  -9   0    0.75    0.80
   2  -9   0    1.04    1.47
   2  -9   0    1.82    1.44
  -2   9   0    3.09    2.67
   2 -10   0  190.88   10.08
   2 -10   0  204.24    9.67
   2 -10   0  154.93   21.18
  -2  10   0  172.15    9.49
   2 -11   0   -2.13    1.20
   2 -11   0   -0.49    1.66
   2 -11   0    0.49    1.33
  -2  11   0    0.00    1.81
   2 -12   0  144.16   10.75
   2 -12   0  150.30    7.45
   2 -12   0  133.67   16.35
  -2  12   0  129.92    7.84
   2 -13   0    0.35    0.80
   2 -13   0   -0.74    1.64
   2 -13   0    0.17    1.69
  -2  13   0    0.92    2.59
  -2 -13  -1    5.44    2.16
   2  13   1    5.19    3.03
   2  13   1    5.06    2.34
  -2 -12  -1    5.83    2.12
   2  12   1    8.88    2.79
   2  12   1    7.61    2.11
  -2 -11  -1    5.00    2.35
   2  11   1    4.40    2.01
   2  11   1    4.06    1.60
   2  10   1  312.92   13.52
   2  10   1  319.80   13.73
  -2  -9  -1   19.85    2.54
   2   9   1   15.24    2.73
   2   9   1   20.74    6.11
  -2  -8  -1   23.37    3.13
   2   8   1   18.99    3.20
   2   8   1   21.75    5.77
  -2  -7  -1    4.85    2.73
   2   7   1   -1.24    1.77
   2   7   1    0.96    0.70
  -2  -6  -1    8.97    2.01
   2   6   1    5.23    1.89
   2   6   1    9.78    2.98
  -2  -5  -1   31.87    2.83
   2   5   1   30.51    3.01
   2   5   1   25.98    2.19
  -2  -4  -1   53.49    2.85
   2   4   1   50.07    2.92
  -2  -3  -1    1.56    1.12
   2   3   1    0.84    1.64
  -2  -2  -1 2029.22   43.12
   2   2   1 2039.23   43.52
  -2  -1  -1    0.01    1.10
   2   1   1    0.38    1.40
  -2   0  -1   -0.05    0.87
   2   0   1    5.63    1.69
  -2   1  -1   -0.15    0.74
   2  -1   1    0.68    1.00
   2  -1   1   -0.30    1.22
  -2   3  -1    2.08    0.94
   2  -3   1    2.03    0.83
   2  -3   1    4.12    1.53
  -2   3  -1    1.74    1.45
  -2   4  -1   58.66    3.69
   2  -4   1   53.50    5.15
   2  -4   1   51.60   11.10
  -2   4  -1   57.74    3.41
   2  -5   1   29.04    3.40
   2  -5   1   30.72    2.46
   2  -5   1   31.87    6.85
  -2   5  -1   29.32    6.49
   2  -6   1    8.70    2.18
   2  -6   1    6.52    1.54
   2  -6   1   10.55    2.04
  -2   6  -1    5.24    1.73
   2  -7   1   -0.27    0.87
   2  -7   1    2.04    1.34
   2  -7   1    1.28    0.96
  -2   7  -1    0.14    0.79
   2  -8   1   18.00    5.28
   2  -8   1   17.76    2.01
   2  -8   1   20.59    4.30
  -2   8  -1   21.88    3.56
   2  -9   1   18.55    4.40
   2  -9   1   17.94    2.29
   2  -9   1   17.35    3.96
  -2   9  -1   23.15    4.08
   2 -10   1  358.96   13.84
   2 -10   1  361.67   14.61
  -2  10  -1  334.37   15.11
   2 -11   1    2.68    1.03
   2 -11   1    6.97    2.53
   2 -11   1    4.32    2.48
  -2  11  -1    0.27    0.98
   2 -12   1    9.38    2.40
   2 -12   1   11.13    2.24
   2 -12   1    8.37    2.60
  -2  12  -1   10.85    2.47
   2 -13   1    3.33    1.44
   2 -13   1    4.50    1.97
   2 -13   1    4.76    2.25
  -2  13  -1    7.10    3.09
  -2 -13  -2   -2.93    1.72
   2  13   2    0.23    2.32
   2  13   2    3.21    2.06
  -2 -12  -2  398.55   19.95
   2  12   2  350.99   18.55
   2  12   2  365.49   19.05
  -2 -11  -2   15.99    2.87
   2  11   2   15.48    2.94
   2  11   2   15.99    4.35
  -2 -10  -2  304.33   12.90
   2  10   2  303.93   13.54
   2  10   2  315.61   13.58
  -2  -9  -2   -0.95    1.46
   2   9   2    2.87    1.87
   2   9   2    0.85    1.09
  -2  -8  -2  113.18    5.02
   2   8   2  116.07    5.75
   2   8   2   97.27    5.62
  -2  -7  -2    0.37    1.36
   2   7   2    4.55    2.75
   2   7   2    3.09    1.63
  -2  -6  -2   10.60    2.09
   2   6   2    9.44    2.19
   2   6   2   11.81    3.40
  -2  -5  -2   57.85    3.80
   2   5   2   53.96    3.25
   2   5   2   52.55    2.74
  -2  -4  -2    9.16    1.47
   2   4   2   10.04    2.38
   2   4   2   12.22    2.70
  -2  -3  -2  149.23    4.88
   2   3   2  148.70    5.24
  -2  -2  -2   27.21    1.80
   2   2   2   30.01    2.44
  -2  -1  -2   -1.57    1.12
   2   1   2   -0.64    1.40
  -2   1  -2    0.22    0.69
   2  -1   2    0.15    0.91
   2  -1   2   -0.61    1.08
  -2   1  -2    0.13    1.10
  -2   2  -2   30.54    1.45
   2  -2   2   26.51    1.41
   2  -2   2   29.77    5.70
  -2   2  -2   30.54    2.60
  -2   3  -2  137.35    4.13
   2  -3   2  135.87    3.78
   2  -3   2  147.98    7.28
  -2   3  -2  151.90    7.59
  -2   4  -2    8.76    0.94
   2  -4   2   11.37    2.66
   2  -4   2   12.74    3.06
  -2   4  -2   13.12    2.86
   2  -5   2   54.08    2.27
   2  -5   2   60.61    3.27
   2  -5   2   62.24   10.87
  -2   5  -2   63.28    9.99
   2  -6   2   10.64    2.37
   2  -6   2    9.88    1.84
   2  -6   2   13.34    3.42
  -2   6  -2   10.79    3.46
   2  -7   2    2.79    1.41
   2  -7   2    2.05    1.30
   2  -7   2    6.03    2.51
  -2   7  -2    3.00    1.30
   2  -8   2  101.20    9.99
   2  -8   2  106.88    5.21
   2  -8   2  105.73   13.35
  -2   8  -2  116.48    9.89
   2  -9   2    0.39    0.47
   2  -9   2   -1.83    1.44
   2  -9   2    0.59    1.66
  -2   9  -2    0.17    2.28
   2 -10   2  330.43   12.68
   2 -10   2  324.08   13.24
   2 -10   2  307.17   13.58
  -2  10  -2  319.80   14.56
   2 -11   2   15.44    3.28
   2 -11   2   18.77    2.84
   2 -11   2   23.29    3.60
  -2  11  -2   13.53    2.81
   2 -12   2  424.85   20.04
   2 -12   2  433.39   21.10
   2 -12   2  372.28   19.49
  -2  12  -2  342.19   18.57
   2 -13   2    0.70    0.71
   2 -13   2   -1.48    1.56
  -2  13  -2    2.34    1.38
  -2 -13  -3    3.20    2.13
   2  13   3   -1.40    2.34
   2  13   3    1.95    2.55
  -2 -12  -3  109.50    7.44
   2  12   3  112.49    8.50
   2  12   3   87.56   13.73
  -2 -11  -3    4.83    2.31
   2  11   3    0.87    1.96
   2  11   3    5.60    1.36
  -2 -10  -3   47.36    3.80
   2  10   3   43.09    3.94
   2  10   3   48.31    6.42
  -2  -9  -3   -0.89    1.47
   2   9   3   -0.51    1.72
   2   9   3    1.86    1.54
  -2  -8  -3  362.19   14.33
   2   8   3  356.73   14.69
   2   8   3  376.33   14.59
  -2  -7  -3   -0.55    1.42
   2   7   3    1.87    2.03
   2   7   3   -0.01    1.08
  -2  -6  -3   95.72    5.07
   2   6   3   95.85    5.51
   2   6   3   91.87    5.03
  -2  -5  -3    4.49    2.02
   2   5   3    3.03    1.76
   2   5   3    1.20    0.59
  -2  -4  -3  992.70   28.64
   2   4   3  917.20   26.85
   2   4   3  948.03   26.01
  -2  -3  -3   -1.03    1.09
   2   3   3   -0.24    1.42
  -2  -2  -3   14.24    1.46
   2   2   3   15.71    1.98
  -2  -1  -3   14.55    1.60
   2   1   3   16.68    1.85
   2   1   3   18.69    2.77
  -2   0  -3    0.26    0.78
   2   0   3   -0.44    1.05
   2   0   3   -0.15    0.60
  -2   0  -3    1.00    0.75
  -2   1  -3   14.53    1.14
   2  -1   3   12.78    1.62
   2  -1   3   22.08    4.20
  -2   1  -3   20.56    5.14
  -2   2  -3   16.89    2.05
   2  -2   3   13.74    1.15
   2  -2   3   20.37    4.95
  -2   2  -3   20.83    4.59
  -2   3  -3    0.25    0.35
   2  -3   3    0.11    0.60
   2  -3   3    1.04    0.50
  -2   3  -3    1.02    0.44
   2  -4   3  876.19   24.33
   2  -4   3  944.21   26.49
   2  -4   3  934.18   27.41
  -2   4  -3 1038.21   30.48
   2  -5   3    4.45    1.04
   2  -5   3    4.11    1.12
   2  -5   3    5.73    1.61
  -2   5  -3    2.68    1.42
   2  -6   3   97.20    5.28
   2  -6   3   98.12    3.86
   2  -6   3   98.99    5.86
  -2   6  -3  105.06    9.13
   2  -7   3    1.82    0.96
   2  -7   3   -0.07    0.97
   2  -7   3    0.62    1.24
  -2   7  -3    1.45    1.07
   2  -8   3  348.73   12.63
   2  -8   3  383.08   14.30
   2  -8   3  352.11   15.03
  -2   8  -3  368.39   18.90
   2  -9   3    1.11    0.54
   2  -9   3    1.44    1.63
   2  -9   3    2.52    1.33
  -2   9  -3   -0.01    2.33
   2 -10   3   46.44    5.92
   2 -10   3   50.26    3.48
   2 -10   3   46.41    4.54
  -2  10  -3   51.25    9.31
   2 -11   3    2.01    0.92
   2 -11   3    4.20    2.15
   2 -11   3   -0.62    2.03
  -2  11  -3    0.95    1.00
   2 -12   3  116.09    8.12
   2 -12   3  125.15    7.90
  -2  12  -3  106.84   13.71
   2 -13   3    0.03    0.63
   2 -13   3    1.50    2.09
  -2  13  -3   -0.91    2.12
   2  13   4    5.87    2.82
  -2 -12  -4   -0.49    1.66
   2  12   4   -0.75    2.19
  -2 -11  -4    4.08    1.91
   2  11   4   -2.25    1.82
   2  11   4    2.44    2.18
  -2 -10  -4   20.65    2.67
   2  10   4   17.72    3.11
   2  10   4   23.26    3.15
  -2  -9  -4    1.85    1.76
   2   9   4    3.17    2.02
   2   9   4    0.43    1.08
  -2  -8  -4  280.06   16.39
   2   8   4  273.81   16.53
   2   8   4  252.07   14.71
  -2  -7  -4   62.69    4.46
   2   7   4   68.22    4.81
  -2  -6  -4 1027.52   32.80
   2   6   4 1039.36   33.65
  -2  -5  -4    4.67    1.78
   2   5   4    4.65    2.51
  -2  -4  -4  152.79    5.33
   2   4   4  140.87    5.49
  -2  -3  -4   15.03    1.78
   2   3   4   16.66    2.20
  -2  -2  -4   41.47    2.25
   2   2   4   44.39    2.62
  -2  -1  -4   76.87    3.33
   2   1   4   81.42    3.51
  -2  -1  -4   93.90    3.30
  -2   0  -4  108.06    3.76
   2   0   4  122.47    3.92
   2   0   4  128.48    3.99
  -2   0  -4  136.93    4.95
   2  -1   4   86.78    3.55
   2  -1   4   86.69    3.65
  -2   2  -4   36.94    1.93
   2  -2   4   29.86    1.83
   2  -2   4   36.91    2.89
  -2   2  -4   39.01    4.11
  -2   3  -4   15.67    1.16
   2  -3   4    9.68    1.12
   2  -3   4   18.19    3.84
  -2   3  -4   18.96    5.52
   2  -4   4  133.72    3.54
   2  -4   4  152.70    4.11
   2  -4   4  141.31    5.57
  -2   4  -4  147.18    5.78
   2  -5   4    8.57    1.76
   2  -5   4    4.95    0.89
   2  -5   4    5.06    1.71
  -2   5  -4    6.01    1.46
   2  -6   4  988.98   30.27
   2  -6   4  997.93   30.72
   2  -6   4  970.91   31.64
  -2   6  -4 1031.18   33.66
   2  -7   4   63.26    3.91
   2  -7   4   68.96    3.53
   2  -7   4   67.09    5.07
  -2   7  -4   63.72    9.41
   2  -8   4  303.14   16.64
   2  -8   4  288.91   16.15
   2  -8   4  283.59   17.16
  -2   8  -4  285.94   19.41
   2  -9   4    0.59    0.55
   2  -9   4    0.92    0.98
   2  -9   4    1.41    1.94
  -2   9  -4    0.34    0.92
   2 -10   4   23.98    2.82
   2 -10   4   30.83    2.80
  -2  10  -4   23.48    3.82
   2 -11   4    0.73    0.55
   2 -11   4   -0.48    1.20
  -2  11  -4    0.57    2.12
   2 -12   4    0.18    0.51
   2 -12   4   -0.49    1.18
  -2  12  -4    1.60    1.63
   2 -13   4    4.94    1.15
   2 -13   4    6.87    1.78
  -2  13  -4    3.56    1.49
  -2 -12  -5    0.47    1.64
   2  12   5    2.38    2.19
  -2 -11  -5    3.58    2.46
   2  11   5    2.05    2.10
  -2 -10  -5  603.54   15.47
   2  10   5  569.02   16.06
  -2  -9  -5   10.26    2.28
   2   9   5   13.06    2.55
  -2  -8  -5   79.95    6.12
   2   8   5   79.24    6.23
  -2  -7  -5    2.87    1.65
   2   7   5    1.86    1.81
  -2  -6  -5    4.59    1.76
   2   6   5    8.92    2.47
  -2  -5  -5    2.83    2.10
   2   5   5    3.65    2.53
  -2  -4  -5  274.69    7.89
   2   4   5  285.57    8.49
  -2  -3  -5    9.90    1.58
   2   3   5   12.28    2.36
  -2  -2  -5 2388.56   65.90
   2   2   5 2325.38   64.19
  -2  -1  -5   12.52    1.71
   2   1   5   13.33    1.72
  -2  -1  -5   16.57    3.03
  -2   0  -5   -0.29    0.82
   2   0   5    0.75    1.18
  -2   0  -5    0.86    0.64
  -2   1  -5   11.71    1.18
   2  -1   5   14.35    1.35
  -2   1  -5   14.35    4.10
  -2   2  -5 1950.17   52.80
   2  -2   5 2168.78   58.85
  -2   2  -5 2409.38   66.56
  -2   3  -5   11.44    1.51
   2  -3   5    6.05    1.02
  -2   3  -5    6.22    2.29
  -2   4  -5  284.81    8.73
   2  -5   5    1.56    0.84
   2  -5   5    1.37    0.58
  -2   5  -5    5.70    1.96
   2  -6   5    6.32    1.22
   2  -6   5    5.53    1.09
  -2   6  -5    7.18    2.05
   2  -7   5    2.17    0.69
   2  -7   5    4.08    1.33
  -2   7  -5    2.41    0.88
   2  -8   5   77.87    5.23
   2  -8   5   87.89    5.56
  -2   8  -5   67.50    9.62
   2  -9   5   12.66    2.23
   2  -9   5   13.44    1.75
  -2   9  -5   14.28    3.63
   2 -10   5  614.23   12.86
   2 -10   5  622.21    8.48
  -2  10  -5  607.52   17.59
   2 -11   5    0.87    0.51
   2 -11   5    0.30    0.96
  -2  11  -5    0.04    0.97
   2 -12   5    1.89    1.10
   2 -12   5    0.63    1.11
  -2  12  -5   -2.85    2.37
   2  12   6   11.55    4.09
  -2 -11  -6    4.44    2.40
   2  11   6    6.91    2.40
  -2 -10  -6  299.62   11.59
   2  10   6  298.50   12.31
  -2  -9  -6    0.53    1.60
   2   9   6    1.78    2.01
  -2  -8  -6   93.04    5.66
   2   8   6   91.63    6.21
  -2  -7  -6    1.01    1.64
   2   7   6   -1.72    1.74
  -2  -6  -6 1049.61   36.70
   2   6   6 1045.08   36.97
  -2  -5  -6    2.85    2.09
   2   5   6    2.98    1.63
  -2  -4  -6   84.95    4.53
   2   4   6   82.00    4.51
  -2  -3  -6   -0.73    1.07
   2   3   6    0.10    1.29
  -2  -2  -6 1124.61   23.71
   2   2   6 1142.48   24.07
  -2  -2  -6 1232.96   23.89
  -2  -1  -6    2.39    1.44
   2   1   6    2.32    1.54
  -2  -1  -6    3.15    0.95
  -2   0  -6   54.39    2.43
   2   0   6   64.02    2.46
  -2   0  -6   64.65    2.99
  -2   1  -6    1.26    0.92
   2  -1   6    0.32    0.60
  -2   1  -6    2.42    1.14
   2  -2   6 1162.91   22.53
  -2   2  -6 1204.06   26.13
  -2   3  -6   -0.58    3.99
  -2   4  -6   87.89    5.08
  -2   5  -6    1.72    1.04
   2  -7   6   -0.17    0.51
   2  -7   6    0.08    0.52
  -2   7  -6    0.54    0.87
   2  -8   6   90.46    4.13
   2  -8   6   90.91    3.99
  -2   8  -6   93.92    8.11
   2  -9   6    0.18    0.73
   2  -9   6    1.30    1.10
  -2   9  -6    1.64    1.43
   2 -10   6  315.93    9.41
   2 -10   6  316.53    9.87
  -2  10  -6  343.10   21.27
   2 -11   6    4.73    1.15
   2 -11   6    6.14    1.47
  -2  11  -6    1.08    2.40
   2 -12   6    5.85    1.74
  -2  12  -6    7.53    2.81
  -2 -11  -7    0.13    1.58
   2  11   7    1.27    2.17
  -2 -10  -7   34.76    4.06
   2  10   7   36.86    4.49
  -2  -9  -7    6.26    1.92
   2   9   7    7.92    2.55
  -2  -8  -7   55.65    3.79
   2   8   7   61.09    4.76
  -2  -7  -7    0.37    1.49
   2   7   7    0.24    1.59
  -2  -6  -7   55.18    4.57
   2   6   7   50.77    4.75
  -2  -5  -7    2.59    1.38
   2   5   7    3.10    2.22
  -2  -4  -7  244.79   10.01
   2   4   7  249.54   10.52
  -2  -3  -7   10.54    1.85
   2   3   7    7.66    2.13
  -2  -2  -7  273.46   10.47
   2   2   7  278.17   10.32
  -2  -2  -7  276.07    9.11
  -2  -1  -7   -0.30    0.77
   2   1   7    0.39    0.96
  -2  -1  -7   -0.03    0.62
   2   0   7    1.19    1.05
  -2   0  -7    1.31    0.59
  -2   1  -7   -0.25    0.49
   2  -1   7    1.17    0.87
  -2   1  -7    0.59    0.71
  -2   2  -7  247.47    7.77
  -2   2  -7  305.91   11.63
  -2   3  -7    5.67    1.99
  -2   4  -7  253.91   10.99
  -2   5  -7    2.78    1.14
  -2   6  -7   52.84   10.55
  -2   7  -7   -1.32    1.66
  -2   8  -7   57.51   16.85
   2  -9   7    6.38    0.88
   2  -9   7    2.60    0.83
  -2   9  -7    6.73    1.71
   2 -10   7   33.95    2.21
   2 -10   7   38.50    2.79
  -2  10  -7   29.55    7.45
   2 -11   7    1.90    0.57
  -2  11  -7    5.33    2.36
   2  11   8    1.79    2.18
  -2 -10  -8    4.35    2.39
   2  10   8    2.81    2.14
  -2  -9  -8    1.44    2.09
   2   9   8    3.24    2.69
  -2  -8  -8  491.37   18.77
   2   8   8  456.67   18.41
  -2  -7  -8    9.59    1.99
   2   7   8   12.49    2.80
  -2  -6  -8   48.48    3.52
   2   6   8   50.78    3.99
  -2  -5  -8    2.91    1.33
   2   5   8   -1.44    1.40
  -2  -4  -8  401.27   22.20
   2   4   8  411.33   22.97
  -2  -3  -8   -1.05    0.93
   2   3   8    1.28    1.76
  -2  -2  -8  110.09    3.97
   2   2   8   98.82    3.84
  -2  -2  -8  107.46    2.67
  -2  -1  -8   20.47    1.91
   2   1   8   23.06    2.27
  -2  -1  -8   26.15    5.92
   2   0   8  298.08   11.02
  -2   0  -8  297.30   11.35
  -2   1  -8   20.19    1.41
   2  -1   8   21.48    1.47
  -2   1  -8   22.24    6.07
  -2   2  -8  106.07    6.54
  -2   3  -8   -1.10    1.45
  -2   4  -8  438.04   24.93
  -2   5  -8    1.41    1.04
  -2   6  -8   42.19   13.75
  -2   7  -8   11.16    2.84
  -2   8  -8  505.49   20.58
  -2   9  -8    2.62    2.41
  -2  10  -8    2.85    2.45
  -2  11  -8   -0.43    2.09
  -2 -10  -9    7.67    2.75
   2  10   9   11.41    3.77
  -2  -9  -9   -0.10    1.35
   2   9   9    0.92    1.96
  -2  -8  -9   20.52    2.76
   2   8   9   16.74    3.11
  -2  -7  -9    3.11    1.99
   2   7   9    5.70    2.66
  -2  -6  -9   48.39    3.50
   2   6   9   50.38    4.23
  -2  -5  -9   -0.27    1.11
   2   5   9    2.70    2.17
  -2  -4  -9  178.39    6.24
   2   4   9  170.87    6.44
  -2  -3  -9    2.54    1.68
   2   3   9   -0.79    1.15
  -2  -2  -9   49.01    2.80
   2   2   9   55.71    4.38
  -2  -2  -9   55.14    4.05
  -2  -1  -9   -0.34    0.80
   2   1   9    1.35    1.40
  -2  -1  -9    0.34    0.70
  -2   0  -9    1.10    0.76
   2   0   9    1.00    0.82
  -2   0  -9    1.64    1.15
  -2   1  -9    0.35    0.23
  -2   1  -9    1.54    0.83
  -2   1  -9    1.20    0.57
  -2   2  -9   49.37    7.28
  -2   3  -9    2.96    1.66
  -2   4  -9  186.35   11.12
  -2   5  -9    2.18    1.78
  -2   6  -9   52.04    5.48
  -2   7  -9    6.27    1.80
  -2   8  -9   18.96    4.81
  -2   9  -9    2.86    1.92
  -2  10  -9    5.93    2.34
  -2  -9 -10    1.29    2.06
   2   9  10    1.13    1.85
  -2  -8 -10   28.65    3.58
   2   8  10   25.06    4.08
  -2  -7 -10    0.82    1.34
   2   7  10   -0.57    1.82
  -2  -6 -10  216.79   11.55
   2   6  10  250.10   13.84
  -2  -5 -10    5.21    1.81
   2   5  10    0.85    1.46
  -2  -4 -10  100.98    4.92
   2   4  10   99.94    5.30
  -2  -3 -10   11.06    2.16
   2   3  10   12.05    2.20
  -2  -3 -10   12.48    2.19
  -2  -2 -10  398.09    8.71
   2   2  10  398.94    9.08
  -2  -2 -10  440.63    8.20
  -2  -1 -10    0.69    1.02
  -2  -1 -10   -0.14    0.72
  -2   0 -10   15.81    3.00
  -2   0 -10   15.03    1.75
  -2   0 -10   15.40    4.15
  -2   1 -10    0.52    0.34
  -2   1 -10    1.81    0.71
  -2   1 -10    1.02    0.71
  -2   2 -10  445.57   10.57
  -2   3 -10    9.93    3.11
  -2   4 -10   99.87    5.66
  -2   5 -10    4.81    2.01
  -2   6 -10  230.81   13.03
  -2   7 -10    2.15    2.23
  -2   8 -10   23.88    6.37
  -2   9 -10    0.61    0.92
  -2  -7 -11    0.05    1.42
   2   7  11   -0.21    1.86
  -2  -6 -11    0.17    1.25
   2   6  11    0.31    1.62
  -2  -5 -11    4.92    1.95
  -2  -4 -11   78.25    5.43
   2   4  11   67.49    5.09
  -2  -3 -11    1.10    1.18
  -2  -3 -11    0.47    0.34
  -2  -2 -11  576.99   20.04
  -2  -2 -11  540.52   19.27
  -2  -2 -11  584.86   20.09
  -2  -1 -11    1.15    0.69
  -2  -1 -11   -0.41    0.93
  -2  -1 -11    1.88    0.53
  -2   0 -11    0.10    0.26
  -2   0 -11   -0.15    0.71
  -2   0 -11    2.03    0.85
  -2   1 -11   -2.11    1.00
  -2   2 -11  605.80   22.18
  -2   3 -11   -0.77    1.31
  -2   4 -11   77.86   11.99
  -2   5 -11    3.14    1.28
  -2   6 -11    0.79    1.16
  -2   7 -11    1.37    1.30
  -2  -5 -12    0.41    0.33
  -2  -5 -12    0.04    1.28
  -2  -4 -12   22.31    5.70
  -2  -4 -12   33.24    3.15
  -2  -3 -12    1.19    0.65
  -2  -3 -12    1.65    1.44
  -2  -3 -12    1.65    0.58
  -2  -2 -12    6.37    1.38
  -2  -2 -12    3.40    1.44
  -2  -2 -12    5.75    1.46
  -2  -1 -12    1.53    0.53
  -2  -1 -12    0.73    1.24
  -2  -1 -12    1.53    0.73
  -2   0 -12    8.10    1.77
  -2   0 -12   11.01    1.39
  -2   0 -12    9.09    2.17
  -2   1 -12    1.35    0.74
  -2   2 -12    4.16    1.92
  -2   3 -12    0.50    1.34
  -2   4 -12   22.87    6.82
  -2   5 -12   -0.48    1.35
  -2  -2 -13   10.60    2.50
  -2  -2 -13   15.67    2.36
  -2  -1 -13    3.21    0.93
  -2  -1 -13    2.11    1.36
  -2  -1 -13    3.58    1.52
  -2   0 -13   -0.72    0.87
  -2   1 -13    2.39    0.78
   3   4 -12    0.39    0.94
   3   4 -12    2.56    1.48
   3   3 -12    1.95    1.47
   3   3 -12    0.32    0.89
   3   2 -12    5.24    1.90
   3   2 -12    0.27    0.87
   3   1 -12   62.01    4.09
   3   1 -12   56.44    4.06
   3   0 -12    2.18    1.37
   3   0 -12    1.48    1.50
   3  -1 -12   65.53    4.33
   3  -1 -12   57.52    4.37
   3  -2 -12    1.68    1.37
   3  -2 -12    0.29    1.15
   3  -3 -12    1.93    1.41
   3  -3 -12   -1.13    1.22
   3  -4 -12   -0.99    1.03
   3  -4 -12   -0.75    1.29
  -3  -6  11   -0.03    0.39
   3   6 -11    1.18    1.03
   3   5 -11    2.95    1.46
   3   4 -11    2.85    1.77
   3   3 -11   20.65    2.67
   3   3 -11   10.31    1.85
   3   2 -11    1.41    1.35
   3   2 -11    1.72    0.97
   3   1 -11   95.11    5.59
   3   1 -11  105.60    6.50
   3   0 -11   -0.37    0.90
   3   0 -11   -0.07    1.19
   3  -1 -11  101.95    6.13
   3  -1 -11   97.81    6.56
   3  -2 -11    2.44    1.51
   3  -2 -11    1.72    1.31
   3  -3 -11   14.87    4.10
   3  -3 -11   15.95    2.83
   3  -4 -11    0.77    0.64
   3  -4 -11   -0.32    1.54
   3  -5 -11    6.13    1.59
   3  -5 -11   10.15    2.88
   3  -6 -11    1.85    1.06
   3  -6 -11   -1.01    1.61
  -3  -8  10    1.11    1.00
   3   8 -10    0.84    0.86
  -3  -7  10   54.30    5.78
   3   7 -10   56.01    3.76
  -3  -6  10    0.68    0.57
   3   6 -10   -0.02    0.84
  -3  -5  10  339.62   15.74
   3   5 -10  374.97   17.95
  -3  -4  10   10.03    2.36
   3   4 -10   13.44    2.36
  -3  -3  10   10.83    2.92
   3   3 -10   11.11    2.10
  -3  -2  10    3.15    1.29
   3   2 -10    3.02    1.67
   3   1 -10    9.17    1.56
   3   0 -10   33.41    2.57
   3   0 -10   32.86    2.97
   3  -1 -10    7.66    1.75
   3  -1 -10   11.46    2.67
   3  -2 -10    1.84    1.11
   3  -2 -10    4.55    2.17
   3  -3 -10   11.37    2.76
   3  -3 -10   14.00    2.49
   3  -4 -10   11.13    2.29
   3  -4 -10   10.21    2.50
   3  -5 -10  345.88   19.24
   3  -5 -10  334.13   17.17
   3  -6 -10    1.33    0.70
   3  -6 -10    3.09    2.06
   3  -7 -10   44.66   12.00
   3  -7 -10   51.23    5.22
   3  -7 -10   51.14    4.98
   3  -8 -10    3.66    1.21
   3  -8 -10    3.48    2.51
   3  -8 -10    2.02    1.59
  -3  -9   9   26.67    6.94
   3   9  -9   34.13    2.87
   3   9  -9   35.74    5.27
   3   8  -9   16.07    2.26
  -3  -7   9  135.65    7.46
   3   7  -9  142.57    7.81
  -3  -6   9    0.37    0.48
   3   6  -9    2.15    1.67
  -3  -5   9  189.92    5.60
   3   5  -9  206.25    6.83
  -3  -4   9   27.45    6.32
   3   4  -9   27.73    2.84
  -3  -3   9   53.24    4.75
   3   3  -9   51.27    3.31
  -3  -2   9    0.86    0.68
   3   2  -9    0.69    1.02
  -3  -1   9  162.66   11.27
   3   1  -9  141.24    6.49
  -3   0   9    0.58    0.73
   3   0  -9    1.88    1.07
   3  -1  -9  145.50    6.73
   3  -1  -9  155.75    8.00
   3  -2  -9   -1.37    1.11
   3  -2  -9    0.72    1.65
   3  -3  -9   48.43   10.92
   3  -3  -9   56.64    4.24
   3  -4  -9   26.48    6.03
   3  -4  -9   26.05    3.30
   3  -5  -9  200.85    8.16
   3  -6  -9    1.22    0.95
   3  -6  -9    0.37    1.70
   3  -7  -9  132.56   10.30
   3  -7  -9  159.11    9.98
   3  -7  -9  129.02    8.86
   3  -8  -9   12.30    2.38
   3  -8  -9   14.77    3.46
   3  -8  -9   13.32    3.24
   3  -9  -9   32.40    7.97
   3  -9  -9   28.13    3.52
   3  -9  -9   20.58    6.56
  -3 -10   8    4.39    2.30
   3  10  -8    1.75    1.70
   3  10  -8    4.17    1.93
  -3  -9   8  122.17    5.73
   3   9  -8  150.39    6.50
   3   9  -8  125.30    8.63
  -3  -8   8    0.05    1.24
   3   8  -8    2.18    1.33
  -3  -7   8  168.40    7.43
   3   7  -8  169.57    7.61
  -3  -6   8   16.70    4.80
   3   6  -8   15.54    2.43
  -3  -5   8  131.40    5.92
   3   5  -8  145.54    5.51
  -3  -4   8    2.67    0.88
   3   4  -8    2.30    1.39
  -3  -3   8  324.44   17.83
   3   3  -8  303.87   17.06
  -3  -2   8    5.74    1.13
   3   2  -8    3.33    1.78
  -3  -1   8  775.00   41.73
   3   1  -8  720.04   38.70
  -3   0   8   -1.11    1.02
   3   0  -8    0.09    1.11
  -3   1   8  854.01   45.97
   3  -1  -8  771.00   41.47
   3  -2  -8    3.72    1.12
   3  -2  -8    4.56    2.43
   3  -3  -8  338.53   18.83
   3  -3  -8  338.99   19.53
   3  -4  -8    1.69    0.51
   3  -4  -8    2.00    1.82
   3  -5  -8  146.39   10.89
   3  -5  -8  149.44    7.16
   3  -6  -8   14.64    2.58
   3  -6  -8   16.81    2.73
   3  -7  -8  193.07   10.85
   3  -7  -8  194.31    9.93
   3  -7  -8  172.38    9.30
   3  -8  -8    1.38    0.71
   3  -8  -8    4.04    2.15
   3  -8  -8    2.13    1.25
   3  -9  -8  138.29   12.68
   3  -9  -8  138.02    7.59
   3  -9  -8   98.96   24.05
   3 -10  -8    1.01    1.45
   3 -10  -8    0.83    1.93
   3 -10  -8    0.81    0.85
  -3 -11   7    2.97    1.87
   3  11  -7    8.08    2.58
   3  11  -7    4.52    1.26
  -3 -10   7   15.28    2.70
   3  10  -7   15.55    2.58
   3  10  -7    9.47    2.87
  -3  -9   7   58.02    3.89
   3   9  -7   70.26    4.38
   3   9  -7   70.22    6.36
  -3  -8   7    3.18    1.90
   3   8  -7    4.02    1.92
  -3  -7   7  113.54    4.69
   3   7  -7   93.86    4.51
  -3  -6   7    2.15    1.55
   3   6  -7    3.25    2.17
  -3  -5   7  148.36    8.80
   3   5  -7  160.60    9.96
  -3  -4   7    6.91    1.58
   3   4  -7    4.21    2.06
  -3  -3   7   20.94    4.95
   3   3  -7   18.25    2.35
  -3  -2   7   55.36    3.14
   3   2  -7   48.77    2.71
  -3  -1   7  141.95    7.91
   3   1  -7  139.49    6.01
  -3   0   7    0.22    0.58
   3   0  -7    0.74    1.15
  -3   1   7  147.68    9.38
   3  -1  -7  145.25    6.18
  -3   2   7   66.26    3.77
   3  -2  -7   63.89    8.30
   3  -3  -7   24.32    4.79
   3  -3  -7   21.63    2.73
   3  -4  -7    7.44    1.47
   3  -4  -7    3.84    2.64
   3  -5  -7  164.18   12.03
   3  -5  -7  173.61   11.21
   3  -6  -7    2.05    0.73
   3  -6  -7    0.84    1.80
   3  -7  -7  116.02    6.65
   3  -7  -7  101.80    5.98
   3  -7  -7  102.80    6.23
   3  -8  -7    4.62    1.31
   3  -8  -7    5.90    2.14
   3  -8  -7    4.82    2.35
   3  -9  -7   71.48    5.99
   3  -9  -7   68.63    5.61
   3  -9  -7   55.93   14.52
   3 -10  -7    8.86    2.59
   3 -10  -7   16.74    4.02
   3 -10  -7    9.73    2.67
   3 -11  -7    5.07    2.05
   3 -11  -7    2.68    2.10
  -3 -11   6   59.64    4.61
   3  11  -6   56.71    4.61
   3  11  -6   40.58   11.02
  -3 -10   6    1.00    1.24
   3  10  -6    1.36    1.36
   3  10  -6    0.53    1.11
  -3  -9   6    2.70    1.44
   3   9  -6    8.21    3.01
   3   9  -6    2.56    2.23
  -3  -8   6    1.19    1.42
   3   8  -6   -1.22    1.35
  -3  -7   6   41.65    3.05
   3   7  -6   40.09    3.04
  -3  -6   6    8.32    1.84
   3   6  -6    8.96    2.98
  -3  -5   6  437.38   16.19
   3   5  -6  457.49   17.12
  -3  -4   6    0.44    0.97
   3   4  -6    1.82    2.00
  -3  -3   6   36.22    4.60
   3   3  -6   35.81    2.73
  -3  -2   6   12.91    3.22
   3   2  -6   10.58    1.78
  -3  -1   6   34.02    4.33
   3   1  -6   31.28    2.44
  -3   0   6   41.41    3.30
   3   0  -6   41.19    2.91
  -3   1   6   35.06    3.82
   3  -1  -6   36.16    2.52
  -3   2   6   15.13    2.94
   3  -2  -6   13.69    2.47
  -3   3   6   42.18    6.64
   3  -3  -6   42.21    7.50
   3  -4  -6   -0.33    1.24
   3  -4  -6   -0.77    1.76
   3  -5  -6  477.50   18.50
   3  -5  -6  548.84   21.23
   3  -6  -6    6.59    1.12
   3  -6  -6    6.46    1.85
   3  -7  -6   58.19    8.67
   3  -7  -6   48.36    4.31
   3  -7  -6   45.08    4.20
   3  -8  -6    1.36    1.15
   3  -8  -6   -0.98    1.73
   3  -8  -6   -0.05    1.73
   3  -9  -6    1.24    1.02
   3  -9  -6    5.92    2.83
   3  -9  -6    3.71    2.17
   3 -10  -6   -0.19    0.73
   3 -10  -6   -0.31    2.06
   3 -10  -6   -0.08    1.94
   3 -11  -6   42.58    9.84
   3 -11  -6   57.43    5.74
   3 -11  -6   37.30   10.64
  -3 -12   5   -0.86    1.27
   3  12  -5    1.67    1.43
   3  12  -5    0.23    1.23
  -3 -11   5   52.13    4.74
   3  11  -5   46.18    4.51
   3  11  -5   38.77    9.35
  -3 -10   5    2.15    1.35
   3  10  -5    1.54    1.51
   3  10  -5   -0.01    0.86
  -3  -9   5  215.57    7.02
   3   9  -5  229.83    7.76
   3   9  -5  207.35    9.09
  -3  -8   5    0.02    1.34
   3   8  -5   -0.83    1.44
  -3  -7   5   66.33    5.02
   3   7  -5   60.91    4.99
  -3  -6   5    2.80    1.74
   3   6  -5    6.02    3.09
  -3  -5   5   39.28    2.52
   3   5  -5   42.77    3.15
  -3  -4   5   18.07    2.03
   3   4  -5   15.86    2.57
  -3  -3   5   22.72    2.09
   3   3  -5   25.96    2.73
  -3  -2   5   48.93    2.76
   3   2  -5   47.38    2.60
  -3  -1   5  328.66    8.62
   3   1  -5  335.31    8.58
  -3   0   5    0.29    0.36
   3   0  -5    0.61    1.18
  -3   1   5  340.19    9.35
   3  -1  -5  336.61    8.71
  -3   2   5   50.23    3.60
   3  -2  -5   52.85    3.46
  -3   3   5   28.11    2.05
   3  -3  -5   26.72    4.81
   3  -4  -5   13.26    3.29
   3  -5  -5   50.13    8.92
   3  -5  -5   48.33    3.92
   3  -6  -5    0.58    0.90
   3  -6  -5   -0.49    1.92
   3  -6  -5    2.56    1.96
   3  -7  -5   76.41    5.75
   3  -7  -5   70.93    5.95
   3  -7  -5   64.38   14.86
   3  -8  -5   -0.39    1.36
   3  -8  -5    2.89    2.63
   3  -8  -5    1.52    1.44
   3  -9  -5  220.95   11.85
   3  -9  -5  216.89    8.04
   3  -9  -5  219.10   23.24
   3 -10  -5    0.63    0.58
   3 -10  -5    1.55    1.86
   3 -10  -5   -0.01    1.71
   3 -11  -5   33.95    5.31
   3 -11  -5   41.82    4.39
   3 -11  -5   28.54    8.38
   3 -12  -5    0.72    0.95
   3 -12  -5    2.36    1.34
  -3 -12   4   10.45    2.46
   3  12  -4    3.80    1.63
  -3 -11   4  105.39    7.09
   3  11  -4   92.64    6.72
   3  11  -4   84.18   12.73
  -3 -10   4    5.16    2.64
   3  10  -4    0.34    1.58
   3  10  -4    1.83    1.27
  -3  -9   4    7.76    1.86
   3   9  -4   15.25    2.84
   3   9  -4    7.66    2.51
  -3  -8   4    1.05    1.44
   3   8  -4    4.10    2.31
  -3  -7   4   57.66    4.62
   3   7  -4   55.57    4.94
  -3  -6   4   68.84    4.24
   3   6  -4   68.73    4.43
  -3  -5   4    1.67    1.84
   3   5  -4    2.28    1.63
  -3  -4   4   29.37    2.47
   3   4  -4   25.78    2.70
  -3  -3   4    6.21    1.42
   3   3  -4    4.83    2.19
  -3  -2   4   -0.03    0.99
   3   2  -4    1.09    1.26
  -3  -1   4  783.35   22.49
   3   1  -4  820.53   23.66
  -3   0   4   59.96    2.98
   3   0  -4   63.61    3.44
  -3   1   4  901.38   25.78
   3  -1  -4  850.33   24.41
  -3   2   4    1.28    0.92
   3  -2  -4    1.40    0.52
  -3   3   4    7.73    1.79
   3  -3  -4   20.47    5.02
  -3   4   4   32.19    5.91
   3  -4  -4   32.28    7.61
   3  -5  -4    3.05    1.00
   3  -5  -4    4.03    2.35
   3  -6  -4   83.16    5.03
   3  -6  -4   75.36    5.53
   3  -6  -4   74.79    5.74
   3  -7  -4   67.13    5.24
   3  -7  -4   56.42    4.89
   3  -7  -4   60.48   14.03
   3  -8  -4   -0.67    1.28
   3  -8  -4   -0.25    1.74
   3  -8  -4   -0.65    1.81
   3  -9  -4    8.63    1.94
   3  -9  -4    4.15    2.12
   3  -9  -4    9.31    2.44
   3 -10  -4    2.23    1.15
   3 -10  -4    7.30    2.85
   3 -10  -4    1.77    1.68
   3 -11  -4   77.06   10.05
   3 -11  -4   87.26    6.77
   3 -11  -4   90.02   10.15
   3 -12  -4    8.55    2.30
   3 -12  -4   15.34    3.71
   3 -12  -4    5.94    2.35
  -3 -13   3   45.82    4.21
   3  13  -3   39.86    4.07
   3  13  -3   35.69    6.68
  -3 -12   3    2.74    2.11
   3  12  -3   -1.68    1.65
   3  12  -3   -0.99    1.85
  -3 -11   3  118.15    6.28
   3  11  -3  125.41    7.20
   3  11  -3  109.60   11.79
  -3 -10   3    2.66    2.11
   3  10  -3    2.05    1.71
   3  10  -3    0.48    1.65
  -3  -9   3   86.03    5.28
   3   9  -3   92.68    5.77
   3   9  -3   86.24    6.05
  -3  -8   3    1.55    1.63
   3   8  -3    2.07    1.85
  -3  -7   3 1042.07   36.60
   3   7  -3  897.90   31.84
  -3  -6   3    7.93    1.69
   3   6  -3    5.89    2.42
  -3  -5   3 1192.84   37.67
   3   5  -3 1229.11   38.91
  -3  -4   3   22.56    2.48
   3   4  -3   25.00    2.42
  -3  -3   3   92.24    4.34
   3   3  -3   85.62    4.35
  -3  -2   3    1.36    1.06
   3   2  -3    2.89    1.36
  -3  -1   3  713.20   20.58
   3   1  -3  762.84   22.09
  -3   0   3   -0.73    0.97
   3   0  -3    0.17    1.16
  -3   1   3  774.52   22.41
   3  -1  -3  786.13   22.59
  -3   2   3    1.68    0.82
   3  -2  -3    1.59    0.85
  -3   3   3  101.17    5.41
   3  -3  -3  103.41    4.61
  -3   4   3   27.78    2.34
   3  -4  -3   30.65    6.70
   3  -5  -3 1286.82   40.08
   3  -5  -3 1277.94   40.71
   3  -5  -3 1328.05   42.91
   3  -6  -3    4.82    1.19
   3  -6  -3    4.02    2.45
   3  -6  -3    5.60    2.03
   3  -7  -3 1074.05   11.71
   3  -7  -3 1013.19   36.02
   3  -7  -3 1043.25   37.56
   3  -8  -3    3.05    1.00
   3  -8  -3    1.59    1.64
   3  -8  -3    2.92    1.74
   3  -9  -3   96.48   12.58
   3  -9  -3   87.48    5.90
   3  -9  -3   91.71   12.15
   3 -10  -3    1.86    0.97
   3 -10  -3    0.74    1.69
   3 -10  -3    1.33    1.90
   3 -11  -3  121.22    8.91
   3 -11  -3  112.11    6.71
   3 -11  -3   98.31   22.56
   3 -12  -3    2.98    1.27
   3 -12  -3    0.35    1.88
   3 -12  -3    0.85    0.86
   3 -13  -3   37.71    7.78
   3 -13  -3   27.28   11.32
  -3 -13   2   27.10    3.39
   3  13  -2   22.07    3.82
   3  13  -2   18.81    3.94
  -3 -12   2    2.93    1.74
   3  12  -2    5.11    2.70
   3  12  -2   -0.80    1.62
  -3 -11   2    9.24    2.65
   3  11  -2    3.56    1.93
   3  11  -2    5.60    1.86
  -3 -10   2   11.12    2.55
   3  10  -2   10.08    2.36
   3  10  -2    5.42    2.17
  -3  -9   2  563.82   21.45
   3   9  -2  588.32   22.56
   3   9  -2  552.86   21.61
  -3  -8   2    2.59    1.52
   3   8  -2    5.05    2.61
  -3  -7   2   47.13    3.30
   3   7  -2   47.23    3.62
  -3  -6   2   55.82    3.98
   3   6  -2   48.82    4.12
  -3  -5   2   65.02    3.58
   3   5  -2   62.00    4.07
  -3  -4   2    3.74    2.04
   3   4  -2    2.99    1.74
  -3  -3   2 2271.92   62.91
   3   3  -2 2302.60   63.93
  -3  -2   2   82.00    3.88
   3   2  -2   88.83    4.42
  -3  -1   2  132.24    4.40
   3   1  -2  133.94    4.62
  -3   0   2   34.42    2.98
   3   0  -2   32.93    2.06
  -3   1   2  151.65    7.33
   3  -1  -2  142.91    4.65
  -3   2   2   99.33    6.00
   3  -2  -2   92.19    3.90
  -3   3   2 2432.75   66.75
   3  -3  -2 2522.88   69.26
  -3   4   2    3.10    0.92
   3  -4  -2    4.23    1.25
   3  -4  -2    4.19    2.13
  -3   5   2   61.77    3.04
   3  -5  -2   69.61    7.87
   3  -5  -2   68.22    9.45
   3  -6  -2   55.76    3.40
   3  -6  -2   53.17    4.24
   3  -6  -2   57.61   10.14
   3  -7  -2   53.39    8.78
   3  -7  -2   52.71    3.85
   3  -7  -2   52.87   11.50
   3  -8  -2   -0.10    1.16
   3  -8  -2    2.02    1.65
   3  -8  -2    0.92    1.41
   3  -9  -2  606.07   26.41
   3  -9  -2  630.39   24.18
   3  -9  -2  605.07   23.77
   3 -10  -2    8.38    1.83
   3 -10  -2    6.14    2.80
   3 -10  -2    8.56    2.31
   3 -11  -2    8.00    1.72
   3 -11  -2    5.61    2.14
   3 -11  -2    7.22    2.38
   3 -12  -2    1.35    1.12
   3 -12  -2    0.06    1.76
   3 -12  -2   -1.62    1.73
   3 -13  -2   17.24    4.33
   3 -13  -2   26.40    4.39
   3 -13  -2   14.72    6.06
  -3 -13   1   25.56    3.73
   3  13  -1   21.72    3.82
   3  13  -1   21.73    5.31
  -3 -12   1    2.58    1.74
   3  12  -1    4.01    3.32
   3  12  -1    1.58    1.99
  -3 -11   1    1.47    1.62
   3  11  -1    0.49    1.76
   3  11  -1    1.80    1.20
   3  10  -1   13.56    4.11
  -3  -9   1  188.16   11.64
   3   9  -1  174.04   11.37
   3   9  -1  191.33   14.52
  -3  -8   1   11.97    2.21
   3   8  -1   13.48    2.56
   3   8  -1   13.77    2.92
  -3  -7   1    2.66    1.50
   3   7  -1    4.28    2.54
  -3  -6   1    6.89    2.16
   3   6  -1    4.71    1.80
  -3  -5   1   35.19    2.73
   3   5  -1   39.04    3.35
  -3  -4   1   20.25    2.27
   3   4  -1   16.32    2.39
  -3  -3   1    0.97    1.34
   3   3  -1    3.44    2.50
  -3  -2   1  146.80    5.01
   3   2  -1  155.43    5.48
  -3  -1   1  145.42    4.66
   3   1  -1  139.82    4.86
  -3   0   1   -0.07    0.87
   3   0  -1    0.38    1.16
  -3   1   1  152.28    5.16
   3  -1  -1  156.73    4.94
  -3   2   1  170.37    6.35
   3  -2  -1  163.72    5.08
  -3   3   1    0.24    0.44
   3  -3  -1    1.56    0.76
  -3   4   1   19.00    1.61
   3  -4  -1   21.17    5.32
   3  -4  -1   20.66    3.39
  -3   5   1   45.67    4.25
   3  -5  -1   38.56    3.75
   3  -5  -1   34.34    9.10
   3  -6  -1    5.29    1.16
   3  -6  -1    6.84    2.20
   3  -6  -1    5.83    1.54
   3  -7  -1    1.56    0.97
   3  -7  -1    3.99    2.41
   3  -7  -1   -0.09    1.20
   3  -8  -1   13.31    2.24
   3  -8  -1   12.57    2.67
   3  -8  -1    5.84    1.48
   3  -9  -1  188.14   14.48
   3  -9  -1  185.49   11.68
   3  -9  -1  178.50   26.90
   3 -10  -1   14.44    3.40
   3 -11  -1    0.43    1.82
   3 -11  -1    0.58    1.30
   3 -12  -1   -0.25    1.20
   3 -12  -1   -0.84    1.77
   3 -12  -1    0.14    1.36
   3 -13  -1   16.29    4.88
   3 -13  -1   28.62    4.32
   3 -13  -1   18.98    6.58
  -3 -13   0  126.39    6.61
   3  13   0  110.28    7.04
   3  13   0  116.83    9.57
  -3 -12   0    3.99    2.96
   3  12   0    2.54    2.04
   3  12   0    2.17    1.38
  -3 -11   0   50.47    4.58
   3  11   0   50.96    4.80
   3  11   0   41.59   12.41
  -3 -10   0    0.25    1.60
   3  10   0   -0.85    1.66
   3  10   0   -1.26    1.45
  -3  -9   0  361.12   20.63
   3   9   0  349.05   20.29
   3   9   0  362.34   20.85
  -3  -8   0    2.85    1.59
   3   8   0    0.25    1.88
   3   8   0    0.43    1.02
  -3  -7   0   37.41    2.95
   3   7   0   41.41    3.76
  -3  -6   0   -1.13    1.44
   3   6   0    2.01    1.80
  -3  -5   0  215.18    7.05
   3   5   0  211.57    7.26
  -3  -4   0    1.40    1.53
   3   4   0    1.68    1.94
  -3  -3   0  587.27   17.86
   3   3   0  566.62   17.54
  -3  -2   0   -0.86    1.16
   3   2   0   -1.56    1.61
  -3  -1   0    8.68    1.41
   3   1   0    5.58    1.56
  -3   0   0   -0.56    0.86
   3   0   0    1.53    1.31
  -3   1   0   11.07    2.31
   3  -1   0    9.35    1.65
  -3   2   0    1.41    0.75
   3  -2   0   -0.36    1.06
  -3   3   0  648.04   18.74
   3  -3   0  590.11   17.15
   3  -3   0  592.98   18.63
  -3   4   0   -0.72    0.77
   3  -4   0    0.35    0.97
   3  -4   0    1.52    1.25
  -3   5   0  247.16    6.62
   3  -5   0  236.92    6.44
   3  -5   0  248.15    8.67
   3  -6   0    1.22    0.59
   3  -6   0   -0.21    1.30
   3  -6   0   -0.80    1.52
   3  -7   0   45.98    7.79
   3  -7   0   37.35    3.09
   3  -7   0   38.87    8.66
   3  -8   0    1.00    1.08
   3  -8   0    1.83    1.62
   3  -8   0   -0.20    1.89
   3  -9   0  378.48   20.87
   3  -9   0  387.87   22.11
   3  -9   0  373.57   22.10
   3 -10   0   -0.28    1.05
   3 -10   0   -0.04    1.66
   3 -10   0    2.18    1.86
   3 -11   0   42.94    6.87
   3 -11   0   51.34    4.26
   3 -11   0   39.52    9.51
   3 -12   0   -1.32    1.23
   3 -12   0    1.02    1.80
   3 -12   0    1.66    2.09
   3 -13   0  108.13   13.25
   3 -13   0  126.40    6.89
   3 -13   0  122.23   12.59
  -3 -13  -1   22.19    3.63
   3  13   1   24.48    4.66
   3  13   1   30.86    6.40
  -3 -12  -1   -0.06    1.47
   3  12   1    1.45    1.88
   3  12   1    1.34    1.51
  -3 -11  -1    1.97    1.69
   3  11   1    1.75    2.14
   3  11   1    2.07    2.00
  -3 -10  -1   15.74    3.06
   3  10   1   15.33    3.02
   3  10   1   15.90    3.22
  -3  -9  -1  201.62   12.53
   3   9   1  179.95   11.69
   3   9   1  179.63   13.46
  -3  -8  -1   11.66    2.32
   3   8   1   11.66    2.82
   3   8   1   16.50    4.09
  -3  -7  -1    0.92    1.56
   3   7   1    0.41    1.97
   3   7   1    0.86    1.06
  -3  -6  -1    2.34    1.38
   3   6   1    8.43    2.78
  -3  -5  -1   35.54    3.05
   3   5   1   30.92    3.05
  -3  -4  -1   17.90    2.71
   3   4   1   18.89    2.67
  -3  -3  -1    0.20    1.38
   3   3   1    0.31    1.80
  -3  -2  -1  156.89    5.34
   3   2   1  155.35    5.73
  -3  -1  -1  140.23    4.71
   3   1   1  131.15    4.79
  -3   0  -1   -0.90    0.88
   3   0   1   -0.81    1.15
  -3   1  -1  146.26    4.45
   3  -1   1  139.08    4.41
  -3   2  -1  173.38    5.00
   3  -2   1  168.26    5.07
   3  -2   1  168.95    6.27
  -3   3  -1    1.19    0.73
   3  -3   1   -0.89    1.01
   3  -3   1    2.09    1.10
  -3   4  -1   22.06    2.39
   3  -4   1   21.14    1.87
   3  -4   1   21.82    4.32
  -3   5  -1   38.46    2.44
   3  -5   1   39.62    7.45
   3  -5   1   33.93    8.01
  -3   5  -1   36.46    3.96
   3  -6   1    6.08    1.31
   3  -6   1    5.32    1.92
   3  -6   1    4.57    1.14
  -3   6  -1    3.19    2.08
   3  -7   1    1.73    0.90
   3  -7   1    4.06    2.17
   3  -7   1    2.23    1.37
  -3   7  -1   -0.11    1.95
   3  -8   1   13.44    2.37
   3  -8   1   13.45    2.56
   3  -8   1   17.77    3.59
  -3   8  -1   13.79    3.35
   3  -9   1  209.55   13.71
   3  -9   1  197.83   12.08
   3  -9   1  173.09   11.38
  -3   9  -1  200.22   13.17
   3 -10   1   14.26    2.97
   3 -10   1   18.02    2.84
   3 -10   1   12.92    3.59
  -3  10  -1   11.75    2.98
   3 -11   1    0.96    0.68
   3 -11   1    3.73    1.78
   3 -11   1   -1.40    1.93
  -3  11  -1    1.23    2.16
   3 -12   1    1.30    0.52
   3 -12   1   -1.90    2.01
   3 -12   1    2.41    1.37
  -3  12  -1    4.58    3.33
   3 -13   1   19.11    4.99
   3 -13   1   23.25    3.92
   3 -13   1   18.23    5.90
  -3  13  -1   31.62    4.62
   3  13   2   20.91    4.49
   3  13   2   20.94    6.59
  -3 -12  -2    0.39    1.60
   3  12   2    1.92    2.24
   3  12   2   -0.01    1.41
  -3 -11  -2    5.48    1.94
   3  11   2    5.00    2.30
   3  11   2    6.84    2.24
  -3 -10  -2   12.69    2.96
   3  10   2    5.33    2.18
   3  10   2    6.28    3.26
  -3  -9  -2  621.73   23.64
   3   9   2  615.91   24.02
   3   9   2  613.31   23.01
  -3  -8  -2    2.47    1.71
   3   8   2    0.27    1.85
   3   8   2    1.55    0.82
  -3  -7  -2   49.76    3.44
   3   7   2   50.28    3.70
   3   7   2   48.37    5.17
  -3  -6  -2   55.72    3.74
   3   6   2   57.69    4.65
   3   6   2   51.65    3.98
  -3  -5  -2   69.01    4.01
   3   5   2   63.16    4.02
  -3  -4  -2    3.40    2.17
   3   4   2    1.41    1.70
  -3  -3  -2 2310.77   64.04
   3   3   2 2511.75   69.94
  -3  -2  -2  100.75    4.73
   3   2   2   84.35    4.49
  -3  -1  -2  121.54    4.32
   3   1   2  128.54    4.95
  -3   0  -2   31.93    1.90
   3   0   2   31.52    2.52
   3   0   2   32.46    2.35
  -3   1  -2  140.88    4.31
   3  -1   2  128.05    4.30
   3  -1   2  137.37    5.59
  -3   2  -2   91.74    4.47
   3  -2   2   84.47    3.55
   3  -2   2   95.90    7.00
   3  -3   2 3175.52   22.36
  -3   3  -2 3120.81   21.33
  -3   4  -2    2.68    1.02
   3  -4   2    2.24    1.31
   3  -4   2    1.15    0.82
  -3   4  -2    3.67    1.85
  -3   5  -2   69.01    2.93
   3  -5   2   67.77    4.04
   3  -5   2   66.31    5.11
  -3   5  -2   66.32    4.36
   3  -6   2   53.34    3.32
   3  -6   2   54.40    3.51
   3  -6   2   60.61   13.95
  -3   6  -2   48.02    5.22
   3  -7   2   53.94    3.45
   3  -7   2   52.93    3.29
   3  -7   2   59.20   11.16
  -3   7  -2   60.50   13.73
   3  -8   2    1.79    0.92
   3  -8   2    4.14    2.09
   3  -8   2    2.61    1.69
  -3   8  -2    1.84    1.22
   3  -9   2  634.04    8.51
   3  -9   2  664.41   10.56
   3  -9   2  585.10   23.06
  -3   9  -2  646.80   14.08
   3 -10   2    8.51    2.34
   3 -10   2    8.21    2.05
   3 -10   2    7.50    2.99
  -3  10  -2   10.86    3.80
   3 -11   2    5.80    0.99
   3 -11   2    5.14    1.88
   3 -11   2    8.43    2.19
  -3  11  -2    7.29    3.44
   3 -12   2   -1.33    1.30
   3 -12   2    0.61    1.75
   3 -12   2    1.25    1.25
  -3  12  -2    1.53    2.26
   3 -13   2   17.28    4.28
   3 -13   2   22.46    3.46
   3 -13   2   19.94    4.09
  -3  13  -2   20.84    4.75
   3  13   3   42.52    5.12
   3  13   3   36.19    9.60
  -3 -12  -3   -1.33    1.83
   3  12   3   -3.69    2.31
   3  12   3    0.70    0.56
  -3 -11  -3  121.25    6.68
   3  11   3  114.90    7.16
   3  11   3  119.64   10.97
  -3 -10  -3    1.01    1.68
   3  10   3   -0.67    1.84
   3  10   3    1.12    1.07
  -3  -9  -3  102.95    6.45
   3   9   3   93.47    6.20
   3   9   3  106.39    7.58
  -3  -8  -3    5.98    2.54
   3   8   3    0.38    1.83
   3   8   3    0.38    0.65
  -3  -7  -3 1060.36   13.59
   3   7   3 1027.35   36.67
   3   7   3 1004.36   34.37
  -3  -6  -3    6.33    2.37
   3   6   3    6.13    1.80
   3   6   3    3.90    1.87
  -3  -5  -3 1289.93   40.62
   3   5   3 1368.65   43.60
   3   5   3 1448.07   44.03
  -3  -4  -3   30.19    2.77
   3   4   3   31.77    3.09
  -3  -3  -3   94.98    4.59
   3   3   3  101.44    5.09
  -3  -2  -3    1.89    1.51
   3   2   3    1.57    1.67
   3   2   3    2.10    1.03
  -3  -1  -3  709.09   20.71
   3   1   3  742.98   22.00
   3   1   3  852.67   24.37
  -3   0  -3    1.00    0.92
   3   0   3    1.50    1.36
   3   0   3   -0.18    0.53
  -3   1  -3  757.91   21.54
   3  -1   3  784.81   22.86
   3  -1   3  845.11   24.87
  -3   2  -3    2.50    0.92
   3  -2   3   -0.41    0.90
   3  -2   3    2.70    1.33
  -3   2  -3    1.38    1.30
  -3   3  -3   99.53    4.41
   3  -3   3   89.51    3.69
   3  -3   3  104.88    5.27
  -3   3  -3  110.39    5.33
  -3   4  -3   28.61    2.50
   3  -4   3   29.44    2.01
   3  -4   3   35.19    7.62
  -3   4  -3   32.42    8.37
  -3   5  -3 1376.99   41.99
   3  -5   3 1282.24   39.28
   3  -5   3 1341.28   42.73
  -3   5  -3 1392.83   44.39
   3  -6   3    6.66    1.30
   3  -6   3    8.58    2.39
   3  -6   3    7.42    1.81
  -3   6  -3    3.92    1.57
   3  -7   3 1019.06   34.67
   3  -7   3 1059.80   11.28
   3  -7   3 1051.57   37.73
  -3   7  -3 1082.75   15.89
   3  -8   3   -0.80    1.02
   3  -8   3    1.73    1.67
   3  -8   3    2.17    1.36
  -3   8  -3    2.75    1.12
   3  -9   3   97.82    6.48
   3  -9   3   99.35    5.52
   3  -9   3   98.62   17.45
  -3   9  -3   92.14   10.29
   3 -10   3    1.34    0.62
   3 -10   3   -0.11    1.52
   3 -10   3   -0.63    2.01
  -3  10  -3    2.35    1.05
   3 -11   3  119.54    7.62
   3 -11   3  138.64    6.52
   3 -11   3   95.68   19.76
  -3  11  -3  117.00   18.77
   3 -12   3    1.88    1.19
   3 -12   3    1.12    1.41
   3 -12   3    1.96    2.09
  -3  12  -3    1.39    1.65
   3 -13   3   34.37    9.91
   3 -13   3   57.79    4.62
  -3  13  -3   46.14    5.92
  -3 -12  -4    7.53    2.56
   3  12   4   12.51    3.80
   3  12   4    3.16    1.37
  -3 -11  -4  100.81    7.45
   3  11   4   91.17    7.68
   3  11   4   70.85    5.28
  -3 -10  -4    1.30    1.91
   3  10   4    1.54    1.80
   3  10   4    2.72    1.82
  -3  -9  -4    7.36    2.38
   3   9   4    6.35    2.22
   3   9   4   10.19    2.28
  -3  -8  -4   -0.13    1.63
   3   8   4    4.55    2.09
   3   8   4    1.03    0.84
  -3  -7  -4   60.87    5.01
   3   7   4   55.26    5.18
   3   7   4   52.49    5.00
  -3  -6  -4   75.48    4.78
   3   6   4   72.69    4.97
   3   6   4   65.06    4.64
  -3  -5  -4    1.37    1.44
   3   5   4    5.73    2.76
  -3  -4  -4   33.81    3.00
   3   4   4   30.70    3.24
  -3  -3  -4    7.66    1.88
   3   3   4    6.96    2.25
  -3  -2  -4    1.19    1.05
   3   2   4   -1.09    1.41
   3   2   4    0.05    0.37
  -3  -1  -4  870.28   25.30
   3   1   4  900.92   26.40
   3   1   4  994.79   27.87
  -3   0  -4   57.03    2.90
   3   0   4   52.43    3.09
   3   0   4   58.66    7.09
  -3   1  -4  790.05   22.37
   3  -1   4  786.91   22.95
  -3   1  -4  954.58   27.46
  -3   2  -4    0.54    0.50
   3  -2   4    1.98    1.51
   3  -2   4    0.86    0.67
  -3   2  -4    0.63    0.81
  -3   3  -4    6.82    1.93
   3  -3   4    4.10    1.47
   3  -3   4    7.49    1.96
  -3   3  -4    6.66    2.06
  -3   4  -4   32.83    3.51
   3  -4   4   25.99    1.85
   3  -4   4   29.39    7.79
  -3   4  -4   34.06    9.82
   3  -5   4    4.90    1.46
   3  -5   4    1.60    1.24
  -3   5  -4    1.73    1.33
   3  -6   4   72.36    3.49
   3  -6   4   83.11    4.32
   3  -6   4   69.09   10.88
  -3   6  -4   76.95    5.24
   3  -7   4   60.65    5.23
   3  -7   4   63.16    4.56
   3  -7   4   65.18   14.60
  -3   7  -4   68.31   15.21
   3  -8   4    0.40    0.78
   3  -8   4    1.55    1.52
   3  -8   4    2.00    1.45
  -3   8  -4    1.18    2.34
   3  -9   4    8.05    2.11
   3  -9   4    7.34    1.71
   3  -9   4    8.91    1.93
  -3   9  -4    9.04    2.43
   3 -10   4    2.59    0.97
   3 -10   4    3.57    1.94
   3 -10   4    3.20    2.84
  -3  10  -4    4.26    2.25
   3 -11   4   90.55   10.16
   3 -11   4  103.18    6.44
   3 -11   4   93.03    7.71
  -3  11  -4   94.37   20.03
   3 -12   4    7.92    1.94
   3 -12   4   14.04    2.86
  -3  12  -4    5.74    1.81
   3  12   5    2.32    2.84
  -3 -11  -5   49.91    5.05
   3  11   5   42.33    4.97
  -3 -10  -5    0.27    2.00
   3  10   5    2.71    2.08
  -3  -9  -5  258.17    8.97
   3   9   5  239.66    8.98
  -3  -8  -5    2.00    1.76
   3   8   5   -1.15    1.89
  -3  -7  -5   84.92    6.55
   3   7   5   71.69    6.00
  -3  -6  -5    1.77    1.58
   3   6   5   -0.59    1.73
  -3  -5  -5   48.54    3.37
   3   5   5   41.93    3.35
  -3  -4  -5   16.26    2.33
   3   4   5   20.01    2.70
  -3  -3  -5   20.82    2.24
   3   3   5   29.31    2.94
  -3  -2  -5   47.99    2.73
   3   2   5   53.51    3.26
  -3  -1  -5  360.96    9.47
   3   1   5  352.63    9.26
  -3   0  -5    1.29    1.29
   3   0   5    0.43    1.15
   3   0   5    1.67    0.80
  -3   0  -5    0.19    0.86
   3  -1   5  360.94    9.34
   3  -1   5  399.21   10.23
  -3   1  -5  391.22    9.89
  -3   2  -5   51.71    1.86
   3  -2   5   42.56    2.49
   3  -2   5   63.38    9.79
  -3   2  -5   53.11    5.67
  -3   3  -5   25.34    3.52
   3  -3   5   19.38    2.07
   3  -3   5   31.56    7.21
  -3   3  -5   29.11    7.96
   3  -4   5   11.75    1.49
   3  -4   5   21.78    5.18
  -3   4  -5   17.90    5.35
   3  -5   5   39.58    2.03
   3  -5   5   54.58    2.93
   3  -5   5   59.86    9.24
  -3   5  -5   56.39   13.23
   3  -6   5   -0.31    0.78
   3  -6   5    0.51    1.05
   3  -6   5    2.31    1.34
  -3   6  -5    2.33    1.52
   3  -7   5   70.25    4.45
   3  -7   5   71.73    4.79
   3  -7   5   69.56   12.51
  -3   7  -5   83.15   15.17
   3  -8   5   -0.17    0.77
   3  -8   5    1.91    1.33
   3  -8   5    0.29    1.87
  -3   8  -5    1.27    1.09
   3  -9   5  235.78    5.62
   3  -9   5  255.81    6.66
   3  -9   5  232.42    9.19
  -3   9  -5  245.46    9.67
   3 -10   5    0.39    0.57
   3 -10   5    0.36    1.02
  -3  10  -5    1.04    1.17
   3 -11   5   35.66    8.06
   3 -11   5   52.63    4.17
  -3  11  -5   41.40   11.47
   3 -12   5    0.82    0.65
   3 -12   5    3.18    1.62
  -3  12  -5   -0.77    2.64
  -3 -11  -6   66.44    5.81
   3  11   6   59.97    6.30
  -3 -10  -6    1.26    1.88
   3  10   6   -0.82    1.90
  -3  -9  -6    3.45    2.51
   3   9   6    3.27    2.84
  -3  -8  -6    1.37    1.74
   3   8   6    1.64    1.92
  -3  -7  -6   51.55    4.10
   3   7   6   48.48    3.99
  -3  -6  -6    3.45    1.76
   3   6   6    4.24    1.94
  -3  -5  -6  509.81   19.12
   3   5   6  504.08   19.43
  -3  -4  -6   -0.99    1.32
   3   4   6    0.66    1.62
  -3  -3  -6   45.48    3.18
   3   3   6   40.41    2.93
  -3  -2  -6   11.01    1.88
   3   2   6   14.85    2.35
  -3  -1  -6   32.22    2.33
   3   1   6   39.48    3.09
  -3   0  -6   36.40    2.20
   3   0   6   39.38    2.72
  -3   0  -6   41.86    3.60
  -3   1  -6   32.64    1.91
   3  -1   6   34.46    2.21
  -3   1  -6   37.03    5.40
   3  -2   6    9.22    1.84
  -3   2  -6   17.65    4.36
  -3   3  -6   37.73    1.88
   3  -3   6   36.61    2.17
   3  -3   6   37.38    3.02
  -3   3  -6   39.91    4.68
  -3   4  -6    0.40    0.28
   3  -4   6   -0.26    0.70
   3  -4   6   -0.75    1.38
  -3   4  -6    0.54    1.04
   3  -5   6  416.78   14.79
   3  -5   6  502.30   17.22
   3  -5   6  483.32   19.14
  -3   5  -6  527.14   20.38
   3  -6   6    4.92    1.56
   3  -6   6    4.51    0.89
   3  -6   6    8.12    3.23
  -3   6  -6    2.88    1.52
   3  -7   6   43.31    2.05
   3  -7   6   56.85    2.30
  -3   7  -6   55.42   11.96
   3  -8   6    1.42    0.99
   3  -8   6    0.45    0.71
  -3   8  -6    5.04    2.06
   3  -9   6    1.17    1.16
   3  -9   6   -0.29    0.91
  -3   9  -6    2.96    1.80
   3 -10   6    2.04    1.41
   3 -10   6    1.35    0.92
  -3  10  -6    4.15    2.80
   3 -11   6   53.72    4.10
   3 -11   6   58.20    3.95
  -3  11  -6   53.09   10.21
   3  11   7    4.73    2.48
  -3 -10  -7   13.44    2.94
  -3  -9  -7   68.74    5.81
   3   9   7   67.87    6.10
  -3  -8  -7   13.96    3.06
   3   8   7    5.13    2.16
  -3  -7  -7  113.04    5.54
  -3  -6  -7   -0.68    1.48
   3   6   7    0.62    1.56
  -3  -5  -7  170.05   10.54
   3   5   7  172.97   10.93
  -3  -4  -7    6.17    2.03
   3   4   7    6.74    2.17
  -3  -3  -7   21.27    2.56
   3   3   7   19.42    2.56
  -3  -2  -7   52.60    3.03
   3   2   7   56.58    3.31
  -3  -1  -7  129.82    5.69
   3   1   7  153.13    6.49
  -3  -1  -7  160.22    6.12
  -3   0  -7   -0.77    0.77
   3   0   7    0.21    0.90
  -3   0  -7   -0.90    0.85
  -3   1  -7  134.17    5.22
   3  -1   7  139.43    5.46
  -3   1  -7  161.36    6.89
  -3   2  -7   53.83    1.71
   3  -2   7   56.68    2.28
  -3   2  -7   59.42    6.07
  -3   3  -7   23.83    2.51
   3  -3   7   18.43    1.37
  -3   3  -7   24.10    5.10
   3  -4   7    3.65    0.65
  -3   4  -7    5.82    1.98
  -3   5  -7  186.61   11.92
  -3   6  -7    0.63    1.08
  -3   7  -7  107.77   12.01
   3  -8   7    0.51    0.43
   3  -8   7    3.65    0.86
  -3   8  -7    9.69    2.30
   3  -9   7   58.86    2.66
   3  -9   7   68.34    2.84
  -3   9  -7   74.21   15.96
   3 -10   7   11.41    1.47
   3 -10   7    6.65    1.19
  -3  10  -7   12.09    3.33
   3 -11   7    2.63    1.03
   3 -11   7    5.64    1.63
  -3  11  -7    1.75    1.81
  -3 -10  -8    0.81    1.73
   3  10   8    0.40    1.89
  -3  -9  -8  162.80    7.98
   3   9   8  143.22    8.02
  -3  -8  -8   -0.45    1.57
   3   8   8    3.36    2.03
  -3  -7  -8  203.27    9.75
  -3  -6  -8   16.90    2.92
   3   6   8   13.60    2.83
  -3  -5  -8  151.00    6.07
   3   5   8  150.21    6.41
  -3  -4  -8    1.06    1.29
   3   4   8    2.92    1.93
  -3  -3  -8  329.69   18.53
   3   3   8  320.40   18.11
  -3  -2  -8    2.97    1.42
   3   2   8    1.56    1.82
  -3  -1  -8  700.12   37.74
   3   1   8  808.40   43.38
  -3  -1  -8  834.18   44.35
  -3   0  -8    0.37    1.15
   3   0   8   -0.97    0.86
  -3   0  -8    0.48    1.00
  -3   1  -8  771.19   41.00
   3  -1   8  796.26   42.34
  -3   1  -8  855.58   45.99
  -3   2  -8    3.27    0.92
   3  -2   8    3.96    1.07
  -3   2  -8    3.63    1.88
  -3   3  -8  397.53   22.53
  -3   4  -8    2.89    1.10
  -3   5  -8  169.61    7.66
  -3   6  -8   20.40    4.25
  -3   7  -8  181.33   12.59
  -3   8  -8    1.14    0.58
  -3   9  -8  148.30   26.80
  -3  10  -8    2.87    2.79
  -3  -9  -9   38.08    4.23
   3   9   9   40.46    4.61
  -3  -8  -9   17.63    3.21
   3   8   9   14.36    3.48
  -3  -7  -9  158.65    9.40
   3   7   9  131.96    8.88
  -3  -6  -9    1.71    1.35
   3   6   9   -1.67    1.70
  -3  -5  -9  207.89    7.37
   3   5   9  206.95    8.21
  -3  -4  -9   26.05    2.80
   3   4   9   26.76    3.00
  -3  -3  -9   52.11    3.33
   3   3   9   50.93    3.50
  -3  -2  -9    2.71    1.35
   3   2   9   -0.09    1.08
  -3  -1  -9  148.66    6.84
   3   1   9  162.65    7.30
  -3  -1  -9  162.36    6.73
  -3   0  -9    0.42    0.93
   3   0   9   -0.14    0.72
  -3   0  -9    0.18    0.48
  -3   1  -9  149.34    5.93
   3  -1   9  156.33    6.32
  -3   1  -9  166.42    7.64
  -3   2  -9    0.24    0.25
  -3   2  -9    1.45    0.83
  -3   3  -9   53.27   10.28
  -3   4  -9   25.98    7.73
  -3   5  -9  205.48   11.98
  -3   6  -9   -0.64    1.93
  -3   7  -9  146.08   11.74
  -3   8  -9   15.42    4.01
  -3   9  -9   30.15    9.98
  -3  -8 -10    2.11    1.57
   3   8  10    0.73    1.81
  -3  -7 -10   52.62    4.66
   3   7  10   50.66    5.00
  -3  -6 -10   -0.19    1.26
   3   6  10   -0.59    1.63
  -3  -5 -10  321.15   16.01
   3   5  10  329.56   16.74
  -3  -4 -10    9.56    2.17
   3   4  10   10.81    2.27
  -3  -3 -10    8.47    1.83
   3   3  10   10.57    2.09
  -3  -2 -10    1.83    1.22
   3   2  10    1.31    1.04
  -3  -1 -10    5.54    2.19
   3   1  10   10.63    1.98
  -3  -1 -10    6.04    1.23
  -3   0 -10   32.98    2.48
   3   0  10   42.21    2.91
  -3   0 -10   36.86    8.68
  -3   1 -10    7.43    1.04
  -3   1 -10    7.88    1.73
  -3   2 -10    3.88    1.15
  -3   3 -10   11.78    3.17
  -3   4 -10   10.09    3.14
  -3   5 -10  353.36   17.98
  -3   6 -10    2.32    1.03
  -3   7 -10   54.03   18.12
  -3   8 -10   -0.35    2.15
  -3  -6 -11    1.68    1.83
   3   6  11   -0.28    1.79
  -3  -5 -11    4.72    2.03
   3   5  11    6.38    2.52
  -3  -4 -11   -0.37    1.08
   3   4  11    0.65    1.39
  -3  -3 -11   19.35    2.73
   3   3  11   20.93    2.92
  -3  -2 -11    0.97    1.39
   3   2  11    0.84    1.02
  -3  -1 -11   96.12    5.76
   3   1  11  104.14    6.06
  -3  -1 -11  102.55    5.56
  -3   0 -11   -0.07    0.41
  -3   0 -11   -0.68    0.66
  -3   0 -11    0.00    0.77
  -3   1 -11   88.34    4.09
  -3   1 -11  110.54    5.16
  -3   1 -11  115.18    8.35
  -3   2 -11    0.09    0.66
  -3   3 -11   14.14    4.18
  -3   4 -11    1.69    1.80
  -3   5 -11    2.91    1.10
  -3   6 -11    1.92    1.00
  -3  -4 -12    4.39    1.60
   3   4  12    2.24    2.10
  -3  -3 -12   -0.18    1.08
   3   3  12    1.90    1.33
  -3  -2 -12    0.02    0.66
  -3  -2 -12    1.02    1.28
  -3  -1 -12   55.22    4.70
  -3  -1 -12   54.17    3.71
  -3  -1 -12   61.82    6.12
  -3   0 -12    0.62    0.27
  -3   0 -12    1.35    0.73
  -3   0 -12   -0.04    0.78
  -3   1 -12   61.08   11.44
  -3   2 -12    1.03    0.81
  -3   3 -12   -0.45    1.19
  -3   4 -12    1.52    1.63
   4   1 -12    1.98    1.15
   4   1 -12    0.81    1.14
   4   0 -12  156.87    7.15
   4   0 -12  180.71    9.13
   4  -1 -12    3.47    1.53
   4  -1 -12    0.47    1.27
  -4  -5  11    1.33    0.93
   4   5 -11   -0.87    1.33
  -4  -4  11  327.63    8.57
   4   4 -11  303.68    8.50
  -4  -3  11    1.73    0.91
   4   3 -11    2.20    1.47
  -4  -2  11   50.05    5.95
   4   2 -11   42.83    3.19
   4   1 -11    7.52    1.75
   4   0 -11    0.44    1.04
   4   0 -11   -0.10    1.18
   4  -1 -11   10.32    2.05
   4  -1 -11    9.54    2.71
   4  -2 -11   48.60    3.73
   4  -2 -11   50.39    5.02
   4  -3 -11    2.53    1.31
   4  -3 -11    2.80    1.79
   4  -4 -11  295.91   10.71
   4  -4 -11  282.04    9.29
   4  -5 -11    0.57    0.74
   4  -5 -11    0.19    1.88
  -4  -7  10    4.24    1.49
   4   7 -10    4.76    2.07
  -4  -6  10    0.74    0.89
   4   6 -10    1.05    1.52
  -4  -5  10    0.33    0.46
   4   5 -10    3.52    1.96
  -4  -4  10  261.11   12.60
   4   4 -10  274.86   13.96
  -4  -3  10    8.38    1.85
   4   3 -10   10.39    2.12
  -4  -2  10   79.16    5.03
   4   2 -10   71.63    4.39
  -4  -1  10   -0.04    0.72
   4   1 -10    0.22    0.98
  -4   0  10  212.73   11.25
   4   0 -10  186.24    7.35
   4  -1 -10    0.00    1.00
   4  -1 -10    2.84    2.30
   4  -2 -10   74.14    4.51
   4  -2 -10   60.33    4.73
   4  -3 -10   10.69    2.13
   4  -3 -10    7.91    2.77
   4  -4 -10  268.36   13.44
   4  -4 -10  291.67    9.47
   4  -5 -10    0.91    0.61
   4  -5 -10   -0.54    1.79
   4  -6 -10    1.20    1.10
   4  -6 -10    0.73    1.98
   4  -7 -10    6.44    1.37
   4  -7 -10    4.52    2.89
  -4  -8   9   38.89    9.59
   4   8  -9   52.67    4.05
  -4  -7   9    2.04    2.13
   4   7  -9    2.19    2.32
  -4  -6   9   17.38    3.74
   4   6  -9   21.99    2.95
  -4  -5   9    4.68    1.47
   4   5  -9    1.97    1.40
  -4  -4   9   19.19    4.62
   4   4  -9   17.83    2.34
  -4  -3   9    0.50    1.31
   4   3  -9    1.51    1.70
  -4  -2   9   11.42    2.95
   4   2  -9   12.39    1.99
  -4  -1   9    4.29    1.52
   4   1  -9    2.80    1.26
  -4   0   9   -0.36    1.22
   4   0  -9    1.99    1.21
  -4   1   9    7.06    1.37
   4  -1  -9    4.75    1.26
   4  -2  -9   13.77    2.17
   4  -3  -9    0.65    1.20
   4  -3  -9   -1.96    1.80
   4  -4  -9   19.70    3.48
   4  -4  -9   25.39    3.83
   4  -5  -9    3.71    1.42
   4  -5  -9    4.32    2.33
   4  -6  -9   22.40    4.11
   4  -6  -9   22.30    3.86
   4  -7  -9    0.89    0.85
   4  -7  -9    1.71    2.09
   4  -7  -9    1.75    2.07
   4  -8  -9   40.28    9.56
   4  -8  -9   44.67    4.73
   4  -8  -9   38.09    4.69
   4   9  -8    2.86    1.65
  -4  -8   8  164.71    7.27
   4   8  -8  175.42    7.76
  -4  -7   8    0.15    0.82
   4   7  -8   -0.33    1.43
  -4  -6   8   57.48   10.82
   4   6  -8   62.17    4.44
  -4  -5   8    0.54    0.44
   4   5  -8   -1.10    1.20
  -4  -4   8    5.82    1.33
   4   4  -8    6.48    2.32
  -4  -3   8    0.06    0.99
   4   3  -8    0.02    1.27
  -4  -2   8  410.67   15.69
   4   2  -8  378.09   14.72
  -4  -1   8    5.52    1.08
   4   1  -8    6.25    1.77
  -4   0   8   67.23    7.98
   4   0  -8   66.61    3.52
  -4   1   8    2.83    1.32
   4  -1  -8    3.59    1.36
  -4   2   8  398.85   17.13
   4  -2  -8  408.77   15.81
   4  -3  -8    0.19    0.63
   4  -4  -8    4.91    2.06
   4  -5  -8    2.39    0.89
   4  -5  -8    1.12    2.03
   4  -6  -8   55.96   11.29
   4  -6  -8   68.67    6.08
   4  -7  -8    0.57    0.85
   4  -7  -8    2.95    3.05
   4  -7  -8   -1.02    1.93
   4  -8  -8  161.06   10.42
   4  -8  -8  168.00    9.03
   4  -8  -8  145.65    8.06
   4  -9  -8    2.63    1.39
   4  -9  -8    3.56    2.46
   4  -9  -8    1.43    1.07
  -4 -10   7   56.59    4.29
   4  10  -7   60.38    4.49
   4  10  -7   52.47    6.23
  -4  -9   7    1.98    1.58
   4   9  -7    4.79    2.23
  -4  -8   7   57.74    4.24
   4   8  -7   58.47    4.22
  -4  -7   7    8.40    1.92
   4   7  -7    9.51    2.04
  -4  -6   7    1.28    1.44
   4   6  -7    0.94    1.46
  -4  -5   7    4.36    1.52
   4   5  -7    1.13    1.45
  -4  -4   7   53.03    7.16
   4   4  -7   49.28    3.26
  -4  -3   7    0.56    1.36
   4   3  -7    0.34    1.47
  -4  -2   7   54.42    4.04
   4   2  -7   62.21    4.78
  -4  -1   7    2.86    1.69
   4   1  -7    3.65    1.81
  -4   0   7    1.26    0.77
   4   0  -7    0.14    1.21
  -4   1   7    4.15    1.62
   4  -1  -7    2.46    1.29
  -4   2   7   63.73    5.80
   4  -2  -7   66.07    4.86
  -4   3   7   -0.71    1.20
   4  -3  -7    2.05    1.14
   4  -4  -7   60.12    4.55
   4  -4  -7   48.83    4.61
   4  -5  -7    5.75    1.44
   4  -5  -7    8.30    2.88
   4  -6  -7    1.77    0.87
   4  -6  -7    1.86    3.21
   4  -7  -7    9.77    1.55
   4  -7  -7    6.68    2.26
   4  -7  -7   14.56    3.44
   4  -8  -7   51.24   11.47
   4  -8  -7   60.76    5.28
   4  -8  -7   40.49   12.74
   4  -9  -7    3.77    1.73
   4  -9  -7    2.41    3.07
   4  -9  -7    5.49    1.77
   4 -10  -7   41.00    9.61
   4 -10  -7   38.99    9.72
  -4 -11   6    0.26    1.37
   4  11  -6    0.80    1.49
   4  11  -6    0.70    0.76
  -4 -10   6    6.62    2.23
   4  10  -6    5.72    2.34
   4  10  -6    4.17    2.44
  -4  -9   6    0.44    1.65
   4   9  -6    3.12    1.72
  -4  -8   6  221.34    9.84
   4   8  -6  218.70    9.94
  -4  -7   6   -0.85    1.40
   4   7  -6    0.42    1.55
  -4  -6   6    7.09    1.91
   4   6  -6   10.62    2.52
  -4  -5   6   34.73    3.05
   4   5  -6   32.60    3.09
  -4  -4   6  283.85   16.21
   4   4  -6  280.65   16.25
  -4  -3   6   13.41    3.85
   4   3  -6   12.25    2.12
  -4  -2   6   72.04    4.64
   4   2  -6   81.64    3.93
  -4  -1   6   -0.29    0.74
   4   1  -6   -0.04    1.19
  -4   0   6  735.39   25.85
   4   0  -6  695.72   24.64
  -4   1   6    0.39    0.88
   4  -1  -6   -0.07    1.22
  -4   2   6   76.88    3.31
   4  -2  -6   86.91    4.01
  -4   3   6   14.25    3.50
   4  -3  -6   14.43    3.07
  -4   4   6  329.69   18.99
   4  -4  -6  302.96   21.00
   4  -5  -6   36.67    8.04
   4  -5  -6   29.82    4.26
   4  -6  -6   10.69    1.80
   4  -6  -6   12.29    2.95
   4  -7  -6    1.63    1.07
   4  -7  -6   -1.26    2.18
   4  -7  -6   -1.00    1.91
   4  -8  -6  221.39   25.04
   4  -8  -6  227.94   11.21
   4  -8  -6  229.15   12.01
   4  -9  -6    1.06    0.81
   4  -9  -6    0.21    1.94
   4  -9  -6   -0.05    1.92
   4 -10  -6    5.37    1.36
   4 -10  -6    6.65    2.36
   4 -10  -6    6.74    2.82
   4 -11  -6    0.98    1.18
   4 -11  -6    1.95    1.01
  -4 -11   5    2.44    1.64
   4  11  -5    3.57    2.25
   4  11  -5    2.55    0.99
  -4 -10   5   47.66    3.99
   4  10  -5   48.06    4.68
   4  10  -5   47.65    5.20
  -4  -9   5    0.63    1.45
   4   9  -5   -1.02    1.58
  -4  -8   5  455.79   11.16
   4   8  -5  422.34   11.13
  -4  -7   5   14.29    2.50
   4   7  -5    9.49    2.53
  -4  -6   5    3.98    2.14
   4   6  -5    4.86    2.72
  -4  -5   5    1.87    2.10
   4   5  -5    2.10    1.78
  -4  -4   5  863.66   30.45
   4   4  -5  785.49   28.09
  -4  -3   5   40.03    2.73
   4   3  -5   46.02    3.54
  -4  -2   5  142.33    6.52
   4   2  -5  152.36    6.88
  -4  -1   5    6.47    1.25
   4   1  -5    2.42    1.33
  -4   0   5   -0.13    0.98
   4   0  -5    1.48    1.87
  -4   1   5    7.55    1.59
   4  -1  -5    6.61    1.76
  -4   2   5  145.53    6.19
   4  -2  -5  153.76    6.61
  -4   3   5   45.80    3.43
   4  -3  -5   43.13    3.48
  -4   4   5  920.27   32.61
   4  -4  -5  935.17   32.58
  -4   5   5    0.31    1.24
   4  -5  -5    0.21    0.88
   4  -6  -5    1.70    0.86
   4  -6  -5    1.18    1.91
   4  -6  -5    1.90    2.48
   4  -7  -5   11.04    2.97
   4  -7  -5    7.31    3.59
   4  -7  -5   10.85    3.09
   4  -8  -5  461.57   10.58
   4  -8  -5  472.66   12.93
   4  -8  -5  465.52   17.67
   4  -9  -5    0.76    0.80
   4  -9  -5    1.43    2.09
   4  -9  -5   -1.03    2.06
   4 -10  -5   44.85    9.20
   4 -10  -5   48.43    5.25
   4 -10  -5   42.78   12.78
   4 -11  -5   -0.56    1.01
   4 -11  -5    0.62    2.22
   4 -11  -5    1.27    1.31
  -4 -12   4  159.43    8.21
   4  12  -4  151.02    8.69
   4  12  -4  142.59   14.17
  -4 -11   4   34.86    3.51
   4  11  -4   31.37    3.60
   4  11  -4   28.14    8.55
  -4 -10   4   10.98    2.32
   4  10  -4    8.11    2.44
   4  10  -4   11.11    3.34
  -4  -9   4   11.00    2.20
   4   9  -4    7.22    2.77
  -4  -8   4   49.47    3.86
   4   8  -4   40.53    3.49
  -4  -7   4    3.78    1.63
   4   7  -4    5.04    2.61
  -4  -6   4   53.73    4.65
   4   6  -4   63.41    5.48
  -4  -5   4    1.04    1.57
   4   5  -4   -0.62    1.54
  -4  -4   4    1.20    1.41
   4   4  -4   -0.17    1.61
  -4  -3   4    0.87    1.32
   4   3  -4    1.36    1.74
  -4  -2   4  178.71    7.13
   4   2  -4  179.78    7.51
  -4  -1   4   25.65    2.00
   4   1  -4   27.59    2.34
  -4   0   4 1005.19   32.20
   4   0  -4 1051.27   33.04
  -4   1   4   30.58    2.95
   4  -1  -4   30.23    2.68
  -4   2   4  199.72    7.74
   4  -2  -4  199.66    7.81
  -4   3   4    1.25    0.66
   4  -3  -4    2.05    1.10
  -4   4   4    2.25    0.85
   4  -4  -4    3.29    1.47
  -4   5   4    1.42    1.02
   4  -5  -4    2.60    0.98
   4  -6  -4   65.45    8.82
   4  -6  -4   60.52    5.98
   4  -6  -4   66.94    6.81
   4  -7  -4    2.60    0.98
   4  -7  -4    3.56    2.27
   4  -7  -4    4.87    1.82
   4  -8  -4   48.70   10.20
   4  -8  -4   51.87    5.20
   4  -8  -4   45.28    8.91
   4  -9  -4    7.79    1.44
   4  -9  -4    4.66    2.75
   4  -9  -4    6.86    2.00
   4 -10  -4   11.81    2.43
   4 -10  -4   14.11    3.64
   4 -10  -4    7.42    2.22
   4 -11  -4   31.43    5.77
   4 -11  -4   41.53    4.48
   4 -11  -4   28.64    7.91
   4 -12  -4  112.64   22.10
   4 -12  -4  116.52   20.72
  -4 -12   3  145.31    7.10
   4  12  -3  117.17    6.82
   4  12  -3  105.67   12.48
  -4 -11   3    3.14    1.86
   4  11  -3    5.81    2.61
   4  11  -3   -0.22    1.65
  -4 -10   3  270.21   11.72
   4  10  -3  257.87   12.21
   4  10  -3  234.56   11.53
  -4  -9   3    1.48    1.55
   4   9  -3    0.91    1.79
  -4  -8   3   21.17    2.91
   4   8  -3   22.33    2.89
  -4  -7   3   -0.17    1.34
   4   7  -3    3.65    2.40
  -4  -6   3  119.98    5.20
   4   6  -3  123.20    5.61
  -4  -5   3    2.74    1.47
   4   5  -3    1.88    1.68
  -4  -4   3   13.76    2.08
   4   4  -3   17.42    2.64
  -4  -3   3    5.74    1.83
   4   3  -3    3.00    1.70
  -4  -2   3  229.63    6.93
   4   2  -3  229.15    7.12
  -4  -1   3   33.78    2.25
   4   1  -3   38.15    3.23
  -4   0   3    0.91    0.67
   4   0  -3   -0.62    1.35
  -4   1   3   41.38    4.59
   4  -1  -3   34.98    2.47
  -4   2   3  245.82    7.02
   4  -2  -3  249.28    7.18
  -4   3   3    4.83    1.37
   4  -3  -3    3.82    1.19
  -4   4   3   20.26    4.26
   4  -4  -3   18.41    4.15
  -4   5   3   -0.06    0.58
   4  -5  -3    0.48    0.61
   4  -5  -3   -1.35    2.23
   4  -6  -3  130.54    4.97
   4  -6  -3  132.25    6.82
   4  -7  -3    1.75    1.55
   4  -7  -3    3.03    1.94
   4  -7  -3    2.12    1.38
   4  -8  -3   24.31    3.29
   4  -8  -3   25.81    3.86
   4  -8  -3   22.59    5.59
   4  -9  -3    0.33    1.23
   4  -9  -3   -0.80    1.71
   4  -9  -3   -2.44    2.23
   4 -10  -3  274.99   16.42
   4 -10  -3  258.37   12.21
   4 -10  -3  232.64   31.09
   4 -11  -3    1.62    0.79
   4 -11  -3    3.38    2.80
   4 -11  -3    2.09    1.38
   4 -12  -3  101.11   14.84
   4 -12  -3  121.83    6.60
   4 -12  -3   86.18   25.56
  -4 -12   2   15.62    3.16
   4  12  -2   11.12    2.93
  -4 -11   2    2.24    1.87
   4  11  -2    0.15    1.93
   4  11  -2    1.95    1.16
  -4 -10   2   39.34    3.83
   4  10  -2   35.21    4.02
   4  10  -2   26.29    7.90
  -4  -9   2    2.21    1.87
  -4  -8   2    0.67    1.57
   4   8  -2    0.17    1.57
  -4  -7   2   18.56    2.42
   4   7  -2   16.81    2.64
  -4  -6   2  564.39   20.92
   4   6  -2  576.12   21.79
  -4  -5   2    0.87    1.51
   4   5  -2   -1.04    1.63
  -4  -4   2  267.53   10.25
   4   4  -2  259.15   10.26
  -4  -3   2   58.99    3.17
   4   3  -2   58.88    3.61
  -4  -2   2    1.05    1.21
   4   2  -2    5.59    2.36
  -4  -1   2    5.32    1.97
   4   1  -2    4.06    1.61
  -4   0   2    3.58    1.36
   4   0  -2    2.45    1.42
  -4   1   2    5.49    1.25
   4  -1  -2    3.92    1.16
  -4   2   2    0.51    0.61
   4  -2  -2    1.07    1.23
  -4   3   2   78.46    5.16
   4  -3  -2   66.52    3.20
  -4   4   2  279.89    9.99
   4  -4  -2  299.78   14.57
  -4   5   2   -0.52    1.12
   4  -5  -2    0.17    0.76
   4  -5  -2    1.81    2.32
  -4   6   2  553.00   20.04
   4  -6  -2  627.90   22.51
   4  -6  -2  646.72   25.09
   4  -7  -2   24.47    5.60
   4  -7  -2   22.63    3.40
   4  -7  -2   21.08    4.70
   4  -8  -2    0.44    0.53
   4  -8  -2   -0.39    1.90
   4  -8  -2    1.20    1.46
   4  -9  -2   -0.10    1.32
   4  -9  -2    1.68    1.99
   4  -9  -2    1.98    1.66
   4 -10  -2   34.57    7.26
   4 -10  -2   33.90    3.81
   4 -10  -2   35.06    9.58
   4 -11  -2   -1.22    1.30
   4 -11  -2    5.15    2.88
   4 -11  -2    3.98    1.66
   4 -12  -2    9.47    2.04
   4 -12  -2    9.23    2.75
   4 -12  -2    5.89    2.55
  -4 -12   1    9.48    2.81
   4  12  -1    3.64    2.38
   4  12  -1    5.52    1.56
  -4 -11   1    0.66    1.65
   4  11  -1    3.73    2.05
   4  11  -1    2.61    1.33
  -4 -10   1    6.09    2.17
   4  10  -1    4.19    2.65
   4  10  -1    9.29    3.28
  -4  -9   1    4.13    1.76
   4   9  -1    0.66    1.86
   4   9  -1    4.04    1.69
  -4  -8   1  346.75   19.94
   4   8  -1  307.50   18.08
  -4  -7   1   34.05    3.29
   4   7  -1   23.40    3.31
  -4  -6   1    5.68    1.97
   4   6  -1    6.10    2.04
  -4  -5   1   10.72    2.12
   4   5  -1   13.76    2.69
  -4  -4   1  646.10   21.62
   4   4  -1  614.12   20.85
  -4  -3   1    8.48    1.99
   4   3  -1    9.07    2.08
  -4  -2   1    2.76    1.94
   4   2  -1    2.55    1.73
  -4  -1   1    1.91    1.29
   4   1  -1    3.74    2.01
  -4   0   1    0.65    1.18
   4   0  -1    0.79    1.37
  -4   1   1   -0.10    0.83
   4  -1  -1    0.86    1.22
  -4   2   1    3.54    1.96
   4  -2  -1    7.61    1.70
  -4   3   1   11.63    2.34
   4  -3  -1    8.24    1.61
  -4   4   1  640.86   14.40
   4  -4  -1  653.72   14.72
   4  -4  -1  681.68   18.18
  -4   5   1   16.64    4.69
   4  -5  -1   16.69    3.61
   4  -5  -1   16.62    3.79
  -4   6   1    6.22    1.65
   4  -6  -1    8.97    1.43
   4  -6  -1    7.03    2.91
   4  -7  -1   31.72    6.29
   4  -7  -1   26.01    3.10
   4  -7  -1   31.65    7.18
   4  -8  -1  373.04   20.68
   4  -8  -1  397.53   22.96
   4  -8  -1  332.71   20.24
   4  -9  -1    4.17    2.02
   4 -10  -1    8.76    1.98
   4 -10  -1   11.55    3.03
   4 -10  -1    4.68    2.12
   4 -11  -1    2.55    0.82
   4 -11  -1    4.11    1.99
   4 -11  -1    3.00    1.33
   4 -12  -1    8.36    2.53
   4 -12  -1    2.86    2.05
   4 -12  -1    6.23    2.84
  -4 -12   0  470.94   21.93
   4  12   0  515.35   24.75
   4  12   0  472.73   33.90
  -4 -11   0    3.82    2.79
   4  11   0   -1.25    1.87
   4  11   0   -0.68    1.50
  -4 -10   0   17.17    3.20
   4  10   0    9.71    2.67
   4  10   0   15.70    3.53
  -4  -9   0    0.37    1.58
   4   9   0    4.19    2.15
   4   9   0   -0.99    1.28
  -4  -8   0  136.73    9.12
   4   8   0  126.18    8.93
  -4  -7   0    0.86    1.56
   4   7   0   -1.66    1.77
  -4  -6   0  425.43   15.92
   4   6   0  379.32   14.60
  -4  -5   0    1.98    1.50
   4   5   0    1.64    1.93
  -4  -4   0  113.52    4.86
   4   4   0  108.73    5.09
  -4  -3   0   -0.79    1.47
   4   3   0   -1.60    1.52
  -4  -2   0    4.60    1.57
   4   2   0    6.69    1.93
  -4  -1   0   -1.04    1.30
   4   1   0    1.91    1.64
  -4   0   0 3078.74   84.54
   4   0   0 3086.34   18.23
  -4   1   0    1.10    0.96
   4  -1   0    1.53    1.35
  -4   2   0    9.33    1.98
   4  -2   0    8.48    1.60
  -4   3   0    0.68    0.50
   4  -3   0    1.16    1.14
   4  -3   0   -0.17    1.67
  -4   4   0  113.96    5.90
   4  -4   0  119.61    4.46
   4  -4   0  107.13   12.04
  -4   5   0    0.19    0.60
   4  -5   0    0.03    0.77
   4  -5   0   -2.53    1.87
  -4   6   0  432.26   14.98
   4  -6   0  416.92   14.65
   4  -6   0  399.69   19.87
   4  -7   0    0.72    0.56
   4  -7   0   -0.23    1.69
   4  -7   0   -0.73    2.12
   4  -8   0  157.83   12.40
   4  -8   0  168.00   11.04
   4  -8   0  129.44   17.03
   4  -9   0    0.11    0.63
   4  -9   0    1.81    1.73
   4  -9   0    2.01    1.65
   4 -10   0   13.93    3.15
   4 -10   0   19.12    3.33
   4 -10   0   16.10    3.88
   4 -11   0    0.39    1.46
   4 -11   0    2.08    1.87
   4 -11   0   -0.48    2.12
   4 -12   0  545.49   14.45
   4 -12   0  539.32   11.90
   4 -12   0  501.79   26.78
  -4 -12  -1    4.70    1.98
   4  12   1    8.06    3.81
   4  12   1    5.53    3.61
  -4 -11  -1    1.82    1.91
   4  11   1    1.14    2.30
   4  11   1    0.40    1.04
  -4 -10  -1    7.64    2.54
   4  10   1    5.34    2.47
   4  10   1    6.16    2.00
  -4  -9  -1    3.84    2.50
   4   9   1    4.23    2.65
   4   9   1    2.04    1.46
   4   8   1  341.25   20.19
   4   8   1  338.12   19.22
  -4  -7  -1   31.34    3.45
   4   7   1   23.88    3.53
  -4  -6  -1    6.06    2.40
   4   6   1    3.19    1.91
  -4  -5  -1   13.43    2.62
   4   5   1   10.71    2.66
  -4  -4  -1  649.72   21.73
   4   4   1  675.91   23.07
  -4  -3  -1   10.27    1.91
   4   3   1   10.30    2.47
  -4  -2  -1    9.43    1.82
   4   2   1    5.00    2.44
  -4  -1  -1    0.53    1.21
   4   1   1    0.93    1.50
  -4   0  -1   -0.31    1.08
   4   0   1    0.48    1.30
  -4   1  -1   -0.02    0.92
   4  -1   1    1.71    1.76
  -4   2  -1    4.48    1.28
   4  -2   1    2.17    1.27
   4  -2   1    6.75    2.58
  -4   3  -1   11.04    2.07
   4  -3   1   11.32    1.94
   4  -3   1   10.77    2.89
  -4   4  -1  647.54   14.29
   4  -4   1  670.82   14.97
   4  -4   1  666.17   17.43
  -4   5  -1   16.58    3.64
   4  -5   1   13.42    2.57
   4  -5   1   13.77    2.76
  -4   6  -1    6.32    1.97
   4  -6   1    5.10    1.14
   4  -6   1    5.23    2.31
   4  -7   1   32.36    7.65
   4  -7   1   26.40    2.81
   4  -7   1   26.81    7.19
   4  -8   1  364.57   20.13
   4  -8   1  401.22   22.89
   4  -9   1    1.36    0.87
   4  -9   1    3.51    1.85
   4  -9   1   -2.10    2.06
   4 -10   1    8.82    2.04
   4 -10   1   10.91    2.87
   4 -10   1    7.71    2.03
   4 -11   1    3.14    1.28
   4 -11   1    4.97    2.64
   4 -11   1    0.71    1.45
   4 -12   1    8.33    1.90
   4 -12   1    9.58    2.65
   4 -12   1    4.20    2.24
  -4 -12  -2   12.21    3.03
   4  12   2   11.34    3.46
   4  12   2   10.60    2.97
  -4 -11  -2    2.43    2.41
   4  11   2    2.09    3.25
   4  11   2    2.81    1.09
  -4 -10  -2   39.36    3.91
   4  10   2   35.18    4.38
   4  10   2   37.84    9.95
  -4  -9  -2    1.69    1.80
   4   9   2    1.85    1.96
   4   9   2   -0.14    0.87
  -4  -8  -2    3.16    1.92
   4   8   2   -0.73    1.94
   4   8   2    0.44    0.52
  -4  -7  -2   23.96    2.89
   4   7   2   23.75    3.55
   4   7   2   20.79    2.63
  -4  -6  -2  569.69   21.36
   4   6   2  520.33   20.11
  -4  -5  -2   -1.26    1.39
   4   5   2    0.00    1.81
  -4  -4  -2  287.13   11.17
   4   4   2  284.71   11.46
  -4  -3  -2   69.43    4.05
   4   3   2   72.86    4.53
  -4  -2  -2    2.40    1.48
   4   2   2    2.62    1.77
  -4  -1  -2    1.50    1.18
   4   1   2    3.10    1.59
  -4   0  -2    2.91    1.14
   4   0   2    4.84    2.32
   4   0   2    4.54    1.57
  -4   1  -2    2.98    1.03
   4  -1   2    4.07    1.81
   4  -1   2    4.47    2.23
  -4   2  -2    1.14    0.78
   4  -2   2    2.44    1.64
   4  -2   2    2.60    1.34
  -4   3  -2   72.48    3.52
   4  -3   2   63.83    2.91
   4  -3   2   75.94   11.20
  -4   4  -2  289.83   10.78
   4  -4   2  290.78   10.34
   4  -4   2  301.56   12.28
  -4   5  -2   -0.06    0.84
   4  -5   2    1.31    1.24
   4  -5   2    1.81    0.76
  -4   6  -2  622.08   21.85
   4  -6   2  608.36   21.49
   4  -6   2  558.71   21.65
   4  -7   2   21.23    5.38
   4  -7   2   22.30    2.81
   4  -7   2   21.09    4.42
   4  -8   2    0.68    0.73
   4  -8   2    2.58    2.31
   4  -8   2    2.17    2.15
  -4   8  -2    3.58    3.10
   4  -9   2    3.68    1.54
   4  -9   2    1.63    1.48
   4  -9   2    2.01    1.45
  -4   9  -2   -0.36    2.38
   4 -10   2   38.81    6.92
   4 -10   2   39.31    3.73
   4 -10   2   28.69    8.02
  -4  10  -2   45.06    5.44
   4 -11   2    0.25    0.74
   4 -11   2    3.11    1.81
   4 -11   2    3.45    2.00
   4 -12   2    7.29    2.14
   4 -12   2   17.25    3.47
   4 -12   2   13.35    4.67
   4  12   3  117.40    7.69
   4  12   3  123.59   11.65
  -4 -11  -3    1.84    1.67
   4  11   3    0.59    2.13
   4  11   3    0.89    0.95
  -4 -10  -3  257.37   11.73
   4  10   3  267.97   13.36
   4  10   3  219.47    9.54
  -4  -9  -3   -1.59    1.64
   4   9   3    2.48    2.09
   4   9   3    0.37    0.53
  -4  -8  -3   22.65    3.25
   4   8   3   20.98    3.67
   4   8   3   19.33    5.50
  -4  -7  -3    2.76    2.36
   4   7   3    7.14    3.25
   4   7   3    1.82    0.57
  -4  -6  -3  127.22    5.60
   4   6   3  116.81    5.64
   4   6   3  125.48    3.82
  -4  -5  -3    1.37    1.46
   4   5   3    2.88    1.89
  -4  -4  -3   18.02    2.51
   4   4   3   16.57    2.95
  -4  -3  -3    2.25    1.66
   4   3   3    4.55    2.74
  -4  -2  -3  232.53    7.18
   4   2   3  258.93    8.40
  -4  -1  -3   30.43    2.37
   4   1   3   34.25    3.11
   4   1   3   32.84    3.28
  -4   0  -3   -0.77    0.96
   4   0   3    2.23    2.51
   4   0   3    1.34    0.75
  -4   1  -3   35.72    2.14
   4  -1   3   35.18    2.83
   4  -1   3   37.27    4.91
  -4   2  -3  250.36    6.57
   4  -2   3  213.71    6.36
   4  -2   3  260.10   10.48
  -4   3  -3    5.02    1.34
   4  -3   3    5.65    1.72
   4  -3   3    3.09    0.83
  -4   4  -3   21.66    2.27
   4  -4   3   17.93    1.87
   4  -4   3   19.89    4.81
  -4   5  -3    1.40    0.54
   4  -5   3    0.87    1.23
   4  -5   3    1.75    1.35
  -4   5  -3   -1.48    1.86
  -4   6  -3  134.19    5.93
   4  -6   3  131.53    4.03
   4  -6   3  128.26   16.57
  -4   6  -3  142.45    8.21
   4  -7   3    0.40    1.14
   4  -7   3    3.23    1.39
   4  -7   3    1.61    1.16
  -4   7  -3    2.90    3.06
   4  -8   3   22.20    4.88
   4  -8   3   23.68    2.89
   4  -8   3   19.89    4.17
  -4   8  -3   20.15    3.52
   4  -9   3   -0.75    1.02
   4  -9   3   -0.25    1.62
   4  -9   3    4.91    2.20
  -4   9  -3   -0.12    2.11
   4 -10   3  268.37   10.57
   4 -10   3  294.06   12.52
   4 -10   3  267.97   17.44
  -4  10  -3  257.11   12.74
   4 -11   3    2.29    1.01
   4 -11   3    4.18    2.38
   4 -11   3   -0.06    2.12
  -4  11  -3   -1.23    2.09
   4 -12   3  119.83   13.81
   4 -12   3  142.35    6.65
  -4  12  -3  134.12    8.99
   4  12   4  132.03    9.19
   4  12   4  110.17    6.34
  -4 -11  -4   44.38    4.78
   4  11   4   33.76    4.53
   4  11   4   24.99    5.94
  -4 -10  -4   16.06    3.12
   4  10   4   12.96    3.32
   4  10   4   11.72    1.74
  -4  -9  -4    9.18    3.07
   4   9   4    5.78    2.10
   4   9   4    5.78    1.36
  -4  -8  -4   58.72    4.47
   4   8   4   49.23    4.27
   4   8   4   48.52    8.24
  -4  -7  -4    3.53    2.50
   4   7   4    7.04    2.80
   4   7   4    2.88    1.03
  -4  -6  -4   57.42    4.85
   4   6   4   64.65    5.92
   4   6   4   53.44    4.57
  -4  -5  -4   -0.07    1.50
   4   5   4    1.62    1.91
   4   5   4    0.31    0.49
  -4  -4  -4    1.29    1.52
   4   4   4    2.18    2.52
   4   4   4    0.81    0.57
  -4  -3  -4    2.80    2.32
   4   3   4   -1.77    1.74
   4   3   4    0.69    0.78
  -4  -2  -4  174.22    7.21
   4   2   4  185.73    8.25
   4   2   4  188.70    8.32
  -4  -1  -4   25.28    2.23
   4   1   4   31.89    3.09
   4   1   4   39.27    5.56
  -4   0  -4 1036.44   32.49
   4   0   4 1064.15   33.95
   4   0   4 1140.60   35.88
  -4   1  -4   29.12    1.96
   4  -1   4   27.31    2.72
   4  -1   4   32.46    7.10
  -4   2  -4  185.10    6.81
   4  -2   4  180.20    7.45
   4  -2   4  204.45   11.82
  -4   3  -4    0.90    0.58
   4  -3   4   -0.70    1.10
   4  -3   4    3.40    1.35
  -4   4  -4    1.39    0.70
   4  -4   4    1.22    1.12
   4  -4   4    0.98    1.80
  -4   4  -4    2.45    1.83
  -4   5  -4    0.65    0.44
   4  -5   4    0.73    1.08
   4  -5   4   -0.82    1.33
  -4   5  -4    2.66    2.59
   4  -6   4   63.83    4.50
   4  -6   4   51.79   11.76
  -4   6  -4   60.12    5.53
   4  -7   4    4.30    1.19
   4  -7   4    4.70    2.01
   4  -7   4    6.26    2.55
  -4   7  -4    3.24    1.95
   4  -8   4   53.34    2.92
   4  -8   4   58.66    3.80
   4  -8   4   47.25   12.38
  -4   8  -4   45.38    4.63
   4  -9   4    5.70    1.83
   4  -9   4   10.01    1.89
   4  -9   4    4.73    2.32
  -4   9  -4    3.52    2.33
   4 -10   4    8.40    1.90
   4 -10   4   14.92    2.67
   4 -10   4    6.28    2.27
  -4  10  -4   19.23    4.23
   4 -11   4   29.52    6.95
   4 -11   4   41.26    3.99
   4 -11   4   19.30    5.86
  -4  11  -4   37.41    5.11
   4 -12   4  167.32    7.95
   4 -12   4  171.31    8.17
  -4  12  -4  147.08   10.19
  -4 -11  -5    7.30    2.93
   4  11   5   -0.98    2.48
  -4 -10  -5   55.33    4.93
   4  10   5   60.75    5.99
  -4  -9  -5    0.37    1.74
   4   9   5   -2.66    2.18
  -4  -8  -5  463.35   12.00
   4   8   5  473.16   13.54
  -4  -7  -5   12.36    2.34
   4   7   5   17.02    3.33
  -4  -6  -5    2.32    1.75
   4   6   5   -0.53    1.79
  -4  -5  -5    3.89    2.20
   4   5   5    0.71    2.13
  -4  -4  -5  835.87   29.85
   4   4   5  926.86   33.39
  -4  -3  -5   41.07    3.29
   4   3   5   43.82    3.60
  -4  -2  -5  153.92    6.92
   4   2   5  147.21    7.00
   4   2   5  163.54    6.52
  -4  -1  -5    5.46    1.47
   4   1   5    8.38    3.07
   4   1   5    3.80    0.97
  -4   0  -5   -0.15    0.90
   4   0   5    3.39    3.00
   4   0   5   -1.66    0.87
  -4   1  -5    6.83    1.39
   4  -1   5    7.49    2.63
   4  -1   5    8.65    2.18
  -4   2  -5  149.57    5.80
   4  -2   5  143.66    6.54
   4  -2   5  161.81    7.84
  -4   3  -5   42.13    3.41
   4  -3   5   35.98    2.62
   4  -3   5   43.46    6.42
  -4   3  -5   45.90    3.65
  -4   4  -5  905.88   30.64
   4  -4   5  820.95   28.49
   4  -4   5  972.27   34.82
  -4   4  -5  974.20   34.65
  -4   5  -5    0.84    0.55
   4  -5   5   -0.12    0.93
   4  -5   5    0.26    1.11
  -4   5  -5    0.13    1.60
   4  -6   5    1.09    0.98
   4  -6   5    0.25    1.05
   4  -6   5   -0.67    1.77
  -4   6  -5    6.31    1.69
   4  -7   5   11.28    1.67
   4  -7   5   12.43    1.97
   4  -7   5   10.40    3.39
  -4   7  -5   14.06    3.24
   4  -8   5  474.39    9.45
   4  -8   5  509.44    8.52
   4  -8   5  489.47   14.09
  -4   8  -5  498.76   12.53
   4  -9   5    1.18    1.44
   4  -9   5    0.33    1.16
   4  -9   5    3.13    1.84
  -4   9  -5    0.69    1.18
   4 -10   5   55.81    3.81
   4 -10   5   61.33    4.51
   4 -10   5   48.01    5.76
  -4  10  -5   57.62    8.87
   4 -11   5    1.40    1.10
   4 -11   5    1.54    1.23
   4 -11   5    1.29    2.34
  -4  11  -5    0.73    2.40
   4  11   6    1.15    2.54
  -4 -10  -6    6.76    2.60
   4  10   6    6.68    2.68
  -4  -9  -6    1.45    1.83
   4   9   6    0.51    2.00
  -4  -8  -6  241.10   11.06
   4   8   6  257.63   12.69
  -4  -7  -6    0.02    1.59
   4   7   6   -1.01    1.92
  -4  -6  -6   12.35    2.70
   4   6   6   11.12    2.81
  -4  -5  -6   34.57    3.29
   4   5   6   32.42    3.48
  -4  -4  -6  301.39   17.52
   4   4   6  340.92   20.01
  -4  -3  -6   14.17    2.72
   4   3   6   15.88    2.87
  -4  -2  -6   80.07    3.98
   4   2   6   80.66    4.37
  -4  -1  -6    2.14    1.36
   4   1   6    0.07    1.50
  -4   0  -6  667.41   23.48
   4   0   6  723.74   25.88
   4   0   6  754.65   26.34
  -4   1  -6    0.53    0.84
   4  -1   6    1.70    1.38
   4  -1   6    1.50    0.82
  -4   2  -6   76.98    3.06
   4  -2   6   68.57    3.72
   4  -2   6   85.36   12.70
  -4   2  -6   85.98    4.22
  -4   3  -6   14.27    2.62
   4  -3   6   10.76    2.08
   4  -3   6   15.53    3.56
  -4   3  -6   12.79    2.57
  -4   4  -6  295.20   16.11
   4  -4   6  261.52   14.91
   4  -4   6  325.08   19.14
  -4   4  -6  324.78   19.61
  -4   5  -6   37.34    2.59
   4  -5   6   34.06    2.77
   4  -5   6   38.37    9.46
  -4   5  -6   39.17    9.38
   4  -6   6    5.70    1.72
   4  -6   6   12.46    1.98
   4  -6   6   10.47    2.56
  -4   6  -6   10.98    2.82
   4  -7   6    0.33    0.84
   4  -7   6    0.41    0.95
   4  -7   6    0.55    1.78
  -4   7  -6    3.28    2.05
   4  -8   6  211.99    8.37
   4  -8   6  246.87    9.60
   4  -8   6  219.92   11.21
  -4   8  -6  240.35   16.43
   4  -9   6    0.99    0.90
   4  -9   6    1.99    1.44
   4  -9   6    0.60    2.24
  -4   9  -6    3.16    1.68
  -4  10  -6    4.71    2.02
   4 -11   6    0.82    0.88
   4 -11   6    2.25    1.47
  -4  11  -6   -0.29    1.60
  -4 -10  -7   58.45    4.83
   4  10   7   58.08    5.55
  -4  -9  -7    2.97    1.71
   4   9   7    0.89    2.22
  -4  -8  -7   57.81    5.12
   4   8   7   48.98    4.74
  -4  -7  -7   10.49    2.89
   4   7   7   14.65    3.42
  -4  -6  -7    0.37    1.49
   4   6   7    7.72    3.04
  -4  -5  -7    4.54    2.05
   4   5   7    2.30    1.83
  -4  -4  -7   56.60    3.90
   4   4   7   56.48    3.93
  -4  -3  -7    2.24    1.39
   4   3   7    1.80    1.46
  -4  -2  -7   63.38    4.91
   4   2   7   66.50    5.24
  -4  -1  -7    3.76    1.62
   4   1   7    4.46    1.91
  -4   0  -7    3.00    1.26
   4   0   7    0.28    1.14
  -4   1  -7    3.96    1.26
   4  -1   7    5.26    1.91
  -4   1  -7    6.61    2.23
  -4   2  -7   62.32    4.02
   4  -2   7   55.37    4.09
  -4   2  -7   67.04    5.13
  -4   3  -7    0.26    0.59
   4  -3   7    1.02    1.04
  -4   3  -7    0.07    0.53
  -4   4  -7   53.50    1.87
   4  -4   7   52.79    2.85
   4  -4   7   52.83    4.32
  -4   4  -7   53.76   14.05
   4  -5   7    3.86    1.65
   4  -5   7    4.72    1.34
   4  -5   7    3.07    2.48
  -4   5  -7    1.40    1.23
   4  -6   7    3.56    1.69
   4  -6   7    2.88    1.14
  -4   6  -7    0.26    1.08
   4  -7   7    7.43    1.95
   4  -7   7   11.19    1.29
  -4   7  -7    7.12    2.32
   4  -8   7   47.50    2.85
   4  -8   7   63.60    3.00
  -4   8  -7   51.50   13.42
   4  -9   7    3.37    1.47
   4  -9   7    2.50    1.21
  -4   9  -7    3.16    2.07
   4 -10   7   47.21    2.44
   4 -10   7   60.30    2.98
  -4  10  -7   50.46   13.22
  -4  -9  -8    0.51    1.52
   4   9   8    1.66    2.20
  -4  -8  -8  167.17    7.95
   4   8   8  175.32    9.00
  -4  -7  -8    1.17    1.49
   4   7   8    3.35    2.68
  -4  -6  -8   56.74    4.41
   4   6   8   59.30    4.90
  -4  -5  -8    3.20    2.18
   4   5   8    0.87    1.74
  -4  -4  -8    5.44    2.01
   4   4   8    1.83    1.65
  -4  -3  -8    2.45    1.28
   4   3   8   -0.06    1.30
  -4  -2  -8  427.99   16.79
   4   2   8  402.98   15.86
  -4  -1  -8    6.68    1.68
   4   1   8    2.06    1.56
  -4   0  -8   63.02    2.97
   4   0   8   71.63    4.22
  -4   1  -8    4.38    1.45
   4  -1   8    1.26    0.91
  -4   1  -8    2.37    1.45
  -4   2  -8  401.82   14.36
   4  -2   8  429.13   15.76
  -4   2  -8  447.71   17.34
  -4   3  -8    0.75    0.21
   4  -3   8    2.05    1.10
  -4   3  -8    1.70    0.74
  -4   4  -8    5.51    1.07
   4  -4   8    4.09    1.07
  -4   4  -8    4.37    1.67
   4  -5   8    2.05    0.77
  -4   5  -8    2.45    1.13
  -4   6  -8   47.91   15.39
  -4   7  -8   -2.09    1.81
  -4   8  -8  157.42   17.35
  -4   9  -8    2.21    1.46
  -4  -8  -9   52.43    4.22
   4   8   9   52.04    5.11
  -4  -7  -9    1.32    1.41
   4   7   9    4.65    3.48
  -4  -6  -9   21.21    2.83
   4   6   9   25.72    3.55
  -4  -5  -9    3.91    1.62
   4   5   9    1.84    1.53
  -4  -4  -9   18.67    2.45
   4   4   9   17.59    2.54
  -4  -3  -9   -0.22    1.14
   4   3   9    0.66    1.16
  -4  -2  -9   12.66    2.17
   4   2   9   13.28    2.14
  -4  -1  -9    5.63    1.68
   4   1   9    3.85    1.70
  -4   0  -9    0.10    1.01
   4   0   9   -0.26    0.89
  -4   1  -9    8.68    1.65
   4  -1   9    3.19    1.41
  -4   1  -9    4.56    1.37
  -4   2  -9   15.47    3.16
   4  -2   9    8.82    1.37
  -4   2  -9   15.56    3.52
  -4   3  -9    0.29    0.24
   4  -3   9    0.18    0.34
  -4   3  -9    1.23    0.81
  -4   4  -9   19.72    5.88
  -4   5  -9    3.81    1.33
  -4   6  -9   21.73    6.00
  -4   7  -9    1.23    1.35
  -4   8  -9   40.37   13.73
  -4  -7 -10    6.56    2.36
   4   7  10    4.77    2.33
  -4  -6 -10    1.48    1.44
   4   6  10    3.97    2.70
  -4  -5 -10    1.03    1.26
   4   5  10    3.51    1.75
  -4  -4 -10  228.40   11.89
   4   4  10  275.27   14.25
  -4  -3 -10    8.99    2.28
   4   3  10    6.10    1.72
  -4  -2 -10   65.97    3.92
   4   2  10   74.13    4.49
  -4  -1 -10    1.45    1.61
   4   1  10    0.44    0.97
  -4   0 -10  200.95    7.20
   4   0  10  214.09    7.64
  -4   1 -10    1.34    1.11
   4  -1  10    0.66    0.87
  -4   1 -10    0.62    0.92
  -4   2 -10   73.77    2.54
   4  -2  10   78.79    3.10
  -4   2 -10   75.20    9.31
  -4   3 -10    8.21    1.59
  -4   4 -10  264.41   13.84
  -4   5 -10    1.75    1.22
  -4   6 -10    2.54    1.27
  -4   7 -10    2.74    1.10
  -4  -5 -11    0.65    1.34
   4   5  11    0.64    1.62
  -4  -4 -11  250.84    7.54
   4   4  11  254.66    8.20
  -4  -3 -11    3.54    2.35
   4   3  11    2.58    1.97
  -4  -2 -11   45.27    3.30
   4   2  11   42.42    3.36
  -4  -1 -11    7.05    1.83
   4   1  11   10.01    1.92
  -4   0 -11    0.20    0.82
   4   0  11    0.56    0.73
  -4   1 -11    8.32    1.07
   4  -1  11    8.31    1.40
  -4   1 -11   11.01    2.06
  -4   2 -11   46.56    8.35
  -4   3 -11    1.52    1.20
  -4   4 -11  299.35    8.95
  -4   5 -11    0.87    0.97
  -4  -1 -12    3.11    1.56
   4   1  12    0.83    0.73
  -4   0 -12  188.86    7.17
  -4   1 -12    3.63    1.45
  -5  -2  11    0.89    0.64
   5   2 -11   -0.01    1.13
  -5  -1  11    4.14    1.91
   5   1 -11   10.32    2.29
  -5   0  11    0.63    0.82
   5   0 -11   -0.16    1.10
   5  -1 -11    9.12    2.20
   5  -1 -11    3.96    1.78
   5  -2 -11    1.01    1.19
   5  -2 -11    0.79    1.56
  -5  -5  10    0.48    0.98
   5   5 -10    0.00    1.27
  -5  -4  10    3.12    1.62
   5   4 -10    1.19    1.27
  -5  -3  10    7.33    1.63
   5   3 -10    5.06    2.33
  -5  -2  10    1.08    1.15
   5   2 -10    0.88    1.16
  -5  -1  10  184.70    8.56
   5   1 -10  172.09    7.39
  -5   0  10    6.66    1.81
   5   0 -10    5.57    1.85
  -5   1  10  188.21    9.39
   5  -1 -10  161.20    7.00
   5  -2 -10   -0.16    1.25
   5  -3 -10    7.77    2.40
   5  -3 -10    8.44    3.04
   5  -4 -10    2.90    1.63
   5  -4 -10    8.51    3.29
   5  -5 -10   -0.62    1.60
   5  -5 -10   -1.59    2.15
  -5  -7   9    8.34    1.98
   5   7  -9   11.89    3.02
  -5  -6   9    1.54    0.89
   5   6  -9    1.00    1.40
  -5  -5   9   40.49   10.76
   5   5  -9   42.21    3.69
  -5  -4   9    1.59    0.93
   5   4  -9    3.48    2.30
  -5  -3   9  100.89   10.31
   5   3  -9  126.44    7.90
  -5  -2   9   10.86    3.04
   5   2  -9   14.51    2.35
  -5  -1   9  195.10    7.58
   5   1  -9  185.86    7.60
  -5   0   9    0.50    0.93
   5   0  -9   -0.16    1.17
  -5   1   9  205.30   10.92
   5  -1  -9  193.48    7.89
  -5   2   9   11.31    3.00
   5  -2  -9   15.51    2.61
   5  -3  -9  118.60    7.23
   5  -4  -9    3.71    2.20
   5  -4  -9    3.12    2.25
   5  -5  -9   48.05    9.41
   5  -5  -9   51.81    5.64
   5  -6  -9    1.89    0.84
   5  -6  -9    3.30    2.55
   5  -7  -9    7.85    1.86
   5  -7  -9   12.31    3.21
   5  -7  -9    4.63    2.39
  -5  -8   8    5.86    2.24
   5   8  -8    6.51    2.43
  -5  -7   8  294.82   14.42
   5   7  -8  363.95   17.75
  -5  -6   8    2.86    1.45
   5   6  -8    7.70    2.16
  -5  -5   8  429.49   14.16
   5   5  -8  450.52   15.16
  -5  -4   8    2.47    1.45
   5   4  -8    1.52    1.39
  -5  -3   8  289.40   14.24
   5   3  -8  337.67   13.90
  -5  -2   8    1.03    0.99
   5   2  -8    0.34    1.30
  -5  -1   8   97.71    7.90
   5   1  -8   98.44    4.80
  -5   0   8    1.18    0.91
   5   0  -8    1.66    1.37
  -5   1   8   89.50    6.20
   5  -1  -8   94.73    4.64
  -5   2   8    0.68    0.82
   5  -2  -8   -1.28    1.24
  -5   3   8  313.11   13.61
   5  -3  -8  328.56   13.34
   5  -4  -8    1.25    1.43
   5  -5  -8  467.29   15.18
   5  -5  -8  483.31   17.65
   5  -6  -8   11.70    2.47
   5  -6  -8    6.35    2.87
   5  -7  -8  311.71   16.39
   5  -7  -8  330.81   17.56
   5  -7  -8  290.92   16.20
   5  -8  -8    5.54    1.93
   5  -8  -8    7.76    2.63
  -5  -9   7    6.62    2.35
   5   9  -7    7.57    2.45
  -5  -8   7    1.65    1.74
   5   8  -7    3.10    1.69
  -5  -7   7   10.13    2.50
   5   7  -7   10.96    2.33
  -5  -6   7    3.90    1.74
   5   6  -7    4.22    1.68
  -5  -5   7   33.02    7.84
   5   5  -7   29.11    2.98
  -5  -4   7   24.43    7.84
   5   4  -7   21.15    2.76
  -5  -3   7   94.30    4.76
   5   3  -7  101.89    5.19
  -5  -2   7    2.08    2.01
   5   2  -7    3.29    2.02
  -5  -1   7  112.70    7.69
   5   1  -7  106.22    4.77
  -5   0   7    0.92    0.79
   5   0  -7   -0.33    1.26
   5  -1  -7  112.88    4.84
   5  -2  -7    3.15    1.85
  -5   3   7  103.33    4.61
   5  -3  -7  109.36    4.88
  -5   4   7   26.26    7.78
   5  -4  -7   25.05    2.94
   5  -5  -7   28.97    6.50
   5  -5  -7   31.16    5.03
   5  -6  -7    4.29    1.82
   5  -6  -7    0.66    2.19
   5  -7  -7   10.46    2.57
   5  -7  -7   14.62    4.07
   5  -7  -7   11.03    3.99
   5  -8  -7    2.25    1.18
   5  -8  -7    5.21    2.62
   5  -8  -7    1.65    2.21
   5  -9  -7    3.06    1.25
   5  -9  -7    3.92    1.45
  -5 -10   6   -0.98    1.51
   5  10  -6   -1.18    1.60
  -5  -9   6    0.40    1.55
   5   9  -6    6.66    2.17
  -5  -8   6    7.53    2.45
   5   8  -6    4.47    2.29
  -5  -7   6    0.91    1.67
   5   7  -6   -1.49    1.61
  -5  -6   6    5.80    1.96
   5   6  -6    5.58    2.45
  -5  -5   6   39.60    3.27
   5   5  -6   39.10    3.58
  -5  -4   6    4.74    2.02
   5   4  -6    1.02    1.45
  -5  -3   6   -0.27    1.38
   5   3  -6    2.97    1.97
  -5  -2   6    1.65    1.09
   5   2  -6    0.61    1.56
  -5  -1   6  344.33   19.23
   5   1  -6  354.76   19.92
  -5   0   6   13.65    3.37
   5   0  -6   12.80    2.38
  -5   1   6  394.08   21.86
   5  -1  -6  365.35   20.41
  -5   2   6    1.74    0.97
   5  -2  -6    2.17    1.39
  -5   3   6    0.94    0.79
   5  -3  -6   -1.16    1.35
  -5   4   6    4.42    1.88
   5  -4  -6    2.40    1.43
  -5   5   6   46.86   11.10
   5  -5  -6   39.29    7.59
   5  -6  -6    4.87    1.22
   5  -6  -6    3.15    2.45
   5  -7  -6   -1.40    1.38
   5  -7  -6    1.17    2.40
   5  -7  -6    0.74    2.39
   5  -8  -6    4.87    1.62
   5  -8  -6    2.15    2.72
   5  -8  -6    2.95    1.88
   5  -9  -6    2.43    1.36
   5  -9  -6   -2.64    2.19
   5  -9  -6    2.74    1.46
   5 -10  -6    0.97    1.35
   5 -10  -6    1.07    1.40
   5  10  -5    1.30    1.87
  -5  -9   5    3.39    2.20
   5   9  -5    2.44    1.73
  -5  -8   5    4.18    2.42
   5   8  -5    1.44    2.41
  -5  -7   5  227.61    8.38
   5   7  -5  251.08    9.47
  -5  -6   5    0.61    1.57
   5   6  -5   -0.74    1.62
  -5  -5   5  142.42    7.43
   5   5  -5  133.99    7.36
  -5  -4   5    2.19    1.53
   5   4  -5    5.16    2.57
  -5  -3   5  181.03   11.03
   5   3  -5  211.83   13.10
  -5  -2   5    3.92    1.43
   5   2  -5    2.64    1.50
  -5  -1   5   32.57    4.66
   5   1  -5   38.22    3.21
  -5   0   5    0.93    0.70
   5   0  -5    1.45    1.34
  -5   1   5   38.47    3.19
   5  -1  -5   34.86    2.99
  -5   2   5    1.78    1.03
   5  -2  -5    1.94    1.88
  -5   3   5  183.10   13.34
   5  -3  -5  202.58   12.14
  -5   4   5    1.36    1.08
   5  -4  -5    2.75    1.49
  -5   5   5  152.14    7.67
   5  -5  -5  147.79    8.51
   5  -6  -5   -0.34    0.92
   5  -6  -5    1.40    2.76
   5  -7  -5  234.31   20.72
   5  -7  -5  247.55   10.35
   5  -7  -5  217.55    9.97
   5  -8  -5   -0.11    1.67
   5  -8  -5    1.81    2.41
   5  -8  -5    0.74    1.02
   5  -9  -5    1.25    1.19
   5  -9  -5    3.69    2.31
   5  -9  -5    2.89    1.43
   5 -10  -5    1.24    2.15
   5 -10  -5    3.48    2.17
  -5 -11   4   14.74    2.59
   5  11  -4   14.87    3.17
  -5 -10   4    4.54    2.20
   5  10  -4    2.72    2.79
  -5  -9   4    3.29    2.15
   5   9  -4    2.95    1.84
  -5  -8   4   34.59    3.14
   5   8  -4   30.02    3.60
  -5  -7   4  421.17   11.14
   5   7  -4  430.88   11.78
  -5  -6   4    7.35    2.46
   5   6  -4    6.51    2.19
  -5  -5   4  297.28   17.28
   5   5  -4  300.30   17.50
  -5  -4   4   10.19    2.29
   5   4  -4    7.08    2.11
  -5  -3   4    6.00    1.91
   5   3  -4    2.38    1.78
  -5  -2   4   38.41    2.84
   5   2  -4   38.09    3.34
  -5  -1   4    0.72    0.93
   5   1  -4    1.96    1.55
  -5   0   4    4.20    1.35
   5   0  -4    4.68    2.12
  -5   1   4    0.29    0.64
   5  -1  -4   -0.02    1.24
  -5   2   4   45.25    6.58
   5  -2  -4   40.25    3.16
  -5   3   4    5.11    1.46
   5  -3  -4    3.23    1.50
  -5   4   4    6.33    2.17
   5  -4  -4   10.51    2.22
  -5   5   4  331.65   20.61
   5  -5  -4  326.87   21.16
  -5   6   4    5.28    2.00
   5  -6  -4    4.80    1.71
   5  -6  -4    3.82    3.75
   5  -7  -4  415.57   16.61
   5  -7  -4  426.48   12.70
   5  -7  -4  405.58   22.78
   5  -8  -4   33.30    9.56
   5  -8  -4   38.14    4.61
   5  -8  -4   32.13    7.57
   5  -9  -4    2.01    1.24
   5  -9  -4    3.18    1.39
   5 -10  -4    2.10    0.96
   5 -10  -4    2.68    2.48
   5 -10  -4   -0.10    0.95
   5 -11  -4    9.86    2.32
   5 -11  -4   12.52    3.47
  -5 -11   3  170.79    6.91
   5  11  -3  186.31    8.51
   5  11  -3  150.83    7.76
  -5 -10   3    4.52    2.47
   5  10  -3    4.73    2.31
  -5  -9   3   51.78    4.27
   5   9  -3   45.09    4.43
  -5  -8   3    1.37    1.53
   5   8  -3   -0.55    1.74
   5   7  -3  156.86    7.10
  -5  -6   3   -1.61    1.44
   5   6  -3    1.03    1.89
  -5  -5   3  299.23   17.52
   5   5  -3  270.53   16.12
  -5  -4   3    6.15    2.24
   5   4  -3    2.77    1.75
  -5  -3   3  205.44    9.09
   5   3  -3  206.63    9.47
  -5  -2   3    6.75    2.24
   5   2  -3    3.67    1.82
  -5  -1   3 1294.64   41.77
   5   1  -3 1437.60   14.96
  -5   0   3    0.77    0.62
   5   0  -3    0.63    1.48
  -5   1   3 1296.24   41.91
   5  -1  -3 1339.42   42.94
  -5   2   3    4.98    1.83
   5  -2  -3    6.45    2.03
  -5   3   3  221.83    9.24
   5  -3  -3  212.09    9.06
  -5   4   3    3.39    1.05
   5  -4  -3    4.06    1.46
  -5   5   3  294.80   16.86
   5  -5  -3  283.61   23.20
   5  -5  -3  328.82   20.78
  -5   6   3   -0.08    1.21
   5  -6  -3    0.54    0.99
   5  -6  -3   -2.11    2.38
   5  -7  -3  146.54    8.11
   5  -7  -3  173.36    8.43
   5  -7  -3  167.09    9.14
   5  -8  -3    1.97    1.14
   5  -8  -3    1.13    1.89
   5  -8  -3    1.47    2.06
   5  -9  -3   52.08   11.27
   5  -9  -3   48.05    4.96
   5  -9  -3   46.20   14.55
   5 -10  -3    3.99    1.12
   5 -10  -3    5.26    3.01
   5 -10  -3    1.54    1.52
   5 -11  -3  187.64   15.35
   5 -11  -3  188.67    9.04
   5 -11  -3  153.98   18.66
  -5 -11   2   44.74    4.12
   5  11  -2   40.41    4.70
   5  11  -2   34.95   10.83
  -5 -10   2    7.56    2.44
   5  10  -2    6.68    2.97
   5  10  -2    7.99    2.72
  -5  -9   2  484.01   18.63
   5   9  -2  497.86   19.88
  -5  -8   2    3.13    2.23
   5   8  -2    1.38    1.81
   5   7  -2  198.49    9.72
  -5  -6   2   16.34    2.49
   5   6  -2   20.97    3.04
  -5  -5   2   87.24    6.46
   5   5  -2   74.32    5.74
  -5  -4   2    6.08    1.84
   5   4  -2    8.62    2.54
  -5  -3   2 1003.93   33.16
   5   3  -2  958.72   31.94
  -5  -2   2    3.33    1.62
   5   2  -2    0.30    1.84
  -5  -1   2   69.71    4.24
   5   1  -2   71.16    4.54
  -5   0   2   62.69    4.45
   5   0  -2   64.59    4.21
  -5   1   2   71.02    4.45
   5  -1  -2   70.21    4.13
  -5   2   2   -0.33    1.16
   5  -2  -2    5.26    2.40
  -5   3   2 1109.76   35.90
   5  -3  -2 1091.44   35.39
  -5   4   2    8.18    1.90
   5  -4  -2    6.48    1.99
  -5   5   2   92.77    6.34
   5  -5  -2   90.35    6.11
   5  -5  -2   94.48    8.64
  -5   6   2   22.67    6.83
   5  -6  -2   21.67    5.19
   5  -6  -2   17.62    4.19
   5  -7  -2  210.87   10.50
   5  -7  -2  198.69   14.17
   5  -8  -2    4.62    1.10
   5  -8  -2    7.91    2.66
   5  -8  -2    5.93    1.99
   5  -9  -2  528.50   19.62
   5  -9  -2  517.88   21.09
   5  -9  -2  571.22   23.78
   5 -10  -2    4.51    1.31
   5 -10  -2    5.67    2.32
   5 -10  -2    5.34    2.66
   5 -11  -2   33.26    7.60
   5 -11  -2   45.76    5.09
   5 -11  -2   32.49   10.81
  -5 -11   1    5.72    2.03
   5  11  -1    5.29    1.98
   5  11  -1    8.26    2.80
  -5 -10   1    8.30    3.07
   5  10  -1   -1.01    1.88
   5  10  -1    8.37    2.62
  -5  -9   1    2.65    1.71
   5   9  -1    9.04    3.04
  -5  -8   1    7.18    2.06
   5   8  -1    6.36    2.72
  -5  -7   1   52.96    4.10
   5   7  -1   52.09    4.28
  -5  -6   1    4.56    1.92
   5   6  -1   10.22    2.98
  -5  -5   1   58.84    4.03
   5   5  -1   55.96    3.89
  -5  -4   1   24.84    2.70
   5   4  -1   26.87    3.25
  -5  -3   1  109.43    5.64
   5   3  -1  110.58    6.11
  -5  -2   1    7.54    1.90
   5   2  -1    9.95    2.78
  -5  -1   1   36.65    2.66
   5   1  -1   38.59    3.59
  -5   0   1   -0.55    1.16
   5   0  -1    1.07    1.49
  -5   1   1   41.35    3.17
   5  -1  -1   40.98    3.34
  -5   2   1    9.70    2.55
   5  -2  -1    7.15    1.66
  -5   3   1  109.12    7.15
   5  -3  -1  115.61    5.50
  -5   4   1   32.04    2.43
   5  -4  -1   30.00    2.53
   5  -4  -1   27.74    4.09
  -5   5   1   61.25    4.00
   5  -5  -1   65.17    3.44
   5  -5  -1   62.89   12.26
  -5   6   1    8.61    2.01
   5  -6  -1    6.57    1.39
   5  -6  -1    7.45    2.03
  -5   7   1   52.07    3.21
   5  -7  -1   64.47    5.09
   5  -7  -1   55.23   13.07
   5  -8  -1    2.57    1.05
   5  -8  -1    3.10    1.97
   5  -8  -1    4.62    2.06
   5  -9  -1    4.37    1.09
   5  -9  -1    1.20    2.22
   5  -9  -1    3.64    1.60
   5 -10  -1    7.98    1.76
   5 -10  -1    7.22    2.87
   5 -10  -1    7.33    2.60
   5 -11  -1    5.78    2.02
   5 -11  -1    5.80    2.97
   5 -11  -1    8.29    2.93
  -5 -11   0  100.99    7.14
   5  11   0   73.99    6.21
   5  11   0   69.01   15.77
  -5 -10   0   -1.22    2.08
   5  10   0    2.54    2.34
   5  10   0   -0.32    1.31
  -5  -9   0  249.96   12.06
   5   9   0  205.56   10.62
  -5  -8   0    0.78    1.72
   5   8   0    1.06    1.76
  -5  -7   0  192.11    9.12
   5   7   0  196.57    9.86
  -5  -6   0   -0.48    1.53
   5   6   0    1.31    1.85
  -5  -5   0    2.46    1.63
   5   5   0    5.35    2.87
  -5  -4   0    0.44    1.57
   5   4   0    0.18    1.68
  -5  -3   0  690.13   23.54
   5   3   0  657.12   22.85
  -5  -2   0    1.85    1.96
   5   2   0    1.07    1.59
  -5  -1   0  117.60    5.77
   5   1   0  113.76    5.88
  -5   0   0    0.81    1.22
   5   0   0    2.18    2.13
  -5   1   0  107.25    5.27
   5  -1   0  101.82    4.97
  -5   2   0    1.82    0.76
   5  -2   0    1.25    1.31
  -5   3   0  674.02   22.34
   5  -3   0  682.06   22.81
   5  -3   0  760.49   27.31
  -5   4   0    0.71    0.56
   5  -4   0   -0.83    1.12
   5  -4   0   -1.48    2.29
  -5   5   0    1.91    0.82
   5  -5   0    3.08    1.74
   5  -5   0    4.01    1.74
  -5   6   0    0.64    1.21
   5  -6   0    2.37    1.67
   5  -6   0    2.94    2.12
  -5   7   0  193.84    8.45
   5  -7   0  197.04    8.56
   5  -7   0  192.41   27.87
   5  -8   0   -0.39    1.30
   5  -8   0    2.44    1.83
   5  -8   0    1.34    0.79
   5  -9   0  213.96   14.08
   5  -9   0  236.15    9.59
   5  -9   0  172.74   32.25
   5 -10   0   -0.25    1.34
   5 -10   0    2.95    1.97
   5 -10   0   -0.43    2.12
   5 -11   0   91.21    9.39
   5 -11   0   96.04    7.43
   5 -11   0   62.20   21.02
   5 -12   0    0.39    0.85
  -5 -11  -1    7.73    2.69
   5  11   1    4.68    2.64
   5  11   1    5.79    2.23
  -5 -10  -1    3.48    2.06
   5  10   1    6.48    2.18
   5  10   1    8.53    2.57
  -5  -9  -1    3.16    1.91
   5   9   1    3.16    2.40
   5   9   1    4.97    1.84
  -5  -8  -1    7.72    2.06
   5   8   1    5.14    2.13
  -5  -7  -1   62.56    4.95
   5   7   1   49.42    4.23
  -5  -6  -1    7.25    2.17
   5   6   1    5.63    1.79
  -5  -5  -1   53.48    3.92
   5   5   1   61.54    4.25
  -5  -4  -1   28.39    2.95
   5   4   1   27.47    3.08
  -5  -3  -1  115.27    5.78
   5   3   1  114.35    6.35
  -5  -2  -1    8.27    2.19
   5   2   1   10.50    2.26
  -5  -1  -1   41.61    3.03
   5   1   1   41.00    3.57
  -5   0  -1   -0.29    1.30
   5   0   1   -0.69    1.50
  -5   1  -1   40.03    2.80
   5  -1   1   43.46    3.48
  -5   2  -1    9.70    2.52
   5  -2   1    8.19    1.66
   5  -2   1   11.31    3.04
  -5   3  -1  115.91    6.43
   5  -3   1  108.98    5.20
   5  -3   1  121.66   14.62
  -5   4  -1   34.93    7.07
   5  -4   1   29.34    2.54
   5  -4   1   29.61    6.10
  -5   5  -1   60.55    4.43
   5  -5   1   56.21    3.08
   5  -5   1   56.15   13.13
  -5   6  -1   10.14    2.12
   5  -6   1   11.83    2.08
   5  -6   1    5.71    1.63
  -5   7  -1   52.73    2.99
   5  -7   1   54.11    3.27
   5  -7   1   49.70   11.94
   5  -8   1    8.45    1.38
   5  -8   1    5.08    2.43
   5  -8   1    3.15    1.70
   5  -9   1    6.02    1.72
   5  -9   1    3.52    2.16
   5  -9   1    1.32    1.32
   5 -10   1    9.09    2.00
   5 -10   1    8.54    2.42
   5 -10   1    5.14    1.60
   5 -11   1    3.39    1.18
   5 -11   1    5.65    2.85
   5 -11   1    2.79    1.85
  -5 -11  -2   50.36    5.11
   5  11   2   43.51    5.30
   5  11   2   42.85    9.64
  -5 -10  -2    8.13    2.68
   5  10   2    8.71    3.12
   5  10   2    7.31    2.20
  -5  -9  -2  491.89   19.24
   5   9   2  507.65   20.94
   5   9   2  476.51   18.10
  -5  -8  -2    9.18    2.88
   5   8   2    4.57    2.25
   5   8   2    2.89    1.51
  -5  -7  -2  223.71   10.76
   5   7   2  188.83    9.75
  -5  -6  -2   18.34    3.14
   5   6   2   16.32    2.92
  -5  -5  -2   83.10    6.33
   5   5   2   82.46    6.63
  -5  -4  -2    9.92    2.43
   5   4   2   12.12    3.16
  -5  -3  -2 1047.98   34.44
   5   3   2 1031.45   34.37
  -5  -2  -2    2.58    1.44
   5   2   2    1.93    1.73
  -5  -1  -2   66.47    3.92
   5   1   2   70.10    4.69
  -5   0  -2   63.08    3.67
   5   0   2   65.43    4.19
   5   0   2   59.88    4.89
  -5   1  -2   71.58    3.87
   5  -1   2   67.42    4.07
   5  -1   2   67.46    5.11
  -5   2  -2    1.23    0.51
   5  -2   2    2.23    1.46
   5  -2   2    2.70    1.20
  -5   3  -2 1030.62   33.15
   5  -3   2 1028.09   33.40
   5  -3   2 1141.18   38.56
  -5   4  -2    9.09    2.39
   5  -4   2    7.52    1.78
   5  -4   2    8.13    2.08
  -5   5  -2   88.89    7.71
   5  -5   2   89.23    5.99
   5  -5   2   88.31   20.34
  -5   6  -2   20.37    2.55
   5  -6   2   22.04    2.38
   5  -6   2   18.36    4.28
  -5   7  -2  196.61    8.46
   5  -7   2  223.51    9.48
   5  -7   2  167.93   20.35
   5  -8   2    5.29    1.85
   5  -8   2    4.34    2.14
   5  -8   2    0.30    1.38
   5  -9   2  525.65   19.10
   5  -9   2  553.08   21.19
   5  -9   2  499.08   20.82
   5 -10   2    7.92    2.01
   5 -10   2   10.83    2.95
   5 -10   2    6.29    2.84
   5 -11   2   33.28    9.04
   5 -11   2   45.84    4.75
   5 -11   2   31.77    7.94
   5  11   3  160.50    8.56
   5  11   3  151.92    9.49
  -5 -10  -3    5.67    1.99
   5  10   3    1.18    2.28
   5  10   3    3.53    1.34
  -5  -9  -3   48.59    4.53
   5   9   3   43.69    4.81
   5   9   3   26.20    7.32
  -5  -8  -3    0.68    1.78
   5   8   3    0.19    2.09
   5   8   3    1.53    0.76
  -5  -7  -3  152.62    6.78
   5   7   3  145.12    7.19
   5   7   3  148.78    5.37
  -5  -6  -3    0.28    1.81
   5   6   3    0.72    1.92
  -5  -5  -3  303.48   17.84
   5   5   3  262.87   15.98
  -5  -4  -3   -0.01    1.48
   5   4   3    4.14    2.09
  -5  -3  -3  214.90    9.42
   5   3   3  228.33   10.56
  -5  -2  -3    3.00    2.02
   5   2   3    2.13    1.78
  -5  -1  -3 1304.48   42.02
   5   1   3 1336.20   43.35
   5   1   3 1326.70   43.14
  -5   0  -3   -0.38    1.32
   5   0   3    0.21    1.58
   5   0   3    1.89    0.95
  -5   1  -3 1411.06   44.91
   5  -1   3 1456.75   15.58
   5  -1   3 1369.90   44.83
  -5   2  -3    5.24    1.21
   5  -2   3    5.52    2.01
   5  -2   3    2.76    0.99
  -5   3  -3  220.42   16.62
   5  -3   3  203.10    8.72
   5  -3   3  219.83   12.07
  -5   4  -3    4.57    1.00
   5  -4   3    3.04    1.82
   5  -4   3    1.67    1.10
  -5   5  -3  269.66   15.06
   5  -5   3  285.78   16.23
   5  -5   3  259.69   20.26
  -5   6  -3   -0.67    0.93
   5  -6   3    1.85    1.84
   5  -6   3   -1.44    2.00
   5  -7   3  164.91    5.74
   5  -7   3  150.70   11.82
   5  -8   3   -1.03    1.14
   5  -8   3   -0.84    1.60
   5  -8   3    0.60    1.78
   5  -9   3   58.50    3.63
   5  -9   3   59.68    4.45
   5  -9   3   37.94   11.38
   5 -10   3    7.14    1.77
   5 -10   3    6.73    2.13
   5 -10   3    1.24    1.50
   5 -11   3  187.67    6.28
   5 -11   3  181.22    7.45
   5  11   4   12.46    2.96
  -5 -10  -4    2.42    2.63
   5  10   4   -0.43    2.18
   5  10   4   -0.37    0.70
  -5  -9  -4    5.60    2.08
   5   9   4    7.04    3.07
   5   9   4    1.68    0.89
  -5  -8  -4   32.97    3.46
   5   8   4   24.88    3.62
   5   8   4   25.05    6.03
  -5  -7  -4  391.19   10.98
   5   7   4  377.25   12.13
   5   7   4  374.05    7.37
  -5  -6  -4   11.77    2.93
   5   6   4    5.55    2.85
   5   6   4    3.39    1.00
  -5  -5  -4  373.96   21.65
   5   5   4  279.84   16.85
  -5  -4  -4    8.16    2.07
   5   4   4    9.13    3.08
   5   4   4    5.72    1.72
  -5  -3  -4    6.05    2.14
   5   3   4    4.52    2.70
   5   3   4    4.78    1.44
  -5  -2  -4   36.14    2.98
   5   2   4   41.17    3.84
   5   2   4   36.65    8.12
  -5  -1  -4    0.14    1.29
   5   1   4    0.78    1.76
   5   1   4   -0.33    1.38
  -5   0  -4    0.89    1.17
   5   0   4    2.66    1.67
   5   0   4    0.46    0.98
  -5   1  -4    0.54    1.05
   5  -1   4    3.32    2.25
   5  -1   4    0.92    0.81
  -5   2  -4   46.24    5.38
   5  -2   4   39.61    3.13
   5  -2   4   42.86    8.89
  -5   3  -4    5.85    1.36
   5  -3   4    8.20    1.91
   5  -3   4    6.01    2.32
  -5   4  -4    5.90    1.66
   5  -4   4    6.24    2.27
   5  -4   4    2.60    1.86
  -5   5  -4  307.99   16.86
   5  -5   4  302.61   17.01
   5  -5   4  325.88   30.97
  -5   6  -4    5.81    1.36
   5  -6   4    4.68    1.56
   5  -7   4  407.15    9.06
   5  -7   4  425.72   10.46
   5  -7   4  363.40   30.08
   5  -8   4   35.29    2.70
   5  -8   4   36.43    3.63
   5  -8   4   31.55    7.93
   5  -9   4    1.82    1.11
   5  -9   4    5.49    2.55
   5  -9   4   -0.16    1.16
   5 -10   4   -0.67    1.31
   5 -10   4    2.37    2.14
   5 -10   4   -0.66    2.26
   5 -11   4   16.78    2.53
   5 -11   4   15.54    2.54
  -5 -10  -5    2.40    1.90
   5  10   5    3.66    3.70
  -5  -9  -5    5.88    2.91
   5   9   5    0.16    2.05
  -5  -8  -5    0.69    1.89
   5   8   5    0.15    1.91
  -5  -7  -5  226.26    8.65
   5   7   5  210.75    9.17
  -5  -6  -5    2.34    1.76
   5   6   5    5.06    3.09
  -5  -5  -5  138.96    7.60
  -5  -4  -5    3.04    2.40
   5   4   5   -0.07    1.80
   5   4   5    2.73    0.53
  -5  -3  -5  193.83   11.76
   5   3   5  187.55   12.11
   5   3   5  195.47   12.85
  -5  -2  -5    2.27    1.92
   5   2   5   -0.01    1.71
   5   2   5    0.11    0.47
  -5  -1  -5   32.45    2.83
   5   1   5   39.87    4.16
   5   1   5   42.65    8.72
  -5   0  -5   -0.53    1.09
   5   0   5   -1.58    1.64
   5   0   5    0.68    0.78
  -5   1  -5   39.89    3.33
   5  -1   5   37.43    3.15
   5  -1   5   40.80    5.18
  -5   2  -5    1.69    0.89
   5  -2   5    3.30    1.56
   5  -2   5    2.22    0.79
  -5   3  -5  191.54   10.95
   5  -3   5  183.77   11.24
   5  -3   5  206.02   19.69
  -5   4  -5    3.30    0.88
   5  -4   5    0.95    1.66
   5  -4   5   -0.10    1.69
  -5   5  -5  144.20    6.04
   5  -5   5  125.35    6.13
   5  -5   5  136.64   16.60
  -5   6  -5    1.49    0.68
   5  -6   5    2.41    1.89
   5  -7   5  215.21    6.81
   5  -7   5  246.78    7.82
   5  -7   5  226.64    9.91
  -5   7  -5  260.02   10.69
   5  -8   5    0.71    0.98
   5  -8   5   -0.83    1.36
   5  -8   5    3.55    3.02
  -5   8  -5    1.78    2.23
   5  -9   5    4.79    1.67
   5  -9   5    2.99    2.15
   5  -9   5    4.72    3.00
  -5   9  -5    7.49    2.71
   5 -10   5    2.71    2.05
   5 -10   5    3.46    1.93
   5 -10   5    1.72    1.96
  -5  10  -5    7.23    3.92
   5  10   6    6.28    3.98
  -5  -9  -6    0.36    1.55
   5   9   6    0.70    2.29
  -5  -8  -6    3.22    1.86
   5   8   6   10.17    3.62
  -5  -7  -6   -1.60    1.67
   5   7   6    2.39    2.29
  -5  -6  -6    6.68    2.37
   5   6   6    3.45    2.21
  -5  -5  -6   43.04    3.78
   5   5   6   40.57    4.46
  -5  -4  -6    6.52    2.41
   5   4   6    0.42    1.81
  -5  -3  -6    0.90    1.19
   5   3   6    2.60    1.68
  -5  -2  -6    1.39    1.34
   5   2   6    2.57    1.76
   5   2   6    1.14    0.70
  -5  -1  -6  343.89   19.29
   5   1   6  353.23   20.31
   5   1   6  414.89   22.79
  -5   0  -6   15.04    1.97
   5   0   6   14.00    2.60
   5   0   6   14.29    2.75
  -5   1  -6  401.48   21.99
   5  -1   6  385.53   21.93
   5  -1   6  411.26   23.10
  -5   2  -6    1.50    0.55
   5  -2   6    0.14    1.31
   5  -2   6   -0.03    0.86
  -5   3  -6    0.61    0.71
   5  -3   6   -1.26    1.34
   5  -3   6    1.16    1.38
  -5   4  -6    1.35    0.39
   5  -4   6    0.70    1.19
   5  -4   6    1.69    1.13
  -5   5  -6   42.19    3.99
   5  -5   6   39.72    3.21
   5  -5   6   39.84   11.97
  -5   6  -6    5.42    1.13
   5  -6   6    5.35    1.56
   5  -6   6    0.52    1.51
  -5   6  -6    5.42    2.77
   5  -7   6    0.59    1.13
   5  -7   6   -0.62    1.22
   5  -7   6   -0.42    2.30
  -5   7  -6    0.30    1.87
   5  -8   6    5.57    1.83
   5  -8   6    6.62    2.10
   5  -8   6    0.56    1.68
  -5   8  -6    1.90    2.22
   5  -9   6    0.40    0.94
   5  -9   6    3.67    1.65
   5  -9   6    2.48    1.70
  -5   9  -6    2.35    2.44
   5 -10   6    1.39    0.99
   5 -10   6    1.53    1.64
  -5  10  -6    0.26    2.52
  -5  -9  -7    7.09    2.61
   5   9   7    6.63    3.19
  -5  -8  -7    0.05    1.47
   5   8   7    6.65    3.13
  -5  -7  -7   12.27    2.67
   5   7   7    5.91    2.30
  -5  -6  -7    2.95    1.64
   5   6   7    3.13    2.76
  -5  -5  -7   31.57    3.44
   5   5   7   29.18    3.72
  -5  -4  -7   24.56    2.86
   5   4   7   26.72    3.58
  -5  -3  -7   95.29    4.56
   5   3   7   98.59    5.61
  -5  -2  -7    1.26    1.31
   5   2   7    0.77    1.46
  -5  -1  -7  113.42    4.79
   5   1   7  117.47    5.61
  -5   0  -7   -0.67    1.03
   5   0   7    0.64    1.42
   5   0   7    3.29    2.09
  -5   1  -7  133.44    4.83
   5  -1   7  108.41    5.30
   5  -1   7  120.21   10.49
  -5   2  -7    1.26    0.27
   5  -2   7   -0.46    1.40
   5  -2   7    3.47    1.56
  -5   3  -7  103.76    3.89
   5  -3   7   88.27    4.72
   5  -3   7  101.21   10.10
  -5   4  -7   25.21    3.54
   5  -4   7   20.10    2.57
   5  -4   7   22.90    5.17
  -5   5  -7   33.00    5.03
   5  -5   7   25.27    2.74
   5  -5   7   28.48    6.98
  -5   5  -7   28.74    3.73
   5  -6   7    2.77    1.57
   5  -6   7    2.00    1.40
   5  -6   7    2.41    1.92
  -5   6  -7    3.90    1.92
   5  -7   7    7.65    2.19
   5  -7   7   15.98    2.17
   5  -7   7    8.29    3.10
  -5   7  -7   11.60    3.26
   5  -8   7    1.45    1.34
   5  -8   7    0.88    0.91
   5  -8   7    2.79    2.94
  -5   8  -7    5.65    3.07
   5  -9   7    4.61    1.51
   5  -9   7    4.09    1.57
   5  -9   7   10.98    3.77
  -5   9  -7   11.82    4.06
  -5  -8  -8    2.31    1.78
   5   8   8    6.76    3.49
  -5  -7  -8  294.48   14.78
   5   7   8  305.21   16.29
  -5  -6  -8    8.81    2.34
   5   6   8   11.63    3.50
  -5  -5  -8  476.90   16.12
   5   5   8  471.06   16.93
  -5  -4  -8    4.42    2.33
   5   4   8    1.89    1.77
  -5  -3  -8  296.26   12.07
   5   3   8  322.72   13.79
  -5  -2  -8    0.64    1.28
   5   2   8    0.07    1.34
  -5  -1  -8   95.64    4.48
   5   1   8  103.79    5.51
  -5   0  -8   -0.30    0.89
   5   0   8    2.47    1.76
  -5   1  -8  110.18    4.36
   5  -1   8   96.09    4.68
  -5   2  -8   -0.20    0.79
   5  -2   8    2.71    1.60
  -5   3  -8  317.18    7.39
   5  -3   8  298.89    8.39
  -5   4  -8    2.62    0.65
   5  -4   8    2.35    1.60
  -5   4  -8    1.06    1.45
  -5   5  -8  469.43   12.95
  -5   5  -8  494.07   16.96
   5  -6   8    5.46    1.32
   5  -6   8    8.80    1.35
  -5   6  -8   11.97    3.38
  -5   7  -8  305.98   15.84
   5  -8   8    4.24    1.10
  -5   8  -8    2.55    2.27
  -5  -7  -9   11.36    2.45
   5   7   9   12.96    3.82
  -5  -6  -9    2.30    1.62
   5   6   9    4.51    3.59
  -5  -5  -9   52.71    4.32
   5   5   9   51.43    4.95
  -5  -4  -9    2.93    2.11
   5   4   9    3.42    2.47
  -5  -3  -9  105.65    6.52
   5   3   9  115.81    7.69
  -5  -2  -9   11.63    2.36
   5   2   9   14.45    2.74
  -5  -1  -9  184.76    7.20
   5   1   9  210.68    8.51
  -5   0  -9   -0.78    0.92
   5   0   9    0.74    1.06
  -5   1  -9  229.33    7.95
   5  -1   9  196.90    7.44
  -5   2  -9   16.32    3.79
   5  -2   9   15.36    2.09
  -5   3  -9  116.10    5.77
   5  -3   9  116.71    6.31
  -5   4  -9    1.42    0.58
   5  -4   9    0.65    0.79
  -5   4  -9    4.29    2.04
   5  -5   9   48.71    2.11
  -5   5  -9   57.79    4.82
  -5   6  -9    1.13    1.55
  -5   7  -9    8.84    2.75
  -5  -5 -10    1.28    1.57
   5   5  10    0.88    1.87
  -5  -4 -10    3.42    1.74
   5   4  10    1.79    1.77
  -5  -3 -10    6.53    1.94
   5   3  10    3.86    2.25
  -5  -2 -10    1.78    1.14
   5   2  10    3.42    1.93
  -5  -1 -10  167.34    6.70
   5   1  10  175.75    7.35
  -5   0 -10    5.76    1.67
   5   0  10    3.39    1.74
  -5   1 -10  199.98    6.95
   5  -1  10  184.66    6.85
  -5   2 -10    0.87    0.48
   5  -2  10    0.40    0.63
  -5   3 -10    5.58    1.37
   5  -3  10    4.51    1.14
  -5   3 -10    4.84    1.62
  -5   4 -10    5.22    2.08
  -5   5 -10   -0.28    1.38
  -5  -2 -11    0.85    1.18
   5   2  11    0.84    1.44
  -5  -1 -11    9.40    1.71
   5   1  11   11.83    2.45
  -5   0 -11    0.58    0.89
   5   0  11    0.94    1.09
  -5   1 -11   10.76    2.78
   5  -1  11    7.61    1.58
  -5   2 -11    0.89    0.41
  -6  -2  10   51.74   14.27
   6   2 -10   63.84    4.65
  -6  -1  10    1.12    1.14
   6   1 -10    1.00    1.42
  -6   0  10   10.09    3.00
   6   0 -10   12.30    2.36
  -6   1  10    1.53    0.66
   6  -1 -10    1.24    1.37
  -6   2  10   72.83    7.09
   6  -2 -10   68.31    4.87
  -6  -5   9    6.98    1.74
   6   5  -9    4.16    2.18
  -6  -4   9    7.36    1.86
   6   4  -9   12.21    2.95
  -6  -3   9    0.02    0.86
   6   3  -9   -2.49    1.52
  -6  -2   9   10.11    2.45
   6   2  -9    8.69    2.14
  -6  -1   9   10.54    2.59
   6   1  -9    8.97    2.45
  -6   0   9    0.24    0.59
   6   0  -9    0.58    1.50
  -6   1   9   13.57    3.50
   6  -1  -9   11.68    2.27
  -6   2   9   10.87    3.20
   6  -2  -9   12.80    2.52
  -6   3   9   -0.83    1.32
   6  -3  -9    0.78    1.67
   6  -4  -9    5.42    2.09
   6  -5  -9    6.40    2.73
   6  -5  -9    1.20    2.27
  -6  -6   8    1.44    1.80
   6   6  -8    1.43    2.04
  -6  -5   8    2.03    1.68
   6   5  -8    2.13    2.54
  -6  -4   8   28.00    8.29
   6   4  -8   36.27    3.61
  -6  -3   8    0.72    0.64
   6   3  -8    5.20    3.08
  -6  -2   8   61.92    5.99
   6   2  -8   61.21    5.02
  -6  -1   8    2.18    1.51
   6   1  -8    0.51    1.42
  -6   0   8   24.23    5.89
   6   0  -8   30.71    3.05
  -6   1   8    3.66    1.65
   6  -1  -8    4.23    2.27
  -6   2   8   59.77   15.33
   6  -2  -8   68.29    5.37
  -6   3   8   -0.13    1.26
   6  -3  -8    0.13    1.51
  -6   4   8   30.56    9.64
   6  -4  -8   41.37    3.79
   6  -5  -8    1.81    1.80
   6  -5  -8    0.87    2.39
   6  -6  -8    5.41    2.74
   6  -6  -8    2.07    2.38
  -6  -7   7   16.07    3.03
   6   7  -7   19.40    3.44
  -6  -6   7    6.94    1.86
   6   6  -7    8.00    2.31
  -6  -5   7   20.69    6.31
   6   5  -7   19.60    3.26
  -6  -4   7    2.58    1.17
   6   4  -7    2.46    2.18
  -6  -3   7    3.62    1.60
   6   3  -7    3.63    1.99
  -6  -2   7   18.55    4.79
   6   2  -7   19.06    2.58
  -6  -1   7   41.07    9.08
   6   1  -7   44.89    3.77
  -6   0   7    0.81    0.64
   6   0  -7   -0.83    1.37
  -6   1   7   38.53   10.44
   6  -1  -7   42.74    3.64
  -6   2   7   16.13    3.77
   6  -2  -7   16.69    2.36
  -6   3   7    3.64    1.62
   6  -3  -7    3.12    1.62
  -6   4   7    4.33    2.55
   6  -4  -7    2.44    1.62
  -6   5   7   19.18    5.37
   6  -5  -7   21.80    2.96
   6  -6  -7    2.68    1.85
   6  -6  -7   10.41    3.30
   6  -7  -7   11.82    3.06
   6  -7  -7   21.35    4.59
   6  -7  -7   24.39    5.87
  -6  -8   6   87.09    5.26
   6   8  -6   81.51    5.38
  -6  -7   6    0.64    1.84
   6   7  -6    7.07    2.86
  -6  -6   6  109.77    7.50
   6   6  -6   99.38    6.96
  -6  -5   6    0.69    1.75
   6   5  -6    2.62    2.39
  -6  -4   6  131.32    7.03
   6   4  -6  134.80    7.60
  -6  -3   6   11.04    3.50
   6   3  -6   13.19    2.64
  -6  -2   6  238.76    7.55
  -6  -1   6   12.85    2.53
   6   1  -6   15.83    2.48
  -6   0   6   17.16    4.52
   6   0  -6   17.59    2.49
  -6   1   6   13.15    3.63
   6  -1  -6    9.77    1.75
  -6   2   6  244.36    7.09
   6  -2  -6  262.72    7.82
  -6   3   6   11.23    3.92
   6  -3  -6   10.18    2.28
  -6   4   6  135.35    8.82
   6  -4  -6  145.04    7.31
  -6   5   6    1.63    0.99
   6  -5  -6   -1.75    1.53
  -6   6   6   87.25    6.06
   6  -6  -6  116.24    7.56
   6  -7  -6   -0.32    1.83
   6  -7  -6    1.69    2.51
   6  -8  -6   57.96   14.29
   6  -8  -6   56.92   14.70
  -6  -9   5    1.63    1.62
   6   9  -5    1.79    1.96
  -6  -8   5   43.08    4.18
   6   8  -5   37.56    4.11
  -6  -7   5    3.06    1.84
   6   7  -5    3.94    2.04
  -6  -6   5    1.64    1.94
   6   6  -5    4.26    1.92
  -6  -5   5    8.44    2.26
   6   5  -5    9.53    2.30
  -6  -4   5  164.25    6.56
  -6  -3   5   19.37    5.26
   6   3  -5   20.58    4.33
   6   2  -5  411.51   11.48
  -6  -1   5   10.71    2.32
   6   1  -5    9.22    1.84
  -6   0   5   -0.21    1.28
   6   0  -5    2.35    2.08
  -6   1   5   10.57    1.85
   6  -1  -5    8.83    2.26
  -6   2   5  419.73   10.92
   6  -2  -5  420.44   11.00
  -6   3   5   19.83    5.66
   6  -3  -5   19.33    2.38
  -6   4   5  165.54    5.89
   6  -4  -5  189.96    6.77
  -6   5   5    9.44    2.49
   6  -5  -5    8.42    2.12
  -6   6   5    2.02    1.35
   6  -6  -5    4.50    1.74
   6  -6  -5    5.73    4.45
   6  -7  -5    1.84    1.39
   6  -7  -5    3.52    3.82
   6  -7  -5    2.16    2.61
   6  -8  -5   34.32    7.87
   6  -8  -5   40.38    5.33
   6  -8  -5   30.09    7.59
   6  -9  -5    2.54    1.38
   6  -9  -5    0.60    1.80
  -6  -9   4    3.00    1.74
   6   9  -4    5.71    2.21
  -6  -8   4   48.24    4.62
   6   8  -4   44.84    4.95
  -6  -7   4   11.12    2.61
   6   7  -4    5.52    2.31
  -6  -6   4  212.61    8.17
   6   6  -4  189.99    7.89
  -6  -5   4   69.14    4.42
   6   5  -4   71.58    4.96
  -6  -4   4   14.67    2.63
   6   4  -4   13.48    2.44
  -6  -3   4   72.40    4.83
   6   3  -4   67.80    4.72
  -6  -2   4    3.48    1.33
   6   2  -4    1.96    1.77
  -6  -1   4   15.75    3.89
   6   1  -4   17.11    2.84
  -6   0   4   49.49    6.29
   6   0  -4   53.41    4.51
  -6   1   4   18.04    4.95
   6  -1  -4   14.19    2.23
  -6   2   4    3.87    1.23
   6  -2  -4    7.87    1.76
  -6   3   4   68.35    5.59
   6  -3  -4   73.60    4.59
  -6   4   4   10.31    2.53
   6  -4  -4   12.78    2.22
  -6   5   4   67.93    4.71
   6  -5  -4   67.24    4.15
  -6   6   4  198.61    7.22
   6  -6  -4  212.62    7.61
   6  -6  -4  208.27   11.55
   6  -7  -4    8.90    1.83
   6  -7  -4    3.87    2.33
   6  -8  -4   35.58    5.59
   6  -8  -4   49.69    6.00
   6  -8  -4   32.24   10.83
   6  -9  -4    2.96    2.59
   6  -9  -4    4.86    3.92
   6  -9  -4    0.16    2.44
  -6 -10   3   31.27    3.78
   6  10  -3   25.08    3.72
  -6  -9   3    2.68    2.26
   6   9  -3    1.24    2.05
  -6  -8   3   39.07    3.48
   6   8  -3   32.87    3.97
  -6  -7   3    5.34    2.12
   6   7  -3    5.29    2.29
  -6  -6   3   64.87    4.70
   6   6  -3   57.74    4.84
  -6  -5   3    6.71    1.99
   6   5  -3    4.26    1.93
  -6  -4   3  145.98    7.63
   6   4  -3  147.57    7.85
  -6  -3   3   -0.87    1.62
   6   3  -3    3.97    3.00
  -6  -2   3    2.65    1.60
   6   2  -3    5.13    2.08
  -6  -1   3    1.31    0.72
   6   1  -3    4.12    2.26
  -6   0   3    0.68    1.04
   6   0  -3   -0.88    1.46
  -6   1   3   -0.74    1.37
   6  -1  -3    2.03    1.49
  -6   2   3    1.65    1.08
   6  -2  -3    4.20    1.55
  -6   3   3    1.54    1.08
   6  -3  -3    0.38    1.41
  -6   4   3  145.07    6.93
   6  -4  -3  154.85    7.49
  -6   5   3    5.56    1.71
   6  -5  -3    7.55    2.10
   6  -5  -3    6.18    3.23
  -6   6   3   66.22   14.40
   6  -6  -3   63.62    4.29
   6  -6  -3   64.77    7.29
  -6   7   3    6.88    1.90
   6  -7  -3    4.36    1.69
   6  -7  -3    5.07    3.73
   6  -8  -3   30.01    9.33
   6  -8  -3   38.40    4.78
   6  -8  -3   33.51    8.54
   6  -9  -3   -2.36    1.56
   6  -9  -3    0.29    2.51
   6  -9  -3    0.89    1.43
   6 -10  -3   22.26    5.58
   6 -10  -3   26.67    4.45
  -6 -10   2   79.51    5.04
   6  10  -2   59.22    5.09
  -6  -9   2   30.46    3.29
   6   9  -2   29.38    3.84
  -6  -8   2   17.17    2.81
   6   8  -2   17.14    3.04
  -6  -7   2    8.43    2.36
   6   7  -2    9.67    3.11
  -6  -6   2   19.37    2.77
   6   6  -2   19.85    2.96
  -6  -5   2    5.22    2.27
   6   5  -2    6.05    2.06
  -6  -4   2    4.34    1.60
   6   4  -2    2.49    1.90
  -6  -3   2   44.72    3.43
   6   3  -2   46.55    3.96
  -6  -2   2    6.50    2.10
   6   2  -2   10.98    3.05
  -6  -1   2   -0.94    1.37
   6   1  -2   -0.07    1.58
  -6   0   2  197.17   11.83
   6   0  -2  186.75   11.52
  -6   1   2    0.38    0.57
   6  -1  -2    0.46    1.43
  -6   2   2    6.93    1.40
   6  -2  -2    7.33    2.26
  -6   3   2   39.48    3.55
   6  -3  -2   42.89    3.10
  -6   4   2    3.85    1.59
   6  -4  -2    6.09    2.05
  -6   5   2    8.82    1.67
   6  -5  -2    7.62    2.21
   6  -5  -2    8.46    4.08
  -6   6   2   21.69    5.37
   6  -6  -2   19.90    2.40
   6  -6  -2   20.48    4.68
  -6   7   2   12.11    2.90
   6  -7  -2    6.94    1.79
   6  -7  -2    5.58    2.20
   6  -8  -2   14.32    3.94
   6  -8  -2   22.21    3.68
   6  -8  -2   21.46    6.56
   6  -9  -2   32.12    6.25
   6  -9  -2   34.82    4.48
   6  -9  -2   28.61   10.20
   6 -10  -2   56.91   15.94
   6 -10  -2   78.59    5.88
   6 -10  -2   47.44   14.74
  -6 -10   1   71.19    4.71
   6  10  -1   64.80    5.77
  -6  -9   1    2.82    1.83
   6   9  -1    7.64    3.36
  -6  -8   1   26.32    3.21
   6   8  -1   24.32    3.84
  -6  -7   1   22.63    2.89
   6   7  -1   17.43    3.08
  -6  -6   1    6.89    1.69
   6   6  -1    4.77    2.84
  -6  -5   1   31.68    3.51
   6   5  -1   26.82    3.54
  -6  -4   1   30.51    3.11
   6   4  -1   29.04    3.06
  -6  -3   1    0.24    1.54
   6   3  -1    4.24    2.51
  -6  -2   1  260.31   15.35
   6   2  -1  245.48   14.85
  -6  -1   1  101.22    6.95
   6   1  -1  105.77    7.60
  -6   0   1   -0.48    1.39
   6   0  -1   -0.29    1.47
  -6   1   1  100.13    6.68
   6  -1  -1   89.54    6.53
  -6   2   1  245.61   14.28
   6  -2  -1  240.78   14.19
  -6   3   1    0.62    0.73
   6  -3  -1    0.28    1.35
  -6   4   1   34.23    2.58
   6  -4  -1   34.06    2.71
   6  -4  -1   27.65    4.39
  -6   5   1   34.50    8.28
   6  -5  -1   32.34    3.10
   6  -5  -1   27.28    5.93
  -6   6   1    7.82    1.47
   6  -6  -1    6.60    1.68
   6  -6  -1    5.25    2.13
  -6   7   1   20.94    4.78
   6  -7  -1   15.20    2.41
   6  -7  -1   15.99    4.52
   6  -8  -1   23.58    2.93
   6  -8  -1   24.21    4.02
   6  -8  -1   18.66    6.17
   6  -9  -1    1.71    1.15
   6  -9  -1    0.92    2.10
   6  -9  -1    0.75    1.27
   6 -10  -1   48.99   12.62
   6 -10  -1   64.17    5.83
   6 -10  -1   51.12   17.29
  -6 -10   0    4.25    1.93
   6  10   0    7.85    4.50
   6  10   0    1.02    1.51
  -6  -9   0    1.14    1.67
   6   9   0    1.22    2.06
  -6  -8   0    3.66    1.79
   6   8   0    0.73    2.01
  -6  -7   0    0.58    1.58
   6   7   0    2.33    2.03
  -6  -6   0 1122.66   23.67
   6   6   0 1153.60   25.33
  -6  -5   0    2.64    1.76
   6   5   0    0.00    1.73
  -6  -4   0    4.59    2.08
   6   4   0    6.19    2.47
  -6  -3   0   -0.68    1.55
   6   3   0    0.21    1.70
  -6  -2   0   19.08    2.57
   6   2   0   17.14    2.95
  -6  -1   0   -0.62    1.50
   6   1   0    1.40    1.90
  -6   0   0 1039.39   36.34
   6   0   0 1051.02   37.06
  -6   1   0    0.72    0.71
   6  -1   0    3.87    1.67
  -6   2   0   20.92    5.89
   6  -2   0   17.24    2.44
  -6   3   0    1.01    0.70
   6  -3   0   -1.08    1.39
   6  -3   0    0.61    2.21
  -6   4   0    8.17    1.91
   6  -4   0    7.11    1.96
   6  -4   0    8.21    3.20
  -6   5   0   -0.44    1.09
   6  -5   0   -0.28    1.34
   6  -5   0   -0.89    2.41
  -6   6   0 1130.92   22.50
   6  -6   0 1181.11  188.19
  -6   7   0    0.05    0.70
   6  -7   0   -0.73    2.38
   6  -8   0    1.01    1.35
   6  -8   0   -0.08    2.00
   6  -8   0   -1.29    2.36
   6  -9   0    1.03    1.41
   6  -9   0   -1.97    1.84
   6  -9   0   -1.29    2.40
   6 -10   0    1.40    1.08
   6 -10   0    1.05    1.95
   6 -10   0    1.43    1.42
  -6 -10  -1   64.48    5.04
   6  10   1   62.79    6.25
   6  10   1   45.68   11.10
  -6  -9  -1    1.67    1.75
   6   9   1    1.21    2.05
  -6  -8  -1   21.28    3.49
   6   8   1   18.64    3.68
  -6  -7  -1   17.02    3.04
   6   7   1   16.06    3.09
  -6  -6  -1    4.95    1.68
   6   6   1    6.20    2.11
  -6  -5  -1   30.51    3.08
   6   5   1   35.49    3.72
  -6  -4  -1   30.78    2.90
   6   4   1   33.96    3.68
  -6  -3  -1    2.68    2.37
   6   3   1    1.31    1.65
  -6  -2  -1  242.21   14.40
   6   2   1  247.24   15.06
  -6  -1  -1   99.47    6.85
   6   1   1   99.73    7.20
  -6   0  -1   -2.07    1.36
   6   0   1   -0.09    1.66
  -6   1  -1  101.29    8.74
   6  -1   1   99.55    6.85
  -6   2  -1  238.17   14.46
   6  -2   1  248.09   14.64
   6  -2   1  244.75   15.74
  -6   3  -1    0.93    1.24
   6  -3   1    0.74    1.38
   6  -3   1   -0.63    2.05
  -6   4  -1   30.25    8.43
   6  -4   1   32.99    2.65
   6  -4   1   34.82    8.46
  -6   5  -1   28.38    2.74
   6  -5   1   31.27    2.84
   6  -5   1   29.99    7.79
  -6   6  -1    6.50    1.48
   6  -6   1    4.21    2.03
   6  -6   1    5.03    2.00
  -6   7  -1   19.26    2.92
   6  -7   1   19.10    2.60
   6  -7   1   18.38    4.78
   6  -8   1   25.43    3.02
   6  -8   1   17.16    3.06
   6  -8   1   16.28    4.97
   6  -9   1    1.30    1.45
   6  -9   1    3.33    1.94
   6  -9   1    1.20    2.20
   6 -10   1   71.29    4.48
   6 -10   1   59.16    4.69
   6 -10   1   39.78   13.95
   6  10   2   64.82    6.17
   6  10   2   62.69   10.36
  -6  -9  -2   38.79    4.72
   6   9   2   29.06    4.10
   6   9   2   23.58    5.73
  -6  -8  -2   15.51    2.94
   6   8   2   14.55    2.66
  -6  -7  -2    6.70    2.48
   6   7   2    5.74    2.53
  -6  -6  -2   16.19    2.66
   6   6   2   15.64    2.86
  -6  -5  -2    7.52    2.18
   6   5   2    7.30    2.34
  -6  -4  -2    6.01    2.33
   6   4   2    7.09    2.81
  -6  -3  -2   46.61    3.72
   6   3   2   42.78    3.72
  -6  -2  -2    8.42    2.03
   6   2   2    1.07    1.69
  -6  -1  -2    2.23    1.53
   6   1   2    4.13    2.37
  -6   0  -2  183.51   11.12
   6   0   2  183.57   11.57
   6   0   2  174.95   12.04
  -6   1  -2    0.74    1.21
   6  -1   2    1.45    1.58
   6  -1   2    1.84    1.96
  -6   2  -2    8.23    1.80
   6  -2   2    7.02    2.05
   6  -2   2    5.22    1.91
  -6   3  -2   49.08    3.92
   6  -3   2   48.25    3.43
   6  -3   2   37.36    8.63
  -6   4  -2    3.52    1.18
   6  -4   2    1.94    1.41
   6  -4   2    3.58    1.50
  -6   5  -2    5.58    1.38
   6  -5   2    4.47    2.12
  -6   6  -2   20.41    5.78
   6  -6   2   16.86    2.12
   6  -6   2   16.65    4.12
  -6   7  -2    9.18    2.60
   6  -7   2   10.52    2.13
   6  -7   2    8.21    2.66
   6  -8   2   19.70    2.63
   6  -8   2   20.41    3.50
   6  -8   2   16.08    4.28
   6  -9   2   31.76    3.07
   6  -9   2   32.92    4.03
   6  -9   2   29.56    9.08
   6 -10   2   80.92    4.57
   6 -10   2   83.01    5.85
   6  10   3   23.46    4.28
   6  10   3   22.19    5.02
  -6  -9  -3   -1.40    1.95
   6   9   3    3.22    2.61
   6   9   3    0.39    0.55
  -6  -8  -3   44.46    4.01
   6   8   3   38.61    4.37
   6   8   3   25.02    6.45
  -6  -7  -3    4.43    2.81
   6   7   3    3.71    2.17
  -6  -6  -3   58.54    4.41
   6   6   3   52.24    4.44
  -6  -5  -3    6.39    2.14
   6   5   3    4.66    2.85
  -6  -4  -3  159.56    7.92
   6   4   3  160.56    8.70
  -6  -3  -3    4.41    2.17
   6   3   3    2.02    1.93
  -6  -2  -3    7.78    2.03
   6   2   3    5.83    2.70
   6   2   3    6.33    2.46
  -6  -1  -3   -1.41    1.31
   6   1   3    1.32    1.68
   6   1   3    0.24    1.45
  -6   0  -3    2.84    1.90
   6   0   3   -0.29    1.55
   6   0   3   -0.50    1.49
  -6   1  -3    0.00    1.04
   6  -1   3   -0.87    1.52
   6  -1   3   -0.07    1.85
  -6   2  -3    5.89    1.32
   6  -2   3    6.23    2.23
   6  -2   3    4.94    2.37
  -6   3  -3    3.02    1.26
   6  -3   3    0.63    1.35
   6  -3   3    2.36    1.49
  -6   4  -3  151.25    7.13
   6  -4   3  146.98    7.20
   6  -4   3  160.51   18.50
  -6   5  -3    6.22    1.52
   6  -5   3    5.07    1.77
  -6   6  -3   62.17    3.64
   6  -6   3   64.28    4.01
   6  -6   3   40.48   11.63
  -6   7  -3    7.84    1.89
   6  -7   3    6.07    1.60
   6  -7   3    5.52    2.68
   6  -8   3   39.00    3.03
   6  -8   3   36.54    3.83
   6  -8   3   26.95    7.54
   6  -9   3    1.04    1.42
   6  -9   3    1.90    1.97
   6  -9   3    2.11    1.76
   6 -10   3   31.28    3.52
   6 -10   3   30.15    3.58
  -6  -9  -4    1.82    2.17
   6   9   4    4.17    3.32
   6   9   4    2.71    1.06
  -6  -8  -4   55.27    5.81
   6   8   4   48.69    5.63
   6   8   4   31.03    7.65
  -6  -7  -4    6.72    2.59
   6   7   4    4.21    2.94
   6   7   4    2.91    1.01
  -6  -6  -4  195.40    7.89
   6   6   4  184.69    8.35
  -6  -5  -4   61.13    4.07
   6   5   4   60.07    4.49
  -6  -4  -4   11.64    2.60
   6   4   4   15.06    2.93
   6   4   4   11.38    2.26
  -6  -3  -4   66.24    4.01
   6   3   4   76.21    5.90
   6   3   4   56.81    5.70
  -6  -2  -4    4.21    1.38
   6   2   4    4.24    1.91
   6   2   4    8.19    3.49
  -6  -1  -4   15.94    2.40
   6   1   4   18.09    2.85
   6   1   4   17.20    3.87
  -6   0  -4   64.02    4.92
   6   0   4   54.31    4.98
   6   0   4   53.97    9.43
  -6   1  -4   20.17    2.35
   6  -1   4   19.53    3.16
   6  -1   4   16.58    4.11
  -6   2  -4    7.10    1.67
   6  -2   4    7.87    2.37
   6  -2   4    3.04    1.84
  -6   3  -4   72.14    5.16
   6  -3   4   70.82    4.83
   6  -3   4   61.11    6.75
  -6   4  -4   14.01    3.78
   6  -4   4   10.27    1.97
   6  -4   4   18.50    4.52
  -6   5  -4   62.61    9.21
   6  -5   4   62.70    3.88
   6  -5   4   52.79   12.70
  -6   6  -4  202.65    6.27
   6  -6   4  197.76    6.99
   6  -6   4  187.32   21.61
  -6   7  -4    7.79    1.81
   6  -7   4    6.42    1.91
   6  -7   4    3.54    2.09
   6  -8   4   44.84    3.93
   6  -8   4   44.85    4.38
   6  -8   4   32.48   10.34
   6  -9   4    9.61    2.58
   6  -9   4    2.68    1.73
   6  -9   4    1.09    0.91
   6   9   5   -0.48    2.26
  -6  -8  -5   58.86    5.93
   6   8   5   41.42    5.10
  -6  -7  -5    1.09    1.83
   6   7   5    1.73    2.27
  -6  -6  -5    2.64    1.80
   6   6   5    5.68    3.12
  -6  -5  -5   12.92    2.45
   6   5   5    4.84    2.18
   6   5   5    3.77    0.77
  -6  -4  -5  179.66    6.81
   6   4   5  146.26   10.67
  -6  -3  -5   18.13    2.38
   6   3   5   14.81    3.09
   6   3   5   12.97    2.97
  -6  -2  -5  432.47   11.41
  -6  -1  -5    7.19    1.92
   6   1   5   10.98    2.73
   6   1   5    9.36    1.91
  -6   0  -5    0.69    1.12
   6   0   5    0.40    1.57
   6   0   5    1.08    0.98
  -6   1  -5   13.91    2.38
   6  -1   5    7.40    2.18
   6  -1   5    6.90    2.94
  -6   2  -5  442.47   10.72
   6  -2   5  419.47   11.70
   6  -2   5  392.20   25.35
  -6   3  -5   18.42    4.70
   6  -3   5   17.50    2.45
   6  -3   5   18.33    4.39
  -6   4  -5  172.27    5.12
   6  -4   5  186.85    7.26
   6  -4   5  162.81   16.23
  -6   5  -5    8.44    2.38
   6  -5   5    8.94    2.16
   6  -5   5    7.48    3.37
  -6   6  -5    2.38    0.95
   6  -6   5    1.78    1.31
   6  -6   5    0.24    1.67
  -6   7  -5    1.51    1.00
   6  -7   5    0.19    1.32
   6  -7   5    2.10    0.92
   6  -8   5   39.49    3.25
   6  -8   5   44.06    4.00
   6  -8   5   29.37    8.34
   6  -9   5    0.27    1.37
   6  -9   5   -0.02    1.37
   6  -9   5   -0.03    2.28
  -6  -8  -6   82.69    5.88
   6   8   6   66.56    5.70
  -6  -7  -6    1.29    1.85
   6   7   6    4.15    2.18
  -6  -6  -6  105.09    7.06
   6   6   6  103.72    8.37
  -6  -5  -6   -0.47    1.42
   6   5   6   -1.48    1.84
  -6  -4  -6  138.22    7.22
   6   4   6  126.79    7.72
  -6  -3  -6    9.10    2.03
   6   3   6   10.03    2.75
   6   3   6    6.92    1.16
  -6  -2  -6  267.10    8.01
   6   2   6  271.04    9.40
   6   2   6  244.64   10.46
  -6  -1  -6    9.97    1.84
   6   1   6   14.10    2.98
   6   1   6    6.15    1.49
  -6   0  -6   19.82    2.43
   6   0   6   20.15    3.22
   6   0   6   18.13    3.74
  -6   1  -6   15.95    2.23
   6  -1   6    8.03    2.38
   6  -1   6    8.63    1.92
  -6   2  -6  284.03    7.29
   6  -2   6  291.73    9.11
   6  -2   6  271.98   19.20
  -6   3  -6   11.98    2.73
   6  -3   6   10.23    2.36
   6  -3   6    8.28    3.21
  -6   4  -6  145.39    6.30
   6  -4   6  132.24    7.12
   6  -4   6  130.22   15.51
  -6   5  -6   -0.73    0.68
   6  -5   6    2.64    2.31
   6  -5   6    3.01    2.40
  -6   6  -6  109.26    5.94
   6  -6   6  115.97    7.50
   6  -6   6  105.63   14.56
   6  -7   6    0.37    1.24
   6  -7   6    2.65    2.06
   6  -7   6   -0.90    2.21
   6  -8   6   69.95    3.98
   6  -8   6   89.92    5.15
   6  -8   6   61.59   15.58
  -6  -7  -7   17.61    3.54
   6   7   7   11.23    3.55
  -6  -6  -7    8.00    2.48
   6   6   7    9.05    3.43
  -6  -5  -7   15.57    2.91
   6   5   7   19.57    4.10
  -6  -4  -7    2.11    1.87
   6   4   7    0.54    3.06
  -6  -3  -7    3.64    1.97
   6   3   7    1.44    1.69
  -6  -2  -7   18.89    2.46
   6   2   7   17.74    3.10
  -6  -1  -7   45.15    3.56
   6   1   7   38.68    4.07
   6   1   7   38.24    6.19
  -6   0  -7   -0.60    1.26
   6   0   7    3.09    1.66
   6   0   7    0.26    0.80
  -6   1  -7   50.27    3.53
   6  -1   7   39.08    3.93
   6  -1   7   29.49    5.79
  -6   2  -7   18.30    2.45
   6  -2   7   22.98    3.28
   6  -2   7   15.22    3.16
  -6   3  -7    2.51    0.64
   6  -3   7    3.90    2.53
   6  -3   7   -0.27    1.68
  -6   4  -7    8.42    2.00
   6  -4   7    2.08    1.48
   6  -4   7    1.83    2.23
  -6   5  -7   17.90    4.87
   6  -5   7   13.25    2.51
   6  -5   7   22.64    6.31
   6  -6   7    3.38    1.71
   6  -6   7    5.96    2.01
   6  -7   7   10.68    2.54
   6  -7   7    7.06    2.54
  -6  -6  -8    2.97    2.20
   6   6   8    8.45    3.51
  -6  -5  -8    0.64    1.51
   6   5   8    0.05    1.97
  -6  -4  -8   36.82    3.56
   6   4   8   33.73    4.61
  -6  -3  -8    0.42    1.23
   6   3   8    1.05    1.94
  -6  -2  -8   61.12    4.55
   6   2   8   67.33    5.96
  -6  -1  -8    1.73    1.28
   6   1   8    4.57    2.25
  -6   0  -8   30.62    2.83
   6   0   8   22.48    3.00
  -6   1  -8    2.35    1.45
   6  -1   8   -0.22    1.44
  -6   2  -8   76.88    4.77
   6  -2   8   56.03    4.71
   6  -2   8   71.77    6.11
  -6   3  -8   -0.13    0.80
   6  -3   8   -0.25    1.31
   6  -3   8   -0.12    1.57
  -6   4  -8   36.73    3.84
   6  -4   8   31.58    3.31
   6  -4   8   37.89    4.97
  -6   5  -8    1.10    0.47
   6  -5   8   -0.77    1.17
   6  -5   8    2.27    3.09
   6  -6   8    3.18    1.86
   6  -6   8    2.85    1.45
   6  -6   8    5.55    3.53
  -6  -5  -9    5.70    2.09
   6   5   9    1.55    2.25
  -6  -4  -9   10.12    2.35
   6   4   9    8.09    3.34
  -6  -3  -9   -0.88    1.20
   6   3   9    3.90    2.71
  -6  -2  -9   14.28    2.65
   6   2   9    3.11    1.83
  -6  -1  -9   11.26    2.03
   6   1   9   10.49    2.93
  -6   0  -9    0.68    1.22
   6   0   9    0.34    1.49
  -6   1  -9   15.72    2.19
   6  -1   9   11.29    2.58
  -6   2  -9   13.22    3.67
   6  -2   9    6.05    1.78
  -6   3  -9    0.85    0.90
   6  -3   9    0.61    0.86
  -6   4  -9    8.47    2.35
   6  -4   9    5.25    1.51
  -6   5  -9    4.01    1.19
   6  -5   9    2.65    1.16
  -6  -2 -10   72.05    4.58
   6   2  10   59.21    4.99
  -6  -1 -10   -0.48    1.11
   6   1  10    0.36    1.67
  -6   0 -10   20.99    2.62
   6   0  10    7.97    2.47
  -6   1 -10   -0.55    0.84
   6  -1  10   -0.19    1.00
  -6   2 -10   79.85    3.99
   6  -2  10   63.52    4.04
  -7  -3   8   93.72    6.04
   7   3  -8   93.74    6.56
  -7  -2   8   -1.38    1.87
   7   2  -8    1.38    1.68
  -7  -1   8  281.49   11.49
   7   1  -8  249.98    8.71
  -7   0   8    1.01    0.71
   7   0  -8    0.19    1.71
  -7   1   8  225.05   12.91
   7  -1  -8  264.56    8.58
  -7   2   8    0.63    0.77
   7  -2  -8    2.57    2.58
   7  -3  -8   99.71    6.66
  -7  -5   7   83.50   16.10
   7   5  -7   84.26    5.85
  -7  -4   7    3.58    1.07
   7   4  -7    9.78    2.95
  -7  -3   7   33.91    8.98
   7   3  -7   40.53    4.20
  -7  -2   7    3.04    2.10
   7   2  -7    4.56    2.06
  -7  -1   7   10.95    2.31
   7   1  -7   12.14    2.83
  -7   0   7    1.88    1.10
   7   0  -7    2.01    2.48
  -7   1   7   13.15    2.77
   7  -1  -7   11.70    2.38
  -7   2   7    6.94    1.82
   7  -2  -7    1.77    1.72
  -7   3   7   32.41   10.57
   7  -3  -7   37.18    4.14
  -7   4   7    7.36    1.97
   7  -4  -7    8.29    2.81
   7  -5  -7   95.87    6.26
  -7  -6   6   17.46    3.75
   7   6  -6    8.49    2.21
  -7  -5   6  329.51   17.85
   7   5  -6  362.83   17.92
  -7  -4   6    1.47    1.28
   7   4  -6   -0.47    1.82
  -7  -3   6    9.47    2.27
   7   3  -6   11.56    2.76
  -7  -2   6    2.30    1.45
   7   2  -6    2.03    1.96
  -7  -1   6    2.83    0.87
   7   1  -6   -0.78    1.62
  -7   0   6    1.35    1.00
   7   0  -6    2.01    2.37
  -7   1   6    1.53    1.51
   7  -1  -6    4.33    2.36
  -7   2   6    1.36    0.70
   7  -2  -6    1.98    2.26
  -7   3   6   11.95    2.63
   7  -3  -6    6.74    2.09
  -7   4   6    1.01    1.05
   7  -4  -6    0.27    1.68
   7  -5  -6  380.78   18.08
   7  -6  -6    9.43    3.31
   7  -6  -6   13.57    4.87
  -7  -7   5    6.14    2.57
   7   7  -5    1.27    2.28
  -7  -6   5    5.59    2.87
   7   6  -5    6.22    2.94
  -7  -5   5    2.61    1.99
   7   5  -5    5.64    2.83
  -7  -4   5    2.76    1.85
   7   4  -5    0.89    1.97
  -7  -3   5   46.57   11.47
   7   3  -5   51.84    4.52
  -7  -2   5    2.39    2.02
   7   2  -5    3.41    2.84
  -7  -1   5   99.13    8.04
   7   1  -5   98.92    6.06
  -7   0   5    1.19    0.79
   7   0  -5    2.42    2.51
  -7   1   5   95.21   10.27
   7  -1  -5   94.83    5.74
  -7   2   5   -1.42    1.44
   7  -2  -5   -0.21    1.50
  -7   3   5   40.84    8.96
   7  -3  -5   43.79    3.95
  -7   4   5    1.83    0.84
   7  -4  -5    3.48    1.61
  -7   5   5    1.17    0.95
   7  -5  -5   -0.66    1.79
  -7   6   5    2.89    1.72
   7  -6  -5    2.67    2.50
   7  -6  -5    3.58    4.44
   7  -7  -5    3.15    2.86
  -7  -8   4   14.24    2.67
   7   8  -4   13.22    3.16
  -7  -7   4    0.75    1.86
   7   7  -4   -0.61    2.11
  -7  -6   4   11.20    2.61
   7   6  -4   11.72    2.79
  -7  -5   4   21.33    3.19
   7   5  -4   15.21    2.90
  -7  -4   4    1.95    1.75
   7   4  -4    0.33    1.90
  -7  -3   4    5.42    1.93
   7   3  -4    7.51    2.99
  -7  -2   4    9.21    3.12
   7   2  -4    8.00    2.56
  -7  -1   4  257.44   11.53
   7   1  -4  270.07    9.67
  -7   0   4   36.12    7.01
   7   0  -4   37.42    3.52
  -7   1   4  242.11    9.01
   7  -1  -4  256.64    8.86
  -7   2   4    8.31    1.63
   7  -2  -4    8.82    2.08
  -7   3   4    3.51    1.46
   7  -3  -4    3.21    1.63
  -7   4   4    1.53    0.79
   7  -4  -4    0.61    1.64
  -7   5   4   17.62    4.82
   7  -5  -4   15.29    2.57
   7  -5  -4   17.43    4.38
  -7   6   4   11.86    3.74
   7  -6  -4    8.59    2.49
   7  -6  -4   11.34    4.54
  -7   7   4   -0.72    1.65
   7  -7  -4    0.73    1.86
   7  -7  -4    2.01    1.90
   7  -8  -4   15.08    3.16
  -7  -8   3    2.80    1.74
   7   8  -3    3.16    2.40
  -7  -7   3  372.79    9.67
   7   7  -3  368.04   14.01
  -7  -6   3    1.04    1.64
   7   6  -3    0.91    1.93
  -7  -5   3  370.88   13.64
   7   5  -3  361.65   13.73
  -7  -4   3   -0.11    1.60
   7   4  -3   -0.75    1.94
  -7  -3   3  117.77    6.05
   7   3  -3  117.56    6.47
  -7  -2   3   -0.27    1.67
   7   2  -3    3.21    2.98
  -7  -1   3   79.42    4.51
   7   1  -3   81.39    4.96
  -7   0   3    0.74    0.75
   7   0  -3   -0.02    1.57
  -7   1   3   74.67    8.04
   7  -1  -3   72.83    4.28
  -7   2   3    1.95    0.80
   7  -2  -3    0.56    1.46
  -7   3   3  122.80   10.66
   7  -3  -3  115.63    5.59
  -7   4   3    0.35    0.65
   7  -4  -3   -0.91    1.61
  -7   5   3  312.93   11.02
   7  -5  -3  347.17   12.39
   7  -5  -3  334.73   15.78
  -7   6   3   -0.54    1.51
   7  -6  -3    1.33    1.60
   7  -6  -3   -0.32    2.88
  -7   7   3  351.15   12.20
   7  -7  -3  368.11   12.94
   7  -7  -3  379.37   14.92
   7  -8  -3    2.88    2.40
   7  -8  -3    8.92    3.71
   7   9  -2  122.98    8.14
  -7  -8   2    9.98    2.66
   7   8  -2    8.65    2.44
  -7  -7   2   47.02    4.79
   7   7  -2   48.66    4.93
  -7  -6   2    2.11    1.77
   7   6  -2    5.06    2.22
  -7  -5   2   50.96    4.30
   7   5  -2   46.55    4.24
  -7  -4   2    1.40    1.82
   7   4  -2    3.87    2.13
  -7  -3   2  490.21   12.32
   7   3  -2  485.75   12.90
  -7  -2   2    4.47    2.56
   7   2  -2    5.44    2.07
  -7  -1   2  149.34   16.59
   7   1  -2  149.53    6.80
  -7   0   2    1.66    1.85
   7   0  -2    2.98    2.22
  -7   1   2  137.64   10.98
   7  -1  -2  135.39    6.22
  -7   2   2    4.29    2.16
   7  -2  -2    2.33    1.57
  -7   3   2  468.43   14.11
   7  -3  -2  462.19   11.14
  -7   4   2    3.75    2.05
   7  -4  -2    0.81    2.10
   7  -4  -2    3.43    4.30
  -7   5   2   42.66    8.63
   7  -5  -2   45.29    3.63
   7  -5  -2   54.77    6.29
  -7   6   2    4.88    1.86
   7  -6  -2    3.52    1.72
   7  -6  -2    3.45    2.43
  -7   7   2   45.36    5.16
   7  -7  -2   47.08    4.68
   7  -7  -2   39.21   10.78
   7  -8  -2    7.72    2.15
   7  -8  -2    6.74    4.23
   7  -9  -2  140.36    7.51
   7   9  -1  160.23    9.50
  -7  -8   1    0.67    1.66
   7   8  -1   -0.78    2.25
  -7  -7   1   10.93    2.89
   7   7  -1   12.97    3.45
  -7  -6   1   11.87    2.57
   7   6  -1    8.31    2.30
  -7  -5   1   36.57    3.42
   7   5  -1   39.26    3.96
  -7  -4   1   25.51    3.12
   7   4  -1   24.10    3.51
  -7  -3   1   31.72    3.34
   7   3  -1   35.62    4.06
  -7  -2   1    4.34    1.92
   7   2  -1    3.50    1.95
  -7  -1   1   38.84    3.66
   7   1  -1   45.38    4.71
  -7   0   1    0.76    0.83
   7   0  -1    1.94    2.21
  -7   1   1   41.41    3.12
   7  -1  -1   40.12    3.41
  -7   2   1    7.82    1.24
   7  -2  -1    4.95    1.73
  -7   3   1   26.71    5.41
   7  -3  -1   27.11    2.80
   7  -3  -1   33.63    6.07
  -7   4   1   26.69    7.69
   7  -4  -1   19.47    2.38
   7  -4  -1   20.62    4.43
  -7   5   1   36.54    5.83
   7  -5  -1   36.54    3.04
   7  -5  -1   33.40    8.82
  -7   6   1   14.10    2.96
   7  -6  -1   10.13    2.15
   7  -6  -1    6.56    3.10
  -7   7   1   12.48    2.85
   7  -7  -1    9.37    2.12
   7  -7  -1    6.96    2.60
  -7   8   1   -0.23    1.25
   7  -8  -1   -1.93    1.51
   7  -8  -1    1.69    1.98
   7  -9  -1  201.94    9.62
   7  -9  -1  162.90    9.85
   7   9   0  140.62    8.92
  -7  -8   0    1.48    1.72
   7   8   0    4.08    2.49
  -7  -7   0   -0.16    1.54
   7   7   0    2.62    2.88
  -7  -6   0    2.60    2.26
   7   6   0    0.82    2.04
  -7  -5   0   64.71    4.80
   7   5   0   65.19    5.49
  -7  -4   0   -2.46    1.61
   7   4   0    0.54    1.78
  -7  -3   0  205.68    7.44
   7   3   0  197.55    7.82
  -7  -2   0   -0.02    1.70
   7   2   0   -0.37    1.57
  -7  -1   0  142.78    6.21
   7   1   0  153.95    7.13
  -7   0   0   -0.22    0.61
   7   0   0    2.15    1.78
  -7   1   0  143.58    6.47
   7  -1   0  148.58    6.48
  -7   2   0    1.32    1.04
   7  -2   0   -2.63    1.63
  -7   3   0  182.06    6.06
   7  -3   0  184.77    6.70
   7  -3   0  194.97    9.83
  -7   4   0   -0.26    1.19
   7  -4   0   -0.12    1.34
   7  -4   0   -2.11    2.46
  -7   5   0   62.55    5.33
   7  -5   0   64.54    4.41
   7  -5   0   57.03   13.38
  -7   6   0   -1.04    1.21
   7  -6   0    1.34    1.44
   7  -6   0    3.91    1.83
  -7   7   0    0.91    1.22
   7  -7   0    0.25    1.34
   7  -7   0   -0.55    2.59
  -7   8   0    0.35    0.53
   7  -8   0    1.46    1.69
   7  -8   0    1.25    1.21
   7  -9   0  168.09    8.27
   7  -9   0  141.77    8.70
   7   9   1  162.87    9.69
  -7  -8  -1   -0.32    1.62
   7   8   1    7.12    4.09
  -7  -7  -1   13.28    2.80
   7   7   1    7.45    3.38
  -7  -6  -1   11.53    2.89
   7   6   1    7.51    2.14
  -7  -5  -1   39.99    4.19
   7   5   1   32.67    4.02
  -7  -4  -1   23.82    3.07
   7   4   1   23.69    3.51
  -7  -3  -1   30.58    3.28
   7   3   1   30.16    3.69
  -7  -2  -1    7.32    2.21
   7   2   1    6.89    2.30
  -7  -1  -1   38.65    3.56
   7   1   1   35.81    3.83
  -7   0  -1    2.34    1.46
   7   0   1   -1.36    1.82
  -7   1  -1   45.04   10.88
   7  -1   1   40.47    3.76
   7  -1   1   39.61    5.50
  -7   2  -1    7.97    1.60
   7  -2   1    1.49    2.26
  -7   3  -1   27.96    2.89
   7  -3   1   28.36    3.17
   7  -3   1   24.50    5.86
  -7   4  -1   21.39    5.29
   7  -4   1   26.30    3.07
   7  -4   1   21.44    6.51
  -7   5  -1   36.88    3.47
   7  -5   1   25.27    6.91
  -7   6  -1   10.03    2.33
   7  -6   1   10.64    2.39
   7  -6   1    8.14    3.34
  -7   7  -1    9.78    3.21
   7  -7   1   12.40    2.73
   7  -7   1   12.71    3.32
  -7   8  -1    2.70    1.16
   7  -8   1    1.33    1.59
   7  -8   1   -2.68    2.46
   7  -9   1  182.39    8.74
   7  -9   1  151.77    8.66
  -7  -8  -2    7.46    2.18
   7   8   2   11.21    3.58
  -7  -7  -2   44.36    4.02
   7   7   2   34.50    3.87
  -7  -6  -2    2.83    1.62
   7   6   2    5.41    2.90
  -7  -5  -2   49.28    4.36
   7   5   2   42.01    4.48
  -7  -4  -2    2.63    2.15
   7   4   2    1.66    2.01
  -7  -3  -2  475.94   11.68
   7   3   2  470.12   12.38
  -7  -2  -2    4.91    2.03
   7   2   2    4.65    2.67
  -7  -1  -2  147.52    6.33
   7   1   2  137.32    6.59
  -7   0  -2    5.01    2.16
   7   0   2    3.80    2.72
  -7   1  -2  144.22    6.56
   7  -1   2  136.85    7.73
  -7   2  -2    5.56    1.38
   7  -2   2    4.39    2.33
   7  -2   2    0.73    2.89
  -7   3  -2  450.02   10.34
   7  -3   2  454.13   11.20
   7  -3   2  451.92   29.96
  -7   4  -2    1.66    0.95
   7  -4   2    0.71    1.51
   7  -4   2    4.31    2.06
  -7   5  -2   43.83    4.40
   7  -5   2   49.36    4.03
   7  -5   2   32.67    8.80
  -7   6  -2    2.64    0.91
   7  -6   2    1.63    2.05
   7  -6   2    1.73    1.99
  -7   7  -2   41.71   10.26
   7  -7   2   46.75    4.23
   7  -7   2   33.12    7.73
  -7   8  -2    9.56    2.77
   7  -8   2   11.57    2.69
   7  -8   2    5.18    2.55
   7  -9   2  133.88    7.17
   7   8   3    1.67    2.43
  -7  -7  -3  353.60   13.01
   7   7   3  337.13   13.36
  -7  -6  -3    0.19    1.69
   7   6   3    0.42    1.89
  -7  -5  -3  340.97   12.47
   7   5   3  341.65   13.20
  -7  -4  -3    2.24    2.07
   7   4   3   -0.06    1.86
  -7  -3  -3  117.34    5.71
   7   3   3  114.44    6.21
  -7  -2  -3    0.99    1.38
   7   2   3    2.31    1.90
   7   2   3    0.45    1.64
  -7  -1  -3   78.84    4.56
   7   1   3   75.93    4.83
   7   1   3   69.73    5.58
  -7   0  -3    0.94    1.35
   7   0   3    0.44    1.64
   7   0   3   -0.94    1.16
  -7   1  -3   78.84    5.85
   7  -1   3   79.69    4.85
   7  -1   3   59.59   13.27
  -7   2  -3    0.83    1.29
   7  -2   3    1.15    1.86
   7  -2   3    2.80    1.29
  -7   3  -3  119.34    8.43
   7  -3   3  108.47    5.55
   7  -3   3  107.58   19.03
  -7   4  -3    2.07    1.23
   7  -4   3    1.82    1.62
   7  -4   3    1.19    2.06
  -7   5  -3  336.09   18.17
   7  -5   3  360.00   12.87
  -7   6  -3    1.64    0.68
   7  -6   3    0.86    1.45
   7  -6   3   -1.19    2.38
  -7   7  -3  341.41   11.10
   7  -7   3  355.58   12.40
   7  -7   3  295.85   13.18
  -7   8  -3    2.34    1.19
   7  -8   3    2.94    2.47
   7  -8   3    6.15    2.97
   7   8   4   18.09    4.39
  -7  -7  -4    0.89    1.78
   7   7   4   -0.63    1.92
  -7  -6  -4    9.75    2.60
   7   6   4    4.43    2.36
  -7  -5  -4   20.71    3.14
   7   5   4   15.91    3.14
   7   5   4   17.23    2.61
  -7  -4  -4    0.25    1.49
   7   4   4    2.41    2.00
   7   4   4   -0.12    0.94
  -7  -3  -4    4.14    1.64
   7   3   4    3.56    2.83
   7   3   4    3.18    1.82
  -7  -2  -4    7.63    2.15
   7   2   4    6.81    2.50
  -7  -1  -4  270.74    9.03
   7   1   4  266.71    9.50
   7   1   4  235.37   14.76
  -7   0  -4   42.14    3.66
   7   0   4   38.53    3.97
   7   0   4   32.70    7.80
  -7   1  -4  290.58    9.04
   7  -1   4  277.98    9.84
   7  -1   4  251.02   17.67
  -7   2  -4    8.66    2.38
   7  -2   4    7.81    2.48
   7  -2   4    5.60    2.28
  -7   3  -4    3.94    0.93
   7  -3   4    8.19    2.49
   7  -3   4    3.26    1.22
  -7   4  -4    0.14    0.86
   7  -4   4   -1.80    1.52
   7  -4   4    1.76    1.63
  -7   5  -4   15.45    4.57
   7  -5   4   16.26    2.79
   7  -5   4   11.59    4.72
  -7   6  -4   10.82    3.84
   7  -6   4   12.08    3.01
   7  -6   4   11.76    3.36
  -7   7  -4    1.81    0.84
   7  -7   4    3.87    3.12
   7  -7   4    1.66    1.52
   7  -8   4   10.94    2.62
   7  -8   4   10.39    3.63
  -7  -7  -5    5.50    2.46
   7   7   5    3.00    2.22
  -7  -6  -5    4.15    2.55
   7   6   5   -0.98    1.84
   7   6   5    3.09    0.75
  -7  -5  -5    3.28    2.17
   7   5   5    2.18    1.78
   7   5   5   -0.30    0.64
  -7  -4  -5    0.52    1.36
   7   4   5    1.77    2.52
   7   4   5    0.50    0.64
  -7  -3  -5   53.06    4.00
   7   3   5   43.81    4.35
   7   3   5   26.34    6.65
  -7  -2  -5    0.86    1.34
   7   2   5    1.28    3.26
   7   2   5   -0.19    1.34
  -7  -1  -5  105.94    5.98
   7   1   5  110.62    6.87
   7   1   5   69.93    9.06
  -7   0  -5    1.83    1.88
   7   0   5    0.65    1.64
   7   0   5    0.44    1.19
  -7   1  -5  112.68    6.06
   7  -1   5  102.60    6.47
   7  -1   5   76.11    8.73
  -7   2  -5    2.73    0.88
   7  -2   5    0.07    1.54
   7  -2   5    0.84    0.95
  -7   3  -5   42.63    5.27
   7  -3   5   54.61    4.62
   7  -3   5   35.61   10.81
  -7   4  -5    0.67    0.85
   7  -4   5    0.81    1.71
   7  -4   5    0.24    0.95
  -7   5  -5    1.44    0.50
   7  -5   5    1.07    1.80
   7  -5   5    4.62    2.52
  -7   6  -5    1.25    1.48
   7  -6   5   -0.47    1.74
   7  -6   5   -0.01    1.96
  -7   7  -5    2.29    1.18
   7  -7   5    4.85    2.66
   7  -7   5    5.26    2.02
  -7  -6  -6   12.05    2.81
   7   6   6   11.33    3.32
  -7  -5  -6  349.95   16.71
   7   5   6  328.03   17.09
  -7  -4  -6    1.05    1.36
   7   4   6    3.46    2.51
  -7  -3  -6   11.53    2.28
   7   3   6   15.43    3.57
   7   3   6    7.30    1.84
  -7  -2  -6    0.71    1.30
   7   2   6    0.51    1.81
   7   2   6    1.84    1.13
  -7  -1  -6    1.80    1.32
   7   1   6    0.93    1.96
   7   1   6    0.45    1.38
  -7   0  -6    3.45    1.99
   7   0   6    1.56    1.88
   7   0   6    1.89    1.61
  -7   1  -6    2.98    1.87
   7  -1   6    4.78    2.74
   7  -1   6    0.25    1.74
  -7   2  -6    1.50    1.04
   7  -2   6    0.05    1.70
   7  -2   6    0.93    1.35
  -7   3  -6   13.65    4.54
   7  -3   6   11.27    2.70
   7  -3   6    8.67    3.97
  -7   4  -6    0.88    0.70
   7  -4   6    1.65    1.87
   7  -4   6    0.44    0.72
  -7   5  -6  345.93   15.44
   7  -5   6  323.96   15.87
   7  -5   6  275.48   36.08
  -7   6  -6   10.35    3.46
   7  -6   6    9.55    3.39
   7  -6   6    1.75    1.14
  -7  -5  -7   98.50    6.07
   7   5   7   88.21    7.15
  -7  -4  -7    6.05    2.08
   7   4   7    0.80    2.25
  -7  -3  -7   48.86    4.26
   7   3   7   36.85    4.81
  -7  -2  -7    6.67    2.24
   7   2   7    3.80    3.01
   7   2   7    1.80    0.73
  -7  -1  -7   15.18    2.60
   7   1   7   13.27    3.40
   7   1   7    9.62    2.09
  -7   0  -7    1.12    1.83
   7   0   7   -0.95    2.02
   7   0   7   -0.13    1.41
  -7   1  -7   17.60    2.28
   7  -1   7   16.80    3.29
   7  -1   7   11.51    2.29
  -7   2  -7    5.27    1.53
   7  -2   7   10.76    4.03
   7  -2   7    2.78    2.25
  -7   3  -7   46.51    5.71
   7  -3   7   47.44    4.82
   7  -3   7   23.79    6.46
  -7   4  -7    6.46    2.11
   7  -4   7    0.05    1.71
   7  -4   7    3.18    1.45
  -7   5  -7   91.26    4.50
   7  -5   7   77.11    5.45
   7  -5   7   41.26   11.94
  -7  -3  -8   98.15    5.90
   7   3   8   87.67    7.46
  -7  -2  -8    1.96    1.76
   7   2   8   -1.19    2.02
  -7  -1  -8  282.72    8.10
   7   1   8  243.58    9.66
  -7   0  -8    2.13    1.85
   7   0   8    1.71    2.12
   7   0   8    0.80    1.22
   7  -1   8  245.27    9.28
   7  -1   8  238.95    8.88
  -7   2  -8    0.42    0.86
   7  -2   8    0.41    1.86
   7  -2   8    0.59    0.82
  -7   3  -8  106.84    5.33
   7  -3   8   88.54    6.27
   7  -3   8   54.76   15.03
   8   2  -6  117.66    7.88
   8   1  -6    3.30    3.02
   8   0  -6   74.31    5.87
   8  -1  -6    0.19    2.03
   8  -2  -6   92.79    6.42
   8  -3  -6   11.63    2.97
   8   4  -5  123.42    8.30
  -8  -3   5    4.86    2.21
   8   3  -5    7.74    2.64
  -8  -2   5  124.26   15.17
   8   2  -5  162.29    8.40
  -8  -1   5    7.63    1.71
   8   1  -5    8.06    3.31
  -8   0   5   -0.23    0.82
   8   0  -5   -0.47    1.97
  -8   1   5    4.49    1.75
   8  -1  -5    8.01    3.15
   8  -2  -5  138.88    8.48
   8  -3  -5    8.62    3.10
   8  -4  -5  115.48    7.30
   8   5  -4   -0.28    2.21
  -8  -4   4    1.05    1.86
   8   4  -4    2.54    2.48
  -8  -3   4   48.76    5.96
   8   3  -4   52.80    5.47
  -8  -2   4   16.82    2.69
   8   2  -4   16.66    3.47
  -8  -1   4    4.46    1.69
   8   1  -4    2.57    2.36
  -8   0   4   78.28   18.03
   8   0  -4   75.84    5.58
  -8   1   4    3.48    1.42
   8  -1  -4    2.54    2.12
  -8   2   4   12.00    3.66
   8  -2  -4   15.77    2.90
  -8   3   4   42.85    9.60
   8  -3  -4   50.68    4.76
   8  -4  -4    0.46    1.86
   8  -5  -4    2.57    2.05
   8   6  -3    2.66    2.63
  -8  -5   3    0.60    1.69
   8   5  -3    2.43    2.46
  -8  -4   3   29.79    3.41
   8   4  -3   32.25    4.31
  -8  -3   3    2.17    1.76
   8   3  -3   -0.92    2.28
  -8  -2   3   31.31   11.81
   8   2  -3   38.97    4.56
  -8  -1   3    3.26    1.29
   8   1  -3   12.31    3.63
  -8   0   3   -0.22    1.08
   8   0  -3    1.60    1.92
  -8   1   3    2.71    1.14
   8  -1  -3    3.64    1.89
  -8   2   3   31.32    7.62
   8  -2  -3   36.71    3.86
  -8   3   3    0.28    0.81
   8  -3  -3    0.73    1.59
  -8   4   3   23.13    6.36
   8  -4  -3   37.71    4.15
   8  -4  -3   42.58    6.86
  -8   5   3    1.21    1.21
   8  -5  -3    2.00    1.77
   8  -5  -3    7.44    4.89
   8  -6  -3    4.92    2.62
   8   6  -2   42.72    5.52
  -8  -5   2   20.21    3.24
   8   5  -2   20.36    3.96
  -8  -4   2   13.31    3.02
   8   4  -2   14.42    2.77
  -8  -3   2   16.69    2.88
   8   3  -2   15.71    3.18
  -8  -2   2    2.18    1.36
   8   2  -2    2.19    2.04
  -8  -1   2   20.45    6.26
   8   1  -2   24.79    3.81
  -8   0   2   72.61    7.29
   8   0  -2   71.06    6.11
  -8   1   2   19.65    4.04
   8  -1  -2   18.95    3.19
  -8   2   2    1.18    1.01
   8  -2  -2    1.05    1.66
  -8   3   2   11.16    3.05
   8  -3  -2   12.86    2.48
  -8   4   2   11.93    3.88
   8  -4  -2   11.76    2.45
   8  -4  -2   11.78    3.67
  -8   5   2   14.36    4.67
   8  -5  -2   16.06    2.99
   8  -5  -2    7.63    3.49
   8  -6  -2   41.06    3.89
   8   6  -1    5.13    3.99
  -8  -5   1   20.24    3.08
   8   5  -1   25.94    3.77
  -8  -4   1   68.78    5.60
   8   4  -1   70.23    6.31
  -8  -3   1   -0.57    1.69
   8   3  -1    0.52    1.92
  -8  -2   1  107.42    7.42
   8   2  -1   90.69    6.90
  -8  -1   1   27.04    6.31
   8   1  -1   30.00    4.02
  -8   0   1    0.88    0.83
   8   0  -1    6.85    3.58
  -8   1   1   26.24    7.17
   8  -1  -1   21.02    3.25
  -8   2   1   87.39    7.40
   8  -2  -1   89.00    6.31
  -8   3   1    2.20    1.41
   8  -3  -1    1.36    2.38
   8  -3  -1   -0.09    2.95
  -8   4   1   62.69    5.67
   8  -4  -1   62.77    5.28
   8  -4  -1   79.76    8.45
  -8   5   1   17.53    4.87
   8  -5  -1   17.71    3.15
   8  -5  -1   17.99    6.15
  -8   6   1    1.93    1.33
   8  -6  -1    3.80    2.34
   8  -6  -1   -1.96    3.20
   8   7   0    1.88    2.72
   8   6   0  470.69   12.74
  -8  -5   0    0.31    1.60
   8   5   0   -1.99    2.01
  -8  -4   0   14.86    2.91
   8   4   0   10.64    2.80
  -8  -3   0   -2.03    1.86
   8   3   0    1.02    1.90
  -8  -2   0    1.44    1.67
   8   2   0    7.89    2.86
  -8  -1   0    1.17    1.63
   8   1   0   -0.30    1.77
  -8   0   0  546.34   18.51
   8   0   0  641.61   21.46
  -8   1   0    2.49    1.12
   8  -1   0    5.14    2.63
  -8   2   0    4.63    1.58
   8  -2   0    0.13    1.70
   8  -2   0    9.27    3.72
  -8   3   0    1.45    1.28
   8  -3   0    1.38    1.86
   8  -3   0   -1.58    2.73
  -8   4   0   11.95    3.53
   8  -4   0   11.72    2.35
   8  -4   0    9.96    5.00
  -8   5   0    0.18    1.11
   8  -5   0   -0.16    1.27
   8  -5   0    1.44    3.29
  -8   6   0  410.49    9.57
   8  -6   0  440.33   10.37
   8  -6   0  426.31   39.06
  -8   7   0    0.52    0.97
   8  -7   0    1.50    1.70
   8   6   1   -1.63    2.42
  -8  -5  -1   20.17    3.01
   8   5   1   25.97    4.45
  -8  -4  -1   67.35    5.42
   8   4   1   62.43    5.77
  -8  -3  -1   -0.31    1.75
   8   3   1    0.73    1.82
  -8  -2  -1   92.15    6.34
   8   2   1  101.57    7.58
  -8  -1  -1   30.41    3.40
   8   1   1   30.41    3.60
  -8   0  -1    1.19    0.77
   8   0   1   -0.60    1.93
   8   0   1   -0.32    2.28
  -8   1  -1   25.08    8.26
   8  -1   1   31.05    4.07
   8  -1   1   29.07    5.12
  -8   2  -1   86.09    8.27
   8  -2   1   85.70    6.45
   8  -2   1   75.59   15.49
  -8   3  -1    0.25    0.63
   8  -3   1    0.84    1.42
   8  -3   1   -0.04    1.83
  -8   4  -1   70.65    7.20
   8  -4   1   67.97    5.53
   8  -4   1   51.95   11.75
  -8   5  -1   16.13    4.83
   8  -5   1   20.98    3.79
   8  -5   1   14.76    5.27
  -8   6  -1    1.11    0.72
   8  -6   1   -0.52    1.77
   8  -6   1    0.33    1.64
   8   6   2   38.74    4.61
  -8  -5  -2   14.55    2.81
   8   5   2   19.37    3.63
  -8  -4  -2   15.23    2.72
   8   4   2   10.17    2.91
  -8  -3  -2   14.13    2.72
   8   3   2   12.59    2.74
  -8  -2  -2   -0.80    1.63
   8   2   2    0.93    1.93
  -8  -1  -2   19.65    2.79
   8   1   2   16.92    3.09
   8   1   2   17.38    3.46
  -8   0  -2   75.97    7.84
   8   0   2   70.28    5.95
   8   0   2   72.12    6.78
  -8   1  -2   21.65    4.35
   8  -1   2   18.44    3.16
   8  -1   2   18.58    5.81
  -8   2  -2   -0.60    1.36
   8  -2   2    0.50    1.93
   8  -2   2    1.63    1.86
  -8   3  -2   14.33    3.96
   8  -3   2    7.84    2.43
   8  -3   2   11.41    4.12
  -8   4  -2   17.37    3.61
   8  -4   2   13.15    2.96
   8  -4   2   10.45    2.98
  -8   5  -2   14.44    4.76
   8  -5   2   18.55    3.60
   8  -5   2   14.62    4.94
  -8   6  -2   38.31    4.28
   8  -6   2   41.84    4.20
   8  -6   2   30.26    8.14
   8   6   3    5.74    3.11
  -8  -5  -3    2.57    2.30
   8   5   3    3.32    2.11
  -8  -4  -3   35.35    3.63
   8   4   3   33.09    4.38
  -8  -3  -3    2.71    2.19
   8   3   3    3.93    2.52
   8   3   3   -0.35    1.52
  -8  -2  -3   39.25    3.97
   8   2   3   35.98    3.93
   8   2   3   28.68    4.22
  -8  -1  -3    4.79    1.68
   8   1   3    5.97    2.53
   8   1   3    5.37    2.41
  -8   0  -3    1.92    1.48
   8   0   3   -1.22    1.54
   8   0   3    1.16    0.74
  -8   1  -3    4.66    1.96
   8  -1   3    6.43    2.67
   8  -1   3    6.60    2.14
  -8   2  -3   38.74    7.48
   8  -2   3   42.85    4.75
   8  -2   3   33.57    7.97
  -8   3  -3    2.09    0.66
   8  -3   3    0.53    2.54
   8  -3   3    2.24    2.05
  -8   4  -3   28.73    6.63
   8  -4   3   30.12    3.75
   8  -4   3   29.63    8.59
  -8   5  -3    1.40    0.71
   8  -5   3    1.65    1.91
   8  -5   3    2.11    1.90
  -8   6  -3    4.14    1.76
   8  -6   3    7.95    3.59
   8  -6   3    1.14    2.36
   8   5   4   -1.10    1.99
   8   5   4    1.63    1.61
  -8  -4  -4    3.37    2.59
   8   4   4    5.04    3.12
   8   4   4    1.48    1.37
  -8  -3  -4   52.29    4.62
   8   3   4   50.27    5.24
   8   3   4   28.67    8.13
  -8  -2  -4   19.69    2.91
   8   2   4   15.89    3.48
   8   2   4   11.15    3.46
  -8  -1  -4    5.13    2.20
   8   1   4    1.56    2.00
  -8   0  -4   80.77    5.16
   8   0   4   80.09    5.73
   8   0   4   57.09   15.65
  -8   1  -4    4.34    1.54
   8  -1   4    1.32    3.02
   8  -1   4    4.60    2.97
  -8   2  -4   12.42    3.39
   8  -2   4   15.55    3.40
   8  -2   4   10.48    3.38
  -8   3  -4   44.13    9.89
   8  -3   4   54.94    5.48
   8  -3   4   36.09   11.07
  -8   4  -4    0.72    0.78
   8  -4   4   -0.47    2.28
   8  -4   4    3.50    1.85
  -8   5  -4    0.64    0.72
  -8  -4  -5  111.81    6.41
   8   4   5  125.95    8.00
   8   4   5   69.09   10.82
  -8  -3  -5    6.51    2.37
   8   3   5    4.32    2.64
  -8  -2  -5  156.92    6.60
   8   2   5  155.34    7.72
   8   2   5   96.99   14.65
  -8  -1  -5    3.13    1.63
   8   1   5    5.81    2.60
   8   1   5    0.77    0.86
  -8   0  -5   -1.46    1.46
   8   0   5   -0.87    2.21
   8   0   5    1.98    0.88
  -8   1  -5    3.93    2.23
   8  -1   5    5.84    3.72
   8  -1   5    1.87    1.18
  -8   2  -5  147.79   16.42
   8  -2   5  146.35    9.17
   8  -2   5  105.51   13.07
  -8   3  -5    9.17    3.22
   8  -3   5    5.86    3.30
   8  -3   5    1.58    1.68
  -8   4  -5  124.61    6.78
   8  -4   5  103.98    6.92
   8  -4   5   84.72   14.15
  -8  -2  -6  105.46    6.31
   8   2   6   97.45    7.09
  -8  -1  -6    0.74    1.34
   8   1   6   -1.67    2.57
   8   1   6   -0.97    1.32
  -8   0  -6   92.75    5.76
   8   0   6   92.36    6.95
   8   0   6   40.85   13.36
  -8   1  -6    0.99    1.07
   8  -1   6   -0.28    2.22
  -8   2  -6  110.16   10.30
   8  -2   6   95.13    6.68
   8  -2   6   50.08   17.13
   8  -3   6   11.92    3.20
   9   2  -2   16.82    4.37
   9   1  -2   57.93    5.53
   9   0  -2   13.26    4.28
   9  -1  -2   51.97    5.41
   9  -2  -2   10.27    3.18
   9   2  -1   26.58    4.95
   9   1  -1   29.40    4.90
   9   0  -1    2.53    2.36
   9  -1  -1   29.83    4.30
   9  -2  -1   18.66    3.54
   9  -2  -1   20.41    4.74
   9   2   0    2.20    3.25
   9   1   0   26.99    4.56
   9   0   0    1.31    2.01
   9  -1   0   34.36    4.97
   9  -1   0   22.88    4.61
   9  -2   0    1.41    2.00
   9  -2   0    3.10    3.49
   9   2   1   18.44    3.35
   9   1   1   24.73    3.91
   9   1   1   19.70    4.70
   9   0   1   -2.75    1.92
  -9   1  -1   24.89    6.74
   9  -1   1   25.94    3.98
   9  -1   1   22.40    4.83
   9  -2   1   19.28    3.60
   9  -2   1   14.05    4.00
   9   2   2   14.85    3.12
   9   1   2   65.35    5.59
   9   1   2   50.72    5.85
  -9   0  -2    8.56    2.29
   9   0   2   13.11    3.17
   9   0   2    7.27    2.58
  -9   1  -2   46.16   11.24
   9  -1   2   51.30    5.11
   9  -1   2   36.38    9.75
   9  -2   2   10.46    2.80
   0   0   0    0.00    0.00
;
_shelx_hkl_checksum              86502
loop_
_space_group_symop_operation_xyz
'x, y, z'
'-x+1/2, -y+1/2, z+1/2'
'-x, y, -z+1/2'
'x+1/2, -y+1/2, -z'
'-x, -y, -z'
'x-1/2, y-1/2, -z-1/2'
'x, -y, z-1/2'
'-x-1/2, y-1/2, z'
loop_
_atom_site_label
_atom_site_type_symbol
_atom_site_fract_x
_atom_site_fract_y
_atom_site_fract_z
_atom_site_U_iso_or_equiv
_atom_site_adp_type
_atom_site_occupancy
_atom_site_site_symmetry_order
_atom_site_calc_flag
_atom_site_refinement_flags_posn
_atom_site_refinement_flags_adp
_atom_site_refinement_flags_occupancy
_atom_site_disorder_assembly
_atom_site_disorder_group
Rb1 Rb 0.00910(7) 0.32748(5) 0.93588(5) 0.0267(3) Uani 1 1 d . . . . .
Mn1 Mn 0.0000 0.15343(9) 1.2500 0.0152(3) Uani 1 2 d S T P . .
Mn2 Mn 0.0000 0.0000 1.0000 0.0160(3) Uani 1 2 d S . P . .
V1 V 0.21916(12) 0.41518(7) 1.25285(6) 0.0141(3) Uani 1 1 d . . . . .
F1 F -0.1136(4) 0.1490(2) 1.0758(2) 0.0229(7) Uani 1 1 d . . . . .
O1 O 0.3465(5) 0.5056(3) 1.1671(3) 0.0205(7) Uani 1 1 d . . . . .
O2 O 0.2936(5) 0.4073(3) 1.3977(3) 0.0313(9) Uani 1 1 d . . . . .
O3 O 0.2012(5) 0.2821(3) 1.1928(3) 0.0258(8) Uani 1 1 d . . . . .
O4 O 0.0000 0.4825(5) 1.2500 0.0345(16) Uani 1 2 d S T P . .
loop_
_atom_site_aniso_label
_atom_site_aniso_U_11
_atom_site_aniso_U_22
_atom_site_aniso_U_33
_atom_site_aniso_U_23
_atom_site_aniso_U_13
_atom_site_aniso_U_12
Rb1 0.0286(4) 0.0247(4) 0.0269(4) 0.0043(2) 0.00001(18) -0.00305(18)
Mn1 0.0188(6) 0.0120(5) 0.0148(6) 0.000 -0.0014(3) 0.000
Mn2 0.0192(6) 0.0144(6) 0.0143(6) -0.0005(4) -0.0004(3) -0.0004(3)
V1 0.0162(5) 0.0116(5) 0.0146(5) -0.0005(3) 0.0017(3) -0.0022(3)
F1 0.0257(16) 0.0215(14) 0.0214(14) -0.0018(11) -0.0038(11) 0.0050(12)
O1 0.0219(17) 0.0194(16) 0.0202(16) 0.0020(13) 0.0003(14) -0.0056(13)
O2 0.039(2) 0.032(2) 0.0230(19) 0.0050(15) -0.0055(16) -0.0159(17)
O3 0.030(2) 0.0189(17) 0.0290(19) -0.0052(15) 0.0068(15) -0.0052(14)
O4 0.018(3) 0.017(3) 0.069(5) 0.000 0.008(2) 0.000
loop_
_atom_type_symbol
_atom_type_description
_atom_type_scat_dispersion_real
_atom_type_scat_dispersion_imag
_atom_type_scat_source
O O 0.0106 0.0060 'International Tables Vol C Tables 4.2.6.8 and 6.1.1.4'
F F 0.0171 0.0103 'International Tables Vol C Tables 4.2.6.8 and 6.1.1.4'
V V 0.3005 0.5294 'International Tables Vol C Tables 4.2.6.8 and 6.1.1.4'
Mn Mn 0.3368 0.7283 'International Tables Vol C Tables 4.2.6.8 and 6.1.1.4'
Rb Rb -0.9393 2.9676 'International Tables Vol C Tables 4.2.6.8 and 6.1.1.4'
loop_
_geom_angle_atom_site_label_1
_geom_angle_atom_site_label_2
_geom_angle_atom_site_label_3
_geom_angle
_geom_angle_site_symmetry_1
_geom_angle_site_symmetry_3
F1 Rb1 F1 115.55(8) . 4_557
F1 Rb1 O3 71.54(9) . 4_457
F1 Rb1 O3 141.85(9) 4_557 4_457
F1 Rb1 O4 158.27(7) . 5_567
F1 Rb1 O4 85.47(6) 4_557 5_567
O3 Rb1 O4 88.61(9) 4_457 5_567
F1 Rb1 O2 69.35(9) . 3_557
F1 Rb1 O2 137.29(10) 4_557 3_557
O3 Rb1 O2 80.86(10) 4_457 3_557
O4 Rb1 O2 99.50(9) 5_567 3_557
F1 Rb1 O2 64.66(9) . 2_554
F1 Rb1 O2 67.03(9) 4_557 2_554
O3 Rb1 O2 85.85(9) 4_457 2_554
O4 Rb1 O2 124.10(9) 5_567 2_554
O2 Rb1 O2 133.99(7) 3_557 2_554
F1 Rb1 O3 62.15(8) . .
F1 Rb1 O3 67.06(8) 4_557 .
O3 Rb1 O3 133.67(7) 4_457 .
O4 Rb1 O3 136.62(9) 5_567 .
O2 Rb1 O3 81.75(9) 3_557 .
O2 Rb1 O3 76.29(9) 2_554 .
F1 Rb1 O1 110.40(8) . 5_567
F1 Rb1 O1 133.72(8) 4_557 5_567
O3 Rb1 O1 59.72(8) 4_457 5_567
O4 Rb1 O1 49.68(5) 5_567 5_567
O2 Rb1 O1 57.18(8) 3_557 5_567
O2 Rb1 O1 143.39(9) 2_554 5_567
O3 Rb1 O1 135.99(8) . 5_567
F1 Rb1 Mn2 31.51(6) . .
F1 Rb1 Mn2 96.92(6) 4_557 .
O3 Rb1 Mn2 69.68(7) 4_457 .
O4 Rb1 Mn2 147.69(8) 5_567 .
O2 Rb1 Mn2 100.23(8) 3_557 .
O2 Rb1 Mn2 34.44(7) 2_554 .
O3 Rb1 Mn2 71.72(6) . .
O1 Rb1 Mn2 126.44(5) 5_567 .
F1 Rb1 V1 175.33(6) . 7_565
F1 Rb1 V1 60.42(6) 4_557 7_565
O3 Rb1 V1 113.05(7) 4_457 7_565
O4 Rb1 V1 26.29(3) 5_567 7_565
O2 Rb1 V1 111.71(8) 3_557 7_565
O2 Rb1 V1 114.04(7) 2_554 7_565
O3 Rb1 V1 113.28(6) . 7_565
O1 Rb1 V1 73.43(6) 5_567 7_565
Mn2 Rb1 V1 148.03(2) . 7_565
F1 Rb1 V1 80.54(6) . .
F1 Rb1 V1 67.63(6) 4_557 .
O3 Rb1 V1 146.41(8) 4_457 .
O4 Rb1 V1 114.58(8) 5_567 .
O2 Rb1 V1 71.91(7) 3_557 .
O2 Rb1 V1 98.96(7) 2_554 .
O3 Rb1 V1 24.60(6) . .
O1 Rb1 V1 116.44(6) 5_567 .
Mn2 Rb1 V1 95.805(18) . .
V1 Rb1 V1 95.40(2) 7_565 .
F1 Rb1 V1 64.34(6) . 3_557
F1 Rb1 V1 116.34(6) 4_557 3_557
O3 Rb1 V1 100.70(7) 4_457 3_557
O4 Rb1 V1 112.72(7) 5_567 3_557
O2 Rb1 V1 23.69(7) 3_557 3_557
O2 Rb1 V1 122.97(7) 2_554 3_557
O3 Rb1 V1 58.44(6) . 3_557
O1 Rb1 V1 78.83(6) 5_567 3_557
Mn2 Rb1 V1 95.128(18) . 3_557
V1 Rb1 V1 114.66(2) 7_565 3_557
V1 Rb1 V1 49.02(3) . 3_557
F1 Mn1 F1 177.17(16) . 3_557
F1 Mn1 O3 89.98(12) . 3_557
F1 Mn1 O3 91.93(12) 3_557 3_557
F1 Mn1 O3 91.93(13) . .
F1 Mn1 O3 89.98(12) 3_557 .
O3 Mn1 O3 94.91(19) 3_557 .
F1 Mn1 O1 98.22(12) . 6_558
F1 Mn1 O1 79.60(11) 3_557 6_558
O3 Mn1 O1 93.15(12) 3_557 6_558
O3 Mn1 O1 167.03(13) . 6_558
F1 Mn1 O1 79.60(11) . 8_655
F1 Mn1 O1 98.22(11) 3_557 8_655
O3 Mn1 O1 167.03(13) 3_557 8_655
O3 Mn1 O1 93.15(12) . 8_655
O1 Mn1 O1 80.85(17) 6_558 8_655
F1 Mn1 Rb1 39.82(8) . .
F1 Mn1 Rb1 142.48(8) 3_557 .
O3 Mn1 Rb1 85.04(10) 3_557 .
O3 Mn1 Rb1 53.23(10) . .
O1 Mn1 Rb1 137.86(8) 6_558 .
O1 Mn1 Rb1 91.70(8) 8_655 .
F1 Mn1 Rb1 142.48(8) . 3_557
F1 Mn1 Rb1 39.81(8) 3_557 3_557
O3 Mn1 Rb1 53.23(10) 3_557 3_557
O3 Mn1 Rb1 85.04(9) . 3_557
O1 Mn1 Rb1 91.70(8) 6_558 3_557
O1 Mn1 Rb1 137.86(8) 8_655 3_557
Rb1 Mn1 Rb1 119.13(3) . 3_557
F1 Mn1 Rb1 143.01(8) . 2
F1 Mn1 Rb1 37.24(8) 3_557 2
O3 Mn1 Rb1 114.86(10) 3_557 2
O3 Mn1 Rb1 60.55(10) . 2
O1 Mn1 Rb1 106.76(9) 6_558 2
O1 Mn1 Rb1 78.00(9) 8_655 2
Rb1 Mn1 Rb1 112.113(16) . 2
Rb1 Mn1 Rb1 64.536(12) 3_557 2
F1 Mn1 Rb1 37.24(8) . 4_457
F1 Mn1 Rb1 143.01(8) 3_557 4_457
O3 Mn1 Rb1 60.54(10) 3_557 4_457
O3 Mn1 Rb1 114.85(10) . 4_457
O1 Mn1 Rb1 78.00(9) 6_558 4_457
O1 Mn1 Rb1 106.76(9) 8_655 4_457
Rb1 Mn1 Rb1 64.537(12) . 4_457
Rb1 Mn1 Rb1 112.113(16) 3_557 4_457
Rb1 Mn1 Rb1 173.95(3) 2 4_457
F1 Mn1 Rb1 85.87(8) . 4_557
F1 Mn1 Rb1 94.28(8) 3_557 4_557
O3 Mn1 Rb1 134.23(10) 3_557 4_557
O3 Mn1 Rb1 39.91(9) . 4_557
O1 Mn1 Rb1 132.56(9) 6_558 4_557
O1 Mn1 Rb1 53.26(9) 8_655 4_557
Rb1 Mn1 Rb1 63.416(12) . 4_557
Rb1 Mn1 Rb1 113.297(16) 3_557 4_557
Rb1 Mn1 Rb1 57.14(2) 2 4_557
Rb1 Mn1 Rb1 122.49(2) 4_457 4_557
F1 Mn1 Rb1 94.28(8) . 2_455
F1 Mn1 Rb1 85.86(8) 3_557 2_455
O3 Mn1 Rb1 39.91(9) 3_557 2_455
O3 Mn1 Rb1 134.23(10) . 2_455
O1 Mn1 Rb1 53.26(9) 6_558 2_455
O1 Mn1 Rb1 132.56(9) 8_655 2_455
Rb1 Mn1 Rb1 113.297(16) . 2_455
Rb1 Mn1 Rb1 63.416(12) 3_557 2_455
Rb1 Mn1 Rb1 122.49(2) 2 2_455
Rb1 Mn1 Rb1 57.14(2) 4_457 2_455
Rb1 Mn1 Rb1 174.11(3) 4_557 2_455
F1 Mn2 F1 180.0 5_557 .
F1 Mn2 O1 98.38(11) 5_557 8_655
F1 Mn2 O1 81.62(11) . 8_655
F1 Mn2 O1 81.62(11) 5_557 4_457
F1 Mn2 O1 98.38(11) . 4_457
O1 Mn2 O1 180.0 8_655 4_457
F1 Mn2 O2 94.68(13) 5_557 6_558
F1 Mn2 O2 85.32(13) . 6_558
O1 Mn2 O2 87.40(13) 8_655 6_558
O1 Mn2 O2 92.60(13) 4_457 6_558
F1 Mn2 O2 85.32(13) 5_557 2_554
F1 Mn2 O2 94.68(13) . 2_554
O1 Mn2 O2 92.60(13) 8_655 2_554
O1 Mn2 O2 87.40(13) 4_457 2_554
O2 Mn2 O2 180.0 6_558 2_554
F1 Mn2 Rb1 137.05(8) 5_557 .
F1 Mn2 Rb1 42.95(8) . .
O1 Mn2 Rb1 96.59(8) 8_655 .
O1 Mn2 Rb1 83.41(8) 4_457 .
O2 Mn2 Rb1 126.08(11) 6_558 .
O2 Mn2 Rb1 53.92(11) 2_554 .
F1 Mn2 Rb1 42.95(8) 5_557 5_557
F1 Mn2 Rb1 137.05(8) . 5_557
O1 Mn2 Rb1 83.41(8) 8_655 5_557
O1 Mn2 Rb1 96.59(8) 4_457 5_557
O2 Mn2 Rb1 53.92(11) 6_558 5_557
O2 Mn2 Rb1 126.08(11) 2_554 5_557
Rb1 Mn2 Rb1 180.0 . 5_557
F1 Mn2 Rb1 36.35(8) 5_557 8_655
F1 Mn2 Rb1 143.65(8) . 8_655
O1 Mn2 Rb1 72.29(9) 8_655 8_655
O1 Mn2 Rb1 107.71(9) 4_457 8_655
O2 Mn2 Rb1 117.49(11) 6_558 8_655
O2 Mn2 Rb1 62.51(11) 2_554 8_655
Rb1 Mn2 Rb1 114.825(12) . 8_655
Rb1 Mn2 Rb1 65.175(12) 5_557 8_655
F1 Mn2 Rb1 143.65(8) 5_557 4_457
F1 Mn2 Rb1 36.35(8) . 4_457
O1 Mn2 Rb1 107.71(9) 8_655 4_457
O1 Mn2 Rb1 72.29(9) 4_457 4_457
O2 Mn2 Rb1 62.51(11) 6_558 4_457
O2 Mn2 Rb1 117.49(11) 2_554 4_457
Rb1 Mn2 Rb1 65.175(12) . 4_457
Rb1 Mn2 Rb1 114.825(12) 5_557 4_457
Rb1 Mn2 Rb1 180.0 8_655 4_457
F1 Mn2 Rb1 95.20(8) 5_557 4_557
F1 Mn2 Rb1 84.80(8) . 4_557
O1 Mn2 Rb1 52.14(9) 8_655 4_557
O1 Mn2 Rb1 127.86(9) 4_457 4_557
O2 Mn2 Rb1 139.33(10) 6_558 4_557
O2 Mn2 Rb1 40.67(10) 2_554 4_557
Rb1 Mn2 Rb1 63.986(12) . 4_557
Rb1 Mn2 Rb1 116.013(12) 5_557 4_557
Rb1 Mn2 Rb1 59.28(2) 8_655 4_557
Rb1 Mn2 Rb1 120.72(2) 4_457 4_557
F1 Mn2 Rb1 84.80(8) 5_557 8
F1 Mn2 Rb1 95.20(8) . 8
O1 Mn2 Rb1 127.86(9) 8_655 8
O1 Mn2 Rb1 52.14(9) 4_457 8
O2 Mn2 Rb1 40.67(10) 6_558 8
O2 Mn2 Rb1 139.33(10) 2_554 8
Rb1 Mn2 Rb1 116.014(12) . 8
Rb1 Mn2 Rb1 63.987(12) 5_557 8
Rb1 Mn2 Rb1 120.72(2) 8_655 8
Rb1 Mn2 Rb1 59.28(2) 4_457 8
Rb1 Mn2 Rb1 180.0 4_557 8
O2 V1 O3 110.13(18) . .
O2 V1 O1 111.71(17) . .
O3 V1 O1 113.29(16) . .
O2 V1 O4 109.71(15) . .
O3 V1 O4 108.5(2) . .
O1 V1 O4 103.22(19) . .
O2 V1 Rb1 72.05(14) . 7_566
O3 V1 Rb1 149.99(12) . 7_566
O1 V1 Rb1 92.02(11) . 7_566
O4 V1 Rb1 47.18(12) . 7_566
O2 V1 Rb1 161.25(13) . .
O3 V1 Rb1 52.26(13) . .
O1 V1 Rb1 83.99(11) . .
O4 V1 Rb1 74.78(8) . .
Rb1 V1 Rb1 119.17(3) 7_566 .
O2 V1 Rb1 46.70(13) . 3_557
O3 V1 Rb1 93.79(12) . 3_557
O1 V1 Rb1 151.49(11) . 3_557
O4 V1 Rb1 74.72(8) . 3_557
Rb1 V1 Rb1 65.34(2) 7_566 3_557
Rb1 V1 Rb1 121.49(3) . 3_557
O2 V1 Rb1 47.45(14) . 2
O3 V1 Rb1 65.83(13) . 2
O1 V1 Rb1 115.33(12) . 2
O4 V1 Rb1 140.17(11) . 2
Rb1 V1 Rb1 118.81(3) 7_566 2
Rb1 V1 Rb1 117.37(2) . 2
Rb1 V1 Rb1 66.734(17) 3_557 2
O2 V1 Rb1 131.75(14) . 5_567
O3 V1 Rb1 116.64(13) . 5_567
O1 V1 Rb1 59.51(12) . 5_567
O4 V1 Rb1 44.53(12) . 5_567
Rb1 V1 Rb1 61.73(2) 7_566 5_567
Rb1 V1 Rb1 64.54(2) . 5_567
Rb1 V1 Rb1 117.00(3) 3_557 5_567
Rb1 V1 Rb1 174.69(3) 2 5_567
O2 V1 Rb1 105.24(15) . 4_557
O3 V1 Rb1 38.44(12) . 4_557
O1 V1 Rb1 81.45(11) . 4_557
O4 V1 Rb1 139.62(11) . 4_557
Rb1 V1 Rb1 171.51(3) 7_566 4_557
Rb1 V1 Rb1 65.771(17) . 4_557
Rb1 V1 Rb1 119.01(2) 3_557 4_557
Rb1 V1 Rb1 60.21(2) 2 4_557
Rb1 V1 Rb1 118.37(3) 5_567 4_557
Mn1 F1 Mn2 102.58(12) . .
Mn1 F1 Rb1 110.92(12) . .
Mn2 F1 Rb1 105.54(11) . .
Mn1 F1 Rb1 116.27(12) . 4_457
Mn2 F1 Rb1 117.61(12) . 4_457
Rb1 F1 Rb1 103.56(9) . 4_457
V1 O1 Mn2 138.27(18) . 4_557
V1 O1 Mn1 122.13(17) . 6_668
Mn2 O1 Mn1 95.44(12) 4_557 6_668
V1 O1 Rb1 95.55(14) . 5_567
Mn2 O1 Rb1 98.47(11) 4_557 5_567
Mn1 O1 Rb1 95.41(10) 6_668 5_567
V1 O2 Mn2 133.5(2) . 2
V1 O2 Rb1 109.61(17) . 3_557
Mn2 O2 Rb1 111.42(14) 2 3_557
V1 O2 Rb1 109.20(18) . 2
Mn2 O2 Rb1 91.64(13) 2 2
Rb1 O2 Rb1 90.22(9) 3_557 2
V1 O3 Mn1 124.30(18) . .
V1 O3 Rb1 120.98(16) . 4_557
Mn1 O3 Rb1 111.70(13) . 4_557
V1 O3 Rb1 103.14(16) . .
Mn1 O3 Rb1 93.21(11) . .
Rb1 O3 Rb1 90.01(9) 4_557 .
V1 O4 V1 128.9(3) 3_557 .
V1 O4 Rb1 110.42(10) 3_557 7_566
V1 O4 Rb1 106.54(10) . 7_566
V1 O4 Rb1 106.54(10) 3_557 5_567
V1 O4 Rb1 110.41(10) . 5_567
Rb1 O4 Rb1 85.41(16) 7_566 5_567
loop_
_geom_bond_atom_site_label_1
_geom_bond_atom_site_label_2
_geom_bond_distance
_geom_bond_site_symmetry_2
Rb1 F1 2.726(3) .
Rb1 F1 2.823(3) 4_557
Rb1 O3 2.971(3) 4_457
Rb1 O4 2.993(4) 5_567
Rb1 O2 3.037(4) 3_557
Rb1 O2 3.117(4) 2_554
Rb1 O3 3.191(4) .
Rb1 O1 3.463(3) 5_567
Rb1 Mn2 3.8548(11) .
Rb1 V1 3.9118(11) 7_565
Rb1 V1 3.9293(11) .
Rb1 V1 3.9312(11) 3_557
Mn1 F1 2.081(3) .
Mn1 F1 2.081(3) 3_557
Mn1 O3 2.202(3) 3_557
Mn1 O3 2.202(3) .
Mn1 O1 2.247(3) 6_558
Mn1 O1 2.247(3) 8_655
Mn1 Rb1 3.9770(10) 3_557
Mn1 Rb1 4.1832(9) 2
Mn1 Rb1 4.1832(9) 4_457
Mn1 Rb1 4.3019(9) 4_557
Mn1 Rb1 4.3019(9) 2_455
Mn2 F1 2.091(3) 5_557
Mn2 F1 2.091(3) .
Mn2 O1 2.152(3) 8_655
Mn2 O1 2.152(3) 4_457
Mn2 O2 2.181(3) 6_558
Mn2 O2 2.181(4) 2_554
Mn2 Rb1 3.8548(11) 5_557
Mn2 Rb1 4.2204(9) 8_655
Mn2 Rb1 4.2204(9) 4_457
Mn2 Rb1 4.3381(10) 4_557
Mn2 Rb1 4.3381(10) 8
V1 O2 1.677(4) .
V1 O3 1.680(3) .
V1 O1 1.694(3) .
V1 O4 1.807(3) .
V1 Rb1 3.9118(11) 7_566
V1 Rb1 3.9313(11) 3_557
V1 Rb1 3.9955(11) 2
V1 Rb1 3.9995(11) 5_567
V1 Rb1 4.0966(11) 4_557
F1 Rb1 2.823(3) 4_457
O1 Mn2 2.152(3) 4_557
O1 Mn1 2.247(3) 6_668
O1 Rb1 3.463(3) 5_567
O2 Mn2 2.181(3) 2
O2 Rb1 3.037(4) 3_557
O2 Rb1 3.117(4) 2
O3 Rb1 2.971(3) 4_557
O4 V1 1.807(3) 3_557
O4 Rb1 2.993(4) 7_566
O4 Rb1 2.993(4) 5_567
